data_PCOD9017828
_publ_section_title
;
Structure prediction by ZEFSAII (Michael W. Deem and Ramdas Pophale) SiO2 
 PCOD9017828
Probable space group: P -1
;
_chemical_formula_sum "Si O2"
_cell_formula_units_Z 16
_cell_length_a 14.670836
_cell_length_b 9.295802
_cell_length_c 15.041328
_cell_angle_alpha 98.634369
_cell_angle_beta 140.881790
_cell_angle_gamma 51.425129
_cell_volume 745.219170
_symmetry_space_group_name_H-M "P -1"
_symmetry_group_IT_number 2
_symmetry_cell_setting 'triclinic'
loop_
_space_group_symop_operation_xyz
x,y,z
-x,-y,-z
loop_
_atom_site_type_symbol
_atom_site_label
_atom_site_fract_x
_atom_site_fract_y
_atom_site_fract_z
Si Si1 0.192206 0.151217 0.609490
Si Si2 0.810849 0.389116 0.191709
Si Si3 0.731928 0.606305 0.408949
Si Si4 0.548074 0.795688 0.487665
Si Si5 0.272013 0.397399 0.022214
Si Si6 0.353526 0.787403 0.010873
Si Si7 0.969148 0.703732 0.110955
Si Si8 0.963509 0.864292 0.935577
O O1 0.279816 0.236131 0.644637
O O2 0.025431 0.217355 0.411461
O O3 0.008081 0.323584 0.569457
O O4 0.435059 0.861886 0.788578
O O5 0.552301 0.638336 0.068124
O O6 0.850373 0.477422 0.154809
O O7 0.776445 0.261065 0.107124
O O8 0.668700 0.688323 0.470497
O O9 0.528904 0.661876 0.219049
O O10 0.740464 0.558245 0.675867
O O11 0.500000 0.000000 0.500000
O O12 0.276752 0.948760 0.291152
O O13 0.157506 0.348385 0.975602
O O14 0.196940 0.598146 0.041288
O O15 0.153510 0.079324 0.894804
O O16 0.916917 0.807743 0.983454
O O17 0.000000 0.000000 0.000000
#
# Coordination Sequence:
#
# PCOD9017828 Si02
#       8
#     2   2   2   2   2   2   2   2
#     4  10  22  40  67  99 134 175 221 276 326 401
#     4  10  24  41  65 100 138 177 219 277 337 394
#     4  10  21  43  66  96 140 174 215 279 336 389
#     4  12  26  43  70 100 134 178 228 278 333 404
#     4  12  24  40  72 102 133 176 229 277 329 406
#     4  10  21  45  65  94 144 178 217 278 336 396
#     4  12  25  43  72  98 132 183 227 277 334 406
#     4  12  28  48  69  98 139 177 224 288 343 392
#
# _framework density 21.470193999999999
#
# number of rings (size 3 to 8) (size 9 to 14) (size 15 to 20)
#    0.000    1.000    3.750    1.875    3.500    2.000 
#    0.000    1.875    0.000    0.000    0.000    0.000 
#    0.000    0.000    0.000    0.000    0.000    0.000 
#
# Total GULP energy -89510.592523 kJ/mol
# GULP energy per Si atom -5594.412033 kJ/mol
# Density = 2.142133 g / cm^3
# Si number density = 21.470194 Si / 1000 Ang^3
#
#
#
# Elastic Constant Matrix: (Units=GPa)
#
#
# Indices 1 2 3 4 5 6 
#
# 1 49.8670 9.2766 -4.6129 3.4720 -8.5885 -2.9197
# 2 9.2766 136.7609 42.4913 -11.6432 13.6401 -11.4173
# 3 -4.6129 42.4913 108.4958 -13.3676 15.0471 2.6589
# 4 3.4720 -11.6432 -13.3676 44.6367 0.3165 8.2112
# 5 -8.5885 13.6401 15.0471 0.3165 24.2604 3.9684
# 6 -2.9197 -11.4173 2.6589 8.2112 3.9684 28.6003
#
#
#
# Elastic Compliance Matrix: (Units=1/GPa)
#
#
# Indices 1 2 3 4 5 6 
#
# 1 0.022380 -0.002723 0.000430 -0.002499 0.009120 0.000610
# 2 -0.002723 0.009386 -0.003072 0.001010 -0.005030 0.004163
# 3 0.000430 -0.003072 0.011567 0.003118 -0.004932 -0.002469
# 4 -0.002499 0.001010 0.003118 0.025099 -0.002571 -0.006991
# 5 0.009120 -0.005030 -0.004932 -0.002571 0.051518 -0.007029
# 6 0.000610 0.004163 -0.002469 -0.006991 -0.007029 0.039901
#
#
# Mechanical properties :
#
#
# Convention : Reuss Voigt Hill
#
# Bulk Modulus (GPa) = 30.67085 43.27042 36.97064
# Shear Modulus (GPa) = 27.55599 36.03073 31.79336
#
# Velocity S-wave (km/s) = 3.58642 4.10100 3.85231
# Velocity P-wave (km/s) = 5.60947 6.52853 6.08637
#
# Compressibility (1/GPa) = 0.03260424
#
# Stress axis : x y z
#
# Youngs Moduli (GPa) = 44.68247 106.53768 86.45320
#
# Poissons Ratio (x) = 0.29013 -0.03721
# Poissons Ratio (y) = 0.12168 0.26556
# Poissons Ratio (z) = -0.01923 0.32726
#
# Static dielectric constant tensor:
#      x y z
#    x 1.786470 -0.029900 0.007060 
#    y -0.029900 1.755200 0.008640 
#    z 0.007060 0.008640 1.766560 
# 
# From -- ./inp_files/315044.got.cif
#   From: 2010.05.17/outbox.cif.g08.bks.cpg/sg2_158_cif.got.tgz:315044.got - 2010.06.03 11:33:40.
