data_PCOD9017964
_publ_section_title
;
Structure prediction by ZEFSAII (Michael W. Deem and Ramdas Pophale) SiO2 
 PCOD9017964
Probable space group: P -1
;
_chemical_formula_sum "Si O2"
_cell_formula_units_Z 14
_cell_length_a 7.692688
_cell_length_b 7.320854
_cell_length_c 11.245360
_cell_angle_alpha 79.333637
_cell_angle_beta 103.422268
_cell_angle_gamma 77.418976
_cell_volume 582.398964
_symmetry_space_group_name_H-M "P -1"
_symmetry_group_IT_number 2
_symmetry_cell_setting 'triclinic'
loop_
_space_group_symop_operation_xyz
x,y,z
-x,-y,-z
loop_
_atom_site_type_symbol
_atom_site_label
_atom_site_fract_x
_atom_site_fract_y
_atom_site_fract_z
Si Si1 0.191617 0.360327 0.594635
Si Si2 0.568803 0.024770 0.290786
Si Si3 0.047413 0.155440 0.901129
Si Si4 0.677047 0.208276 0.079359
Si Si5 0.927125 0.458075 0.195035
Si Si6 0.348313 0.343243 0.370851
Si Si7 0.637774 0.284473 0.789695
O O1 0.227296 0.126359 0.637385
O O2 0.190154 0.441383 0.719160
O O3 0.325984 0.373017 0.504555
O O4 0.000000 0.500000 0.500000
O O5 0.455480 0.877123 0.248272
O O6 0.542186 0.194818 0.167045
O O7 0.484102 0.139936 0.380105
O O8 0.076741 0.360966 0.914743
O O9 0.855122 0.217217 0.791668
O O10 0.234665 0.021956 0.894648
O O11 0.000000 0.000000 0.000000
O O12 0.830392 0.308383 0.139948
O O13 0.618307 0.294032 0.929587
O O14 0.140541 0.363409 0.280629
O O15 0.426080 0.507405 0.303478
#
# Coordination Sequence:
#
# PCOD9017964 Si02
#       7
#     2   2   2   2   2   2   2
#     4  10  23  47  70  91 129 172 226 275 319 388
#     4  12  24  42  67  99 134 170 217 271 336 385
#     4   9  19  38  64  93 131 172 220 256 314 382
#     4  11  23  39  68 101 134 174 219 259 332 396
#     4  10  21  43  67  96 130 175 218 270 316 386
#     4  10  24  44  66  97 131 172 222 266 332 380
#     4  10  24  41  64  99 139 173 209 272 325 395
#
# _framework density 24.038504
#
# number of rings (size 3 to 8) (size 9 to 14) (size 15 to 20)
#    0.000    1.714    1.429    1.714    2.000    8.571 
#    2.571    1.429    0.000    0.000    0.000    0.000 
#    0.000    0.000    0.000    0.000    0.000    0.000 
#
# Total GULP energy -78068.321840 kJ/mol
# GULP energy per Si atom -5576.308703 kJ/mol
# Density = 2.398379 g / cm^3
# Si number density = 24.038504 Si / 1000 Ang^3
#
#
#
# Elastic Constant Matrix: (Units=GPa)
#
#
# Indices 1 2 3 4 5 6 
#
# 1 46.8714 17.2404 26.7372 4.6021 -8.4897 4.8445
# 2 17.2404 106.4572 50.4806 -8.3072 2.9456 1.2485
# 3 26.7372 50.4806 123.8916 -17.8122 -20.0399 1.5883
# 4 4.6021 -8.3072 -17.8122 36.9089 8.2423 -10.4294
# 5 -8.4897 2.9456 -20.0399 8.2423 42.0390 5.1137
# 6 4.8445 1.2485 1.5883 -10.4294 5.1137 52.9914
#
#
#
# Elastic Compliance Matrix: (Units=1/GPa)
#
#
# Indices 1 2 3 4 5 6 
#
# 1 0.027754 -0.002870 -0.005157 -0.009194 0.005719 -0.004677
# 2 -0.002870 0.012426 -0.004856 0.002028 -0.004275 0.000927
# 3 -0.005157 -0.004856 0.012538 0.004872 0.004228 0.000761
# 4 -0.009194 0.002028 0.004872 0.035076 -0.007561 0.008280
# 5 0.005719 -0.004275 0.004228 -0.007561 0.029332 -0.004867
# 6 -0.004677 0.000927 0.000761 0.008280 -0.004867 0.021353
#
#
# Mechanical properties :
#
#
# Convention : Reuss Voigt Hill
#
# Bulk Modulus (GPa) = 37.10226 51.79296 44.44761
# Shear Modulus (GPa) = 28.86353 38.57200 33.71776
#
# Velocity S-wave (km/s) = 3.46890 4.01008 3.74927
# Velocity P-wave (km/s) = 5.61359 6.56000 6.10516
#
# Compressibility (1/GPa) = 0.02695254
#
# Stress axis : x y z
#
# Youngs Moduli (GPa) = 36.03030 80.47345 79.76058
#
# Poissons Ratio (x) = 0.23097 0.41133
# Poissons Ratio (y) = 0.10341 0.38729
# Poissons Ratio (z) = 0.18581 0.39076
#
# Static dielectric constant tensor:
#      x y z
#    x 2.105120 -0.075070 -0.082600 
#    y -0.075070 1.965540 -0.036830 
#    z -0.082600 -0.036830 2.011900 
# 
# From -- ./inp_files/373075.got.cif
#   From: 2010.05.17/outbox.cif.g08.bks.cpg/sg2_187_cif.got.tgz:373075.got - 2010.06.03 11:33:40.
