data_PCOD9017826
_publ_section_title
;
Structure prediction by ZEFSAII (Michael W. Deem and Ramdas Pophale) SiO2 
 PCOD9017826
Probable space group: P -1
;
_chemical_formula_sum "Si O2"
_cell_formula_units_Z 14
_cell_length_a 22.835240
_cell_length_b 5.382583
_cell_length_c 9.627842
_cell_angle_alpha 67.812426
_cell_angle_beta 147.915515
_cell_angle_gamma 98.888257
_cell_volume 548.110921
_symmetry_space_group_name_H-M "P -1"
_symmetry_group_IT_number 2
_symmetry_cell_setting 'triclinic'
loop_
_space_group_symop_operation_xyz
x,y,z
-x,-y,-z
loop_
_atom_site_type_symbol
_atom_site_label
_atom_site_fract_x
_atom_site_fract_y
_atom_site_fract_z
Si Si1 0.216964 0.241534 0.637499
Si Si2 0.265676 0.334581 0.270932
Si Si3 0.624038 0.030367 0.210319
Si Si4 0.095720 0.892904 0.833060
Si Si5 0.061942 0.864343 0.294090
Si Si6 0.686435 0.940492 0.844950
Si Si7 0.490237 0.512562 0.648129
O O1 0.296126 0.235656 0.664296
O O2 0.135748 0.541647 0.471396
O O3 0.308912 0.118493 0.971937
O O4 0.140739 0.042295 0.480680
O O5 0.301926 0.024912 0.485462
O O6 0.381981 0.419637 0.502402
O O7 0.144460 0.556592 0.035991
O O8 0.263766 0.322707 0.102325
O O9 0.500000 0.000000 0.000000
O O10 0.597581 0.312573 0.999603
O O11 0.212804 0.923548 0.001781
O O12 0.000000 0.000000 0.500000
O O13 0.041034 0.090196 0.811005
O O14 0.000000 0.000000 0.000000
O O15 0.561120 0.149064 0.497875
O O16 0.500000 0.500000 0.500000
#
# Coordination Sequence:
#
# PCOD9017826 Si02
#       7
#     2   2   2   2   2   2   2
#     4  12  26  47  72 107 143 189 245 297 357 442
#     4  10  24  41  67 101 137 184 241 296 362 432
#     4  10  23  48  68 101 146 186 240 305 370 425
#     4  11  23  43  67  98 142 185 235 292 362 423
#     4  12  28  46  73 104 146 193 240 299 362 428
#     4  11  24  40  69 102 136 185 240 292 353 444
#     4  10  21  43  66  96 137 182 241 293 365 424
#
# _framework density 25.542273000000002
#
# number of rings (size 3 to 8) (size 9 to 14) (size 15 to 20)
#    0.000    1.143    2.857    2.143    6.000    2.286 
#    5.143    0.000    0.000    0.000    0.000    0.000 
#    0.000    0.000    0.000    0.000    0.000    0.000 
#
# Total GULP energy -78165.430102 kJ/mol
# GULP energy per Si atom -5583.245007 kJ/mol
# Density = 2.548414 g / cm^3
# Si number density = 25.542273 Si / 1000 Ang^3
#
#
#
# Elastic Constant Matrix: (Units=GPa)
#
#
# Indices 1 2 3 4 5 6 
#
# 1 117.9052 20.1584 33.0859 -10.6493 -4.1728 -21.7293
# 2 20.1584 108.3084 48.0152 -13.8263 11.1906 -18.1841
# 3 33.0859 48.0152 162.2904 -13.2911 -5.9253 5.6500
# 4 -10.6493 -13.8263 -13.2911 29.5455 -11.7092 2.6637
# 5 -4.1728 11.1906 -5.9253 -11.7092 37.3063 -4.7280
# 6 -21.7293 -18.1841 5.6500 2.6637 -4.7280 39.0907
#
#
#
# Elastic Compliance Matrix: (Units=1/GPa)
#
#
# Indices 1 2 3 4 5 6 
#
# 1 0.010611 0.000166 -0.002050 0.003481 0.002710 0.006363
# 2 0.000166 0.012517 -0.003838 0.002548 -0.002791 0.005959
# 3 -0.002050 -0.003838 0.008147 0.002474 0.002489 -0.003970
# 4 0.003481 0.002548 0.002474 0.042660 0.013598 0.001500
# 5 0.002710 -0.002791 0.002489 0.013598 0.032978 0.002911
# 6 0.006363 0.005959 -0.003970 0.001500 0.002911 0.032714
#
#
# Mechanical properties :
#
#
# Convention : Reuss Voigt Hill
#
# Bulk Modulus (GPa) = 50.42260 65.66922 58.04591
# Shear Modulus (GPa) = 31.70960 40.33813 36.02386
#
# Velocity S-wave (km/s) = 3.52725 3.97831 3.75955
# Velocity P-wave (km/s) = 6.03095 6.84605 6.45139
#
# Compressibility (1/GPa) = 0.01983238
#
# Stress axis : x y z
#
# Youngs Moduli (GPa) = 94.24073 79.88843 122.74450
#
# Poissons Ratio (x) = -0.01330 0.25163
# Poissons Ratio (y) = -0.01569 0.47110
# Poissons Ratio (z) = 0.19320 0.30661
#
# Static dielectric constant tensor:
#      x y z
#    x 4.539470 0.833530 -0.269200 
#    y 0.833530 2.399950 -0.162210 
#    z -0.269200 -0.162210 2.074140 
# 
# From -- ./inp_files/49052.got.cif
#   From: 2010.05.17/outbox.cif.g08.bks.cpg/sg2_25_cif.got.tgz:49052.got - 2010.06.03 11:33:40.
