data_PCOD9017709
_publ_section_title
;
Structure prediction by ZEFSAII (Michael W. Deem and Ramdas Pophale) SiO2 
 PCOD9017709
Probable space group: P -1
;
_chemical_formula_sum "Si O2"
_cell_formula_units_Z 13
_cell_length_a 9.731815
_cell_length_b 12.502452
_cell_length_c 7.846919
_cell_angle_alpha 48.423999
_cell_angle_beta 135.379089
_cell_angle_gamma 110.861598
_cell_volume 489.253018
_symmetry_space_group_name_H-M "P -1"
_symmetry_group_IT_number 2
_symmetry_cell_setting 'triclinic'
loop_
_space_group_symop_operation_xyz
x,y,z
-x,-y,-z
loop_
_atom_site_type_symbol
_atom_site_label
_atom_site_fract_x
_atom_site_fract_y
_atom_site_fract_z
Si Si1 0.706840 0.552630 0.128046
Si Si2 0.000000 0.000000 0.000000
Si Si3 0.102984 0.878693 0.921614
Si Si4 0.663588 0.646033 0.632684
Si Si5 0.692642 0.981671 0.344394
Si Si6 0.780160 0.429548 0.670899
Si Si7 0.364530 0.125698 0.129568
O O1 0.829572 0.465525 0.484109
O O2 0.500000 0.500000 0.000000
O O3 0.772727 0.556560 0.986580
O O4 0.648497 0.719706 0.961207
O O5 0.862249 0.890737 0.070135
O O6 0.835203 0.136039 0.812901
O O7 0.874260 0.974757 0.652016
O O8 0.214407 0.962280 0.801120
O O9 0.083128 0.725625 0.986203
O O10 0.653641 0.819130 0.464720
O O11 0.763315 0.567744 0.632791
O O12 0.437249 0.617441 0.465072
O O13 0.497564 0.098882 0.104873
O O14 0.500000 0.000000 0.500000
#
# Coordination Sequence:
#
# PCOD9017709 Si02
#       7
#     2   1   2   2   2   2   2
#     4  10  23  42  71 107 141 194 239 299 372 434
#     4  12  26  44  76 110 140 186 256 298 360 448
#     4  11  26  45  69 110 142 187 248 297 365 442
#     4  10  21  43  66 100 141 188 237 297 369 419
#     4  11  25  46  73 102 145 191 238 308 369 421
#     4  10  24  41  67 104 140 183 247 290 357 453
#     4  12  24  47  76 105 149 191 246 309 369 431
#
# _framework density 26.571116
#
# number of rings (size 3 to 8) (size 9 to 14) (size 15 to 20)
#    0.000    1.231    3.077    0.923   10.769    1.846 
#    2.769    3.077    0.000    0.000    0.000    0.000 
#    0.000    0.000    0.000    0.000    0.000    0.000 
#
# Total GULP energy -72547.090914 kJ/mol
# GULP energy per Si atom -5580.545455 kJ/mol
# Density = 2.651064 g / cm^3
# Si number density = 26.571116 Si / 1000 Ang^3
#
#
#
# Elastic Constant Matrix: (Units=GPa)
#
#
# Indices 1 2 3 4 5 6 
#
# 1 174.1378 21.9479 -0.9710 -2.3490 -9.9435 -5.6096
# 2 21.9479 146.6621 1.0351 -22.0016 9.5891 14.7353
# 3 -0.9710 1.0351 58.9946 10.4531 -3.8664 8.5981
# 4 -2.3490 -22.0016 10.4531 45.4788 7.9392 7.0607
# 5 -9.9435 9.5891 -3.8664 7.9392 39.5309 6.1596
# 6 -5.6096 14.7353 8.5981 7.0607 6.1596 45.2389
#
#
#
# Elastic Compliance Matrix: (Units=1/GPa)
#
#
# Indices 1 2 3 4 5 6 
#
# 1 0.006028 -0.001248 0.000246 -0.000825 0.001855 0.000983
# 2 -0.001248 0.008284 -0.000816 0.005126 -0.002950 -0.003096
# 3 0.000246 -0.000816 0.018473 -0.004780 0.003485 -0.002943
# 4 -0.000825 0.005126 -0.004780 0.027358 -0.006757 -0.004214
# 5 0.001855 -0.002950 0.003485 -0.006757 0.028536 -0.002302
# 6 0.000983 -0.003096 -0.002943 -0.004214 -0.002302 0.024766
#
#
# Mechanical properties :
#
#
# Convention : Reuss Voigt Hill
#
# Bulk Modulus (GPa) = 34.30750 47.09096 40.69923
# Shear Modulus (GPa) = 39.43304 49.90188 44.66746
#
# Velocity S-wave (km/s) = 3.85652 4.33835 4.10451
# Velocity P-wave (km/s) = 5.72451 6.54646 6.14923
#
# Compressibility (1/GPa) = 0.02914815
#
# Stress axis : x y z
#
# Youngs Moduli (GPa) = 165.90094 120.71603 54.13199
#
# Poissons Ratio (x) = 0.15062 -0.01330
# Poissons Ratio (y) = 0.20699 0.04419
# Poissons Ratio (z) = -0.04075 0.09854
#
# Static dielectric constant tensor:
#      x y z
#    x 2.113170 -0.070430 0.142480 
#    y -0.070430 2.430080 -0.137370 
#    z 0.142480 -0.137370 1.887400 
# 
# From -- ./inp_files/174644.got.cif
#   From: 2010.05.17/outbox.cif.g08.bks.cpg/sg2_88_cif.got.tgz:174644.got - 2010.06.03 11:33:40.
