data_PCOD9017266
_publ_section_title
;
Structure prediction by ZEFSAII (Michael W. Deem and Ramdas Pophale) SiO2 
 PCOD9017266
Probable space group: P -1
;
_chemical_formula_sum "Si O2"
_cell_formula_units_Z 16
_cell_length_a 21.724619
_cell_length_b 10.515667
_cell_length_c 8.347439
_cell_angle_alpha 42.541310
_cell_angle_beta 126.244226
_cell_angle_gamma 147.653812
_cell_volume 687.263301
_symmetry_space_group_name_H-M "P -1"
_symmetry_group_IT_number 2
_symmetry_cell_setting 'triclinic'
loop_
_space_group_symop_operation_xyz
x,y,z
-x,-y,-z
loop_
_atom_site_type_symbol
_atom_site_label
_atom_site_fract_x
_atom_site_fract_y
_atom_site_fract_z
Si Si1 0.124424 0.603941 0.941904
Si Si2 0.372726 0.230318 0.114026
Si Si3 0.499984 0.715277 0.354715
Si Si4 0.132440 0.191691 0.280917
Si Si5 0.703898 0.222146 0.410909
Si Si6 0.068153 0.457364 0.371192
Si Si7 0.321860 0.443868 0.082031
Si Si8 0.280695 0.229299 0.670344
O O1 0.137164 0.423168 0.051822
O O2 0.106335 0.527694 0.176219
O O3 0.015313 0.514575 0.782976
O O4 0.230198 0.947597 0.766911
O O5 0.345863 0.289369 0.181153
O O6 0.360934 0.986217 0.342941
O O7 0.500000 0.500000 0.000000
O O8 0.288008 0.169559 0.915455
O O9 0.500000 0.500000 0.500000
O O10 0.437202 0.703890 0.121068
O O11 0.404001 0.531162 0.519139
O O12 0.623422 0.012393 0.331555
O O13 0.214255 0.250007 0.217608
O O14 0.192055 0.232947 0.499198
O O15 0.008205 0.866661 0.401435
O O16 0.828460 0.359625 0.510438
O O17 0.704425 0.446111 0.191684
#
# Coordination Sequence:
#
# PCOD9017266 Si02
#       8
#     2   2   2   2   2   2   2   2
#     4  10  21  42  72  99 139 177 230 281 345 401
#     4  12  24  46  68 104 141 177 226 288 333 407
#     4  11  22  46  68  96 140 178 222 280 344 410
#     4  10  24  44  69 100 140 180 226 285 336 407
#     4  12  25  42  70 100 139 179 228 280 340 404
#     4  10  23  42  68 104 132 183 230 279 341 399
#     4  11  27  44  70 101 140 184 227 275 349 406
#     4  10  22  40  71 101 130 180 227 277 345 404
#
# _framework density 23.280743999999999
#
# number of rings (size 3 to 8) (size 9 to 14) (size 15 to 20)
#    0.000    1.250    3.750    0.750    3.500    3.000 
#    4.500    1.250    0.000    0.000    0.000    0.000 
#    0.000    0.000    0.000    0.000    0.000    0.000 
#
# Total GULP energy -89293.982318 kJ/mol
# GULP energy per Si atom -5580.873895 kJ/mol
# Density = 2.322776 g / cm^3
# Si number density = 23.280744 Si / 1000 Ang^3
#
#
#
# Elastic Constant Matrix: (Units=GPa)
#
#
# Indices 1 2 3 4 5 6 
#
# 1 68.0161 24.7503 16.1150 -4.3127 10.4707 1.9959
# 2 24.7503 144.7134 31.8967 14.2190 9.7178 14.1604
# 3 16.1150 31.8967 136.1371 16.6745 26.9095 2.3760
# 4 -4.3127 14.2190 16.6745 36.3912 -0.9626 2.5408
# 5 10.4707 9.7178 26.9095 -0.9626 25.5967 -4.9800
# 6 1.9959 14.1604 2.3760 2.5408 -4.9800 12.1000
#
#
#
# Elastic Compliance Matrix: (Units=1/GPa)
#
#
# Indices 1 2 3 4 5 6 
#
# 1 0.016912 -0.002399 -0.000652 0.003292 -0.005765 -0.002917
# 2 -0.002399 0.009109 -0.000430 -0.002969 -0.004343 -0.011344
# 3 -0.000652 -0.000430 0.010535 -0.004676 -0.011863 -0.005358
# 4 0.003292 -0.002969 -0.004676 0.031350 0.005809 -0.000342
# 5 -0.005765 -0.004343 -0.011863 0.005809 0.062130 0.032714
# 6 -0.002917 -0.011344 -0.005358 -0.000342 0.032714 0.110989
#
#
# Mechanical properties :
#
#
# Convention : Reuss Voigt Hill
#
# Bulk Modulus (GPa) = 33.79345 54.93230 44.36288
# Shear Modulus (GPa) = 19.39106 33.22455 26.30781
#
# Velocity S-wave (km/s) = 2.88917 3.78183 3.36523
# Velocity P-wave (km/s) = 5.06724 6.53578 5.84779
#
# Compressibility (1/GPa) = 0.02959153
#
# Stress axis : x y z
#
# Youngs Moduli (GPa) = 59.12977 109.78449 94.92420
#
# Poissons Ratio (x) = 0.26343 0.06194
# Poissons Ratio (y) = 0.14188 0.04081
# Poissons Ratio (z) = 0.03858 0.04720
#
# Static dielectric constant tensor:
#      x y z
#    x 1.922650 0.036320 -0.032570 
#    y 0.036320 1.977140 0.020430 
#    z -0.032570 0.020430 1.885220 
# 
# From -- ./inp_files/353346.got.cif
#   From: 2010.05.17/outbox.cif.g08.bks.cpg/sg2_177_cif.got.tgz:353346.got - 2010.06.03 11:33:40.
