data_PCOD9017906
_publ_section_title
;
Structure prediction by ZEFSAII (Michael W. Deem and Ramdas Pophale) SiO2 
 PCOD9017906
Probable space group: P -1
;
_chemical_formula_sum "Si O2"
_cell_formula_units_Z 16
_cell_length_a 13.761940
_cell_length_b 9.538123
_cell_length_c 15.001845
_cell_angle_alpha 121.441298
_cell_angle_beta 121.386988
_cell_angle_gamma 110.109631
_cell_volume 766.816151
_symmetry_space_group_name_H-M "P -1"
_symmetry_group_IT_number 2
_symmetry_cell_setting 'triclinic'
loop_
_space_group_symop_operation_xyz
x,y,z
-x,-y,-z
loop_
_atom_site_type_symbol
_atom_site_label
_atom_site_fract_x
_atom_site_fract_y
_atom_site_fract_z
Si Si1 0.346955 0.748893 0.054754
Si Si2 0.450722 0.369159 0.201533
Si Si3 0.922086 0.308223 0.986946
Si Si4 0.298398 0.275841 0.391923
Si Si5 0.540700 0.659128 0.160188
Si Si6 0.364052 0.755261 0.774688
Si Si7 0.026835 0.232152 0.576353
Si Si8 0.024648 0.187415 0.138363
O O1 0.176037 0.489829 0.810556
O O2 0.250553 0.782040 0.077051
O O3 0.388896 0.631360 0.087882
O O4 0.577979 0.063092 0.222530
O O5 0.613893 0.647216 0.442051
O O6 0.492872 0.487348 0.163954
O O7 0.513630 0.258580 0.197145
O O8 0.206198 0.080930 0.016414
O O9 0.845944 0.048168 0.817255
O O10 0.061478 0.396956 0.165343
O O11 0.000000 0.500000 0.000000
O O12 0.500000 0.500000 0.500000
O O13 0.193958 0.326723 0.338221
O O14 0.500000 0.500000 0.000000
O O15 0.788652 0.008013 0.394438
O O16 0.139215 0.425372 0.600838
O O17 0.500000 0.000000 0.000000
O O18 0.000000 0.000000 0.500000
O O19 0.000000 0.000000 0.000000
#
# Coordination Sequence:
#
# PCOD9017906 Si02
#       8
#     2   2   2   2   2   2   2   2
#     4  11  24  45  64 100 144 174 220 288 353 398
#     4  12  23  43  72 100 134 187 231 278 338 412
#     4  11  25  43  67 102 147 174 215 295 342 395
#     4  11  23  45  71  97 133 181 241 272 324 422
#     4  12  26  43  70 104 136 181 235 283 346 419
#     4  10  21  43  67  91 138 173 218 292 336 394
#     4  11  22  43  70  95 131 181 235 281 333 414
#     4  10  22  44  70  96 134 184 229 268 342 407
#
# _framework density 20.865497999999999
#
# number of rings (size 3 to 8) (size 9 to 14) (size 15 to 20)
#    0.000    1.000    6.250    0.750    5.250    1.500 
#    4.500    1.250    0.000    0.000    0.000    0.000 
#    0.000    0.000    0.000    0.000    0.000    0.000 
#
# Total GULP energy -89137.356896 kJ/mol
# GULP energy per Si atom -5571.084806 kJ/mol
# Density = 2.081801 g / cm^3
# Si number density = 20.865498 Si / 1000 Ang^3
#
#
#
# Elastic Constant Matrix: (Units=GPa)
#
#
# Indices 1 2 3 4 5 6 
#
# 1 61.4993 4.5321 13.2058 -7.4489 -0.3547 3.3397
# 2 4.5321 127.9695 38.7344 -3.2606 -0.9293 9.4158
# 3 13.2058 38.7344 66.2998 -5.4623 12.1400 3.6668
# 4 -7.4489 -3.2606 -5.4623 35.3999 0.1132 5.3250
# 5 -0.3547 -0.9293 12.1400 0.1132 33.0228 -0.5000
# 6 3.3397 9.4158 3.6668 5.3250 -0.5000 40.7602
#
#
#
# Elastic Compliance Matrix: (Units=1/GPa)
#
#
# Indices 1 2 3 4 5 6 
#
# 1 0.017548 0.000771 -0.003862 0.003417 0.001593 -0.001695
# 2 0.000771 0.009834 -0.006237 0.000367 0.002549 -0.001791
# 3 -0.003862 -0.006237 0.021153 0.001978 -0.008008 -0.000502
# 4 0.003417 0.000367 0.001978 0.029982 -0.000851 -0.004470
# 5 0.001593 0.002549 -0.008008 -0.000851 0.033326 0.000521
# 6 -0.001695 -0.001791 -0.000502 -0.004470 0.000521 0.025722
#
#
# Mechanical properties :
#
#
# Convention : Reuss Voigt Hill
#
# Bulk Modulus (GPa) = 33.46733 40.96813 37.21773
# Shear Modulus (GPa) = 30.08785 35.12301 32.60543
#
# Velocity S-wave (km/s) = 3.80147 4.10726 3.95732
# Velocity P-wave (km/s) = 5.94497 6.49383 6.22545
#
# Compressibility (1/GPa) = 0.02987989
#
# Stress axis : x y z
#
# Youngs Moduli (GPa) = 56.98655 101.68369 47.27483
#
# Poissons Ratio (x) = -0.07838 0.18257
# Poissons Ratio (y) = -0.04393 0.29484
# Poissons Ratio (z) = 0.22008 0.63417
#
# Static dielectric constant tensor:
#      x y z
#    x 1.723280 0.021430 0.002410 
#    y 0.021430 1.785920 -0.005070 
#    z 0.002410 -0.005070 1.705190 
# 
# From -- ./inp_files/516133.got.cif
#   From: 2010.05.17/outbox.cif.g08.bks.cpg/sg2_259_cif.got.tgz:516133.got - 2010.06.03 11:33:40.
