data_PCOD9017075
_publ_section_title
;
Structure prediction by ZEFSAII (Michael W. Deem and Ramdas Pophale) SiO2 
 PCOD9017075
Probable space group: P -1
;
_chemical_formula_sum "Si O2"
_cell_formula_units_Z 14
_cell_length_a 9.339955
_cell_length_b 7.949596
_cell_length_c 10.608150
_cell_angle_alpha 62.334271
_cell_angle_beta 53.523852
_cell_angle_gamma 69.785144
_cell_volume 558.259197
_symmetry_space_group_name_H-M "P -1"
_symmetry_group_IT_number 2
_symmetry_cell_setting 'triclinic'
loop_
_space_group_symop_operation_xyz
x,y,z
-x,-y,-z
loop_
_atom_site_type_symbol
_atom_site_label
_atom_site_fract_x
_atom_site_fract_y
_atom_site_fract_z
Si Si1 0.138153 0.016685 0.809553
Si Si2 0.965904 0.555396 0.353288
Si Si3 0.403345 0.802196 0.114436
Si Si4 0.939787 0.954750 0.692381
Si Si5 0.531685 0.950979 0.644815
Si Si6 0.370229 0.652283 0.441115
Si Si7 0.693796 0.648830 0.834042
O O1 0.132918 0.238466 0.696447
O O2 0.088961 0.918440 0.736944
O O3 0.327803 0.942769 0.796697
O O4 0.000000 0.000000 0.000000
O O5 0.829907 0.408144 0.425476
O O6 0.000000 0.500000 0.500000
O O7 0.164155 0.532962 0.196666
O O8 0.441726 0.657280 0.260258
O O9 0.503021 0.679827 0.992475
O O10 0.195759 0.877492 0.228134
O O11 0.500000 0.000000 0.000000
O O12 0.387770 0.868385 0.399373
O O13 0.818477 0.782202 0.801173
O O14 0.000000 0.000000 0.500000
O O15 0.652799 0.760438 0.684338
O O16 0.500000 0.000000 0.500000
O O17 0.500000 0.500000 0.500000
#
# Coordination Sequence:
#
# PCOD9017075 Si02
#       7
#     2   2   2   2   2   2   2
#     4  12  28  48  72 109 153 188 242 316 378 431
#     4  12  27  48  74 110 144 193 254 305 360 450
#     4  10  21  42  71 100 141 187 243 294 363 433
#     4  11  21  42  75 103 137 199 249 291 359 453
#     4  12  25  46  72 108 145 193 239 302 374 438
#     4  12  25  46  72 104 148 189 238 305 366 433
#     4  11  25  43  76 104 139 194 251 296 365 439
#
# _framework density 25.077957999999999
#
# number of rings (size 3 to 8) (size 9 to 14) (size 15 to 20)
#    0.000    0.571    4.286    5.143    4.000    0.000 
#    2.571    5.000    0.000    0.000    0.000    0.000 
#    0.000    0.000    0.000    0.000    0.000    0.000 
#
# Total GULP energy -78277.315325 kJ/mol
# GULP energy per Si atom -5591.236809 kJ/mol
# Density = 2.502088 g / cm^3
# Si number density = 25.077958 Si / 1000 Ang^3
#
#
#
# Elastic Constant Matrix: (Units=GPa)
#
#
# Indices 1 2 3 4 5 6 
#
# 1 141.0510 21.3457 25.4563 12.7994 -12.3423 -18.3183
# 2 21.3457 103.6565 16.6443 14.6542 8.5094 -25.9304
# 3 25.4563 16.6443 125.3438 25.3665 -1.2802 -8.7525
# 4 12.7994 14.6542 25.3665 52.9544 -12.6151 5.5444
# 5 -12.3423 8.5094 -1.2802 -12.6151 42.1524 7.8451
# 6 -18.3183 -25.9304 -8.7525 5.5444 7.8451 44.2597
#
#
#
# Elastic Compliance Matrix: (Units=1/GPa)
#
#
# Indices 1 2 3 4 5 6 
#
# 1 0.007975 -0.000869 -0.001120 -0.000987 0.001737 0.002386
# 2 -0.000869 0.013636 0.000242 -0.006280 -0.006675 0.009647
# 3 -0.001120 0.000242 0.009346 -0.005030 -0.002068 0.002523
# 4 -0.000987 -0.006280 -0.005030 0.026933 0.010817 -0.010373
# 5 0.001737 -0.006675 -0.002068 0.010817 0.030689 -0.010395
# 6 0.002386 0.009647 0.002523 -0.010373 -0.010395 0.032874
#
#
# Mechanical properties :
#
#
# Convention : Reuss Voigt Hill
#
# Bulk Modulus (GPa) = 36.41182 55.21599 45.81391
# Shear Modulus (GPa) = 37.28519 48.31363 42.79941
#
# Velocity S-wave (km/s) = 3.86005 4.39400 4.13565
# Velocity P-wave (km/s) = 5.86665 6.91437 6.41195
#
# Compressibility (1/GPa) = 0.02746361
#
# Stress axis : x y z
#
# Youngs Moduli (GPa) = 125.39773 73.33389 106.99196
#
# Poissons Ratio (x) = 0.06370 0.11986
# Poissons Ratio (y) = 0.10892 -0.02589
# Poissons Ratio (z) = 0.14048 -0.01775
#
# Static dielectric constant tensor:
#      x y z
#    x 2.111510 0.016890 -0.032450 
#    y 0.016890 2.017010 0.093870 
#    z -0.032450 0.093870 2.114080 
# 
# From -- ./inp_files/427337.got.cif
#   From: 2010.05.17/outbox.cif.g08.bks.cpg/sg2_214_cif.got.tgz:427337.got - 2010.06.03 11:33:40.
