data_PCOD9017738
_publ_section_title
;
Structure prediction by ZEFSAII (Michael W. Deem and Ramdas Pophale) SiO2 
 PCOD9017738
Probable space group: P -1
;
_chemical_formula_sum "Si O2"
_cell_formula_units_Z 14
_cell_length_a 12.932446
_cell_length_b 13.382174
_cell_length_c 13.176692
_cell_angle_alpha 135.370964
_cell_angle_beta 147.639506
_cell_angle_gamma 31.289200
_cell_volume 633.493094
_symmetry_space_group_name_H-M "P -1"
_symmetry_group_IT_number 2
_symmetry_cell_setting 'triclinic'
loop_
_space_group_symop_operation_xyz
x,y,z
-x,-y,-z
loop_
_atom_site_type_symbol
_atom_site_label
_atom_site_fract_x
_atom_site_fract_y
_atom_site_fract_z
Si Si1 0.234487 0.994007 0.669962
Si Si2 0.551031 0.054995 0.406962
Si Si3 0.201232 0.821028 0.963440
Si Si4 0.907554 0.861158 0.013161
Si Si5 0.534126 0.331577 0.729304
Si Si6 0.997891 0.347435 0.437016
Si Si7 0.194172 0.272075 0.971624
O O1 0.320263 0.943696 0.586916
O O2 0.163108 0.193248 0.786512
O O3 0.503599 0.829809 0.837026
O O4 0.000000 0.000000 0.500000
O O5 0.257294 0.155878 0.211671
O O6 0.557908 0.162435 0.581548
O O7 0.727550 0.831907 0.417911
O O8 0.072822 0.739313 0.764241
O O9 0.443084 0.678964 0.136851
O O10 0.211504 0.922080 0.948973
O O11 0.000000 0.000000 0.000000
O O12 0.857098 0.822078 0.052767
O O13 0.214246 0.710415 0.133964
O O14 0.253394 0.530852 0.609031
O O15 0.000000 0.500000 0.500000
O O16 0.000000 0.500000 0.000000
#
# Coordination Sequence:
#
# PCOD9017738 Si02
#       7
#     2   2   2   2   2   2   2
#     4  10  23  43  70  94 132 171 215 266 333 384
#     4  11  24  43  64  99 133 173 210 273 325 378
#     4  10  21  43  66  89 132 178 206 263 328 377
#     4  10  22  43  68  89 136 171 212 262 331 378
#     4  11  24  42  66  96 132 173 220 260 324 380
#     4  12  26  41  68 100 130 170 225 265 317 386
#     4  10  23  44  67 100 128 168 218 274 322 381
#
# _framework density 22.099689000000001
#
# number of rings (size 3 to 8) (size 9 to 14) (size 15 to 20)
#    0.000    1.429    2.857    2.143    4.000    5.143 
#    5.143    0.000    0.000    0.000    0.000    0.000 
#    0.000    0.000    0.000    0.000    0.000    0.000 
#
# Total GULP energy -78180.462795 kJ/mol
# GULP energy per Si atom -5584.318771 kJ/mol
# Density = 2.204939 g / cm^3
# Si number density = 22.099689 Si / 1000 Ang^3
#
#
#
# Elastic Constant Matrix: (Units=GPa)
#
#
# Indices 1 2 3 4 5 6 
#
# 1 67.1709 8.0060 24.9507 3.5466 16.5331 2.5900
# 2 8.0060 90.3667 23.8107 11.9031 1.9846 -23.4625
# 3 24.9507 23.8107 98.4859 10.6803 23.0805 -6.3449
# 4 3.5466 11.9031 10.6803 33.3609 -4.6571 11.3641
# 5 16.5331 1.9846 23.0805 -4.6571 38.2455 -8.9649
# 6 2.5900 -23.4625 -6.3449 11.3641 -8.9649 29.6218
#
#
#
# Elastic Compliance Matrix: (Units=1/GPa)
#
#
# Indices 1 2 3 4 5 6 
#
# 1 0.018342 -0.002767 -0.002799 0.001325 -0.007625 -0.007211
# 2 -0.002767 0.018805 -0.002392 -0.012017 0.005069 0.020769
# 3 -0.002799 -0.002392 0.013693 -0.004527 -0.007290 0.000813
# 4 0.001325 -0.012017 -0.004527 0.045152 0.001867 -0.027360
# 5 -0.007625 0.005069 -0.007290 0.001867 0.036995 0.013600
# 6 -0.007211 0.020769 0.000813 -0.027360 0.013600 0.065626
#
#
# Mechanical properties :
#
#
# Convention : Reuss Voigt Hill
#
# Bulk Modulus (GPa) = 28.63387 41.06203 34.84795
# Shear Modulus (GPa) = 22.10717 33.52939 27.81828
#
# Velocity S-wave (km/s) = 3.16624 3.89934 3.55175
# Velocity P-wave (km/s) = 5.13338 6.23649 5.71163
#
# Compressibility (1/GPa) = 0.03492368
#
# Stress axis : x y z
#
# Youngs Moduli (GPa) = 54.52034 53.17641 73.02957
#
# Poissons Ratio (x) = 0.14712 0.20442
# Poissons Ratio (y) = 0.15084 0.17471
# Poissons Ratio (z) = 0.15261 0.12722
#
# Static dielectric constant tensor:
#      x y z
#    x 1.860080 0.004680 -0.000920 
#    y 0.004680 1.869980 -0.034900 
#    z -0.000920 -0.034900 1.835110 
# 
# From -- ./inp_files/533848.got.cif
#   From: 2010.05.17/outbox.cif.g08.bks.cpg/sg2_267_cif.got.tgz:533848.got - 2010.06.03 11:33:40.
