data_PCOD9017146
_publ_section_title
;
Structure prediction by ZEFSAII (Michael W. Deem and Ramdas Pophale) SiO2 
 PCOD9017146
Probable space group: P -1
;
_chemical_formula_sum "Si O2"
_cell_formula_units_Z 16
_cell_length_a 9.156728
_cell_length_b 15.797296
_cell_length_c 10.084990
_cell_angle_alpha 33.899576
_cell_angle_beta 109.745860
_cell_angle_gamma 103.367343
_cell_volume 762.418924
_symmetry_space_group_name_H-M "P -1"
_symmetry_group_IT_number 2
_symmetry_cell_setting 'triclinic'
loop_
_space_group_symop_operation_xyz
x,y,z
-x,-y,-z
loop_
_atom_site_type_symbol
_atom_site_label
_atom_site_fract_x
_atom_site_fract_y
_atom_site_fract_z
Si Si1 0.815837 0.526980 0.441398
Si Si2 0.155904 0.870767 0.357740
Si Si3 0.521663 0.281304 0.372299
Si Si4 0.019569 0.840047 0.638727
Si Si5 0.475987 0.403030 0.912128
Si Si6 0.701636 0.928122 0.303262
Si Si7 0.268322 0.722763 0.058000
Si Si8 0.818134 0.842732 0.168527
O O1 0.701238 0.567033 0.231041
O O2 0.755145 0.383729 0.685552
O O3 0.789973 0.674245 0.336913
O O4 0.000000 0.500000 0.500000
O O5 0.293503 0.748544 0.516558
O O6 0.127697 0.857032 0.522544
O O7 0.996468 0.842996 0.271762
O O8 0.198327 0.038403 0.111966
O O9 0.466135 0.436456 0.230108
O O10 0.447626 0.138181 0.596506
O O11 0.485574 0.299955 0.180915
O O12 0.848484 0.823594 0.549950
O O13 0.111406 0.723779 0.918511
O O14 0.000000 0.000000 0.500000
O O15 0.585972 0.335196 0.914945
O O16 0.714746 0.904679 0.180434
O O17 0.714632 0.104074 0.115250
#
# Coordination Sequence:
#
# PCOD9017146 Si02
#       8
#     2   2   2   2   2   2   2   2
#     4  12  28  43  68  97 133 175 219 271 335 392
#     4  10  21  42  71  95 130 168 227 269 322 386
#     4  11  24  44  70  98 130 174 220 271 330 390
#     4   9  20  40  65  95 132 169 213 275 321 382
#     4  11  26  46  65  98 139 170 216 275 331 396
#     4  10  24  41  70  99 130 176 222 268 324 393
#     4  11  24  45  65  97 136 175 214 276 330 388
#     4  10  24  43  67  98 130 175 218 272 324 396
#
# _framework density 20.985837
#
# number of rings (size 3 to 8) (size 9 to 14) (size 15 to 20)
#    0.000    1.500    1.250    1.875   12.250    2.000 
#    0.000    1.875    0.000    0.000    0.000    0.000 
#    0.000    0.000    0.000    0.000    0.000    0.000 
#
# Total GULP energy -89429.043852 kJ/mol
# GULP energy per Si atom -5589.315241 kJ/mol
# Density = 2.093807 g / cm^3
# Si number density = 20.985837 Si / 1000 Ang^3
#
#
#
# Elastic Constant Matrix: (Units=GPa)
#
#
# Indices 1 2 3 4 5 6 
#
# 1 92.9438 32.3113 26.5160 -6.6954 -1.5792 -14.2008
# 2 32.3113 82.8152 19.7650 -14.6572 -11.9647 -14.7065
# 3 26.5160 19.7650 77.9668 -2.3987 -0.3407 0.3160
# 4 -6.6954 -14.6572 -2.3987 25.3418 3.0899 0.9305
# 5 -1.5792 -11.9647 -0.3407 3.0899 27.9474 -5.6858
# 6 -14.2008 -14.7065 0.3160 0.9305 -5.6858 24.2172
#
#
#
# Elastic Compliance Matrix: (Units=1/GPa)
#
#
# Indices 1 2 3 4 5 6 
#
# 1 0.014062 -0.003061 -0.003992 0.001251 0.000628 0.006539
# 2 -0.003061 0.019005 -0.003529 0.008277 0.009381 0.011677
# 3 -0.003992 -0.003529 0.015052 -0.001176 -0.002484 -0.005218
# 4 0.001251 0.008277 -0.001176 0.044383 -0.000503 0.003952
# 5 0.000628 0.009381 -0.002484 -0.000503 0.043165 0.016251
# 6 0.006539 0.011677 -0.005218 0.003952 0.016251 0.055950
#
#
# Mechanical properties :
#
#
# Convention : Reuss Voigt Hill
#
# Bulk Modulus (GPa) = 37.09585 45.65673 41.37629
# Shear Modulus (GPa) = 22.54636 27.17683 24.86160
#
# Velocity S-wave (km/s) = 3.28130 3.60253 3.44566
# Velocity P-wave (km/s) = 5.66312 6.25360 5.96567
#
# Compressibility (1/GPa) = 0.02695719
#
# Stress axis : x y z
#
# Youngs Moduli (GPa) = 71.11498 52.61682 66.43551
#
# Poissons Ratio (x) = 0.16104 0.26519
# Poissons Ratio (y) = 0.21765 0.23444
# Poissons Ratio (z) = 0.28387 0.18567
#
# Static dielectric constant tensor:
#      x y z
#    x 1.745110 0.027130 0.024390 
#    y 0.027130 1.540200 0.135160 
#    z 0.024390 0.135160 1.665420 
# 
# From -- ./inp_files/205389.got.cif
#   From: 2010.05.17/outbox.cif.g08.bks.cpg/sg2_103_cif.got.tgz:205389.got - 2010.06.03 11:33:40.
