data_PCOD9017045
_publ_section_title
;
Structure prediction by ZEFSAII (Michael W. Deem and Ramdas Pophale) SiO2 
 PCOD9017045
Probable space group: P -1
;
_chemical_formula_sum "Si O2"
_cell_formula_units_Z 16
_cell_length_a 5.253228
_cell_length_b 10.805670
_cell_length_c 11.725149
_cell_angle_alpha 82.823335
_cell_angle_beta 83.285887
_cell_angle_gamma 71.464173
_cell_volume 623.991521
_symmetry_space_group_name_H-M "P -1"
_symmetry_group_IT_number 2
_symmetry_cell_setting 'triclinic'
loop_
_space_group_symop_operation_xyz
x,y,z
-x,-y,-z
loop_
_atom_site_type_symbol
_atom_site_label
_atom_site_fract_x
_atom_site_fract_y
_atom_site_fract_z
Si Si1 0.522856 0.462459 0.699526
Si Si2 0.936040 0.888793 0.597307
Si Si3 0.430287 0.107592 0.639717
Si Si4 0.500813 0.253525 0.083263
Si Si5 0.462161 0.680625 0.524771
Si Si6 0.662701 0.212750 0.836947
Si Si7 0.892379 0.015162 0.200192
Si Si8 0.917493 0.412525 0.112164
O O1 0.584115 0.593120 0.638241
O O2 0.492057 0.401135 0.585440
O O3 0.720203 0.346601 0.778331
O O4 0.250211 0.506494 0.782706
O O5 0.143751 0.753546 0.555615
O O6 0.024187 0.892696 0.724452
O O7 0.000000 0.000000 0.500000
O O8 0.617161 0.961366 0.619265
O O9 0.408796 0.206400 0.526675
O O10 0.547821 0.162238 0.736689
O O11 0.155120 0.093278 0.698766
O O12 0.636818 0.107458 0.139086
O O13 0.713852 0.335331 0.083658
O O14 0.209761 0.318915 0.144519
O O15 0.463324 0.249451 0.949619
O O16 0.894333 0.083286 0.880724
O O17 0.000000 0.500000 0.000000
#
# Coordination Sequence:
#
# PCOD9017045 Si02
#       8
#     2   2   2   2   2   2   2   2
#     4  10  21  42  70  97 142 185 245 300 365 434
#     4   9  19  39  63  91 137 177 235 295 355 426
#     4   9  21  39  66  99 141 187 234 303 360 434
#     4  12  28  45  77 108 145 195 246 301 363 432
#     4   9  19  38  68  97 133 190 235 306 358 437
#     4  10  23  43  65 102 144 191 235 306 361 434
#     4  11  24  40  69 104 143 189 243 302 365 435
#     4  12  27  50  76 107 145 196 243 304 361 435
#
# _framework density 25.641373000000002
#
# number of rings (size 3 to 8) (size 9 to 14) (size 15 to 20)
#    0.000    1.750    1.250    2.250    7.000    2.500 
#    0.000    0.625    5.500    0.000    0.000    0.000 
#    0.000    0.000    0.000    0.000    0.000    0.000 
#
# Total GULP energy -89305.518347 kJ/mol
# GULP energy per Si atom -5581.594897 kJ/mol
# Density = 2.558301 g / cm^3
# Si number density = 25.641373 Si / 1000 Ang^3
#
#
#
# Elastic Constant Matrix: (Units=GPa)
#
#
# Indices 1 2 3 4 5 6 
#
# 1 66.0384 33.9370 20.2133 5.4150 -11.5997 -2.3992
# 2 33.9370 147.0035 82.9134 6.1601 -5.5451 -23.9421
# 3 20.2133 82.9134 132.1965 -5.2851 -16.2942 -9.6704
# 4 5.4150 6.1601 -5.2851 53.8433 -10.9726 -12.7902
# 5 -11.5997 -5.5451 -16.2942 -10.9726 33.0572 -4.7231
# 6 -2.3992 -23.9421 -9.6704 -12.7902 -4.7231 34.6402
#
#
#
# Elastic Compliance Matrix: (Units=1/GPa)
#
#
# Indices 1 2 3 4 5 6 
#
# 1 0.018260 -0.004527 0.000664 -0.000330 0.005720 -0.001021
# 2 -0.004527 0.012853 -0.007272 -0.000826 -0.002448 0.005901
# 3 0.000664 -0.007272 0.013080 0.003664 0.006813 0.000953
# 4 -0.000330 -0.000826 0.003664 0.023852 0.011003 0.010736
# 5 0.005720 -0.002448 0.006813 0.011003 0.040310 0.010165
# 6 -0.001021 0.005901 0.000953 0.010736 0.010165 0.038492
#
#
# Mechanical properties :
#
#
# Convention : Reuss Voigt Hill
#
# Bulk Modulus (GPa) = 45.61265 68.81840 57.21552
# Shear Modulus (GPa) = 28.34084 38.18645 33.26365
#
# Velocity S-wave (km/s) = 3.32818 3.86327 3.60566
# Velocity P-wave (km/s) = 5.70932 6.84082 6.30052
#
# Compressibility (1/GPa) = 0.02192374
#
# Stress axis : x y z
#
# Youngs Moduli (GPa) = 54.76304 77.80544 76.45356
#
# Poissons Ratio (x) = 0.35222 -0.05080
# Poissons Ratio (y) = 0.24791 0.55598
# Poissons Ratio (z) = -0.03639 0.56581
#
# Static dielectric constant tensor:
#      x y z
#    x 2.088340 0.056570 0.001620 
#    y 0.056570 2.149910 0.007150 
#    z 0.001620 0.007150 2.013100 
# 
# From -- ./inp_files/364270.got.cif
#   From: 2010.05.17/outbox.cif.g08.bks.cpg/sg2_183_cif.got.tgz:364270.got - 2010.06.03 11:33:40.
