data_PCOD9017626
_publ_section_title
;
Structure prediction by ZEFSAII (Michael W. Deem and Ramdas Pophale) SiO2 
 PCOD9017626
Probable space group: P -1
;
_chemical_formula_sum "Si O2"
_cell_formula_units_Z 12
_cell_length_a 9.608151
_cell_length_b 10.921520
_cell_length_c 8.058971
_cell_angle_alpha 123.797745
_cell_angle_beta 63.316113
_cell_angle_gamma 127.823274
_cell_volume 547.555877
_symmetry_space_group_name_H-M "P -1"
_symmetry_group_IT_number 2
_symmetry_cell_setting 'triclinic'
loop_
_space_group_symop_operation_xyz
x,y,z
-x,-y,-z
loop_
_atom_site_type_symbol
_atom_site_label
_atom_site_fract_x
_atom_site_fract_y
_atom_site_fract_z
Si Si1 0.615355 0.104922 0.175285
Si Si2 0.499194 0.331367 0.819891
Si Si3 0.859638 0.977419 0.198425
Si Si4 0.146419 0.955793 0.212394
Si Si5 0.460655 0.317111 0.438300
Si Si6 0.284281 0.847567 0.362014
O O1 0.627025 0.285237 0.287431
O O2 0.479561 0.008398 0.327967
O O3 0.794660 0.102741 0.032899
O O4 0.500000 0.000000 0.000000
O O5 0.454184 0.311389 0.635061
O O6 0.667187 0.301661 0.747854
O O7 0.326131 0.177802 0.878047
O O8 0.500000 0.500000 0.000000
O O9 0.809148 0.115225 0.403344
O O10 0.952401 0.935415 0.273835
O O11 0.000000 0.000000 0.000000
O O12 0.166056 0.844395 0.264993
O O13 0.288128 0.154578 0.327328
O O14 0.500000 0.500000 0.500000
#
# Coordination Sequence:
#
# PCOD9017626 Si02
#       6
#     2   2   2   2   2   2
#     4   8  17  35  65  91 118 165 219 252 312 386
#     4  12  27  42  65  98 133 174 217 268 326 386
#     4  12  25  41  69  98 133 167 222 274 322 379
#     4  10  22  40  71  97 124 169 224 266 326 379
#     4  10  22  38  66  95 132 165 218 265 323 385
#     4  10  21  43  65  91 129 174 223 260 313 400
#
# _framework density 21.915572000000001
#
# number of rings (size 3 to 8) (size 9 to 14) (size 15 to 20)
#    0.000    2.000    3.333    2.000   11.667    0.000 
#    0.000    3.333    0.000    0.000    0.000    0.000 
#    0.000    0.000    0.000    0.000    0.000    0.000 
#
# Total GULP energy -66818.799895 kJ/mol
# GULP energy per Si atom -5568.233325 kJ/mol
# Density = 2.186569 g / cm^3
# Si number density = 21.915572 Si / 1000 Ang^3
#
#
#
# Elastic Constant Matrix: (Units=GPa)
#
#
# Indices 1 2 3 4 5 6 
#
# 1 145.5242 16.5526 45.2268 10.0904 -41.2632 -10.0743
# 2 16.5526 47.0774 49.0704 5.2357 -16.3889 -24.7949
# 3 45.2268 49.0704 179.8396 -1.3415 -35.7110 -15.5316
# 4 10.0904 5.2357 -1.3415 42.5172 -13.1269 -5.9637
# 5 -41.2632 -16.3889 -35.7110 -13.1269 47.0802 3.2551
# 6 -10.0743 -24.7949 -15.5316 -5.9637 3.2551 31.1295
#
#
#
# Elastic Compliance Matrix: (Units=1/GPa)
#
#
# Indices 1 2 3 4 5 6 
#
# 1 0.009501 0.002755 -0.001157 0.000472 0.008269 0.003918
# 2 0.002755 0.055088 -0.010054 0.001279 0.011641 0.038781
# 3 -0.001157 -0.010054 0.008899 0.002218 0.003120 -0.003844
# 4 0.000472 0.001279 0.002218 0.027219 0.009682 0.006480
# 5 0.008269 0.011641 0.003120 0.009682 0.036810 0.011510
# 6 0.003918 0.038781 -0.003844 0.006480 0.011510 0.062401
#
#
# Mechanical properties :
#
#
# Convention : Reuss Voigt Hill
#
# Bulk Modulus (GPa) = 17.67513 66.01562 41.84538
# Shear Modulus (GPa) = 21.21450 41.58479 31.39964
#
# Velocity S-wave (km/s) = 3.11466 4.36076 3.78928
# Velocity P-wave (km/s) = 4.58448 7.45272 6.18710
#
# Compressibility (1/GPa) = 0.05657667
#
# Stress axis : x y z
#
# Youngs Moduli (GPa) = 105.24937 18.15290 112.37398
#
# Poissons Ratio (x) = -0.05002 0.13005
# Poissons Ratio (y) = -0.29000 1.12976
# Poissons Ratio (z) = 0.12180 0.18250
#
# Static dielectric constant tensor:
#      x y z
#    x 1.976210 -0.087070 0.023180 
#    y -0.087070 1.878450 -0.060450 
#    z 0.023180 -0.060450 1.904150 
# 
# From -- ./inp_files/182989.got.cif
#   From: 2010.05.17/outbox.cif.g08.bks.cpg/sg2_92_cif.got.tgz:182989.got - 2010.06.03 11:33:40.
