data_PCOD9017672
_publ_section_title
;
Structure prediction by ZEFSAII (Michael W. Deem and Ramdas Pophale) SiO2 
 PCOD9017672
Probable space group: P -1
;
_chemical_formula_sum "Si O2"
_cell_formula_units_Z 16
_cell_length_a 8.432004
_cell_length_b 23.742707
_cell_length_c 9.293346
_cell_angle_alpha 36.024165
_cell_angle_beta 109.040442
_cell_angle_gamma 132.316545
_cell_volume 699.835560
_symmetry_space_group_name_H-M "P -1"
_symmetry_group_IT_number 2
_symmetry_cell_setting 'triclinic'
loop_
_space_group_symop_operation_xyz
x,y,z
-x,-y,-z
loop_
_atom_site_type_symbol
_atom_site_label
_atom_site_fract_x
_atom_site_fract_y
_atom_site_fract_z
Si Si1 0.280453 0.633200 0.483817
Si Si2 0.636747 0.754913 0.120037
Si Si3 0.793265 0.636342 0.320357
Si Si4 0.629728 0.086238 0.582356
Si Si5 0.791410 0.221791 0.042669
Si Si6 0.968964 0.048404 0.745288
Si Si7 0.492641 0.783850 0.528708
Si Si8 0.778487 0.430147 0.863682
O O1 0.483424 0.653566 0.423597
O O2 0.407004 0.743865 0.421344
O O3 0.027774 0.481565 0.778862
O O4 0.225644 0.681795 0.235392
O O5 0.842421 0.761013 0.141230
O O6 0.457233 0.682965 0.077478
O O7 0.762182 0.908121 0.876888
O O8 0.500000 0.500000 0.500000
O O9 0.864145 0.576693 0.565325
O O10 0.929354 0.689784 0.097439
O O11 0.710879 0.177190 0.274440
O O12 0.551672 0.130508 0.589216
O O13 0.854497 0.104223 0.635786
O O14 0.389985 0.923566 0.802212
O O15 0.229727 0.144219 0.540574
O O16 0.000000 0.000000 0.000000
O O17 0.312256 0.638444 0.866299
#
# Coordination Sequence:
#
# PCOD9017672 Si02
#       8
#     2   2   2   2   2   2   2   2
#     4  11  22  45  66  94 141 177 226 273 341 409
#     4  11  21  42  68  97 130 181 224 280 337 393
#     4   9  21  38  64  96 133 169 221 281 336 386
#     4  11  25  42  71 101 135 178 227 282 334 397
#     4  10  21  43  65  97 134 173 234 272 329 404
#     4  12  26  45  69 102 141 174 224 276 346 412
#     4  12  26  44  69 102 143 178 219 283 344 400
#     4  10  24  42  67  98 130 180 233 274 332 401
#
# _framework density 22.862513
#
# number of rings (size 3 to 8) (size 9 to 14) (size 15 to 20)
#    0.000    1.250    2.500    2.250    5.250    6.500 
#    0.000    0.625    0.000    0.000    0.000    0.000 
#    0.000    0.000    0.000    0.000    0.000    0.000 
#
# Total GULP energy -89338.295735 kJ/mol
# GULP energy per Si atom -5583.643483 kJ/mol
# Density = 2.281048 g / cm^3
# Si number density = 22.862513 Si / 1000 Ang^3
#
#
#
# Elastic Constant Matrix: (Units=GPa)
#
#
# Indices 1 2 3 4 5 6 
#
# 1 123.9411 27.1216 20.5732 2.1113 -14.4455 -6.1112
# 2 27.1216 74.1663 -4.4141 5.6035 -2.9958 -6.2499
# 3 20.5732 -4.4141 80.4218 4.1190 -23.3544 6.8229
# 4 2.1113 5.6035 4.1190 35.8043 2.2761 -8.5486
# 5 -14.4455 -2.9958 -23.3544 2.2761 47.5304 -6.2150
# 6 -6.1112 -6.2499 6.8229 -8.5486 -6.2150 33.3245
#
#
#
# Elastic Compliance Matrix: (Units=1/GPa)
#
#
# Indices 1 2 3 4 5 6 
#
# 1 0.009496 -0.003411 -0.002307 0.000619 0.001778 0.002064
# 2 -0.003411 0.015188 0.002044 -0.002134 0.001221 0.001485
# 3 -0.002307 0.002044 0.015510 -0.003053 0.006839 -0.002723
# 4 0.000619 -0.002134 -0.003053 0.030567 -0.001887 0.007828
# 5 0.001778 0.001221 0.006839 -0.001887 0.025557 0.003437
# 6 0.002064 0.001485 -0.002723 0.007828 0.003437 0.033872
#
#
# Mechanical properties :
#
#
# Convention : Reuss Voigt Hill
#
# Bulk Modulus (GPa) = 30.44443 40.56560 35.50502
# Shear Modulus (GPa) = 33.67321 39.01509 36.34415
#
# Velocity S-wave (km/s) = 3.84195 4.13547 3.99141
# Velocity P-wave (km/s) = 5.74682 6.37061 6.06674
#
# Compressibility (1/GPa) = 0.03284673
#
# Stress axis : x y z
#
# Youngs Moduli (GPa) = 105.30579 65.84193 64.47364
#
# Poissons Ratio (x) = 0.22458 0.14875
# Poissons Ratio (y) = 0.35919 -0.13180
# Poissons Ratio (z) = 0.24295 -0.13460
#
# Static dielectric constant tensor:
#      x y z
#    x 2.067240 0.006130 0.000670 
#    y 0.006130 1.858800 -0.043960 
#    z 0.000670 -0.043960 1.841110 
# 
# From -- ./inp_files/225982.got.cif
#   From: 2010.05.17/outbox.cif.g08.bks.cpg/sg2_113_cif.got.tgz:225982.got - 2010.06.03 11:33:40.
