data_PCOD9017539
_publ_section_title
;
Structure prediction by ZEFSAII (Michael W. Deem and Ramdas Pophale) SiO2 
 PCOD9017539
Probable space group: P -1
;
_chemical_formula_sum "Si O2"
_cell_formula_units_Z 16
_cell_length_a 6.264125
_cell_length_b 17.547827
_cell_length_c 8.635989
_cell_angle_alpha 107.924276
_cell_angle_beta 108.200396
_cell_angle_gamma 114.514303
_cell_volume 707.708617
_symmetry_space_group_name_H-M "P -1"
_symmetry_group_IT_number 2
_symmetry_cell_setting 'triclinic'
loop_
_space_group_symop_operation_xyz
x,y,z
-x,-y,-z
loop_
_atom_site_type_symbol
_atom_site_label
_atom_site_fract_x
_atom_site_fract_y
_atom_site_fract_z
Si Si1 0.764035 0.499977 0.073990
Si Si2 0.672527 0.173625 0.245933
Si Si3 0.445588 0.208654 0.682005
Si Si4 0.621763 0.964567 0.633255
Si Si5 0.313575 0.657886 0.455425
Si Si6 0.204100 0.155156 0.923447
Si Si7 0.090247 0.633430 0.950649
Si Si8 0.190553 0.296077 0.248421
O O1 0.697707 0.395920 0.047700
O O2 0.006366 0.574920 0.291002
O O3 0.500000 0.500000 0.000000
O O4 0.888149 0.544543 0.960088
O O5 0.565647 0.086674 0.289745
O O6 0.693137 0.259911 0.403021
O O7 0.966298 0.214359 0.264744
O O8 0.447933 0.149473 0.047469
O O9 0.358468 0.115867 0.502634
O O10 0.508779 0.292928 0.630112
O O11 0.252211 0.179429 0.766904
O O12 0.747829 0.263183 0.861182
O O13 0.500000 0.000000 0.500000
O O14 0.915703 0.053396 0.810516
O O15 0.501588 0.635442 0.578849
O O16 0.201030 0.236586 0.070444
O O17 0.933475 0.642983 0.783801
#
# Coordination Sequence:
#
# PCOD9017539 Si02
#       8
#     2   2   2   2   2   2   2   2
#     4  10  23  42  68 100 132 167 214 272 326 394
#     4  10  23  43  63  90 136 177 215 272 332 391
#     4  10  21  43  64  92 133 172 221 269 327 392
#     4  11  24  40  63  99 127 172 229 280 325 379
#     4   9  23  42  66 100 129 171 221 269 330 392
#     4  11  23  41  66  92 133 177 219 274 327 394
#     4  10  22  41  65  98 130 171 219 263 332 397
#     4  11  23  42  67  96 133 178 218 267 333 392
#
# _framework density 22.608173000000001
#
# number of rings (size 3 to 8) (size 9 to 14) (size 15 to 20)
#    0.000    1.750    1.250    1.500    3.500    4.000 
#    2.250    1.250    0.000    0.000    0.000    0.000 
#    0.000    0.000    0.000    0.000    0.000    0.000 
#
# Total GULP energy -89298.011644 kJ/mol
# GULP energy per Si atom -5581.125728 kJ/mol
# Density = 2.255672 g / cm^3
# Si number density = 22.608173 Si / 1000 Ang^3
#
#
#
# Elastic Constant Matrix: (Units=GPa)
#
#
# Indices 1 2 3 4 5 6 
#
# 1 85.4659 30.1556 32.5004 -8.1165 13.5966 6.8578
# 2 30.1556 76.2518 29.5040 1.4868 3.7597 8.1831
# 3 32.5004 29.5040 108.7434 4.8544 22.6752 -7.2531
# 4 -8.1165 1.4868 4.8544 26.0222 8.7633 0.0276
# 5 13.5966 3.7597 22.6752 8.7633 43.8185 -16.3638
# 6 6.8578 8.1831 -7.2531 0.0276 -16.3638 35.9488
#
#
#
# Elastic Compliance Matrix: (Units=1/GPa)
#
#
# Indices 1 2 3 4 5 6 
#
# 1 0.016989 -0.004678 -0.003082 0.008599 -0.007280 -0.006118
# 2 -0.004678 0.016619 -0.003447 -0.002126 0.001080 -0.003093
# 3 -0.003082 -0.003447 0.012077 -0.001708 -0.003895 0.002038
# 4 0.008599 -0.002126 -0.001708 0.046190 -0.013751 -0.007796
# 5 -0.007280 0.001080 -0.003895 -0.013751 0.036012 0.016760
# 6 -0.006118 -0.003093 0.002038 -0.007796 0.016760 0.037735
#
#
# Mechanical properties :
#
#
# Convention : Reuss Voigt Hill
#
# Bulk Modulus (GPa) = 42.97589 50.53123 46.75356
# Shear Modulus (GPa) = 25.53709 33.04464 29.29086
#
# Velocity S-wave (km/s) = 3.36453 3.82727 3.60333
# Velocity P-wave (km/s) = 5.84326 6.47534 6.16740
#
# Compressibility (1/GPa) = 0.02326886
#
# Stress axis : x y z
#
# Youngs Moduli (GPa) = 58.86138 60.17382 82.80380
#
# Poissons Ratio (x) = 0.28151 0.25522
# Poissons Ratio (y) = 0.27537 0.28544
# Poissons Ratio (z) = 0.18142 0.20743
#
# Static dielectric constant tensor:
#      x y z
#    x 2.034550 -0.020040 -0.045010 
#    y -0.020040 1.861070 -0.015940 
#    z -0.045010 -0.015940 1.882480 
# 
# From -- ./inp_files/38500.got.cif
#   From: 2010.05.17/outbox.cif.g08.bks.cpg/sg2_20_cif.got.tgz:38500.got - 2010.06.03 11:33:40.
