data_PCOD9017537
_publ_section_title
;
Structure prediction by ZEFSAII (Michael W. Deem and Ramdas Pophale) SiO2 
 PCOD9017537
Probable space group: P -1
;
_chemical_formula_sum "Si O2"
_cell_formula_units_Z 16
_cell_length_a 9.473645
_cell_length_b 20.230143
_cell_length_c 17.662213
_cell_angle_alpha 19.292390
_cell_angle_beta 133.873130
_cell_angle_gamma 134.688602
_cell_volume 788.884636
_symmetry_space_group_name_H-M "P -1"
_symmetry_group_IT_number 2
_symmetry_cell_setting 'triclinic'
loop_
_space_group_symop_operation_xyz
x,y,z
-x,-y,-z
loop_
_atom_site_type_symbol
_atom_site_label
_atom_site_fract_x
_atom_site_fract_y
_atom_site_fract_z
Si Si1 0.751908 0.815070 0.326034
Si Si2 0.780716 0.384725 0.059439
Si Si3 0.465780 0.065532 0.028582
Si Si4 0.736944 0.570811 0.003779
Si Si5 0.802960 0.348302 0.561306
Si Si6 0.437216 0.555688 0.237520
Si Si7 0.593802 0.948410 0.511166
Si Si8 0.832165 0.270143 0.478507
O O1 0.692192 0.605833 0.577854
O O2 0.987121 0.836456 0.368180
O O3 0.660218 0.981819 0.161003
O O4 0.625160 0.815491 0.200876
O O5 0.762899 0.461010 0.054805
O O6 0.714432 0.142482 0.302240
O O7 0.656659 0.449195 0.874963
O O8 0.000000 0.500000 0.000000
O O9 0.290194 0.871313 0.196660
O O10 0.524676 0.221419 0.951147
O O11 0.848760 0.483929 0.207296
O O12 0.500000 0.500000 0.000000
O O13 0.755025 0.809934 0.739942
O O14 0.637877 0.478177 0.379464
O O15 0.837049 0.306692 0.530438
O O16 0.000000 0.500000 0.500000
O O17 0.393821 0.848573 0.497678
O O18 0.500000 0.000000 0.500000
#
# Coordination Sequence:
#
# PCOD9017537 Si02
#       8
#     2   2   2   2   2   2   2   2
#     4  10  23  43  67  97 131 171 226 274 330 405
#     4  12  25  43  64  99 136 175 222 278 329 396
#     4  10  23  46  66  94 135 175 220 277 334 399
#     4  10  21  43  64  92 131 173 218 271 324 391
#     4  11  25  42  66 100 134 172 220 281 335 399
#     4  11  23  42  68  93 136 175 218 274 344 390
#     4  11  23  42  69  95 132 177 220 273 331 390
#     4  11  22  43  69 100 133 174 227 273 333 398
#
# _framework density 20.281798999999999
#
# number of rings (size 3 to 8) (size 9 to 14) (size 15 to 20)
#    0.000    1.250    2.500    4.125    0.000    6.500 
#    4.500    0.000    0.000    0.000    0.000    0.000 
#    0.000    0.000    0.000    0.000    0.000    0.000 
#
# Total GULP energy -89179.673028 kJ/mol
# GULP energy per Si atom -5573.729564 kJ/mol
# Density = 2.023564 g / cm^3
# Si number density = 20.281799 Si / 1000 Ang^3
#
#
#
# Elastic Constant Matrix: (Units=GPa)
#
#
# Indices 1 2 3 4 5 6 
#
# 1 -26.4052 -118.5921 7.7296 -33.4779 -70.7305 23.0305
# 2 -118.5921 -113.1201 -23.4470 -42.3939 -71.5270 15.5569
# 3 7.7296 -23.4470 59.7446 -5.7101 -11.0003 13.9499
# 4 -33.4779 -42.3939 -5.7101 17.2929 -17.5789 -0.4202
# 5 -70.7305 -71.5270 -11.0003 -17.5789 1.2562 12.0035
# 6 23.0305 15.5569 13.9499 -0.4202 12.0035 34.2207
#
#
#
# Elastic Compliance Matrix: (Units=1/GPa)
#
#
# Indices 1 2 3 4 5 6 
#
# 1 0.012700 -0.010886 -0.005963 -0.003931 0.000168 -0.001274
# 2 -0.010886 0.011940 0.002259 -0.003481 -0.012346 0.005266
# 3 -0.005963 0.002259 0.019296 -0.000488 -0.000729 -0.004630
# 4 -0.003931 -0.003481 -0.000488 0.034749 -0.006836 0.007252
# 5 0.000168 -0.012346 -0.000729 -0.006836 0.023025 -0.002363
# 6 -0.001274 0.005266 -0.004630 0.007252 -0.002363 0.030491
#
#
# Mechanical properties :
#
#
# Convention : Reuss Voigt Hill
#
# Bulk Modulus (GPa) = 67.77037 -38.71110 14.52964
# Shear Modulus (GPa) = 30.06607 14.18919 22.12763
#
# Velocity S-wave (km/s) = 3.85439 2.64787 3.30663
# Velocity P-wave (km/s) = 7.30037 3.12726 4.66453
#
# Compressibility (1/GPa) = 0.01475571
#
# Stress axis : x y z
#
# Youngs Moduli (GPa) = 78.74034 83.75234 51.82406
#
# Poissons Ratio (x) = 0.91175 0.30901
# Poissons Ratio (y) = 0.85719 -0.11707
# Poissons Ratio (z) = 0.46951 -0.18919
#
# Static dielectric constant tensor:
#      x y z
#    x 1.701270 0.008430 -0.011700 
#    y 0.008430 1.706930 -0.035610 
#    z -0.011700 -0.035610 1.816050 
# 
# From -- ./inp_files/562907.got.cif
#   From: 2010.05.17/outbox.cif.g08.bks.cpg/sg2_282_cif.got.tgz:562907.got - 2010.06.03 11:33:40.
