data_PCOD9017447
_publ_section_title
;
Structure prediction by ZEFSAII (Michael W. Deem and Ramdas Pophale) SiO2 
 PCOD9017447
Probable space group: P -1
;
_chemical_formula_sum "Si O2"
_cell_formula_units_Z 14
_cell_length_a 19.734052
_cell_length_b 13.699293
_cell_length_c 8.379271
_cell_angle_alpha 73.325327
_cell_angle_beta 48.052392
_cell_angle_gamma 34.036100
_cell_volume 723.508659
_symmetry_space_group_name_H-M "P -1"
_symmetry_group_IT_number 2
_symmetry_cell_setting 'triclinic'
loop_
_space_group_symop_operation_xyz
x,y,z
-x,-y,-z
loop_
_atom_site_type_symbol
_atom_site_label
_atom_site_fract_x
_atom_site_fract_y
_atom_site_fract_z
Si Si1 0.896369 0.892718 0.021645
Si Si2 0.791879 0.539381 0.113006
Si Si3 0.780673 0.539848 0.477166
Si Si4 0.411098 0.886714 0.350670
Si Si5 0.497320 0.350044 0.965494
Si Si6 0.883518 0.638445 0.455523
Si Si7 0.791597 0.171140 0.828437
O O1 0.079180 0.694311 0.955523
O O2 0.996179 0.728079 0.796024
O O3 0.845608 0.053092 0.956587
O O4 0.704748 0.035557 0.344224
O O5 0.689938 0.658234 0.390237
O O6 0.637949 0.685950 0.142399
O O7 0.954070 0.466507 0.864358
O O8 0.803750 0.614999 0.514053
O O9 0.646425 0.587098 0.746806
O O10 0.409053 0.801043 0.262149
O O11 0.297407 0.099596 0.363483
O O12 0.667736 0.222304 0.877343
O O13 0.355704 0.585828 0.024978
O O14 0.000000 0.500000 0.500000
O O15 0.000000 0.000000 0.500000
#
# Coordination Sequence:
#
# PCOD9017447 Si02
#       7
#     2   2   2   2   2   2   2
#     4   9  22  40  64  87 124 166 204 252 311 363
#     4   9  21  40  61  89 127 165 210 244 303 372
#     4  10  21  43  63  89 128 166 210 249 298 380
#     4  11  24  42  61  96 130 159 205 265 304 365
#     4  11  25  39  67  96 123 159 213 259 312 368
#     4  11  24  39  62  95 129 166 208 252 312 361
#     4  11  22  44  68  92 120 166 209 256 316 373
#
# _framework density 19.350148000000001
#
# number of rings (size 3 to 8) (size 9 to 14) (size 15 to 20)
#    0.857    0.857    1.429    2.143    2.000    5.714 
#    0.000    1.429    0.000    0.000    0.000    0.000 
#    0.000    0.000    0.000    0.000    0.000    0.000 
#
# Total GULP energy -78073.317914 kJ/mol
# GULP energy per Si atom -5576.665565 kJ/mol
# Density = 1.930611 g / cm^3
# Si number density = 19.350148 Si / 1000 Ang^3
#
#
#
# Elastic Constant Matrix: (Units=GPa)
#
#
# Indices 1 2 3 4 5 6 
#
# 1 100.9066 59.7177 43.2551 0.6225 -10.4892 15.2775
# 2 59.7177 148.9249 40.4974 -7.4194 -11.5933 -2.4015
# 3 43.2551 40.4974 79.8414 -3.9392 -9.2524 11.7474
# 4 0.6225 -7.4194 -3.9392 31.3054 -0.9368 2.1449
# 5 -10.4892 -11.5933 -9.2524 -0.9368 21.7799 2.2510
# 6 15.2775 -2.4015 11.7474 2.1449 2.2510 30.1748
#
#
#
# Elastic Compliance Matrix: (Units=1/GPa)
#
#
# Indices 1 2 3 4 5 6 
#
# 1 0.016579 -0.005202 -0.004947 -0.001589 0.003774 -0.007051
# 2 -0.005202 0.009737 -0.002493 0.001851 0.001269 0.004153
# 3 -0.004947 -0.002493 0.017859 0.002242 0.004505 -0.005142
# 4 -0.001589 0.001851 0.002242 0.032950 0.002845 -0.002475
# 5 0.003774 0.001269 0.004505 0.002845 0.051227 -0.007587
# 6 -0.007051 0.004153 -0.005142 -0.002475 -0.007587 0.039784
#
#
# Mechanical properties :
#
#
# Convention : Reuss Voigt Hill
#
# Bulk Modulus (GPa) = 52.93743 68.51259 60.72501
# Shear Modulus (GPa) = 25.03550 29.06555 27.05053
#
# Velocity S-wave (km/s) = 3.60087 3.87988 3.74297
# Velocity P-wave (km/s) = 6.68620 7.45352 7.08026
#
# Compressibility (1/GPa) = 0.01889023
#
# Stress axis : x y z
#
# Youngs Moduli (GPa) = 60.31789 102.70533 55.99520
#
# Poissons Ratio (x) = 0.53425 0.27701
# Poissons Ratio (y) = 0.31376 0.13961
# Poissons Ratio (z) = 0.29839 0.25606
#
# Static dielectric constant tensor:
#      x y z
#    x 1.649120 -0.014050 0.017770 
#    y -0.014050 1.690100 0.007050 
#    z 0.017770 0.007050 1.692910 
# 
# From -- ./inp_files/333084.got.cif
#   From: 2010.05.17/outbox.cif.g08.bks.cpg/sg2_167_cif.got.tgz:333084.got - 2010.06.03 11:33:40.
