data_PCOD9017379
_publ_section_title
;
Structure prediction by ZEFSAII (Michael W. Deem and Ramdas Pophale) SiO2 
 PCOD9017379
Probable space group: P -1
;
_chemical_formula_sum "Si O2"
_cell_formula_units_Z 14
_cell_length_a 7.156664
_cell_length_b 13.796916
_cell_length_c 13.492071
_cell_angle_alpha 41.480157
_cell_angle_beta 115.074694
_cell_angle_gamma 137.038373
_cell_volume 578.053032
_symmetry_space_group_name_H-M "P -1"
_symmetry_group_IT_number 2
_symmetry_cell_setting 'triclinic'
loop_
_space_group_symop_operation_xyz
x,y,z
-x,-y,-z
loop_
_atom_site_type_symbol
_atom_site_label
_atom_site_fract_x
_atom_site_fract_y
_atom_site_fract_z
Si Si1 0.384187 0.369817 0.304238
Si Si2 0.170832 0.761249 0.724282
Si Si3 0.978273 0.829052 0.809512
Si Si4 0.135355 0.605205 0.554536
Si Si5 0.682650 0.826896 0.023294
Si Si6 0.877623 0.345118 0.892996
Si Si7 0.779001 0.014022 0.688820
O O1 0.548558 0.309906 0.427140
O O2 0.573830 0.607078 0.179868
O O3 0.067742 0.249108 0.370024
O O4 0.308479 0.321930 0.206437
O O5 0.195470 0.851041 0.768304
O O6 0.010915 0.527555 0.861791
O O7 0.483975 0.884953 0.659977
O O8 0.008326 0.013440 0.697764
O O9 0.990619 0.744443 0.977922
O O10 0.123748 0.773894 0.433584
O O11 0.000000 0.500000 0.500000
O O12 0.966333 0.446285 0.728479
O O13 0.459885 0.814447 0.045837
O O14 0.678117 0.882407 0.867470
O O15 0.000000 0.000000 0.000000
#
# Coordination Sequence:
#
# PCOD9017379 Si02
#       7
#     2   2   2   2   2   2   2
#     4   9  21  44  68 102 140 181 227 290 353 404
#     4   9  21  42  72 111 138 170 237 298 355 408
#     4  10  21  42  78 109 135 175 236 305 349 411
#     4  12  28  48  66 100 152 193 232 281 356 434
#     4  11  22  44  71 102 136 190 250 280 329 427
#     4  11  22  47  74 105 141 189 230 297 358 407
#     4  12  24  43  71 107 144 179 233 299 353 418
#
# _framework density 24.21923
#
# number of rings (size 3 to 8) (size 9 to 14) (size 15 to 20)
#    0.857    0.571    1.429    3.857    0.000    4.571 
#    7.714    5.714    0.000    1.714    0.000    0.000 
#    0.000    0.000    0.000    0.000    0.000    0.000 
#
# Total GULP energy -78240.360455 kJ/mol
# GULP energy per Si atom -5588.597175 kJ/mol
# Density = 2.416411 g / cm^3
# Si number density = 24.219230 Si / 1000 Ang^3
#
#
#
# Elastic Constant Matrix: (Units=GPa)
#
#
# Indices 1 2 3 4 5 6 
#
# 1 145.8833 44.2030 58.0307 5.6387 37.2828 -8.5839
# 2 44.2030 90.1695 31.9687 1.6629 18.9268 2.1448
# 3 58.0307 31.9687 139.9212 2.5460 27.6228 -17.5420
# 4 5.6387 1.6629 2.5460 18.8672 -5.2922 5.6374
# 5 37.2828 18.9268 27.6228 -5.2922 41.6171 -10.1041
# 6 -8.5839 2.1448 -17.5420 5.6374 -10.1041 27.4228
#
#
#
# Elastic Compliance Matrix: (Units=1/GPa)
#
#
# Indices 1 2 3 4 5 6 
#
# 1 0.010669 -0.002841 -0.002185 -0.004834 -0.007318 0.000461
# 2 -0.002841 0.014026 -0.001880 0.000206 -0.003672 -0.004584
# 3 -0.002185 -0.001880 0.009733 -0.002834 -0.002730 0.005266
# 4 -0.004834 0.000206 -0.002834 0.061467 0.011042 -0.011909
# 5 -0.007318 -0.003672 -0.002730 0.011042 0.037350 0.007742
# 6 0.000461 -0.004584 0.005266 -0.011909 0.007742 0.045639
#
#
# Mechanical properties :
#
#
# Convention : Reuss Voigt Hill
#
# Bulk Modulus (GPa) = 48.50644 71.59767 60.05205
# Shear Modulus (GPa) = 25.05413 33.69954 29.37683
#
# Velocity S-wave (km/s) = 3.21981 3.73424 3.48653
# Velocity P-wave (km/s) = 5.82189 6.94401 6.40756
#
# Compressibility (1/GPa) = 0.02061582
#
# Stress axis : x y z
#
# Youngs Moduli (GPa) = 93.72754 71.29836 102.74009
#
# Poissons Ratio (x) = 0.20258 0.22451
# Poissons Ratio (y) = 0.26630 0.19311
# Poissons Ratio (z) = 0.20482 0.13401
#
# Static dielectric constant tensor:
#      x y z
#    x 1.981850 -0.019140 -0.038200 
#    y -0.019140 1.901200 0.036600 
#    z -0.038200 0.036600 1.989160 
# 
# From -- ./inp_files/395341.got.cif
#   From: 2010.05.17/outbox.cif.g08.bks.cpg/sg2_198_cif.got.tgz:395341.got - 2010.06.03 11:33:40.
