data_PCOD9017058
_publ_section_title
;
Structure prediction by ZEFSAII (Michael W. Deem and Ramdas Pophale) SiO2 
 PCOD9017058
Probable space group: P -1
;
_chemical_formula_sum "Si O2"
_cell_formula_units_Z 14
_cell_length_a 13.648321
_cell_length_b 11.288554
_cell_length_c 9.632664
_cell_angle_alpha 63.981242
_cell_angle_beta 75.165724
_cell_angle_gamma 30.491199
_cell_volume 652.060023
_symmetry_space_group_name_H-M "P -1"
_symmetry_group_IT_number 2
_symmetry_cell_setting 'triclinic'
loop_
_space_group_symop_operation_xyz
x,y,z
-x,-y,-z
loop_
_atom_site_type_symbol
_atom_site_label
_atom_site_fract_x
_atom_site_fract_y
_atom_site_fract_z
Si Si1 0.379133 0.051397 0.403172
Si Si2 0.233778 0.260015 0.050586
Si Si3 0.237709 0.754734 0.543857
Si Si4 0.571147 0.699812 0.122144
Si Si5 0.144989 0.096809 0.593012
Si Si6 0.503748 0.648010 0.881081
Si Si7 0.704031 0.472138 0.607132
O O1 0.185374 0.195944 0.465102
O O2 0.541489 0.756459 0.459721
O O3 0.500000 0.000000 0.500000
O O4 0.307906 0.200659 0.212315
O O5 0.353059 0.996173 0.093689
O O6 0.295276 0.317776 0.907649
O O7 0.000000 0.500000 0.000000
O O8 0.340594 0.520953 0.711077
O O9 0.250313 0.877080 0.558624
O O10 0.304382 0.654737 0.412385
O O11 0.000000 0.000000 0.500000
O O12 0.566295 0.659084 0.986246
O O13 0.281664 0.936012 0.762676
O O14 0.921190 0.297334 0.598643
O O15 0.648115 0.511205 0.767327
O O16 0.500000 0.500000 0.000000
#
# Coordination Sequence:
#
# PCOD9017058 Si02
#       7
#     2   2   2   2   2   2   2
#     4  11  24  43  67  98 134 176 230 279 331 400
#     4  11  26  43  70 100 133 183 227 276 342 400
#     4  10  21  42  70  99 128 178 226 278 332 408
#     4  11  24  46  66  97 143 170 223 284 334 398
#     4  10  23  41  69  98 132 172 228 274 340 404
#     4  11  23  41  63 100 138 173 215 278 341 403
#     4  10  23  42  67  96 132 175 223 275 337 395
#
# _framework density 21.470414999999999
#
# number of rings (size 3 to 8) (size 9 to 14) (size 15 to 20)
#    0.000    1.429    2.857    1.714    4.000    6.857 
#    2.571    0.000    0.000    0.000    0.000    0.000 
#    0.000    0.000    0.000    0.000    0.000    0.000 
#
# Total GULP energy -78224.153647 kJ/mol
# GULP energy per Si atom -5587.439546 kJ/mol
# Density = 2.142155 g / cm^3
# Si number density = 21.470415 Si / 1000 Ang^3
#
#
#
# Elastic Constant Matrix: (Units=GPa)
#
#
# Indices 1 2 3 4 5 6 
#
# 1 91.7859 47.1406 36.4310 -0.3022 -4.8569 -4.2858
# 2 47.1406 115.3765 41.8685 -1.2956 7.6496 -23.6644
# 3 36.4310 41.8685 96.9336 15.5896 3.5232 -2.9940
# 4 -0.3022 -1.2956 15.5896 21.0902 10.6894 1.7977
# 5 -4.8569 7.6496 3.5232 10.6894 36.7528 10.5534
# 6 -4.2858 -23.6644 -2.9940 1.7977 10.5534 38.3227
#
#
#
# Elastic Compliance Matrix: (Units=1/GPa)
#
#
# Indices 1 2 3 4 5 6 
#
# 1 0.015498 -0.006067 -0.003557 0.000484 0.004534 -0.003563
# 2 -0.006067 0.016058 -0.005369 0.008644 -0.009294 0.010972
# 3 -0.003557 -0.005369 0.015985 -0.013986 0.004020 -0.002915
# 4 0.000484 0.008644 -0.013986 0.069119 -0.022587 0.007277
# 5 0.004534 -0.009294 0.004020 -0.022587 0.040214 -0.014933
# 6 -0.003563 0.010972 -0.002915 0.007277 -0.014933 0.036014
#
#
# Mechanical properties :
#
#
# Convention : Reuss Voigt Hill
#
# Bulk Modulus (GPa) = 56.96330 61.66402 59.31366
# Shear Modulus (GPa) = 21.86003 31.14354 26.50178
#
# Velocity S-wave (km/s) = 3.19430 3.81272 3.51713
# Velocity P-wave (km/s) = 6.33983 6.94012 6.64675
#
# Compressibility (1/GPa) = 0.01755516
#
# Stress axis : x y z
#
# Youngs Moduli (GPa) = 64.52469 62.27257 62.55716
#
# Poissons Ratio (x) = 0.37783 0.22249
# Poissons Ratio (y) = 0.39150 0.33588
# Poissons Ratio (z) = 0.22949 0.33436
#
# Static dielectric constant tensor:
#      x y z
#    x 1.757150 0.024220 0.004670 
#    y 0.024220 1.786000 0.039230 
#    z 0.004670 0.039230 1.791490 
# 
# From -- ./inp_files/307002.got.cif
#   From: 2010.05.17/outbox.cif.g08.bks.cpg/sg2_154_cif.got.tgz:307002.got - 2010.06.03 11:33:40.
