data_PCOD9017434
_publ_section_title
;
Structure prediction by ZEFSAII (Michael W. Deem and Ramdas Pophale) SiO2 
 PCOD9017434
Probable space group: P -1
;
_chemical_formula_sum "Si O2"
_cell_formula_units_Z 14
_cell_length_a 10.995605
_cell_length_b 9.419112
_cell_length_c 11.686927
_cell_angle_alpha 59.118318
_cell_angle_beta 132.582839
_cell_angle_gamma 141.617030
_cell_volume 552.981232
_symmetry_space_group_name_H-M "P -1"
_symmetry_group_IT_number 2
_symmetry_cell_setting 'triclinic'
loop_
_space_group_symop_operation_xyz
x,y,z
-x,-y,-z
loop_
_atom_site_type_symbol
_atom_site_label
_atom_site_fract_x
_atom_site_fract_y
_atom_site_fract_z
Si Si1 0.230098 0.976892 0.596681
Si Si2 0.405501 0.058802 0.113619
Si Si3 0.500000 0.500000 0.000000
Si Si4 0.500000 0.500000 0.500000
Si Si5 0.057650 0.392230 0.883279
Si Si6 0.716264 0.681010 0.785835
Si Si7 0.106064 0.797978 0.827231
Si Si8 0.984236 0.795682 0.283739
O O1 0.375262 0.237894 0.550149
O O2 0.408082 0.950996 0.739185
O O3 0.097307 0.895315 0.665496
O O4 0.064056 0.822899 0.450379
O O5 0.490859 0.293171 0.112985
O O6 0.168813 0.841002 0.111017
O O7 0.329794 0.999067 0.957402
O O8 0.731211 0.687333 0.151235
O O9 0.495360 0.535712 0.626786
O O10 0.103864 0.602401 0.877336
O O11 0.008854 0.356295 0.733209
O O12 0.264328 0.404087 0.044093
O O13 0.877431 0.682374 0.801033
O O14 0.846083 0.944992 0.767712
#
# Coordination Sequence:
#
# PCOD9017434 Si02
#       8
#     2   2   1   1   2   2   2   2
#     4  11  25  45  67 105 141 173 235 282 345 408
#     4  11  24  44  71 104 134 182 230 280 346 410
#     4  12  24  44  66  98 140 182 230 272 340 406
#     4  10  22  40  68  96 138 176 216 292 338 400
#     4  11  22  42  72  95 137 178 231 284 336 408
#     4  10  21  43  63 101 132 175 229 275 342 413
#     4  11  22  42  71  99 136 177 227 285 341 403
#     4  11  25  44  65  98 138 185 225 281 342 402
#
# _framework density 25.317316000000002
#
# number of rings (size 3 to 8) (size 9 to 14) (size 15 to 20)
#    0.000    1.143    2.857    5.143    0.000    6.286 
#    5.143    0.000    0.000    0.000    0.000    0.000 
#    0.000    0.000    0.000    0.000    0.000    0.000 
#
# Total GULP energy -78001.032029 kJ/mol
# GULP energy per Si atom -5571.502288 kJ/mol
# Density = 2.525969 g / cm^3
# Si number density = 25.317316 Si / 1000 Ang^3
#
#
#
# Elastic Constant Matrix: (Units=GPa)
#
#
# Indices 1 2 3 4 5 6 
#
# 1 51.4556 31.1384 19.7286 2.0392 -1.7963 -19.0219
# 2 31.1384 149.0318 27.0772 -6.6006 -6.6372 -30.6043
# 3 19.7286 27.0772 135.0637 -2.3750 -39.7384 -6.2480
# 4 2.0392 -6.6006 -2.3750 31.8795 -11.3536 -4.3737
# 5 -1.7963 -6.6372 -39.7384 -11.3536 35.8017 -4.2503
# 6 -19.0219 -30.6043 -6.2480 -4.3737 -4.2503 50.4764
#
#
#
# Elastic Compliance Matrix: (Units=1/GPa)
#
#
# Indices 1 2 3 4 5 6 
#
# 1 0.025459 -0.003639 -0.003958 -0.003271 -0.004083 0.006271
# 2 -0.003639 0.008703 -0.000014 0.003771 0.003145 0.004495
# 3 -0.003958 -0.000014 0.013313 0.007712 0.017291 0.002272
# 4 -0.003271 0.003771 0.007712 0.042324 0.023425 0.007648
# 5 -0.004083 0.003145 0.017291 0.023425 0.056030 0.009256
# 6 0.006271 0.004495 0.002272 0.007648 0.009256 0.026623
#
#
# Mechanical properties :
#
#
# Convention : Reuss Voigt Hill
#
# Bulk Modulus (GPa) = 31.00466 54.60438 42.80452
# Shear Modulus (GPa) = 25.19844 40.80531 33.00188
#
# Velocity S-wave (km/s) = 3.15827 4.01902 3.61436
# Velocity P-wave (km/s) = 5.05693 6.56898 5.86191
#
# Compressibility (1/GPa) = 0.03225322
#
# Stress axis : x y z
#
# Youngs Moduli (GPa) = 39.27837 114.90313 75.11538
#
# Poissons Ratio (x) = 0.41817 0.29731
# Poissons Ratio (y) = 0.14295 0.00102
# Poissons Ratio (z) = 0.15547 0.00156
#
# Static dielectric constant tensor:
#      x y z
#    x 1.947000 0.062200 0.041040 
#    y 0.062200 1.887630 -0.009930 
#    z 0.041040 -0.009930 2.049320 
# 
# From -- ./inp_files/184442.got.cif
#   From: 2010.05.17/outbox.cif.g08.bks.cpg/sg2_93_cif.got.tgz:184442.got - 2010.06.03 11:33:40.
