data_PCOD9017448
_publ_section_title
;
Structure prediction by ZEFSAII (Michael W. Deem and Ramdas Pophale) SiO2 
 PCOD9017448
Probable space group: P -1
;
_chemical_formula_sum "Si O2"
_cell_formula_units_Z 16
_cell_length_a 6.819249
_cell_length_b 16.281393
_cell_length_c 22.938615
_cell_angle_alpha 20.886476
_cell_angle_beta 68.428603
_cell_angle_gamma 76.989202
_cell_volume 788.739842
_symmetry_space_group_name_H-M "P -1"
_symmetry_group_IT_number 2
_symmetry_cell_setting 'triclinic'
loop_
_space_group_symop_operation_xyz
x,y,z
-x,-y,-z
loop_
_atom_site_type_symbol
_atom_site_label
_atom_site_fract_x
_atom_site_fract_y
_atom_site_fract_z
Si Si1 0.650166 0.980378 0.665499
Si Si2 0.440420 0.203826 0.334357
Si Si3 0.122515 0.383590 0.323957
Si Si4 0.651569 0.073529 0.094849
Si Si5 0.773955 0.910366 0.307586
Si Si6 0.649993 0.427936 0.706295
Si Si7 0.749218 0.959602 0.036280
Si Si8 0.264200 0.237774 0.081595
O O1 0.604466 0.868918 0.679942
O O2 0.707077 0.809373 0.821491
O O3 0.431481 0.034072 0.675563
O O4 0.869515 0.228617 0.472621
O O5 0.221543 0.238244 0.364266
O O6 0.500000 0.000000 0.500000
O O7 0.638364 0.472883 0.135926
O O8 0.279528 0.439887 0.327028
O O9 0.162200 0.652601 0.115500
O O10 0.617807 0.943996 0.122075
O O11 0.427027 0.116554 0.112137
O O12 0.739182 0.938371 0.224491
O O13 0.749174 0.635271 0.510046
O O14 0.010100 0.100697 0.179061
O O15 0.382714 0.284845 0.823110
O O16 0.744019 0.204170 0.842883
O O17 0.000000 0.000000 0.000000
#
# Coordination Sequence:
#
# PCOD9017448 Si02
#       8
#     2   2   2   2   2   2   2   2
#     4  11  23  41  64  91 126 169 210 257 317 367
#     4  11  24  39  63  96 123 167 217 262 310 363
#     4  10  21  43  63  89 131 165 208 262 308 374
#     4   9  23  40  63  94 122 163 204 255 314 368
#     4  11  23  40  67  91 123 172 205 255 311 375
#     4  10  22  40  63  94 124 164 209 245 314 373
#     4  10  23  41  66  97 127 161 203 259 309 374
#     4  10  23  44  61  87 132 165 207 258 311 374
#
# _framework density 20.285522
#
# number of rings (size 3 to 8) (size 9 to 14) (size 15 to 20)
#    0.000    1.750    1.250    1.500    5.250    5.000 
#    2.250    1.250    0.000    0.000    0.000    0.000 
#    0.000    0.000    0.000    0.000    0.000    0.000 
#
# Total GULP energy -89409.625472 kJ/mol
# GULP energy per Si atom -5588.101592 kJ/mol
# Density = 2.023935 g / cm^3
# Si number density = 20.285522 Si / 1000 Ang^3
#
#
#
# Elastic Constant Matrix: (Units=GPa)
#
#
# Indices 1 2 3 4 5 6 
#
# 1 118.8672 34.0662 74.7440 3.5933 -14.0454 18.0602
# 2 34.0662 70.8360 24.9975 5.4370 4.3091 14.3599
# 3 74.7440 24.9975 133.6050 15.0517 6.9876 10.3596
# 4 3.5933 5.4370 15.0517 23.5640 10.3306 -3.0622
# 5 -14.0454 4.3091 6.9876 10.3306 46.0242 7.3948
# 6 18.0602 14.3599 10.3596 -3.0622 7.3948 18.5064
#
#
#
# Elastic Compliance Matrix: (Units=1/GPa)
#
#
# Indices 1 2 3 4 5 6 
#
# 1 0.018465 -0.003061 -0.008759 -0.003086 0.010421 -0.015416
# 2 -0.003061 0.018583 -0.000199 -0.005588 0.000618 -0.012493
# 3 -0.008759 -0.000199 0.013018 -0.004964 -0.003860 0.002136
# 4 -0.003086 -0.005588 -0.004964 0.058281 -0.017016 0.026570
# 5 0.010421 0.000618 -0.003860 -0.017016 0.033203 -0.024571
# 6 -0.015416 -0.012493 0.002136 0.026570 -0.024571 0.091792
#
#
# Mechanical properties :
#
#
# Convention : Reuss Voigt Hill
#
# Bulk Modulus (GPa) = 38.41993 65.65818 52.03906
# Shear Modulus (GPa) = 18.79310 30.25228 24.52269
#
# Velocity S-wave (km/s) = 3.04703 3.86596 3.48066
# Velocity P-wave (km/s) = 5.59999 7.23635 6.47011
#
# Compressibility (1/GPa) = 0.02602815
#
# Stress axis : x y z
#
# Youngs Moduli (GPa) = 54.15763 53.81238 76.81924
#
# Poissons Ratio (x) = 0.16471 0.67287
# Poissons Ratio (y) = 0.16577 0.01526
# Poissons Ratio (z) = 0.47437 0.01069
#
# Static dielectric constant tensor:
#      x y z
#    x 1.717400 0.002160 0.008850 
#    y 0.002160 1.722410 0.008550 
#    z 0.008850 0.008550 1.714030 
# 
# From -- ./inp_files/99896.got.cif
#   From: 2010.05.17/outbox.cif.g08.bks.cpg/sg2_50_cif.got.tgz:99896.got - 2010.06.03 11:33:40.
