data_PCOD9017144
_publ_section_title
;
Structure prediction by ZEFSAII (Michael W. Deem and Ramdas Pophale) SiO2 
 PCOD9017144
Probable space group: P -1
;
_chemical_formula_sum "Si O2"
_cell_formula_units_Z 14
_cell_length_a 8.819747
_cell_length_b 12.341376
_cell_length_c 9.649658
_cell_angle_alpha 56.107179
_cell_angle_beta 77.672095
_cell_angle_gamma 50.430411
_cell_volume 655.392264
_symmetry_space_group_name_H-M "P -1"
_symmetry_group_IT_number 2
_symmetry_cell_setting 'triclinic'
loop_
_space_group_symop_operation_xyz
x,y,z
-x,-y,-z
loop_
_atom_site_type_symbol
_atom_site_label
_atom_site_fract_x
_atom_site_fract_y
_atom_site_fract_z
Si Si1 0.398728 0.167409 0.307655
Si Si2 0.001296 0.008355 0.659633
Si Si3 0.592788 0.514796 0.334971
Si Si4 0.338123 0.099798 0.781351
Si Si5 0.655246 0.110780 0.859763
Si Si6 0.954832 0.707345 0.538081
Si Si7 0.597638 0.338205 0.190651
O O1 0.164434 0.275382 0.313622
O O2 0.471018 0.271886 0.263273
O O3 0.500000 0.000000 0.500000
O O4 0.490402 0.078284 0.205716
O O5 0.186796 0.818058 0.801358
O O6 0.047032 0.134605 0.588325
O O7 0.000000 0.000000 0.500000
O O8 0.803669 0.071190 0.734903
O O9 0.500000 0.500000 0.500000
O O10 0.436648 0.710565 0.179651
O O11 0.620252 0.390711 0.300247
O O12 0.812054 0.453879 0.376804
O O13 0.463988 0.138747 0.812508
O O14 0.180869 0.253879 0.597679
O O15 0.241171 0.046162 0.942683
O O16 0.500000 0.500000 0.000000
#
# Coordination Sequence:
#
# PCOD9017144 Si02
#       7
#     2   2   2   2   2   2   2
#     4  10  21  42  71  95 129 177 232 268 324 412
#     4  12  22  43  71  97 127 184 229 266 335 415
#     4  12  26  43  65 102 138 169 222 285 334 394
#     4  10  23  43  67  96 130 183 222 274 338 403
#     4  11  25  44  66  95 142 173 220 281 342 400
#     4  11  23  39  71  95 124 180 228 269 327 405
#     4  12  26  45  69 104 137 174 227 287 337 394
#
# _framework density 21.361253000000001
#
# number of rings (size 3 to 8) (size 9 to 14) (size 15 to 20)
#    0.000    0.857    5.714    1.714    6.000    2.286 
#    5.143    1.429    0.000    0.000    0.000    0.000 
#    0.000    0.000    0.000    0.000    0.000    0.000 
#
# Total GULP energy -78199.692660 kJ/mol
# GULP energy per Si atom -5585.692333 kJ/mol
# Density = 2.131263 g / cm^3
# Si number density = 21.361253 Si / 1000 Ang^3
#
#
#
# Elastic Constant Matrix: (Units=GPa)
#
#
# Indices 1 2 3 4 5 6 
#
# 1 67.5760 32.1903 16.3674 -0.5572 -20.9636 -6.4534
# 2 32.1903 91.8689 23.0477 -8.5860 -13.3030 -10.2620
# 3 16.3674 23.0477 69.1963 -4.0648 -11.1809 -4.6286
# 4 -0.5572 -8.5860 -4.0648 38.1109 0.0453 -1.2306
# 5 -20.9636 -13.3030 -11.1809 0.0453 30.9758 0.7369
# 6 -6.4534 -10.2620 -4.6286 -1.2306 0.7369 46.6082
#
#
#
# Elastic Compliance Matrix: (Units=1/GPa)
#
#
# Indices 1 2 3 4 5 6 
#
# 1 0.021459 -0.005426 -0.001346 -0.001020 0.011674 0.001431
# 2 -0.005426 0.014221 -0.002927 0.002880 0.001323 0.002144
# 3 -0.001346 -0.002927 0.016468 0.001098 0.003756 0.000774
# 4 -0.001020 0.002880 0.001098 0.027031 0.000872 0.001302
# 5 0.011674 0.001323 0.003756 0.000872 0.042068 0.001639
# 6 0.001431 0.002144 0.000774 0.001302 0.001639 0.022211
#
#
# Mechanical properties :
#
#
# Convention : Reuss Voigt Hill
#
# Bulk Modulus (GPa) = 30.53498 41.31688 35.92593
# Shear Modulus (GPa) = 28.77314 33.60804 31.19059
#
# Velocity S-wave (km/s) = 3.67410 3.97081 3.82533
# Velocity P-wave (km/s) = 5.68545 6.35666 6.03040
#
# Compressibility (1/GPa) = 0.03274933
#
# Stress axis : x y z
#
# Youngs Moduli (GPa) = 46.60071 70.31864 60.72332
#
# Poissons Ratio (x) = 0.38157 0.08175
# Poissons Ratio (y) = 0.25287 0.17772
# Poissons Ratio (z) = 0.06274 0.20580
#
# Static dielectric constant tensor:
#      x y z
#    x 1.812760 -0.004460 0.053170 
#    y -0.004460 1.790460 0.039610 
#    z 0.053170 0.039610 1.799530 
# 
# From -- ./inp_files/184434.got.cif
#   From: 2010.05.17/outbox.cif.g08.bks.cpg/sg2_93_cif.got.tgz:184434.got - 2010.06.03 11:33:40.
