data_PCOD9017043
_publ_section_title
;
Structure prediction by ZEFSAII (Michael W. Deem and Ramdas Pophale) SiO2 
 PCOD9017043
Probable space group: P -1
;
_chemical_formula_sum "Si O2"
_cell_formula_units_Z 14
_cell_length_a 6.888268
_cell_length_b 9.597683
_cell_length_c 11.777109
_cell_angle_alpha 70.885000
_cell_angle_beta 109.965467
_cell_angle_gamma 67.167793
_cell_volume 571.532769
_symmetry_space_group_name_H-M "P -1"
_symmetry_group_IT_number 2
_symmetry_cell_setting 'triclinic'
loop_
_space_group_symop_operation_xyz
x,y,z
-x,-y,-z
loop_
_atom_site_type_symbol
_atom_site_label
_atom_site_fract_x
_atom_site_fract_y
_atom_site_fract_z
Si Si1 0.283232 0.890531 0.127831
Si Si2 0.710398 0.632346 0.680980
Si Si3 0.399296 0.374154 0.582339
Si Si4 0.685861 0.106040 0.117950
Si Si5 0.956137 0.688267 0.317576
Si Si6 0.365851 0.447411 0.080445
Si Si7 0.898673 0.810298 0.824730
O O1 0.357548 0.722510 0.265259
O O2 0.292301 0.027839 0.174320
O O3 0.414062 0.840506 0.045936
O O4 0.000000 0.000000 0.000000
O O5 0.562837 0.708077 0.513213
O O6 0.576365 0.590979 0.763766
O O7 0.781889 0.761970 0.713107
O O8 0.959493 0.444467 0.738201
O O9 0.227260 0.334138 0.633905
O O10 0.223073 0.585608 0.466612
O O11 0.453056 0.252889 0.106473
O O12 0.908118 0.134522 0.183537
O O13 0.817167 0.895986 0.212641
O O14 0.500000 0.500000 0.000000
O O15 0.083709 0.619729 0.974092
#
# Coordination Sequence:
#
# PCOD9017043 Si02
#       7
#     2   2   2   2   2   2   2
#     4  10  22  42  68  97 135 185 234 286 333 422
#     4  10  21  42  70  97 141 180 230 283 352 408
#     4   9  22  42  71 100 140 178 239 283 350 406
#     4  10  22  40  69  97 137 179 240 276 341 413
#     4   9  21  43  69 103 132 189 229 283 345 413
#     4  10  22  39  66 104 140 180 224 287 350 401
#     4  10  22  40  63 102 138 177 228 285 345 408
#
# _framework density 24.495531
#
# number of rings (size 3 to 8) (size 9 to 14) (size 15 to 20)
#    0.857    1.429    0.000    1.286    4.000    2.286 
#    0.000    3.571    9.429    0.000    0.000    0.000 
#    0.000    0.000    0.000    0.000    0.000    0.000 
#
# Total GULP energy -78068.568779 kJ/mol
# GULP energy per Si atom -5576.326341 kJ/mol
# Density = 2.443978 g / cm^3
# Si number density = 24.495531 Si / 1000 Ang^3
#
#
#
# Elastic Constant Matrix: (Units=GPa)
#
#
# Indices 1 2 3 4 5 6 
#
# 1 79.0796 44.1551 33.0369 15.8852 -16.8230 11.7754
# 2 44.1551 198.7952 58.4219 12.1077 -11.7398 -6.8817
# 3 33.0369 58.4219 175.9119 6.5505 -22.3861 -8.7738
# 4 15.8852 12.1077 6.5505 45.4254 -6.6140 -2.1727
# 5 -16.8230 -11.7398 -22.3861 -6.6140 45.3312 0.3523
# 6 11.7754 -6.8817 -8.7738 -2.1727 0.3523 54.2546
#
#
#
# Elastic Compliance Matrix: (Units=1/GPa)
#
#
# Indices 1 2 3 4 5 6 
#
# 1 0.017637 -0.003005 -0.001839 -0.004715 0.004208 -0.004723
# 2 -0.003005 0.006170 -0.001449 -0.000371 -0.000296 0.001187
# 3 -0.001839 -0.001449 0.006865 0.000451 0.002388 0.001328
# 4 -0.004715 -0.000371 0.000451 0.024065 0.001872 0.002001
# 5 0.004208 -0.000296 0.002388 0.001872 0.025002 -0.000652
# 6 -0.004723 0.001187 0.001328 0.002001 -0.000652 0.019906
#
#
# Mechanical properties :
#
#
# Convention : Reuss Voigt Hill
#
# Bulk Modulus (GPa) = 55.29369 80.55716 67.92542
# Shear Modulus (GPa) = 42.27991 50.21378 46.24684
#
# Velocity S-wave (km/s) = 4.15905 4.53251 4.34979
# Velocity P-wave (km/s) = 6.75911 7.76849 7.28131
#
# Compressibility (1/GPa) = 0.01808525
#
# Stress axis : x y z
#
# Youngs Moduli (GPa) = 56.69925 162.07776 145.67338
#
# Poissons Ratio (x) = 0.48702 0.26787
# Poissons Ratio (y) = 0.17037 0.21114
# Poissons Ratio (z) = 0.10426 0.23492
#
# Static dielectric constant tensor:
#      x y z
#    x 2.241460 -0.013800 0.034910 
#    y -0.013800 1.925910 -0.019650 
#    z 0.034910 -0.019650 2.001230 
# 
# From -- ./inp_files/389787.got.cif
#   From: 2010.05.17/outbox.cif.g08.bks.cpg/sg2_195_cif.got.tgz:389787.got - 2010.06.03 11:33:40.
