data_PCOD9017512
_publ_section_title
;
Structure prediction by ZEFSAII (Michael W. Deem and Ramdas Pophale) SiO2 
 PCOD9017512
Probable space group: P -1
;
_chemical_formula_sum "Si O2"
_cell_formula_units_Z 15
_cell_length_a 11.786626
_cell_length_b 6.130176
_cell_length_c 22.800150
_cell_angle_alpha 130.127718
_cell_angle_beta 30.608884
_cell_angle_gamma 129.057719
_cell_volume 629.220535
_symmetry_space_group_name_H-M "P -1"
_symmetry_group_IT_number 2
_symmetry_cell_setting 'triclinic'
loop_
_space_group_symop_operation_xyz
x,y,z
-x,-y,-z
loop_
_atom_site_type_symbol
_atom_site_label
_atom_site_fract_x
_atom_site_fract_y
_atom_site_fract_z
Si Si1 0.967069 0.763255 0.817775
Si Si2 0.079518 0.826268 0.566387
Si Si3 0.664917 0.624023 0.395616
Si Si4 0.588445 0.614489 0.650599
Si Si5 0.711209 0.788814 0.817030
Si Si6 0.872759 0.570977 0.126164
Si Si7 0.000000 0.000000 0.500000
Si Si8 0.733788 0.441413 0.961655
O O1 0.121743 0.531419 0.720515
O O2 0.871505 0.732627 0.789751
O O3 0.761024 0.691438 0.943829
O O4 0.112868 0.083129 0.817424
O O5 0.205573 0.554382 0.456148
O O6 0.064527 0.993097 0.541278
O O7 0.838409 0.740076 0.692177
O O8 0.237768 0.039407 0.578247
O O9 0.500000 0.500000 0.500000
O O10 0.540007 0.544458 0.376417
O O11 0.386039 0.595206 0.783166
O O12 0.727314 0.928629 0.625950
O O13 0.696772 0.128902 0.890732
O O14 0.468021 0.593995 0.907297
O O15 0.030493 0.505380 0.098211
O O16 0.000000 0.500000 0.000000
#
# Coordination Sequence:
#
# PCOD9017512 Si02
#       8
#     2   2   2   2   2   2   1   2
#     4  11  21  43  68 107 136 181 241 292 347 421
#     4  12  25  47  72 108 143 190 233 295 367 412
#     4  12  21  42  76 105 135 183 240 291 353 415
#     4  12  26  50  71 104 146 182 247 299 343 437
#     4  10  22  39  71 102 146 174 226 292 353 413
#     4  11  26  45  68  98 141 189 234 292 354 415
#     4  12  30  48  68 104 150 192 238 286 358 444
#     4  10  21  43  64 106 139 179 232 286 343 428
#
# _framework density 23.839017999999999
#
# number of rings (size 3 to 8) (size 9 to 14) (size 15 to 20)
#    0.000    0.800    4.000    3.600    1.867    0.533 
#    2.400    0.000    0.000    0.000    0.000    0.000 
#    0.000    0.000    0.000    0.000    0.000    0.000 
#
# Total GULP energy -83711.015448 kJ/mol
# GULP energy per Si atom -5580.734363 kJ/mol
# Density = 2.378476 g / cm^3
# Si number density = 23.839018 Si / 1000 Ang^3
#
#
#
# Elastic Constant Matrix: (Units=GPa)
#
#
# Indices 1 2 3 4 5 6 
#
# 1 38.4541 -1.0038 12.0136 -6.5065 -0.5566 -6.6504
# 2 -1.0038 24.0236 30.6718 -29.9626 -3.8621 -0.5063
# 3 12.0136 30.6718 182.1184 -54.4616 8.4318 -6.8896
# 4 -6.5065 -29.9626 -54.4616 56.3975 -3.2447 1.7087
# 5 -0.5566 -3.8621 8.4318 -3.2447 37.7130 -15.3619
# 6 -6.6504 -0.5063 -6.8896 1.7087 -15.3619 31.5275
#
#
#
# Elastic Compliance Matrix: (Units=1/GPa)
#
#
# Indices 1 2 3 4 5 6 
#
# 1 0.031415 0.023005 -0.001642 0.014447 0.008502 0.009997
# 2 0.023005 0.157807 -0.003725 0.084190 0.031684 0.017448
# 3 -0.001642 -0.003725 0.007919 0.005378 -0.001613 0.000247
# 4 0.014447 0.084190 0.005378 0.070033 0.017944 0.010523
# 5 0.008502 0.031684 -0.001613 0.017944 0.040159 0.020545
# 6 0.009997 0.017448 0.000247 0.010523 0.020545 0.043602
#
#
# Mechanical properties :
#
#
# Convention : Reuss Voigt Hill
#
# Bulk Modulus (GPa) = 4.30263 36.43992 20.37127
# Shear Modulus (GPa) = 12.71836 38.65522 25.68679
#
# Velocity S-wave (km/s) = 2.31229 4.03117 3.28611
# Velocity P-wave (km/s) = 2.98960 6.08162 4.79186
#
# Compressibility (1/GPa) = 0.23241602
#
# Stress axis : x y z
#
# Youngs Moduli (GPa) = 31.83209 6.33685 126.27809
#
# Poissons Ratio (x) = -0.14578 0.20733
# Poissons Ratio (y) = -0.73228 0.47041
# Poissons Ratio (z) = 0.05226 0.02361
#
# Static dielectric constant tensor:
#      x y z
#    x 1.960980 0.000750 0.038100 
#    y 0.000750 2.023770 -0.024470 
#    z 0.038100 -0.024470 1.952900 
# 
# From -- ./inp_files/609239.got.cif
#   From: 2010.05.17/outbox.cif.g08.bks.cpg/sg2_305_cif.got.tgz:609239.got - 2010.06.03 11:33:40.
