data_PCOD9017522
_publ_section_title
;
Structure prediction by ZEFSAII (Michael W. Deem and Ramdas Pophale) SiO2 
 PCOD9017522
Probable space group: P -1
;
_chemical_formula_sum "Si O2"
_cell_formula_units_Z 16
_cell_length_a 11.576773
_cell_length_b 8.435303
_cell_length_c 14.491314
_cell_angle_alpha 70.841121
_cell_angle_beta 86.012188
_cell_angle_gamma 36.328010
_cell_volume 742.338753
_symmetry_space_group_name_H-M "P -1"
_symmetry_group_IT_number 2
_symmetry_cell_setting 'triclinic'
loop_
_space_group_symop_operation_xyz
x,y,z
-x,-y,-z
loop_
_atom_site_type_symbol
_atom_site_label
_atom_site_fract_x
_atom_site_fract_y
_atom_site_fract_z
Si Si1 0.356348 0.446723 0.586794
Si Si2 0.252483 0.299472 0.475044
Si Si3 0.169718 0.482196 0.738003
Si Si4 0.776839 0.019551 0.532214
Si Si5 0.055244 0.246337 0.760362
Si Si6 0.653246 0.661526 0.060771
Si Si7 0.464637 0.551130 0.881297
Si Si8 0.172919 0.656407 0.084538
O O1 0.232765 0.459997 0.527048
O O2 0.360501 0.346282 0.703040
O O3 0.573615 0.217090 0.566948
O O4 0.255649 0.752561 0.546009
O O5 0.111752 0.533713 0.353754
O O6 0.500000 0.000000 0.500000
O O7 0.199491 0.162355 0.508671
O O8 0.174837 0.277648 0.760151
O O9 0.170807 0.517493 0.839006
O O10 0.965706 0.791461 0.637410
O O11 0.929733 0.351554 0.839468
O O12 0.234705 0.892604 0.804848
O O13 0.525326 0.654305 0.105189
O O14 0.742570 0.521894 0.980987
O O15 0.500000 0.000000 0.000000
O O16 0.639587 0.467732 0.852788
O O17 0.500000 0.500000 0.000000
O O18 0.000000 0.000000 0.000000
#
# Coordination Sequence:
#
# PCOD9017522 Si02
#       8
#     2   2   2   2   2   2   2   2
#     4  10  21  43  64  89 139 169 212 281 333 389
#     4   9  21  40  65  97 130 175 230 274 334 405
#     4  11  24  41  62  96 131 168 220 267 336 396
#     4   9  21  40  63  95 128 168 222 273 327 403
#     4  11  23  42  69 100 130 182 229 278 338 410
#     4  11  25  43  66  98 138 172 220 282 343 402
#     4  10  21  43  65  95 133 166 228 275 332 405
#     4  11  23  45  70  93 133 181 225 282 337 405
#
# _framework density 21.553502000000002
#
# number of rings (size 3 to 8) (size 9 to 14) (size 15 to 20)
#    0.000    1.750    2.500    1.875    1.750    8.500 
#   11.250    0.000    0.000    0.000    0.000    0.000 
#    0.000    0.000    0.000    0.000    0.000    0.000 
#
# Total GULP energy -89337.007515 kJ/mol
# GULP energy per Si atom -5583.562970 kJ/mol
# Density = 2.150445 g / cm^3
# Si number density = 21.553502 Si / 1000 Ang^3
#
#
#
# Elastic Constant Matrix: (Units=GPa)
#
#
# Indices 1 2 3 4 5 6 
#
# 1 122.0735 52.7099 49.6746 -0.5459 -13.3586 10.6700
# 2 52.7099 97.4952 46.7827 -7.6018 -9.5353 18.8213
# 3 49.6746 46.7827 87.4948 0.8899 -5.9521 10.9628
# 4 -0.5459 -7.6018 0.8899 26.6397 -1.9413 -1.6753
# 5 -13.3586 -9.5353 -5.9521 -1.9413 46.0968 -0.2587
# 6 10.6700 18.8213 10.9628 -1.6753 -0.2587 40.3613
#
#
#
# Elastic Compliance Matrix: (Units=1/GPa)
#
#
# Indices 1 2 3 4 5 6 
#
# 1 0.012041 -0.004239 -0.004424 -0.000670 0.002013 -0.000020
# 2 -0.004239 0.016882 -0.005937 0.004740 0.001669 -0.004932
# 3 -0.004424 -0.005937 0.017219 -0.002442 -0.000394 -0.000843
# 4 -0.000670 0.004740 -0.002442 0.039130 0.002121 0.000267
# 5 0.002013 0.001669 -0.000394 0.002121 0.022655 -0.000970
# 6 -0.000020 -0.004932 -0.000843 0.000267 -0.000970 0.027315
#
#
# Mechanical properties :
#
#
# Convention : Reuss Voigt Hill
#
# Bulk Modulus (GPa) = 59.01940 67.26642 63.14291
# Shear Modulus (GPa) = 29.39634 33.14598 31.27116
#
# Velocity S-wave (km/s) = 3.69708 3.92579 3.81315
# Velocity P-wave (km/s) = 6.75771 7.19902 6.98186
#
# Compressibility (1/GPa) = 0.01694358
#
# Stress axis : x y z
#
# Youngs Moduli (GPa) = 83.04858 59.23330 58.07600
#
# Poissons Ratio (x) = 0.25107 0.25690
# Poissons Ratio (y) = 0.35202 0.34480
# Poissons Ratio (z) = 0.36737 0.35167
#
# Static dielectric constant tensor:
#      x y z
#    x 1.825830 -0.011450 0.013350 
#    y -0.011450 1.739910 0.052320 
#    z 0.013350 0.052320 1.751950 
# 
# From -- ./inp_files/515205.got.cif
#   From: 2010.05.17/outbox.cif.g08.bks.cpg/sg2_258_cif.got.tgz:515205.got - 2010.06.03 11:33:40.
