data_PCOD9017807
_publ_section_title
;
Structure prediction by ZEFSAII (Michael W. Deem and Ramdas Pophale) SiO2 
 PCOD9017807
Probable space group: P -1
;
_chemical_formula_sum "Si O2"
_cell_formula_units_Z 14
_cell_length_a 9.455230
_cell_length_b 19.150861
_cell_length_c 5.741400
_cell_angle_alpha 93.206871
_cell_angle_beta 81.975034
_cell_angle_gamma 38.277710
_cell_volume 614.056552
_symmetry_space_group_name_H-M "P -1"
_symmetry_group_IT_number 2
_symmetry_cell_setting 'triclinic'
loop_
_space_group_symop_operation_xyz
x,y,z
-x,-y,-z
loop_
_atom_site_type_symbol
_atom_site_label
_atom_site_fract_x
_atom_site_fract_y
_atom_site_fract_z
Si Si1 0.638517 0.938361 0.704179
Si Si2 0.364711 0.213075 0.240318
Si Si3 0.679539 0.462081 0.764568
Si Si4 0.172689 0.992298 0.199013
Si Si5 0.330751 0.821067 0.524070
Si Si6 0.025466 0.573196 0.972115
Si Si7 0.471084 0.612957 0.442160
O O1 0.739134 0.820300 0.660365
O O2 0.500000 0.000000 0.500000
O O3 0.809782 0.937896 0.675406
O O4 0.500000 0.000000 0.000000
O O5 0.427234 0.245062 0.428533
O O6 0.200677 0.309334 0.095074
O O7 0.629537 0.089135 0.061577
O O8 0.533076 0.581345 0.693839
O O9 0.694673 0.388742 0.578650
O O10 0.500000 0.500000 0.000000
O O11 0.914727 0.404422 0.807659
O O12 0.255912 0.901829 0.349639
O O13 0.893969 0.091713 0.230105
O O14 0.366587 0.727990 0.417380
O O15 0.265945 0.493143 0.753263
O O16 0.000000 0.500000 0.000000
#
# Coordination Sequence:
#
# PCOD9017807 Si02
#       7
#     2   2   2   2   2   2   2
#     4  10  21  43  66  95 134 174 229 281 336 404
#     4  11  23  40  65  91 129 171 214 274 332 397
#     4   9  21  42  62  88 129 162 214 259 317 400
#     4  10  23  41  60  92 124 169 218 267 332 390
#     4  11  22  40  64  88 126 163 217 267 330 395
#     4  11  23  40  64  97 130 166 213 265 335 392
#     4  10  22  41  64  92 123 169 210 265 325 395
#
# _framework density 22.799204
#
# number of rings (size 3 to 8) (size 9 to 14) (size 15 to 20)
#    0.000    1.714    1.429    2.143    0.000    8.000 
#    5.143    0.000    0.000    0.000    0.000    0.000 
#    0.000    0.000    0.000    0.000    0.000    0.000 
#
# Total GULP energy -78106.463702 kJ/mol
# GULP energy per Si atom -5579.033122 kJ/mol
# Density = 2.274731 g / cm^3
# Si number density = 22.799204 Si / 1000 Ang^3
#
#
#
# Elastic Constant Matrix: (Units=GPa)
#
#
# Indices 1 2 3 4 5 6 
#
# 1 173.6759 67.6235 16.1763 -27.2790 15.7843 13.8149
# 2 67.6235 70.0999 9.1432 -14.1365 4.9350 8.4998
# 3 16.1763 9.1432 48.4386 -11.8178 -1.0325 -2.8792
# 4 -27.2790 -14.1365 -11.8178 41.7303 -7.4147 -12.6841
# 5 15.7843 4.9350 -1.0325 -7.4147 40.9607 -6.3815
# 6 13.8149 8.4998 -2.8792 -12.6841 -6.3815 46.2478
#
#
#
# Elastic Compliance Matrix: (Units=1/GPa)
#
#
# Indices 1 2 3 4 5 6 
#
# 1 0.009929 -0.008611 -0.001222 0.002424 -0.002560 -0.001148
# 2 -0.008611 0.023157 -0.001160 0.001620 0.000601 -0.001229
# 3 -0.001222 -0.001160 0.023410 0.007384 0.003240 0.004508
# 4 0.002424 0.001620 0.007384 0.032070 0.006280 0.009100
# 5 -0.002560 0.000601 0.003240 0.006280 0.027540 0.006378
# 6 -0.001148 -0.001229 0.004508 0.009100 0.006378 0.025848
#
#
# Mechanical properties :
#
#
# Convention : Reuss Voigt Hill
#
# Bulk Modulus (GPa) = 28.97712 53.12228 41.04970
# Shear Modulus (GPa) = 28.49940 39.07252 33.78596
#
# Velocity S-wave (km/s) = 3.53939 4.14426 3.85371
# Velocity P-wave (km/s) = 5.42590 6.80077 6.15186
#
# Compressibility (1/GPa) = 0.03450999
#
# Stress axis : x y z
#
# Youngs Moduli (GPa) = 100.71475 43.18411 42.71643
#
# Poissons Ratio (x) = 0.37185 0.05220
# Poissons Ratio (y) = 0.86723 0.04956
# Poissons Ratio (z) = 0.12307 0.05011
#
# Static dielectric constant tensor:
#      x y z
#    x 1.909530 -0.030700 -0.027330 
#    y -0.030700 1.850330 0.145160 
#    z -0.027330 0.145160 2.170640 
# 
# From -- ./inp_files/46371.got.cif
#   From: 2010.05.17/outbox.cif.g08.bks.cpg/sg2_24_cif.got.tgz:46371.got - 2010.06.03 11:33:40.
