data_PCOD9017240
_publ_section_title
;
Structure prediction by ZEFSAII (Michael W. Deem and Ramdas Pophale) SiO2 
 PCOD9017240
Probable space group: P -1
;
_chemical_formula_sum "Si O2"
_cell_formula_units_Z 16
_cell_length_a 10.794323
_cell_length_b 9.724556
_cell_length_c 7.589752
_cell_angle_alpha 65.509986
_cell_angle_beta 81.921215
_cell_angle_gamma 85.885786
_cell_volume 717.744592
_symmetry_space_group_name_H-M "P -1"
_symmetry_group_IT_number 2
_symmetry_cell_setting 'triclinic'
loop_
_space_group_symop_operation_xyz
x,y,z
-x,-y,-z
loop_
_atom_site_type_symbol
_atom_site_label
_atom_site_fract_x
_atom_site_fract_y
_atom_site_fract_z
Si Si1 0.319665 0.239543 0.618418
Si Si2 0.513871 0.834159 0.672152
Si Si3 0.092093 0.379044 0.135114
Si Si4 0.242516 0.898051 0.729261
Si Si5 0.936464 0.147311 0.507712
Si Si6 0.169463 0.841085 0.146552
Si Si7 0.295665 0.155705 0.048114
Si Si8 0.852718 0.492913 0.594906
O O1 0.430101 0.267650 0.441954
O O2 0.222107 0.377991 0.562444
O O3 0.259302 0.079773 0.650123
O O4 0.359261 0.210446 0.826230
O O5 0.374048 0.810227 0.780238
O O6 0.611359 0.837699 0.809976
O O7 0.500000 0.000000 0.500000
O O8 0.176530 0.265873 0.060105
O O9 0.171418 0.468602 0.215128
O O10 0.007539 0.282080 0.333928
O O11 0.000000 0.500000 0.000000
O O12 0.196650 0.858600 0.563682
O O13 0.156309 0.843785 0.938097
O O14 0.951841 0.132329 0.722196
O O15 0.000000 0.000000 0.500000
O O16 0.200389 0.676991 0.313311
O O17 0.253768 0.983588 0.107985
O O18 0.000000 0.500000 0.500000
#
# Coordination Sequence:
#
# PCOD9017240 Si02
#       8
#     2   2   2   2   2   2   2   2
#     4  10  22  40  66  96 131 173 220 273 329 389
#     4  10  21  42  72  96 131 172 226 277 326 386
#     4  12  24  41  65  97 136 175 218 272 329 397
#     4  10  24  41  67  98 128 171 225 273 327 385
#     4  12  23  41  65  94 135 171 215 274 327 389
#     4  11  24  40  64  99 131 168 222 267 328 389
#     4  11  23  42  69 100 130 171 229 267 326 393
#     4  12  23  41  63  98 139 176 215 268 337 395
#
# _framework density 22.292054
#
# number of rings (size 3 to 8) (size 9 to 14) (size 15 to 20)
#    0.000    1.000    3.750    3.750    0.000    6.000 
#    0.000    0.625    0.000    9.000    0.000    0.000 
#    0.000    0.000    0.000    0.000    0.000    0.000 
#
# Total GULP energy -89210.168004 kJ/mol
# GULP energy per Si atom -5575.635500 kJ/mol
# Density = 2.224132 g / cm^3
# Si number density = 22.292054 Si / 1000 Ang^3
#
#
#
# Elastic Constant Matrix: (Units=GPa)
#
#
# Indices 1 2 3 4 5 6 
#
# 1 60.9704 24.0003 25.4684 -8.5991 16.7070 -16.5119
# 2 24.0003 101.8551 45.0817 -6.3284 1.5886 -8.8036
# 3 25.4684 45.0817 114.0087 11.9102 10.7951 -7.7916
# 4 -8.5991 -6.3284 11.9102 38.8214 -2.3340 9.5537
# 5 16.7070 1.5886 10.7951 -2.3340 26.3968 -0.5597
# 6 -16.5119 -8.8036 -7.7916 9.5537 -0.5597 21.7828
#
#
#
# Elastic Compliance Matrix: (Units=1/GPa)
#
#
# Indices 1 2 3 4 5 6 
#
# 1 0.028407 -0.003875 -0.002075 0.000764 -0.016439 0.018467
# 2 -0.003875 0.013045 -0.005068 0.003263 0.004012 -0.000806
# 3 -0.002075 -0.005068 0.012501 -0.006215 -0.003970 0.003474
# 4 0.000764 0.003263 -0.006215 0.032154 0.004401 -0.014315
# 5 -0.016439 0.004012 -0.003970 0.004401 0.049785 -0.012911
# 6 0.018467 -0.000806 0.003474 -0.014315 -0.012911 0.066770
#
#
# Mechanical properties :
#
#
# Convention : Reuss Voigt Hill
#
# Bulk Modulus (GPa) = 31.33155 51.77054 41.55105
# Shear Modulus (GPa) = 21.24606 29.55246 25.39926
#
# Velocity S-wave (km/s) = 3.09054 3.64496 3.37914
# Velocity P-wave (km/s) = 5.17888 6.40222 5.82277
#
# Compressibility (1/GPa) = 0.03191671
#
# Stress axis : x y z
#
# Youngs Moduli (GPa) = 35.20262 76.65942 79.99063
#
# Poissons Ratio (x) = 0.29708 0.16595
# Poissons Ratio (y) = 0.13642 0.40541
# Poissons Ratio (z) = 0.07303 0.38853
#
# Static dielectric constant tensor:
#      x y z
#    x -7.157710 -16.410730 -8.848280 
#    y -16.410730 -27.618860 -15.813470 
#    z -8.848280 -15.813470 -6.541710 
# 
# From -- ./inp_files/237107.got.cif
#   From: 2010.05.17/outbox.cif.g08.bks.cpg/sg2_119_cif.got.tgz:237107.got - 2010.06.03 11:33:40.
