data_PCOD9017364
_publ_section_title
;
Structure prediction by ZEFSAII (Michael W. Deem and Ramdas Pophale) SiO2 
 PCOD9017364
Probable space group: P -1
;
_chemical_formula_sum "Si O2"
_cell_formula_units_Z 15
_cell_length_a 8.059943
_cell_length_b 16.635860
_cell_length_c 8.535789
_cell_angle_alpha 93.727270
_cell_angle_beta 74.199712
_cell_angle_gamma 145.895316
_cell_volume 589.551564
_symmetry_space_group_name_H-M "P -1"
_symmetry_group_IT_number 2
_symmetry_cell_setting 'triclinic'
loop_
_space_group_symop_operation_xyz
x,y,z
-x,-y,-z
loop_
_atom_site_type_symbol
_atom_site_label
_atom_site_fract_x
_atom_site_fract_y
_atom_site_fract_z
Si Si1 0.312317 0.039271 0.551487
Si Si2 0.356141 0.654039 0.869061
Si Si3 0.133042 0.280283 0.283565
Si Si4 0.859497 0.752557 0.196508
Si Si5 0.284144 0.580834 0.545059
Si Si6 0.949269 0.290649 0.620741
Si Si7 0.784356 0.961945 0.782582
Si Si8 0.500000 0.500000 0.000000
O O1 0.643457 0.184307 0.575349
O O2 0.321626 0.040823 0.359038
O O3 0.158963 0.895531 0.639000
O O4 0.066609 0.011660 0.664803
O O5 0.562473 0.653410 0.846464
O O6 0.376136 0.672692 0.678442
O O7 0.521414 0.799838 0.908559
O O8 0.000000 0.500000 0.000000
O O9 0.148599 0.358930 0.168781
O O10 0.190684 0.340451 0.445623
O O11 0.591328 0.683072 0.374499
O O12 0.662893 0.622497 0.108312
O O13 0.094174 0.784898 0.233053
O O14 0.074795 0.915090 0.121316
O O15 0.000000 0.500000 0.500000
O O16 0.120038 0.438558 0.648227
#
# Coordination Sequence:
#
# PCOD9017364 Si02
#       8
#     2   2   2   2   2   2   2   1
#     4  10  21  42  75 110 140 185 244 299 353 440
#     4  11  25  45  70 107 145 184 234 303 363 431
#     4  11  23  45  68 102 144 190 237 299 363 420
#     4  12  24  45  71 103 140 194 243 301 356 429
#     4  12  24  42  71 102 138 191 244 288 361 437
#     4  12  22  43  75 103 142 186 249 297 360 432
#     4  10  21  44  74 106 144 186 240 296 363 436
#     4  12  28  44  66  98 152 186 234 306 364 404
#
# _framework density 25.443069000000001
#
# number of rings (size 3 to 8) (size 9 to 14) (size 15 to 20)
#    0.000    0.800    4.000    4.800    1.867    1.067 
#    2.400    2.000    0.000    0.000    0.000    0.000 
#    0.000    0.000    0.000    0.000    0.000    0.000 
#
# Total GULP energy -83722.495709 kJ/mol
# GULP energy per Si atom -5581.499714 kJ/mol
# Density = 2.538516 g / cm^3
# Si number density = 25.443069 Si / 1000 Ang^3
#
#
#
# Elastic Constant Matrix: (Units=GPa)
#
#
# Indices 1 2 3 4 5 6 
#
# 1 65.6537 32.1579 1.8860 -1.9655 -0.5848 20.5123
# 2 32.1579 157.8201 26.0959 -6.1067 -11.0538 -20.4272
# 3 1.8860 26.0959 64.1379 3.7621 -7.7462 4.7311
# 4 -1.9655 -6.1067 3.7621 24.4412 9.6744 -7.8795
# 5 -0.5848 -11.0538 -7.7462 9.6744 17.7429 4.4818
# 6 20.5123 -20.4272 4.7311 -7.8795 4.4818 52.5531
#
#
#
# Elastic Compliance Matrix: (Units=1/GPa)
#
#
# Indices 1 2 3 4 5 6 
#
# 1 0.022506 -0.006900 0.004211 -0.007052 0.005504 -0.013373
# 2 -0.006900 0.009679 -0.004816 0.005688 -0.001387 0.007860
# 3 0.004211 -0.004816 0.020680 -0.012922 0.015392 -0.008627
# 4 -0.007052 0.005688 -0.012922 0.067789 -0.044363 0.020074
# 5 0.005504 -0.001387 0.015392 -0.044363 0.091262 -0.018508
# 6 -0.013373 0.007860 -0.008627 0.020074 -0.018508 0.032668
#
#
# Mechanical properties :
#
#
# Convention : Reuss Voigt Hill
#
# Bulk Modulus (GPa) = 26.41735 45.32123 35.86929
# Shear Modulus (GPa) = 18.36789 34.11224 26.24006
#
# Velocity S-wave (km/s) = 2.68977 3.66557 3.21491
# Velocity P-wave (km/s) = 4.47794 5.98052 5.28293
#
# Compressibility (1/GPa) = 0.03785391
#
# Stress axis : x y z
#
# Youngs Moduli (GPa) = 44.43213 103.31603 48.35501
#
# Poissons Ratio (x) = 0.71292 -0.20360
# Poissons Ratio (y) = 0.30660 0.23288
# Poissons Ratio (z) = -0.18709 0.49758
#
# Static dielectric constant tensor:
#      x y z
#    x 1.601090 0.273870 -0.268630 
#    y 0.273870 1.774960 0.140410 
#    z -0.268630 0.140410 1.827280 
# 
# From -- ./inp_files/212779.got.cif
#   From: 2010.05.17/outbox.cif.g08.bks.cpg/sg2_107_cif.got.tgz:212779.got - 2010.06.03 11:33:40.
