data_PCOD9017119
_publ_section_title
;
Structure prediction by ZEFSAII (Michael W. Deem and Ramdas Pophale) SiO2 
 PCOD9017119
Probable space group: P -1
;
_chemical_formula_sum "Si O2"
_cell_formula_units_Z 13
_cell_length_a 11.431194
_cell_length_b 5.392153
_cell_length_c 8.952818
_cell_angle_alpha 118.440467
_cell_angle_beta 106.411704
_cell_angle_gamma 78.914077
_cell_volume 464.378456
_symmetry_space_group_name_H-M "P -1"
_symmetry_group_IT_number 2
_symmetry_cell_setting 'triclinic'
loop_
_space_group_symop_operation_xyz
x,y,z
-x,-y,-z
loop_
_atom_site_type_symbol
_atom_site_label
_atom_site_fract_x
_atom_site_fract_y
_atom_site_fract_z
Si Si1 0.723604 0.155993 0.586773
Si Si2 0.132162 0.748262 0.618803
Si Si3 0.295522 0.476347 0.869995
Si Si4 0.500000 0.500000 0.500000
Si Si5 0.133915 0.374919 0.051429
Si Si6 0.099331 0.199819 0.291897
Si Si7 0.527365 0.067562 0.855819
O O1 0.774936 0.124490 0.427230
O O2 0.586328 0.273103 0.563800
O O3 0.796688 0.386029 0.767466
O O4 0.769925 0.873198 0.605772
O O5 0.211416 0.597744 0.737996
O O6 0.072777 0.528066 0.419706
O O7 0.016699 0.924692 0.703490
O O8 0.413174 0.269615 0.809835
O O9 0.214763 0.322602 0.918869
O O10 0.356176 0.743995 0.044769
O O11 0.542352 0.767870 0.694731
O O12 0.116031 0.145248 0.108104
O O13 0.000000 0.500000 0.000000
O O14 0.500000 0.000000 0.000000
#
# Coordination Sequence:
#
# PCOD9017119 Si02
#       7
#     2   2   2   1   2   2   2
#     4  11  25  44  70 108 150 212 271 325 407 481
#     4  10  21  42  71 107 151 199 264 333 401 488
#     4  11  24  47  79 119 161 211 272 342 413 487
#     4  12  26  52  80 116 162 214 278 348 410 490
#     4  11  24  46  72 115 160 205 264 332 412 493
#     4  10  22  44  71 108 154 208 263 326 409 490
#     4  11  26  50  80 119 162 214 279 345 411 489
#
# _framework density 27.994409000000001
#
# number of rings (size 3 to 8) (size 9 to 14) (size 15 to 20)
#    0.000    1.231    1.538    3.231    0.000    5.538 
#    8.308   13.846    0.000    0.000    0.000    0.000 
#    0.000    0.000    0.000    0.000    0.000    0.000 
#
# Total GULP energy -72627.064293 kJ/mol
# GULP energy per Si atom -5586.697253 kJ/mol
# Density = 2.793069 g / cm^3
# Si number density = 27.994409 Si / 1000 Ang^3
#
#
#
# Elastic Constant Matrix: (Units=GPa)
#
#
# Indices 1 2 3 4 5 6 
#
# 1 137.0634 52.0657 54.9800 -18.4164 -10.9105 -6.3679
# 2 52.0657 113.6296 48.7239 -20.5848 -17.6814 -28.7897
# 3 54.9800 48.7239 155.7075 7.3622 -3.0768 4.1937
# 4 -18.4164 -20.5848 7.3622 79.1810 5.9389 11.5857
# 5 -10.9105 -17.6814 -3.0768 5.9389 56.3563 -8.5777
# 6 -6.3679 -28.7897 4.1937 11.5857 -8.5777 55.5690
#
#
#
# Elastic Compliance Matrix: (Units=1/GPa)
#
#
# Indices 1 2 3 4 5 6 
#
# 1 0.009744 -0.003156 -0.002509 0.001733 0.000483 -0.000616
# 2 -0.003156 0.015049 -0.003809 0.001983 0.004922 0.008069
# 3 -0.002509 -0.003809 0.008634 -0.001868 -0.001430 -0.002744
# 4 0.001733 0.001983 -0.001868 0.014036 -0.000882 -0.001696
# 5 0.000483 0.004922 -0.001430 -0.000882 0.020315 0.006033
# 6 -0.000616 0.008069 -0.002744 -0.001696 0.006033 0.023597
#
#
# Mechanical properties :
#
#
# Convention : Reuss Voigt Hill
#
# Bulk Modulus (GPa) = 69.05979 79.77106 74.41542
# Shear Modulus (GPa) = 43.42239 54.92997 49.17618
#
# Velocity S-wave (km/s) = 3.94269 4.43445 4.19578
# Velocity P-wave (km/s) = 6.74159 7.40111 7.07903
#
# Compressibility (1/GPa) = 0.01448021
#
# Stress axis : x y z
#
# Youngs Moduli (GPa) = 102.63040 66.44917 115.82268
#
# Poissons Ratio (x) = 0.20970 0.29057
# Poissons Ratio (y) = 0.32388 0.44113
# Poissons Ratio (z) = 0.25748 0.25308
#
# Static dielectric constant tensor:
#      x y z
#    x 2.232160 0.102230 -0.011470 
#    y 0.102230 2.305920 0.003170 
#    z -0.011470 0.003170 2.130070 
# 
# From -- ./inp_files/230044.got.cif
#   From: 2010.05.17/outbox.cif.g08.bks.cpg/sg2_116_cif.got.tgz:230044.got - 2010.06.03 11:33:40.
