data_PCOD9017261
_publ_section_title
;
Structure prediction by ZEFSAII (Michael W. Deem and Ramdas Pophale) SiO2 
 PCOD9017261
Probable space group: P -1
;
_chemical_formula_sum "Si O2"
_cell_formula_units_Z 16
_cell_length_a 11.696163
_cell_length_b 18.259343
_cell_length_c 21.772244
_cell_angle_alpha 162.536355
_cell_angle_beta 146.455628
_cell_angle_gamma 27.438078
_cell_volume 640.074712
_symmetry_space_group_name_H-M "P -1"
_symmetry_group_IT_number 2
_symmetry_cell_setting 'triclinic'
loop_
_space_group_symop_operation_xyz
x,y,z
-x,-y,-z
loop_
_atom_site_type_symbol
_atom_site_label
_atom_site_fract_x
_atom_site_fract_y
_atom_site_fract_z
Si Si1 0.253307 0.075512 0.982651
Si Si2 0.946006 0.297463 0.899928
Si Si3 0.302021 0.855158 0.253903
Si Si4 0.731899 0.910549 0.236602
Si Si5 0.381945 0.883101 0.526780
Si Si6 0.869491 0.853896 0.721269
Si Si7 0.158017 0.316499 0.664512
Si Si8 0.343011 0.776141 0.903442
O O1 0.081367 0.144749 0.902167
O O2 0.342489 0.813317 0.859519
O O3 0.095246 0.368797 0.188363
O O4 0.500000 0.000000 0.000000
O O5 0.119383 0.088798 0.755365
O O6 0.688393 0.360318 0.861082
O O7 0.903529 0.600087 0.101270
O O8 0.590930 0.687422 0.228608
O O9 0.159546 0.994821 0.237010
O O10 0.187937 0.145725 0.478614
O O11 0.696956 0.131128 0.450799
O O12 0.491165 0.910479 0.105488
O O13 0.589381 0.954801 0.690821
O O14 0.497913 0.574548 0.297313
O O15 0.192906 0.129125 0.591164
O O16 0.000000 0.500000 0.500000
O O17 0.049417 0.905775 0.884442
#
# Coordination Sequence:
#
# PCOD9017261 Si02
#       8
#     2   2   2   2   2   2   2   2
#     4  12  24  43  64  99 142 175 226 287 345 405
#     4  11  23  43  64  97 137 177 228 285 331 418
#     4  10  21  42  72  99 132 178 237 284 338 415
#     4  11  24  42  66  96 135 183 232 277 339 412
#     4  10  22  43  68  97 135 187 229 281 346 409
#     4   9  20  38  64  96 134 169 221 288 340 399
#     4  10  23  43  71 102 133 181 232 284 346 413
#     4  11  23  41  66  99 138 179 225 288 342 408
#
# _framework density 24.997084000000001
#
# number of rings (size 3 to 8) (size 9 to 14) (size 15 to 20)
#    0.000    1.500    3.750    0.750    0.000    6.000 
#    0.000    3.750    0.000    0.000    0.000    0.000 
#    0.000    0.000    0.000    0.000    0.000    0.000 
#
# Total GULP energy -89133.200517 kJ/mol
# GULP energy per Si atom -5570.825032 kJ/mol
# Density = 2.494019 g / cm^3
# Si number density = 24.997084 Si / 1000 Ang^3
#
#
#
# Elastic Constant Matrix: (Units=GPa)
#
#
# Indices 1 2 3 4 5 6 
#
# 1 105.7854 28.4331 34.4868 -1.1449 -10.3422 25.2066
# 2 28.4331 79.4298 40.4600 2.1543 -8.3827 13.9047
# 3 34.4868 40.4600 68.6999 7.5733 -11.5951 0.5910
# 4 -1.1449 2.1543 7.5733 35.0830 2.1507 3.4376
# 5 -10.3422 -8.3827 -11.5951 2.1507 34.4410 -2.7537
# 6 25.2066 13.9047 0.5910 3.4376 -2.7537 42.5105
#
#
#
# Elastic Compliance Matrix: (Units=1/GPa)
#
#
# Indices 1 2 3 4 5 6 
#
# 1 0.013830 0.000145 -0.007095 0.002729 0.000965 -0.008308
# 2 0.000145 0.019633 -0.011759 0.001960 0.000222 -0.006489
# 3 -0.007095 -0.011759 0.026519 -0.006377 0.005015 0.008525
# 4 0.002729 0.001960 -0.006377 0.030516 -0.003143 -0.004842
# 5 0.000965 0.000222 0.005015 -0.003143 0.031390 0.001573
# 6 -0.008308 -0.006489 0.008525 -0.004842 0.001573 0.030947
#
#
# Mechanical properties :
#
#
# Convention : Reuss Voigt Hill
#
# Bulk Modulus (GPa) = 44.31307 51.18610 47.74959
# Shear Modulus (GPa) = 25.28142 32.44260 28.86201
#
# Velocity S-wave (km/s) = 3.18366 3.60648 3.40165
# Velocity P-wave (km/s) = 5.59286 6.15334 5.87978
#
# Compressibility (1/GPa) = 0.02256671
#
# Stress axis : x y z
#
# Youngs Moduli (GPa) = 72.30409 50.93344 37.70917
#
# Poissons Ratio (x) = -0.00740 0.26754
# Poissons Ratio (y) = -0.01051 0.44340
# Poissons Ratio (z) = 0.51298 0.59890
#
# Static dielectric constant tensor:
#      x y z
#    x 1.921450 -0.008240 -0.002080 
#    y -0.008240 1.933970 -0.074240 
#    z -0.002080 -0.074240 2.039080 
# 
# From -- ./inp_files/596066.got.cif
#   From: 2010.05.17/outbox.cif.g08.bks.cpg/sg2_299_cif.got.tgz:596066.got - 2010.06.03 11:33:40.
