data_PCOD9017367
_publ_section_title
;
Structure prediction by ZEFSAII (Michael W. Deem and Ramdas Pophale) SiO2 
 PCOD9017367
Probable space group: P -1
;
_chemical_formula_sum "Si O2"
_cell_formula_units_Z 14
_cell_length_a 12.630443
_cell_length_b 21.825281
_cell_length_c 17.865663
_cell_angle_alpha 163.161519
_cell_angle_beta 156.124498
_cell_angle_gamma 25.054649
_cell_volume 557.301661
_symmetry_space_group_name_H-M "P -1"
_symmetry_group_IT_number 2
_symmetry_cell_setting 'triclinic'
loop_
_space_group_symop_operation_xyz
x,y,z
-x,-y,-z
loop_
_atom_site_type_symbol
_atom_site_label
_atom_site_fract_x
_atom_site_fract_y
_atom_site_fract_z
Si Si1 0.751520 0.272032 0.114971
Si Si2 0.764946 0.666060 0.086279
Si Si3 0.145411 0.660914 0.904241
Si Si4 0.237454 0.212816 0.475167
Si Si5 0.073181 0.130891 0.428455
Si Si6 0.524178 0.701102 0.824718
Si Si7 0.341623 0.259532 0.197541
O O1 0.905975 0.306375 0.179803
O O2 0.947199 0.259131 0.296614
O O3 0.458244 0.432230 0.130343
O O4 0.665019 0.044308 0.779869
O O5 0.905570 0.780857 0.372921
O O6 0.262606 0.299014 0.104370
O O7 0.596692 0.800367 0.064719
O O8 0.892921 0.689482 0.831851
O O9 0.336410 0.416315 0.746955
O O10 0.237777 0.876881 0.237285
O O11 0.193754 0.244786 0.572943
O O12 0.765020 0.165551 0.240582
O O13 0.496285 0.454031 0.533601
O O14 0.000000 0.500000 0.000000
O O15 0.500000 0.000000 0.000000
#
# Coordination Sequence:
#
# PCOD9017367 Si02
#       7
#     2   2   2   2   2   2   2
#     4  10  23  43  70 105 137 179 233 283 343 413
#     4  12  26  45  72 102 138 186 234 281 344 414
#     4  11  22  39  72 106 135 180 233 282 343 414
#     4  10  21  42  75  99 139 181 227 282 351 406
#     4  11  23  44  71 102 137 184 228 279 348 407
#     4  11  23  44  70  95 141 183 220 285 344 396
#     4  11  21  36  71 102 133 181 229 276 344 408
#
# _framework density 25.121043
#
# number of rings (size 3 to 8) (size 9 to 14) (size 15 to 20)
#    0.000    1.143    4.286    2.143    0.000    2.286 
#    0.000    5.000    0.000    0.000    0.000    0.000 
#    0.000    0.000    0.000    0.000    0.000    0.000 
#
# Total GULP energy -78122.238744 kJ/mol
# GULP energy per Si atom -5580.159910 kJ/mol
# Density = 2.506387 g / cm^3
# Si number density = 25.121043 Si / 1000 Ang^3
#
#
#
# Elastic Constant Matrix: (Units=GPa)
#
#
# Indices 1 2 3 4 5 6 
#
# 1 218.5673 47.3194 39.7580 -6.1966 -17.8512 14.0460
# 2 47.3194 104.0511 26.3053 4.6705 -5.4399 8.4963
# 3 39.7580 26.3053 96.5141 15.8961 -19.7214 33.7903
# 4 -6.1966 4.6705 15.8961 49.5997 10.4411 0.5443
# 5 -17.8512 -5.4399 -19.7214 10.4411 56.2496 -12.3479
# 6 14.0460 8.4963 33.7903 0.5443 -12.3479 44.5839
#
#
#
# Elastic Compliance Matrix: (Units=1/GPa)
#
#
# Indices 1 2 3 4 5 6 
#
# 1 0.005431 -0.002048 -0.001842 0.001314 0.000691 0.000251
# 2 -0.002048 0.011096 -0.002176 -0.000561 -0.000207 0.000129
# 3 -0.001842 -0.002176 0.017455 -0.006358 0.004085 -0.011025
# 4 0.001314 -0.000561 -0.006358 0.023578 -0.005660 0.002657
# 5 0.000691 -0.000207 0.004085 -0.005660 0.021035 0.002621
# 6 0.000251 0.000129 -0.011025 0.002657 0.002621 0.031376
#
#
# Mechanical properties :
#
#
# Convention : Reuss Voigt Hill
#
# Bulk Modulus (GPa) = 45.76488 71.76642 58.76565
# Shear Modulus (GPa) = 38.64410 50.46996 44.55703
#
# Velocity S-wave (km/s) = 3.92639 4.48713 4.21609
# Velocity P-wave (km/s) = 6.22998 7.44822 6.86618
#
# Compressibility (1/GPa) = 0.02185082
#
# Stress axis : x y z
#
# Youngs Moduli (GPa) = 184.12153 90.12489 57.29028
#
# Poissons Ratio (x) = 0.18453 0.10554
# Poissons Ratio (y) = 0.37699 0.12465
# Poissons Ratio (z) = 0.33918 0.19610
#
# Static dielectric constant tensor:
#      x y z
#    x 2.009060 -0.051430 -0.005260 
#    y -0.051430 2.173850 -0.034670 
#    z -0.005260 -0.034670 2.063590 
# 
# From -- ./inp_files/521555.got.cif
#   From: 2010.05.17/outbox.cif.g08.bks.cpg/sg2_261_cif.got.tgz:521555.got - 2010.06.03 11:33:40.
