data_PCOD9017180
_publ_section_title
;
Structure prediction by ZEFSAII (Michael W. Deem and Ramdas Pophale) SiO2 
 PCOD9017180
Probable space group: P -1
;
_chemical_formula_sum "Si O2"
_cell_formula_units_Z 16
_cell_length_a 9.520850
_cell_length_b 16.218862
_cell_length_c 15.375612
_cell_angle_alpha 32.321564
_cell_angle_beta 40.931114
_cell_angle_gamma 61.941604
_cell_volume 729.696095
_symmetry_space_group_name_H-M "P -1"
_symmetry_group_IT_number 2
_symmetry_cell_setting 'triclinic'
loop_
_space_group_symop_operation_xyz
x,y,z
-x,-y,-z
loop_
_atom_site_type_symbol
_atom_site_label
_atom_site_fract_x
_atom_site_fract_y
_atom_site_fract_z
Si Si1 0.212737 0.618266 0.920476
Si Si2 0.804325 0.282764 0.851863
Si Si3 0.062244 0.241359 0.260873
Si Si4 0.183883 0.453348 0.260308
Si Si5 0.450763 0.962841 0.406089
Si Si6 0.271005 0.601049 0.396681
Si Si7 0.816795 0.751754 0.992884
Si Si8 0.803056 0.869732 0.520166
O O1 0.278166 0.565611 0.029014
O O2 0.990766 0.662690 0.000715
O O3 0.122516 0.441984 0.064278
O O4 0.420741 0.787829 0.622538
O O5 0.736747 0.279379 0.786173
O O6 0.715735 0.410854 0.827782
O O7 0.096715 0.400279 0.624140
O O8 0.686205 0.100290 0.121070
O O9 0.130065 0.183752 0.370007
O O10 0.199735 0.230587 0.119899
O O11 0.778682 0.116021 0.482532
O O12 0.891210 0.380917 0.466997
O O13 0.233751 0.290630 0.380529
O O14 0.393312 0.069190 0.413134
O O15 0.544381 0.648298 0.248020
O O16 0.969737 0.949253 0.780819
#
# Coordination Sequence:
#
# PCOD9017180 Si02
#       8
#     2   2   2   2   2   2   2   2
#     4   9  19  32  52  78 101 123 152 209 262 284
#     4   9  19  34  50  70  96 137 167 198 231 289
#     4   9  16  30  51  76  99 122 161 208 251 282
#     4   9  19  34  47  74 104 130 160 194 245 298
#     4  10  17  30  52  75  98 126 163 202 243 289
#     4   9  19  34  50  70  96 137 167 198 231 289
#     4  10  17  30  52  75  98 126 163 202 243 289
#     4   9  17  28  50  78  97 123 162 211 248 272
#
# _framework density 21.926936999999999
#
# number of rings (size 3 to 8) (size 9 to 14) (size 15 to 20)
#    0.750    2.250    0.000    4.500    0.000    2.000 
#    0.000    0.000    0.000    9.000    0.000    0.000 
#    0.000    0.000    0.000    0.000    0.000    0.000 
#
# Total GULP energy -89245.575237 kJ/mol
# GULP energy per Si atom -5577.848452 kJ/mol
# Density = 2.187703 g / cm^3
# Si number density = 21.926937 Si / 1000 Ang^3
#
#
#
# Elastic Constant Matrix: (Units=GPa)
#
#
# Indices 1 2 3 4 5 6 
#
# 1 39.3841 4.5127 20.2845 -4.5543 6.5007 -12.1133
# 2 4.5127 56.4750 43.0128 -20.1116 2.6495 -5.1514
# 3 20.2845 43.0128 168.4259 -4.3264 -2.5250 -25.6614
# 4 -4.5543 -20.1116 -4.3264 43.1499 -9.6801 -2.0108
# 5 6.5007 2.6495 -2.5250 -9.6801 23.2576 1.5134
# 6 -12.1133 -5.1514 -25.6614 -2.0108 1.5134 27.5300
#
#
#
# Elastic Compliance Matrix: (Units=1/GPa)
#
#
# Indices 1 2 3 4 5 6 
#
# 1 0.032247 0.001798 -0.002446 0.002518 -0.009278 0.012939
# 2 0.001798 0.027094 -0.006741 0.012339 0.000786 0.000436
# 3 -0.002446 -0.006741 0.008779 -0.001985 0.001212 0.005634
# 4 0.002518 0.012339 -0.001985 0.031519 0.010580 0.003287
# 5 -0.009278 0.000786 0.001212 0.010580 0.050348 -0.004801
# 6 0.012939 0.000436 0.005634 0.003287 -0.004801 0.047854
#
#
# Mechanical properties :
#
#
# Convention : Reuss Voigt Hill
#
# Bulk Modulus (GPa) = 18.74640 44.43387 31.59014
# Shear Modulus (GPa) = 21.70147 31.88583 26.79365
#
# Velocity S-wave (km/s) = 3.14939 3.81752 3.49943
# Velocity P-wave (km/s) = 4.66829 6.30395 5.54674
#
# Compressibility (1/GPa) = 0.05334358
#
# Stress axis : x y z
#
# Youngs Moduli (GPa) = 31.01066 36.90838 113.90931
#
# Poissons Ratio (x) = -0.06638 0.27862
# Poissons Ratio (y) = -0.05577 0.76784
# Poissons Ratio (z) = 0.07585 0.24879
#
# Static dielectric constant tensor:
#      x y z
#    x 1.903060 0.000430 -0.048940 
#    y 0.000430 1.790040 -0.003360 
#    z -0.048940 -0.003360 1.840830 
# 
# From -- ./inp_files/570136.got.cif
#   From: 2010.05.17/outbox.cif.g08.bks.cpg/sg2_286_cif.got.tgz:570136.got - 2010.06.03 11:33:40.
