data_PCOD9017351
_publ_section_title
;
Structure prediction by ZEFSAII (Michael W. Deem and Ramdas Pophale) SiO2 
 PCOD9017351
Probable space group: P -1
;
_chemical_formula_sum "Si O2"
_cell_formula_units_Z 16
_cell_length_a 13.861700
_cell_length_b 10.410607
_cell_length_c 9.248774
_cell_angle_alpha 112.312965
_cell_angle_beta 61.516786
_cell_angle_gamma 149.463962
_cell_volume 594.595034
_symmetry_space_group_name_H-M "P -1"
_symmetry_group_IT_number 2
_symmetry_cell_setting 'triclinic'
loop_
_space_group_symop_operation_xyz
x,y,z
-x,-y,-z
loop_
_atom_site_type_symbol
_atom_site_label
_atom_site_fract_x
_atom_site_fract_y
_atom_site_fract_z
Si Si1 0.661383 0.008862 0.142984
Si Si2 0.721572 0.295094 0.005670
Si Si3 0.038636 0.603437 0.360087
Si Si4 0.037689 0.080027 0.342339
Si Si5 0.828863 0.914345 0.018488
Si Si6 0.551093 0.400870 0.130251
Si Si7 0.344603 0.166191 0.469166
Si Si8 0.654936 0.363849 0.558486
O O1 0.486409 0.860354 0.317932
O O2 0.804717 0.048477 0.134605
O O3 0.566625 0.812370 0.998922
O O4 0.764486 0.247774 0.095377
O O5 0.867660 0.405713 0.820814
O O6 0.705936 0.444401 0.094042
O O7 0.500000 0.000000 0.000000
O O8 0.000000 0.500000 0.500000
O O9 0.826912 0.448932 0.405286
O O10 0.209456 0.899614 0.386356
O O11 0.117590 0.041554 0.170555
O O12 0.210245 0.379224 0.344247
O O13 0.822469 0.911373 0.373221
O O14 0.000000 0.000000 0.500000
O O15 0.636358 0.624483 0.083992
O O16 0.000000 0.000000 0.000000
O O17 0.441337 0.332298 0.326062
O O18 0.511629 0.282450 0.506877
#
# Coordination Sequence:
#
# PCOD9017351 Si02
#       8
#     2   2   2   2   2   2   2   2
#     4  11  22  46  70  95 134 180 228 278 347 412
#     4  10  21  42  74  96 132 182 225 280 347 407
#     4  11  23  43  71  98 140 182 228 287 347 413
#     4  11  26  44  68  99 140 181 228 289 349 412
#     4  12  27  44  70 101 137 181 235 286 340 413
#     4  11  23  45  72  96 137 182 227 282 348 407
#     4  11  25  44  68 102 138 179 234 287 341 419
#     4  11  26  43  69 100 137 184 228 285 354 407
#
# _framework density 26.909072999999999
#
# number of rings (size 3 to 8) (size 9 to 14) (size 15 to 20)
#    0.000    1.000    3.750    3.375    7.000    1.000 
#    0.000    1.250    0.000    0.000    0.000    0.000 
#    0.000    0.000    0.000    0.000    0.000    0.000 
#
# Total GULP energy -89742.405344 kJ/mol
# GULP energy per Si atom -5608.900334 kJ/mol
# Density = 2.684783 g / cm^3
# Si number density = 26.909073 Si / 1000 Ang^3
#
#
#
# Elastic Constant Matrix: (Units=GPa)
#
#
# Indices 1 2 3 4 5 6 
#
# 1 168.3247 41.6891 50.4149 -22.4437 -9.2798 13.8181
# 2 41.6891 115.8727 41.6203 -17.9309 1.6398 8.6046
# 3 50.4149 41.6203 164.3802 -29.9357 -14.9100 11.5635
# 4 -22.4437 -17.9309 -29.9357 34.2966 1.4676 3.1459
# 5 -9.2798 1.6398 -14.9100 1.4676 54.9580 -2.5844
# 6 13.8181 8.6046 11.5635 3.1459 -2.5844 51.2099
#
#
#
# Elastic Compliance Matrix: (Units=1/GPa)
#
#
# Indices 1 2 3 4 5 6 
#
# 1 0.007252 -0.001647 -0.001062 0.003068 0.000829 -0.001587
# 2 -0.001647 0.010378 -0.001572 0.003135 -0.001154 -0.001195
# 3 -0.001062 -0.001572 0.008106 0.005620 0.001845 -0.001532
# 4 0.003068 0.003135 0.005620 0.038132 0.000699 -0.004931
# 5 0.000829 -0.001154 0.001845 0.000699 0.018874 0.000463
# 6 -0.001587 -0.001195 -0.001532 -0.004931 0.000463 0.020829
#
#
# Mechanical properties :
#
#
# Convention : Reuss Voigt Hill
#
# Bulk Modulus (GPa) = 58.22873 79.55848 68.89361
# Shear Modulus (GPa) = 42.42503 49.08311 45.75407
#
# Velocity S-wave (km/s) = 3.97496 4.27551 4.12797
# Velocity P-wave (km/s) = 6.53859 7.34868 6.95544
#
# Compressibility (1/GPa) = 0.01717365
#
# Stress axis : x y z
#
# Youngs Moduli (GPa) = 137.89685 96.36185 123.37088
#
# Poissons Ratio (x) = 0.15870 0.13096
# Poissons Ratio (y) = 0.22710 0.19397
# Poissons Ratio (z) = 0.14638 0.15150
#
# Static dielectric constant tensor:
#      x y z
#    x 2.222710 0.092940 0.037680 
#    y 0.092940 2.202340 -0.001320 
#    z 0.037680 -0.001320 2.069260 
# 
# From -- ./inp_files/307691.got.cif
#   From: 2010.05.17/outbox.cif.g08.bks.cpg/sg2_154_cif.got.tgz:307691.got - 2010.06.03 11:33:40.
