data_PCOD9017739
_publ_section_title
;
Structure prediction by ZEFSAII (Michael W. Deem and Ramdas Pophale) SiO2 
 PCOD9017739
Probable space group: P -1
;
_chemical_formula_sum "Si O2"
_cell_formula_units_Z 14
_cell_length_a 22.468897
_cell_length_b 7.007097
_cell_length_c 14.348454
_cell_angle_alpha 91.656226
_cell_angle_beta 158.354824
_cell_angle_gamma 100.511984
_cell_volume 685.698844
_symmetry_space_group_name_H-M "P -1"
_symmetry_group_IT_number 2
_symmetry_cell_setting 'triclinic'
loop_
_space_group_symop_operation_xyz
x,y,z
-x,-y,-z
loop_
_atom_site_type_symbol
_atom_site_label
_atom_site_fract_x
_atom_site_fract_y
_atom_site_fract_z
Si Si1 0.838109 0.727981 0.269206
Si Si2 0.985666 0.643898 0.665340
Si Si3 0.300800 0.563248 0.124998
Si Si4 0.891631 0.898894 0.677723
Si Si5 0.713240 0.672529 0.706139
Si Si6 0.402084 0.582139 0.651142
Si Si7 0.304524 0.834678 0.654527
O O1 0.913138 0.631615 0.455074
O O2 0.802029 0.605838 0.115437
O O3 0.629144 0.677346 0.994508
O O4 0.000000 0.000000 0.500000
O O5 0.961227 0.823894 0.688619
O O6 0.845636 0.395589 0.508135
O O7 0.204394 0.706697 0.991505
O O8 0.533153 0.699941 0.449583
O O9 0.261850 0.417751 0.160346
O O10 0.734758 0.664558 0.499848
O O11 0.790514 0.027124 0.503696
O O12 0.086331 0.084390 0.020338
O O13 0.654792 0.477952 0.540565
O O14 0.356895 0.752786 0.636002
O O15 0.500000 0.000000 0.000000
#
# Coordination Sequence:
#
# PCOD9017739 Si02
#       7
#     2   2   2   2   2   2   2
#     4  11  23  41  67  93 131 165 212 265 321 377
#     4  11  23  41  66  97 127 164 217 261 319 380
#     4  10  22  41  64  94 128 171 212 263 309 381
#     4  11  22  42  66  94 128 170 209 263 320 371
#     4  10  21  43  66  89 134 168 214 260 312 376
#     4  10  24  42  63 100 124 166 215 261 314 386
#     4  11  23  40  68  94 130 166 209 266 323 371
#
# _framework density 20.417128999999999
#
# number of rings (size 3 to 8) (size 9 to 14) (size 15 to 20)
#    0.000    1.429    1.429    3.429    2.000    3.429 
#    7.714    0.000    0.000    0.000    0.000    0.000 
#    0.000    0.000    0.000    0.000    0.000    0.000 
#
# Total GULP energy -78289.473929 kJ/mol
# GULP energy per Si atom -5592.105281 kJ/mol
# Density = 2.037066 g / cm^3
# Si number density = 20.417129 Si / 1000 Ang^3
#
#
#
# Elastic Constant Matrix: (Units=GPa)
#
#
# Indices 1 2 3 4 5 6 
#
# 1 117.5072 53.6616 56.4254 -27.1115 -2.9310 -17.1775
# 2 53.6616 101.2243 50.8233 -25.5247 7.8402 -33.0076
# 3 56.4254 50.8233 146.5526 -14.5405 11.5195 -17.6918
# 4 -27.1115 -25.5247 -14.5405 32.1577 5.4140 3.7287
# 5 -2.9310 7.8402 11.5195 5.4140 29.9553 -4.4874
# 6 -17.1775 -33.0076 -17.6918 3.7287 -4.4874 27.2335
#
#
#
# Elastic Compliance Matrix: (Units=1/GPa)
#
#
# Indices 1 2 3 4 5 6 
#
# 1 0.013524 -0.003535 -0.003351 0.006453 0.002613 0.001615
# 2 -0.003535 0.024180 -0.002598 0.013172 -0.004637 0.022821
# 3 -0.003351 -0.002598 0.009275 -0.000197 -0.003138 0.000273
# 4 0.006453 0.013172 -0.000197 0.047119 -0.009475 0.011895
# 5 0.002613 -0.004637 -0.003138 -0.009475 0.038004 0.001548
# 6 0.001615 0.022821 0.000273 0.011895 0.001548 0.064202
#
#
# Mechanical properties :
#
#
# Convention : Reuss Voigt Hill
#
# Bulk Modulus (GPa) = 35.70141 76.34497 56.02319
# Shear Modulus (GPa) = 22.26099 31.49422 26.87761
#
# Velocity S-wave (km/s) = 3.30557 3.93178 3.63219
# Velocity P-wave (km/s) = 5.66507 7.62139 6.71486
#
# Compressibility (1/GPa) = 0.02801010
#
# Stress axis : x y z
#
# Youngs Moduli (GPa) = 73.94330 41.35691 107.82047
#
# Poissons Ratio (x) = 0.14620 0.36131
# Poissons Ratio (y) = 0.26140 0.28010
# Poissons Ratio (z) = 0.24779 0.10744
#
# Static dielectric constant tensor:
#      x y z
#    x 1.752950 -0.006220 0.011370 
#    y -0.006220 1.688190 0.004930 
#    z 0.011370 0.004930 1.708880 
# 
# From -- ./inp_files/78205.got.cif
#   From: 2010.05.17/outbox.cif.g08.bks.cpg/sg2_40_cif.got.tgz:78205.got - 2010.06.03 11:33:40.
