data_PCOD9017091
_publ_section_title
;
Structure prediction by ZEFSAII (Michael W. Deem and Ramdas Pophale) SiO2 
 PCOD9017091
Probable space group: P -1
;
_chemical_formula_sum "Si O2"
_cell_formula_units_Z 12
_cell_length_a 9.508835
_cell_length_b 13.585394
_cell_length_c 15.803765
_cell_angle_alpha 35.785484
_cell_angle_beta 149.956624
_cell_angle_gamma 151.438588
_cell_volume 477.491979
_symmetry_space_group_name_H-M "P -1"
_symmetry_group_IT_number 2
_symmetry_cell_setting 'triclinic'
loop_
_space_group_symop_operation_xyz
x,y,z
-x,-y,-z
loop_
_atom_site_type_symbol
_atom_site_label
_atom_site_fract_x
_atom_site_fract_y
_atom_site_fract_z
Si Si1 0.709706 0.362143 0.520128
Si Si2 0.745022 0.929653 0.156777
Si Si3 0.347857 0.336005 0.134125
Si Si4 0.065771 0.541825 0.758460
Si Si5 0.793892 0.528425 0.796480
Si Si6 0.927607 0.826625 0.148024
O O1 0.372736 0.359579 0.335319
O O2 0.726169 0.165748 0.665653
O O3 0.000000 0.500000 0.500000
O O4 0.820149 0.456822 0.607585
O O5 0.536787 0.702126 0.249664
O O6 0.773803 0.863711 0.123751
O O7 0.143198 0.138168 0.227721
O O8 0.500000 0.000000 0.000000
O O9 0.557992 0.302226 0.199324
O O10 0.628038 0.578227 0.141300
O O11 0.064863 0.350034 0.928773
O O12 0.016179 0.632816 0.753560
O O13 0.000000 0.500000 0.000000
O O14 0.000000 0.000000 0.000000
#
# Coordination Sequence:
#
# PCOD9017091 Si02
#       6
#     2   2   2   2   2   2
#     4  11  24  44  75 116 152 200 257 321 380 457
#     4  12  24  39  73 113 145 196 251 312 379 455
#     4  10  22  42  76 107 143 201 254 303 388 453
#     4  10  21  42  71 101 150 194 251 310 376 448
#     4  12  26  45  76 113 157 204 255 319 386 455
#     4  11  24  46  78 109 152 201 257 314 388 460
#
# _framework density 25.131311
#
# number of rings (size 3 to 8) (size 9 to 14) (size 15 to 20)
#    0.000    1.000    3.333    4.500    4.667    0.000 
#    0.000    3.333   11.000    8.000    0.000    0.000 
#    0.000    0.000    0.000    0.000    0.000    0.000 
#
# Total GULP energy -66867.230802 kJ/mol
# GULP energy per Si atom -5572.269234 kJ/mol
# Density = 2.507411 g / cm^3
# Si number density = 25.131311 Si / 1000 Ang^3
#
#
#
# Elastic Constant Matrix: (Units=GPa)
#
#
# Indices 1 2 3 4 5 6 
#
# 1 227.4586 52.3713 74.2760 8.1641 35.0310 -12.3434
# 2 52.3713 128.2433 24.0357 -10.6009 8.9927 -10.1152
# 3 74.2760 24.0357 148.0673 -20.5767 17.1576 -11.7196
# 4 8.1641 -10.6009 -20.5767 28.9013 -16.1920 2.3793
# 5 35.0310 8.9927 17.1576 -16.1920 51.8127 6.8816
# 6 -12.3434 -10.1152 -11.7196 2.3793 6.8816 45.0383
#
#
#
# Elastic Compliance Matrix: (Units=1/GPa)
#
#
# Indices 1 2 3 4 5 6 
#
# 1 0.007833 -0.002638 -0.003922 -0.010049 -0.006962 0.002128
# 2 -0.002638 0.009188 0.000454 0.005227 0.001547 0.000946
# 3 -0.003922 0.000454 0.009757 0.009379 0.002175 0.000738
# 4 -0.010049 0.005227 0.009379 0.058755 0.021885 -0.005587
# 5 -0.006962 0.001547 0.002175 0.021885 0.030768 -0.006852
# 6 0.002128 0.000946 0.000738 -0.005587 -0.006852 0.024533
#
#
# Mechanical properties :
#
#
# Convention : Reuss Voigt Hill
#
# Bulk Modulus (GPa) = 68.65500 89.45948 79.05724
# Shear Modulus (GPa) = 31.66483 48.68954 40.17718
#
# Velocity S-wave (km/s) = 3.55346 4.40637 4.00270
# Velocity P-wave (km/s) = 6.64936 7.84616 7.27242
#
# Compressibility (1/GPa) = 0.01456558
#
# Stress axis : x y z
#
# Youngs Moduli (GPa) = 127.66259 108.83423 102.48633
#
# Poissons Ratio (x) = 0.28714 0.40199
# Poissons Ratio (y) = 0.33681 -0.04653
# Poissons Ratio (z) = 0.50074 -0.04942
#
# Static dielectric constant tensor:
#      x y z
#    x 2.047690 0.007890 -0.007510 
#    y 0.007890 2.107430 0.120050 
#    z -0.007510 0.120050 2.116320 
# 
# From -- ./inp_files/505334.got.cif
#   From: 2010.05.17/outbox.cif.g08.bks.cpg/sg2_253_cif.got.tgz:505334.got - 2010.06.03 11:33:40.
