data_PCOD9017408
_publ_section_title
;
Structure prediction by ZEFSAII (Michael W. Deem and Ramdas Pophale) SiO2 
 PCOD9017408
Probable space group: P -1
;
_chemical_formula_sum "Si O2"
_cell_formula_units_Z 14
_cell_length_a 11.295402
_cell_length_b 8.626380
_cell_length_c 8.551913
_cell_angle_alpha 111.776328
_cell_angle_beta 71.926830
_cell_angle_gamma 112.752400
_cell_volume 699.946854
_symmetry_space_group_name_H-M "P -1"
_symmetry_group_IT_number 2
_symmetry_cell_setting 'triclinic'
loop_
_space_group_symop_operation_xyz
x,y,z
-x,-y,-z
loop_
_atom_site_type_symbol
_atom_site_label
_atom_site_fract_x
_atom_site_fract_y
_atom_site_fract_z
Si Si1 0.395205 0.299399 0.298769
Si Si2 0.738134 0.290966 0.665453
Si Si3 0.286390 0.172795 0.811139
Si Si4 0.076106 0.925285 0.575144
Si Si5 0.498868 0.149260 0.935701
Si Si6 0.524660 0.304120 0.542707
Si Si7 0.838724 0.713769 0.793953
O O1 0.454469 0.213643 0.380884
O O2 0.402957 0.489610 0.432697
O O3 0.249338 0.216571 0.267640
O O4 0.475576 0.304378 0.109229
O O5 0.849328 0.198898 0.581539
O O6 0.636627 0.226080 0.823602
O O7 0.636999 0.232861 0.538680
O O8 0.799294 0.502345 0.719418
O O9 0.372629 0.081438 0.848719
O O10 0.409599 0.297642 0.710848
O O11 0.186274 0.071497 0.681625
O O12 0.204102 0.244491 0.999595
O O13 0.982013 0.811801 0.707648
O O14 0.000000 0.000000 0.500000
O O15 0.500000 0.000000 0.000000
#
# Coordination Sequence:
#
# PCOD9017408 Si02
#       7
#     2   2   2   2   2   2   2
#     4   9  18  34  61  90 118 149 193 240 303 350
#     4  10  23  40  62  87 119 160 200 243 297 351
#     4  10  22  38  62  86 120 153 196 243 305 344
#     4  12  26  40  61  86 122 162 203 245 289 344
#     4  10  22  35  62  91 123 146 190 251 305 352
#     4   9  18  35  61  90 116 149 192 249 297 356
#     4  10  21  43  62  83 122 164 199 235 289 364
#
# _framework density 20.001518999999998
#
# number of rings (size 3 to 8) (size 9 to 14) (size 15 to 20)
#    0.000    2.000    0.000    2.571    8.000    4.571 
#    0.000    0.714    0.000    0.000    0.000    0.000 
#    0.000    0.000    0.000    0.000    0.000    0.000 
#
# Total GULP energy -77964.048712 kJ/mol
# GULP energy per Si atom -5568.860622 kJ/mol
# Density = 1.995599 g / cm^3
# Si number density = 20.001519 Si / 1000 Ang^3
#
#
#
# Elastic Constant Matrix: (Units=GPa)
#
#
# Indices 1 2 3 4 5 6 
#
# 1 89.7622 37.4054 20.8556 -0.8113 -3.5843 -9.8997
# 2 37.4054 61.6794 11.0395 -4.1556 0.0455 0.9123
# 3 20.8556 11.0395 64.1560 0.0361 -8.2829 -5.9980
# 4 -0.8113 -4.1556 0.0361 26.6687 4.0123 -2.1295
# 5 -3.5843 0.0455 -8.2829 4.0123 44.6045 -5.4401
# 6 -9.8997 0.9123 -5.9980 -2.1295 -5.4401 25.5402
#
#
#
# Elastic Compliance Matrix: (Units=1/GPa)
#
#
# Indices 1 2 3 4 5 6 
#
# 1 0.016630 -0.009707 -0.002924 -0.000740 0.001650 0.006396
# 2 -0.009707 0.022651 -0.001474 0.003128 -0.001978 -0.005078
# 3 -0.002924 -0.001474 0.017601 -0.000576 0.003545 0.003760
# 4 -0.000740 0.003128 -0.000576 0.038632 -0.003405 0.001962
# 5 0.001650 -0.001978 0.003545 -0.003405 0.024303 0.006435
# 6 0.006396 -0.005078 0.003760 0.001962 0.006435 0.044232
#
#
# Mechanical properties :
#
#
# Convention : Reuss Voigt Hill
#
# Bulk Modulus (GPa) = 34.87890 39.35538 37.11714
# Shear Modulus (GPa) = 24.77503 29.11584 26.94543
#
# Velocity S-wave (km/s) = 3.52327 3.81948 3.67436
# Velocity P-wave (km/s) = 5.83329 6.25860 6.04969
#
# Compressibility (1/GPa) = 0.02867063
#
# Stress axis : x y z
#
# Youngs Moduli (GPa) = 60.13318 44.14806 56.81579
#
# Poissons Ratio (x) = 0.42856 0.16614
# Poissons Ratio (y) = 0.58374 0.08374
# Poissons Ratio (z) = 0.17584 0.06507
#
# Static dielectric constant tensor:
#      x y z
#    x 1.734360 -0.033520 0.019490 
#    y -0.033520 1.736720 -0.000300 
#    z 0.019490 -0.000300 1.742050 
# 
# From -- ./inp_files/155528.got.cif
#   From: 2010.05.17/outbox.cif.g08.bks.cpg/sg2_78_cif.got.tgz:155528.got - 2010.06.03 11:33:40.
