data_PCOD9018243
_publ_section_title
;
Structure prediction by ZEFSAII (Michael W. Deem and Ramdas Pophale) SiO2 
 PCOD9018243
Probable space group: P -1
;
_chemical_formula_sum "Si O2"
_cell_formula_units_Z 16
_cell_length_a 14.705200
_cell_length_b 8.367091
_cell_length_c 10.063826
_cell_angle_alpha 72.186603
_cell_angle_beta 144.434731
_cell_angle_gamma 113.689592
_cell_volume 659.007581
_symmetry_space_group_name_H-M "P -1"
_symmetry_group_IT_number 2
_symmetry_cell_setting 'triclinic'
loop_
_space_group_symop_operation_xyz
x,y,z
-x,-y,-z
loop_
_atom_site_type_symbol
_atom_site_label
_atom_site_fract_x
_atom_site_fract_y
_atom_site_fract_z
Si Si1 0.139039 0.401462 0.714333
Si Si2 0.756683 0.728443 0.396345
Si Si3 0.907767 0.243630 0.117339
Si Si4 0.580852 0.938327 0.777079
Si Si5 0.525753 0.194037 0.039147
Si Si6 0.149355 0.854491 0.615527
Si Si7 0.740537 0.522884 0.867584
Si Si8 0.432274 0.226730 0.475934
O O1 0.225209 0.385687 0.681496
O O2 0.000000 0.500000 0.500000
O O3 0.021673 0.204318 0.647655
O O4 0.234314 0.451824 0.950911
O O5 0.897322 0.723071 0.669876
O O6 0.800810 0.937427 0.372417
O O7 0.561855 0.695322 0.187149
O O8 0.877327 0.207586 0.248327
O O9 0.871187 0.426979 0.996222
O O10 0.758839 0.079824 0.928289
O O11 0.559375 0.825450 0.913604
O O12 0.534740 0.813746 0.627758
O O13 0.448740 0.050463 0.609238
O O14 0.720166 0.239221 0.265130
O O15 0.500000 0.000000 0.000000
O O16 0.574056 0.378038 0.670717
O O17 0.725084 0.701781 0.737968
#
# Coordination Sequence:
#
# PCOD9018243 Si02
#       8
#     2   2   2   2   2   2   2   2
#     4  11  19  32  56  80 113 140 174 227 275 319
#     4  10  19  30  50  85 107 145 169 215 282 320
#     4  10  17  30  53  80 114 132 174 225 262 330
#     4  10  18  34  56  79 107 135 192 227 262 312
#     4  10  19  32  54  82 118 136 170 228 286 327
#     4  10  20  32  49  86 111 142 169 212 291 330
#     4  10  19  33  51  78 111 136 181 227 269 307
#     4   9  21  33  53  83 100 150 183 230 257 301
#
# _framework density 24.278931
#
# number of rings (size 3 to 8) (size 9 to 14) (size 15 to 20)
#    0.000    2.000    5.000    2.250    1.750    0.000 
#    0.000    0.625    0.000    1.500    0.000    0.000 
#    0.000    0.000    0.000    0.000    0.000    0.000 
#
# Total GULP energy -89130.310348 kJ/mol
# GULP energy per Si atom -5570.644397 kJ/mol
# Density = 2.422367 g / cm^3
# Si number density = 24.278931 Si / 1000 Ang^3
#
#
#
# Elastic Constant Matrix: (Units=GPa)
#
#
# Indices 1 2 3 4 5 6 
#
# 1 73.2446 29.9178 39.3075 9.7138 1.0974 -20.1512
# 2 29.9178 78.0939 50.1613 -0.4734 -1.4470 -24.0435
# 3 39.3075 50.1613 156.2363 -7.3641 0.7218 -16.1360
# 4 9.7138 -0.4734 -7.3641 72.6952 -20.3538 -3.4925
# 5 1.0974 -1.4470 0.7218 -20.3538 26.5246 1.1204
# 6 -20.1512 -24.0435 -16.1360 -3.4925 1.1204 22.5472
#
#
#
# Elastic Compliance Matrix: (Units=1/GPa)
#
#
# Indices 1 2 3 4 5 6 
#
# 1 0.020438 -0.001467 -0.003381 -0.003581 -0.004170 0.013935
# 2 -0.001467 0.022410 -0.004786 0.001211 0.001529 0.019274
# 3 -0.003381 -0.004786 0.008673 0.001447 0.000827 -0.001735
# 4 -0.003581 0.001211 0.001447 0.018448 0.014277 0.001275
# 5 -0.004170 0.001529 0.000827 0.014277 0.048963 -0.001727
# 6 0.013935 0.019274 -0.001735 0.001275 -0.001727 0.076399
#
#
# Mechanical properties :
#
#
# Convention : Reuss Voigt Hill
#
# Bulk Modulus (GPa) = 31.00390 60.70535 45.85463
# Shear Modulus (GPa) = 22.18778 36.89927 29.54353
#
# Velocity S-wave (km/s) = 3.02631 3.90270 3.49210
# Velocity P-wave (km/s) = 5.00090 6.73540 5.93189
#
# Compressibility (1/GPa) = 0.03225400
#
# Stress axis : x y z
#
# Youngs Moduli (GPa) = 48.92910 44.62208 115.30135
#
# Poissons Ratio (x) = 0.06544 0.38989
# Poissons Ratio (y) = 0.07176 0.55178
# Poissons Ratio (z) = 0.16545 0.21354
#
# Static dielectric constant tensor:
#      x y z
#    x 1.992260 0.098690 0.141900 
#    y 0.098690 2.094100 0.059420 
#    z 0.141900 0.059420 2.110070 
# 
# From -- ./inp_files/391370.got.cif
#   From: 2010.05.17/outbox.cif.g08.bks.cpg/sg2_196_cif.got.tgz:391370.got - 2010.06.03 11:33:40.
