data_PCOD9018196
_publ_section_title
;
Structure prediction by ZEFSAII (Michael W. Deem and Ramdas Pophale) SiO2 
 PCOD9018196
Probable space group: P -1
;
_chemical_formula_sum "Si O2"
_cell_formula_units_Z 16
_cell_length_a 10.148269
_cell_length_b 9.639393
_cell_length_c 14.994171
_cell_angle_alpha 63.671437
_cell_angle_beta 60.684707
_cell_angle_gamma 114.445544
_cell_volume 676.288751
_symmetry_space_group_name_H-M "P -1"
_symmetry_group_IT_number 2
_symmetry_cell_setting 'triclinic'
loop_
_space_group_symop_operation_xyz
x,y,z
-x,-y,-z
loop_
_atom_site_type_symbol
_atom_site_label
_atom_site_fract_x
_atom_site_fract_y
_atom_site_fract_z
Si Si1 0.000123 0.759547 0.470120
Si Si2 0.710759 0.090295 0.967488
Si Si3 0.735681 0.069471 0.390700
Si Si4 0.824425 0.385069 0.004497
Si Si5 0.086200 0.494253 0.594368
Si Si6 0.604071 0.750998 0.359439
Si Si7 0.398091 0.320754 0.811444
Si Si8 0.583734 0.768416 0.705569
O O1 0.033199 0.630318 0.555576
O O2 0.065612 0.741208 0.357556
O O3 0.704800 0.562158 0.624257
O O4 0.166635 0.041203 0.368283
O O5 0.713271 0.151836 0.050307
O O6 0.987389 0.360141 0.760244
O O7 0.500000 0.000000 0.000000
O O8 0.670613 0.874958 0.044731
O O9 0.728937 0.941222 0.347363
O O10 0.697733 0.942560 0.529910
O O11 0.500000 0.000000 0.500000
O O12 0.000722 0.375559 0.192268
O O13 0.583845 0.266428 0.163078
O O14 0.000000 0.500000 0.000000
O O15 0.377592 0.686434 0.432024
O O16 0.500000 0.500000 0.500000
O O17 0.732326 0.814151 0.203559
O O18 0.388841 0.476441 0.819004
#
# Coordination Sequence:
#
# PCOD9018196 Si02
#       8
#     2   2   2   2   2   2   2   2
#     4  10  21  43  69 100 131 177 236 282 343 414
#     4  12  24  45  69 101 135 180 234 287 343 418
#     4  12  24  44  72  97 137 184 228 280 343 411
#     4  12  27  44  70 106 138 181 239 286 339 421
#     4  10  22  39  73  98 128 181 229 284 343 411
#     4  11  23  44  65 100 136 178 228 277 347 421
#     4  11  25  43  70  98 141 178 227 292 348 410
#     4  12  25  44  67 101 141 178 225 292 349 403
#
# _framework density 23.658535000000001
#
# number of rings (size 3 to 8) (size 9 to 14) (size 15 to 20)
#    0.000    0.750    3.750    4.125    3.500    1.000 
#    0.000    3.125    0.000    0.000    0.000    0.000 
#    0.000    0.000    0.000    0.000    0.000    0.000 
#
# Total GULP energy -89327.390475 kJ/mol
# GULP energy per Si atom -5582.961905 kJ/mol
# Density = 2.360469 g / cm^3
# Si number density = 23.658535 Si / 1000 Ang^3
#
#
#
# Elastic Constant Matrix: (Units=GPa)
#
#
# Indices 1 2 3 4 5 6 
#
# 1 28.0788 -2.8357 -4.2945 0.8530 11.7821 3.7205
# 2 -2.8357 158.2151 18.3289 -0.3164 14.7269 11.1511
# 3 -4.2945 18.3289 87.9027 14.4108 18.2241 4.0561
# 4 0.8530 -0.3164 14.4108 30.7870 -0.4785 -3.1515
# 5 11.7821 14.7269 18.2241 -0.4785 37.6735 -0.9152
# 6 3.7205 11.1511 4.0561 -3.1515 -0.9152 25.2537
#
#
#
# Elastic Compliance Matrix: (Units=1/GPa)
#
#
# Indices 1 2 3 4 5 6 
#
# 1 0.046748 0.002545 0.007275 -0.006067 -0.019470 -0.010642
# 2 0.002545 0.006982 -0.000426 -0.000214 -0.003408 -0.003540
# 3 0.007275 -0.000426 0.015380 -0.008039 -0.009765 -0.004711
# 4 -0.006067 -0.000214 -0.008039 0.037245 0.006517 0.007164
# 5 -0.019470 -0.003408 -0.009765 0.006517 0.038970 0.008167
# 6 -0.010642 -0.003540 -0.004711 0.007164 0.008167 0.044676
#
#
# Mechanical properties :
#
#
# Convention : Reuss Voigt Hill
#
# Bulk Modulus (GPa) = 11.37674 32.95489 22.16582
# Shear Modulus (GPa) = 24.93617 36.27604 30.60610
#
# Velocity S-wave (km/s) = 3.25006 3.92001 3.60065
# Velocity P-wave (km/s) = 4.34776 5.86926 5.16485
#
# Compressibility (1/GPa) = 0.08789860
#
# Stress axis : x y z
#
# Youngs Moduli (GPa) = 21.39125 143.23018 65.01756
#
# Poissons Ratio (x) = -0.36456 -0.47303
# Poissons Ratio (y) = -0.05445 0.02773
# Poissons Ratio (z) = -0.15563 0.06108
#
# Static dielectric constant tensor:
#      x y z
#    x 1.975410 0.078490 0.002080 
#    y 0.078490 2.559350 0.205380 
#    z 0.002080 0.205380 2.007350 
# 
# From -- ./inp_files/407323.got.cif
#   From: 2010.05.17/outbox.cif.g08.bks.cpg/sg2_204_cif.got.tgz:407323.got - 2010.06.03 11:33:40.
