data_PCOD9018813
_publ_section_title
;
Structure prediction by ZEFSAII (Michael W. Deem and Ramdas Pophale) SiO2 
 PCOD9018813
Probable space group: P -1
;
_chemical_formula_sum "Si O2"
_cell_formula_units_Z 16
_cell_length_a 8.857143
_cell_length_b 8.405115
_cell_length_c 13.283494
_cell_angle_alpha 132.746984
_cell_angle_beta 85.252046
_cell_angle_gamma 76.497670
_cell_volume 664.607090
_symmetry_space_group_name_H-M "P -1"
_symmetry_group_IT_number 2
_symmetry_cell_setting 'triclinic'
loop_
_space_group_symop_operation_xyz
x,y,z
-x,-y,-z
loop_
_atom_site_type_symbol
_atom_site_label
_atom_site_fract_x
_atom_site_fract_y
_atom_site_fract_z
Si Si1 0.034210 0.426511 0.825844
Si Si2 0.341191 0.268318 0.878728
Si Si3 0.186065 0.860249 0.266547
Si Si4 0.861725 0.905233 0.942337
Si Si5 0.595959 0.311065 0.020882
Si Si6 0.685971 0.985595 0.477069
Si Si7 0.969480 0.297660 0.355985
Si Si8 0.646465 0.243996 0.385064
O O1 0.152518 0.376013 0.895589
O O2 0.901685 0.312792 0.780360
O O3 0.915519 0.698731 0.932359
O O4 0.175792 0.276620 0.670519
O O5 0.421418 0.307331 0.996052
O O6 0.389456 0.984070 0.748902
O O7 0.408496 0.423243 0.863946
O O8 0.293146 0.789937 0.128647
O O9 0.271550 0.924075 0.382577
O O10 0.034006 0.091185 0.343454
O O11 0.914596 0.764808 0.774471
O O12 0.689804 0.130444 0.027802
O O13 0.000000 0.000000 0.000000
O O14 0.690651 0.160042 0.462150
O O15 0.500000 0.000000 0.500000
O O16 0.791188 0.293995 0.340752
O O17 0.000000 0.500000 0.500000
O O18 0.500000 0.500000 0.500000
#
# Coordination Sequence:
#
# PCOD9018813 Si02
#       8
#     2   2   2   2   2   2   2   2
#     4  11  22  39  67  93 130 165 223 278 329 403
#     4  10  21  44  64  93 129 173 222 268 336 409
#     4  11  22  40  64  95 122 174 220 273 339 397
#     4  11  24  41  68 101 129 173 226 284 338 395
#     4  10  23  41  70  91 131 177 219 275 343 410
#     4  11  24  41  66  94 134 174 217 275 337 404
#     4  11  25  41  67  96 135 177 225 279 336 403
#     4  11  26  42  64  98 135 178 220 280 335 404
#
# _framework density 24.074375
#
# number of rings (size 3 to 8) (size 9 to 14) (size 15 to 20)
#    0.000    1.250    3.750    2.625    8.750    1.500 
#    0.000    0.000    0.000    3.000    0.000    0.000 
#    0.000    0.000    0.000    0.000    0.000    0.000 
#
# Total GULP energy -89198.721365 kJ/mol
# GULP energy per Si atom -5574.920085 kJ/mol
# Density = 2.401958 g / cm^3
# Si number density = 24.074375 Si / 1000 Ang^3
#
#
#
# Elastic Constant Matrix: (Units=GPa)
#
#
# Indices 1 2 3 4 5 6 
#
# 1 145.9256 22.1737 42.7710 12.7354 5.0363 -21.8895
# 2 22.1737 107.3407 17.7710 29.6199 -2.0638 -26.6535
# 3 42.7710 17.7710 89.4225 13.6330 21.9098 -6.1054
# 4 12.7354 29.6199 13.6330 58.5739 -3.3922 -1.6049
# 5 5.0363 -2.0638 21.9098 -3.3922 39.0798 -2.0058
# 6 -21.8895 -26.6535 -6.1054 -1.6049 -2.0058 44.2856
#
#
#
# Elastic Compliance Matrix: (Units=1/GPa)
#
#
# Indices 1 2 3 4 5 6 
#
# 1 0.008629 0.000073 -0.004085 -0.000783 0.001308 0.003776
# 2 0.000073 0.013120 -0.001561 -0.005997 0.001426 0.007564
# 3 -0.004085 -0.001561 0.015897 -0.002564 -0.008756 -0.001256
# 4 -0.000783 -0.005997 -0.002564 0.020943 0.002862 -0.003461
# 5 0.001308 0.001426 -0.008756 0.002862 0.030745 0.001794
# 6 0.003776 0.007564 -0.001256 -0.003461 0.001794 0.028783
#
#
# Mechanical properties :
#
#
# Convention : Reuss Voigt Hill
#
# Bulk Modulus (GPa) = 37.73540 56.45780 47.09660
# Shear Modulus (GPa) = 36.20668 45.71939 40.96304
#
# Velocity S-wave (km/s) = 3.88229 4.36258 4.12942
# Velocity P-wave (km/s) = 5.98371 6.99131 6.50704
#
# Compressibility (1/GPa) = 0.02650031
#
# Stress axis : x y z
#
# Youngs Moduli (GPa) = 115.89221 76.21855 62.90388
#
# Poissons Ratio (x) = -0.00554 0.25695
# Poissons Ratio (y) = -0.00843 0.09818
# Poissons Ratio (z) = 0.47340 0.11896
#
# Static dielectric constant tensor:
#      x y z
#    x 1.890400 -0.008390 -0.096480 
#    y -0.008390 1.980280 -0.036020 
#    z -0.096480 -0.036020 1.964400 
# 
# From -- ./inp_files/428036.got.cif
#   From: 2010.05.17/outbox.cif.g08.bks.cpg/sg2_215_cif.got.tgz:428036.got - 2010.06.03 11:33:40.
