data_PCOD9018786
_publ_section_title
;
Structure prediction by ZEFSAII (Michael W. Deem and Ramdas Pophale) SiO2 
 PCOD9018786
Probable space group: P -1
;
_chemical_formula_sum "Si O2"
_cell_formula_units_Z 16
_cell_length_a 8.255874
_cell_length_b 10.204652
_cell_length_c 13.378867
_cell_angle_alpha 119.557216
_cell_angle_beta 119.569795
_cell_angle_gamma 104.055968
_cell_volume 653.265839
_symmetry_space_group_name_H-M "P -1"
_symmetry_group_IT_number 2
_symmetry_cell_setting 'triclinic'
loop_
_space_group_symop_operation_xyz
x,y,z
-x,-y,-z
loop_
_atom_site_type_symbol
_atom_site_label
_atom_site_fract_x
_atom_site_fract_y
_atom_site_fract_z
Si Si1 0.776813 0.152604 0.773900
Si Si2 0.240771 0.932432 0.606269
Si Si3 0.212836 0.180367 0.322317
Si Si4 0.359462 0.565457 0.600894
Si Si5 0.925793 0.505769 0.327671
Si Si6 0.550162 0.695789 0.110764
Si Si7 0.959392 0.446071 0.094949
Si Si8 0.307947 0.995494 0.878219
O O1 0.845441 0.321943 0.781223
O O2 0.491950 0.013691 0.662144
O O3 0.818184 0.998990 0.702629
O O4 0.954650 0.287334 0.973324
O O5 0.255262 0.892723 0.714103
O O6 0.021726 0.724796 0.416773
O O7 0.248781 0.118190 0.688862
O O8 0.329591 0.369239 0.501165
O O9 0.389265 0.258352 0.309544
O O10 0.947463 0.104866 0.185565
O O11 0.142194 0.531620 0.460344
O O12 0.916636 0.412721 0.186281
O O13 0.697156 0.411385 0.295358
O O14 0.593151 0.795128 0.053947
O O15 0.500000 0.500000 0.000000
O O16 0.295247 0.620223 0.048233
O O17 0.500000 0.000000 0.000000
#
# Coordination Sequence:
#
# PCOD9018786 Si02
#       8
#     2   2   2   2   2   2   2   2
#     4  10  21  44  63  98 132 177 220 283 331 394
#     4   9  20  39  65  90 137 173 218 267 352 386
#     4  11  21  41  68  96 137 174 216 284 333 392
#     4  10  23  38  70  96 140 173 215 273 344 396
#     4  11  21  43  67  98 129 182 219 268 335 413
#     4   9  19  39  64  92 124 178 219 274 329 395
#     4  10  23  38  73  92 132 173 232 271 334 399
#     4  10  22  38  69  95 131 178 226 270 334 405
#
# _framework density 24.492328000000001
#
# number of rings (size 3 to 8) (size 9 to 14) (size 15 to 20)
#    0.750    1.250    2.500    0.750    1.750    0.500 
#    0.000    5.625   19.250    0.000    0.000    0.000 
#    0.000    0.000    0.000    0.000    0.000    0.000 
#
# Total GULP energy -89230.640930 kJ/mol
# GULP energy per Si atom -5576.915058 kJ/mol
# Density = 2.443658 g / cm^3
# Si number density = 24.492328 Si / 1000 Ang^3
#
#
#
# Elastic Constant Matrix: (Units=GPa)
#
#
# Indices 1 2 3 4 5 6 
#
# 1 104.5795 37.3765 10.6044 5.8668 17.6574 24.7881
# 2 37.3765 72.4257 27.7833 36.3113 -5.7566 -2.0954
# 3 10.6044 27.7833 34.9335 23.9964 -8.9805 3.0880
# 4 5.8668 36.3113 23.9964 47.0304 2.0516 -14.5401
# 5 17.6574 -5.7566 -8.9805 2.0516 55.8641 17.2575
# 6 24.7881 -2.0954 3.0880 -14.5401 17.2575 48.9261
#
#
#
# Elastic Compliance Matrix: (Units=1/GPa)
#
#
# Indices 1 2 3 4 5 6 
#
# 1 0.015125 -0.010877 -0.000478 0.005470 -0.004691 -0.004819
# 2 -0.010877 0.033408 -0.005826 -0.022386 0.007366 -0.001942
# 3 -0.000478 -0.005826 0.063927 -0.035219 0.017511 -0.020685
# 4 0.005470 -0.022386 -0.035219 0.064271 -0.019632 0.024518
# 5 -0.004691 0.007366 0.017511 -0.019632 0.028046 -0.014140
# 6 -0.004819 -0.001942 -0.020685 0.024518 -0.014140 0.036377
#
#
# Mechanical properties :
#
#
# Convention : Reuss Voigt Hill
#
# Bulk Modulus (GPa) = 12.80421 40.38525 26.59473
# Shear Modulus (GPa) = 16.58109 39.44241 28.01175
#
# Velocity S-wave (km/s) = 2.60473 4.01733 3.38552
# Velocity P-wave (km/s) = 3.77960 6.16793 5.11511
#
# Compressibility (1/GPa) = 0.07809934
#
# Stress axis : x y z
#
# Youngs Moduli (GPa) = 66.11466 29.93301 15.64283
#
# Poissons Ratio (x) = 0.32558 0.00748
# Poissons Ratio (y) = 0.71912 0.09113
# Poissons Ratio (z) = 0.03160 0.17438
#
# Static dielectric constant tensor:
#      x y z
#    x 2.030120 -0.027150 -0.099270 
#    y -0.027150 2.005990 0.045340 
#    z -0.099270 0.045340 2.130070 
# 
# From -- ./inp_files/559241.got.cif
#   From: 2010.05.17/outbox.cif.g08.bks.cpg/sg2_280_cif.got.tgz:559241.got - 2010.06.03 11:33:40.
