data_PCOD9018513
_publ_section_title
;
Structure prediction by ZEFSAII (Michael W. Deem and Ramdas Pophale) SiO2 
 PCOD9018513
Probable space group: P -1
;
_chemical_formula_sum "Si O2"
_cell_formula_units_Z 16
_cell_length_a 9.278537
_cell_length_b 7.275160
_cell_length_c 11.208513
_cell_angle_alpha 80.937811
_cell_angle_beta 78.740747
_cell_angle_gamma 108.275180
_cell_volume 684.906267
_symmetry_space_group_name_H-M "P -1"
_symmetry_group_IT_number 2
_symmetry_cell_setting 'triclinic'
loop_
_space_group_symop_operation_xyz
x,y,z
-x,-y,-z
loop_
_atom_site_type_symbol
_atom_site_label
_atom_site_fract_x
_atom_site_fract_y
_atom_site_fract_z
Si Si1 0.861286 0.903899 0.688514
Si Si2 0.029775 0.512753 0.854313
Si Si3 0.710079 0.552012 0.894295
Si Si4 0.402208 0.414828 0.830927
Si Si5 0.144613 0.214552 0.730478
Si Si6 0.361996 0.783933 0.682795
Si Si7 0.658838 0.151330 0.603859
Si Si8 0.148858 0.427324 0.465669
O O1 0.735921 0.771681 0.818224
O O2 0.491930 0.989728 0.684434
O O3 0.791853 0.061650 0.628265
O O4 0.024572 0.010933 0.719592
O O5 0.868332 0.523251 0.830737
O O6 0.049967 0.317092 0.817640
O O7 0.186933 0.696106 0.774821
O O8 0.000000 0.500000 0.000000
O O9 0.556205 0.404757 0.870055
O O10 0.880291 0.758969 0.597233
O O11 0.292759 0.232612 0.787339
O O12 0.430054 0.608680 0.722418
O O13 0.310414 0.450774 0.959825
O O14 0.193652 0.355888 0.592321
O O15 0.343732 0.820057 0.541915
O O16 0.709788 0.376024 0.619274
O O17 0.000000 0.500000 0.500000
#
# Coordination Sequence:
#
# PCOD9018513 Si02
#       8
#     2   2   2   2   2   2   2   2
#     4  12  27  41  75 111 147 197 255 300 373 450
#     4  11  21  43  77 106 145 195 248 303 372 441
#     4  11  23  42  74 107 149 192 247 307 368 445
#     4  10  21  44  72 107 153 193 241 314 371 440
#     4  11  23  43  71 109 149 188 248 304 369 447
#     4  10  21  43  71 107 152 195 247 305 374 448
#     4  11  23  44  73 106 154 197 242 312 373 444
#     4  12  24  44  73 108 153 199 247 311 376 441
#
# _framework density 23.360862000000001
#
# number of rings (size 3 to 8) (size 9 to 14) (size 15 to 20)
#    0.000    1.000    7.500    1.125    0.000    0.500 
#    0.000    6.875    2.750    4.500    0.000    0.000 
#    0.000    0.000    0.000    0.000    0.000    0.000 
#
# Total GULP energy -89447.802511 kJ/mol
# GULP energy per Si atom -5590.487657 kJ/mol
# Density = 2.330769 g / cm^3
# Si number density = 23.360862 Si / 1000 Ang^3
#
#
#
# Elastic Constant Matrix: (Units=GPa)
#
#
# Indices 1 2 3 4 5 6 
#
# 1 123.6493 51.3001 21.9308 13.7067 9.5547 33.2804
# 2 51.3001 138.8210 32.9561 28.5117 -4.4229 34.1938
# 3 21.9308 32.9561 97.8904 17.4375 14.2335 2.9335
# 4 13.7067 28.5117 17.4375 30.7253 9.8939 4.6679
# 5 9.5547 -4.4229 14.2335 9.8939 45.5738 0.8206
# 6 33.2804 34.1938 2.9335 4.6679 0.8206 50.4425
#
#
#
# Elastic Compliance Matrix: (Units=1/GPa)
#
#
# Indices 1 2 3 4 5 6 
#
# 1 0.010959 -0.002384 -0.001099 -0.000592 -0.001959 -0.005464
# 2 -0.002384 0.012145 -0.002362 -0.009470 0.004575 -0.005721
# 3 -0.001099 -0.002362 0.012288 -0.003600 -0.003091 0.001994
# 4 -0.000592 -0.009470 -0.003600 0.046354 -0.009786 0.002890
# 5 -0.001959 0.004575 -0.003091 -0.009786 0.025908 -0.001145
# 6 -0.005464 -0.005721 0.001994 0.002890 -0.001145 0.026943
#
#
# Mechanical properties :
#
#
# Convention : Reuss Voigt Hill
#
# Bulk Modulus (GPa) = 42.18764 63.63720 52.91242
# Shear Modulus (GPa) = 32.42863 42.29324 37.36094
#
# Velocity S-wave (km/s) = 3.72984 4.25953 4.00346
# Velocity P-wave (km/s) = 6.05370 7.17576 6.63848
#
# Compressibility (1/GPa) = 0.02370362
#
# Stress axis : x y z
#
# Youngs Moduli (GPa) = 91.25012 82.33799 81.38332
#
# Poissons Ratio (x) = 0.19629 0.08940
# Poissons Ratio (y) = 0.21753 0.19219
# Poissons Ratio (z) = 0.10024 0.19444
#
# Static dielectric constant tensor:
#      x y z
#    x 1.974310 0.012910 0.010490 
#    y 0.012910 1.888420 -0.018500 
#    z 0.010490 -0.018500 1.910540 
# 
# From -- ./inp_files/381971.got.cif
#   From: 2010.05.17/outbox.cif.g08.bks.cpg/sg2_191_cif.got.tgz:381971.got - 2010.06.03 11:33:40.
