data_PCOD9018757
_publ_section_title
;
Structure prediction by ZEFSAII (Michael W. Deem and Ramdas Pophale) SiO2 
 PCOD9018757
Probable space group: P -1
;
_chemical_formula_sum "Si O2"
_cell_formula_units_Z 14
_cell_length_a 11.690650
_cell_length_b 12.256579
_cell_length_c 12.404945
_cell_angle_alpha 145.599051
_cell_angle_beta 34.659770
_cell_angle_gamma 135.581773
_cell_volume 567.602274
_symmetry_space_group_name_H-M "P -1"
_symmetry_group_IT_number 2
_symmetry_cell_setting 'triclinic'
loop_
_space_group_symop_operation_xyz
x,y,z
-x,-y,-z
loop_
_atom_site_type_symbol
_atom_site_label
_atom_site_fract_x
_atom_site_fract_y
_atom_site_fract_z
Si Si1 0.404780 0.517138 0.205616
Si Si2 0.902291 0.695526 0.586938
Si Si3 0.362178 0.873894 0.664919
Si Si4 0.667306 0.223373 0.773585
Si Si5 0.920283 0.137189 0.946895
Si Si6 0.735697 0.507085 0.344789
Si Si7 0.258737 0.167480 0.552866
O O1 0.193236 0.394137 0.301944
O O2 0.383007 0.735945 0.436075
O O3 0.500000 0.500000 0.000000
O O4 0.570321 0.401427 0.048086
O O5 0.802659 0.568841 0.463567
O O6 0.143382 0.704200 0.390165
O O7 0.846369 0.914627 0.794377
O O8 0.139766 0.856927 0.875572
O O9 0.503241 0.782946 0.570677
O O10 0.481535 0.090264 0.748262
O O11 0.753237 0.062547 0.654053
O O12 0.818519 0.301079 0.095041
O O13 0.151086 0.168524 0.754333
O O14 0.500000 0.500000 0.500000
O O15 0.824922 0.684632 0.342759
#
# Coordination Sequence:
#
# PCOD9018757 Si02
#       7
#     2   2   2   2   2   2   2
#     4  12  25  43  70  94 121 167 214 270 330 378
#     4  11  24  43  66  94 128 170 215 262 312 377
#     4  10  21  44  62  91 128 164 208 260 318 372
#     4   9  23  43  64  94 130 161 214 261 314 379
#     4  11  21  40  62  89 133 168 209 255 307 365
#     4  12  22  40  61  99 134 172 213 251 309 375
#     4   9  21  41  60  93 129 173 203 248 314 365
#
# _framework density 24.665158000000002
#
# number of rings (size 3 to 8) (size 9 to 14) (size 15 to 20)
#    0.857    0.571    4.286    0.429    2.000    4.000 
#    5.143    0.714    0.000    0.000    0.000    0.000 
#    0.000    0.000    0.000    0.000    0.000    0.000 
#
# Total GULP energy -78037.056196 kJ/mol
# GULP energy per Si atom -5574.075443 kJ/mol
# Density = 2.460902 g / cm^3
# Si number density = 24.665158 Si / 1000 Ang^3
#
#
#
# Elastic Constant Matrix: (Units=GPa)
#
#
# Indices 1 2 3 4 5 6 
#
# 1 33.2725 17.0958 6.6861 2.1412 -0.8918 4.5697
# 2 17.0958 127.0486 37.7510 -8.7991 9.3002 -1.3024
# 3 6.6861 37.7510 118.8187 -8.5690 -0.4420 13.6174
# 4 2.1412 -8.7991 -8.5690 48.6913 -0.6951 4.9827
# 5 -0.8918 9.3002 -0.4420 -0.6951 25.1291 4.7179
# 6 4.5697 -1.3024 13.6174 4.9827 4.7179 23.9446
#
#
#
# Elastic Compliance Matrix: (Units=1/GPa)
#
#
# Indices 1 2 3 4 5 6 
#
# 1 0.033906 -0.005238 0.000542 -0.001495 0.004546 -0.007649
# 2 -0.005238 0.010013 -0.003310 0.000965 -0.004703 0.004153
# 3 0.000542 -0.003310 0.010414 0.001985 0.002830 -0.007177
# 4 -0.001495 0.000965 0.001985 0.021714 0.001269 -0.005560
# 5 0.004546 -0.004703 0.002830 0.001269 0.043970 -0.011660
# 6 -0.007649 0.004153 -0.007177 -0.005560 -0.011660 0.050985
#
#
# Mechanical properties :
#
#
# Convention : Reuss Voigt Hill
#
# Bulk Modulus (GPa) = 26.09633 44.68950 35.39292
# Shear Modulus (GPa) = 25.02650 34.06012 29.54331
#
# Velocity S-wave (km/s) = 3.18881 3.72008 3.46464
# Velocity P-wave (km/s) = 4.91541 6.05060 5.51231
#
# Compressibility (1/GPa) = 0.03831956
#
# Stress axis : x y z
#
# Youngs Moduli (GPa) = 29.49344 99.86824 96.02776
#
# Poissons Ratio (x) = 0.52313 -0.05205
# Poissons Ratio (y) = 0.15449 0.31789
# Poissons Ratio (z) = -0.01599 0.33061
#
# Static dielectric constant tensor:
#      x y z
#    x 1.969420 -0.069090 -0.008450 
#    y -0.069090 2.054610 0.017520 
#    z -0.008450 0.017520 1.966610 
# 
# From -- ./inp_files/426800.got.cif
#   From: 2010.05.17/outbox.cif.g08.bks.cpg/sg2_214_cif.got.tgz:426800.got - 2010.06.03 11:33:40.
