data_PCOD9018197
_publ_section_title
;
Structure prediction by ZEFSAII (Michael W. Deem and Ramdas Pophale) SiO2 
 PCOD9018197
Probable space group: P -1
;
_chemical_formula_sum "Si O2"
_cell_formula_units_Z 14
_cell_length_a 15.821944
_cell_length_b 8.519742
_cell_length_c 7.388715
_cell_angle_alpha 51.972805
_cell_angle_beta 99.904181
_cell_angle_gamma 125.951302
_cell_volume 606.368306
_symmetry_space_group_name_H-M "P -1"
_symmetry_group_IT_number 2
_symmetry_cell_setting 'triclinic'
loop_
_space_group_symop_operation_xyz
x,y,z
-x,-y,-z
loop_
_atom_site_type_symbol
_atom_site_label
_atom_site_fract_x
_atom_site_fract_y
_atom_site_fract_z
Si Si1 0.183493 0.851495 0.986681
Si Si2 0.644329 0.311505 0.359313
Si Si3 0.162406 0.415640 0.509951
Si Si4 0.939430 0.195515 0.694940
Si Si5 0.576271 0.640910 0.253744
Si Si6 0.106988 0.005431 0.554245
Si Si7 0.480253 0.867760 0.890696
O O1 0.312351 0.079777 0.851414
O O2 0.109848 0.812227 0.817511
O O3 0.164981 0.603960 0.236376
O O4 0.137190 0.924793 0.077226
O O5 0.761647 0.437342 0.396265
O O6 0.610238 0.486173 0.278594
O O7 0.629722 0.255858 0.178992
O O8 0.567930 0.067300 0.633678
O O9 0.193304 0.271010 0.500730
O O10 0.044598 0.208496 0.703198
O O11 0.000000 0.500000 0.500000
O O12 0.869675 0.043521 0.600264
O O13 0.500000 0.500000 0.500000
O O14 0.503996 0.672634 0.073403
O O15 0.000000 0.000000 0.500000
O O16 0.500000 0.000000 0.000000
#
# Coordination Sequence:
#
# PCOD9018197 Si02
#       7
#     2   2   2   2   2   2   2
#     4  11  23  45  66  95 138 174 223 282 337 393
#     4  11  23  45  68 100 135 174 229 283 340 408
#     4  10  21  43  69 100 133 175 225 276 340 406
#     4   9  22  43  67  98 136 172 222 271 337 398
#     4  12  24  45  69  96 136 180 227 281 342 404
#     4  10  22  42  68 100 134 176 223 272 334 413
#     4  11  24  46  69  97 136 178 225 286 342 401
#
# _framework density 23.088277999999999
#
# number of rings (size 3 to 8) (size 9 to 14) (size 15 to 20)
#    0.000    1.429    4.286    0.429    0.000    7.429 
#   12.857    2.857    0.000    0.000    0.000    0.000 
#    0.000    0.000    0.000    0.000    0.000    0.000 
#
# Total GULP energy -78079.271836 kJ/mol
# GULP energy per Si atom -5577.090845 kJ/mol
# Density = 2.303573 g / cm^3
# Si number density = 23.088278 Si / 1000 Ang^3
#
#
#
# Elastic Constant Matrix: (Units=GPa)
#
#
# Indices 1 2 3 4 5 6 
#
# 1 41.7713 6.8107 38.5778 5.3622 9.0118 6.6176
# 2 6.8107 68.3782 29.6705 19.7709 -0.1027 7.7720
# 3 38.5778 29.6705 109.4397 12.4828 17.7753 11.5881
# 4 5.3622 19.7709 12.4828 47.4672 3.4427 6.3362
# 5 9.0118 -0.1027 17.7753 3.4427 49.5615 -0.5128
# 6 6.6176 7.7720 11.5881 6.3362 -0.5128 38.8629
#
#
#
# Elastic Compliance Matrix: (Units=1/GPa)
#
#
# Indices 1 2 3 4 5 6 
#
# 1 0.036313 0.002605 -0.012750 -0.001330 -0.001960 -0.002712
# 2 0.002605 0.018811 -0.005421 -0.006648 0.001956 -0.001479
# 3 -0.012750 -0.005421 0.015811 -0.000014 -0.003378 -0.001502
# 4 -0.001330 -0.006648 -0.000014 0.024424 -0.001489 -0.002441
# 5 -0.001960 0.001956 -0.003378 -0.001489 0.021868 0.001481
# 6 -0.002712 -0.001479 -0.001502 -0.002441 0.001481 0.027354
#
#
# Mechanical properties :
#
#
# Convention : Reuss Voigt Hill
#
# Bulk Modulus (GPa) = 25.12301 41.07859 33.10080
# Shear Modulus (GPa) = 26.45792 36.81365 31.63579
#
# Velocity S-wave (km/s) = 3.38885 3.99742 3.70565
# Velocity P-wave (km/s) = 5.12029 6.25591 5.71637
#
# Compressibility (1/GPa) = 0.03980415
#
# Stress axis : x y z
#
# Youngs Moduli (GPa) = 27.53811 53.16157 63.24843
#
# Poissons Ratio (x) = -0.13850 0.80639
# Poissons Ratio (y) = -0.07174 0.34286
# Poissons Ratio (z) = 0.35110 0.28818
#
# Static dielectric constant tensor:
#      x y z
#    x 1.975000 0.024590 0.008920 
#    y 0.024590 1.982260 -0.007450 
#    z 0.008920 -0.007450 1.805890 
# 
# From -- ./inp_files/106322.got.cif
#   From: 2010.05.17/outbox.cif.g08.bks.cpg/sg2_54_cif.got.tgz:106322.got - 2010.06.03 11:33:40.
