data_PCOD9018455
_publ_section_title
;
Structure prediction by ZEFSAII (Michael W. Deem and Ramdas Pophale) SiO2 
 PCOD9018455
Probable space group: P -1
;
_chemical_formula_sum "Si O2"
_cell_formula_units_Z 14
_cell_length_a 11.895851
_cell_length_b 15.005867
_cell_length_c 9.500348
_cell_angle_alpha 77.928665
_cell_angle_beta 129.714845
_cell_angle_gamma 59.769198
_cell_volume 678.207761
_symmetry_space_group_name_H-M "P -1"
_symmetry_group_IT_number 2
_symmetry_cell_setting 'triclinic'
loop_
_space_group_symop_operation_xyz
x,y,z
-x,-y,-z
loop_
_atom_site_type_symbol
_atom_site_label
_atom_site_fract_x
_atom_site_fract_y
_atom_site_fract_z
Si Si1 0.289172 0.099969 0.672733
Si Si2 0.705479 0.822086 0.649209
Si Si3 0.911959 0.983392 0.567560
Si Si4 0.485908 0.592962 0.166167
Si Si5 0.681092 0.495035 0.642297
Si Si6 0.289980 0.511177 0.914420
Si Si7 0.525995 0.723318 0.657305
O O1 0.341641 0.136112 0.567616
O O2 0.270287 0.005312 0.637707
O O3 0.986674 0.291353 0.415315
O O4 0.500000 0.000000 0.000000
O O5 0.632366 0.761592 0.668784
O O6 0.500000 0.000000 0.500000
O O7 0.021837 0.674562 0.992934
O O8 0.745548 0.120076 0.515325
O O9 0.000000 0.000000 0.500000
O O10 0.191338 0.788425 0.910836
O O11 0.701690 0.502767 0.489444
O O12 0.557960 0.595482 0.071243
O O13 0.457392 0.499689 0.140580
O O14 0.500000 0.500000 0.500000
O O15 0.516451 0.660129 0.538802
O O16 0.260172 0.438995 0.011711
#
# Coordination Sequence:
#
# PCOD9018455 Si02
#       7
#     2   2   2   2   2   2   2
#     4  11  25  46  71 100 136 187 236 287 353 425
#     4  12  27  49  69 100 152 187 224 297 362 417
#     4  11  23  44  67 103 145 176 233 298 350 409
#     4  10  22  41  68 103 135 181 231 298 342 412
#     4  12  25  45  73 104 136 183 247 288 347 425
#     4  10  21  43  70  98 140 181 231 289 353 404
#     4  12  24  45  73  99 148 190 225 294 363 417
#
# _framework density 20.642641000000001
#
# number of rings (size 3 to 8) (size 9 to 14) (size 15 to 20)
#    0.000    0.857    5.714    1.286    2.000    1.714 
#    0.000    1.429    0.000    0.000    0.000    0.000 
#    0.000    0.000    0.000    0.000    0.000    0.000 
#
# Total GULP energy -78197.966109 kJ/mol
# GULP energy per Si atom -5585.569008 kJ/mol
# Density = 2.059566 g / cm^3
# Si number density = 20.642641 Si / 1000 Ang^3
#
#
#
# Elastic Constant Matrix: (Units=GPa)
#
#
# Indices 1 2 3 4 5 6 
#
# 1 140.6557 49.5492 40.7180 13.1356 -18.6452 11.8921
# 2 49.5492 146.4454 59.1051 -1.9647 1.3553 -11.6925
# 3 40.7180 59.1051 107.4372 17.3252 -23.7597 -14.8776
# 4 13.1356 -1.9647 17.3252 24.4095 -8.9942 -1.7110
# 5 -18.6452 1.3553 -23.7597 -8.9942 29.0183 -5.2956
# 6 11.8921 -11.6925 -14.8776 -1.7110 -5.2956 42.8731
#
#
#
# Elastic Compliance Matrix: (Units=1/GPa)
#
#
# Indices 1 2 3 4 5 6 
#
# 1 0.009681 -0.003270 -0.000929 -0.003654 0.003828 -0.003573
# 2 -0.003270 0.010936 -0.006936 0.005227 -0.006509 0.000887
# 3 -0.000929 -0.006936 0.018620 -0.007795 0.013689 0.006207
# 4 -0.003654 0.005227 -0.007795 0.051883 0.007608 0.002744
# 5 0.003828 -0.006509 0.013689 0.007608 0.052377 0.008686
# 6 -0.003573 0.000887 0.006207 0.002744 0.008686 0.027894
#
#
# Mechanical properties :
#
#
# Convention : Reuss Voigt Hill
#
# Bulk Modulus (GPa) = 58.94332 77.03144 67.98738
# Shear Modulus (GPa) = 25.08579 35.60456 30.34518
#
# Velocity S-wave (km/s) = 3.48981 4.15758 3.83825
# Velocity P-wave (km/s) = 6.69735 7.77464 7.25602
#
# Compressibility (1/GPa) = 0.01696545
#
# Stress axis : x y z
#
# Youngs Moduli (GPa) = 103.29225 91.44403 53.70700
#
# Poissons Ratio (x) = 0.29906 0.04989
# Poissons Ratio (y) = 0.33781 0.37252
# Poissons Ratio (z) = 0.09595 0.63427
#
# Static dielectric constant tensor:
#      x y z
#    x 1.827770 -0.016870 -0.019410 
#    y -0.016870 1.747690 -0.023170 
#    z -0.019410 -0.023170 1.739210 
# 
# From -- ./inp_files/238017.got.cif
#   From: 2010.05.17/outbox.cif.g08.bks.cpg/sg2_120_cif.got.tgz:238017.got - 2010.06.03 11:33:40.
