data_PCOD9018640
_publ_section_title
;
Structure prediction by ZEFSAII (Michael W. Deem and Ramdas Pophale) SiO2 
 PCOD9018640
Probable space group: P -1
;
_chemical_formula_sum "Si O2"
_cell_formula_units_Z 16
_cell_length_a 7.766398
_cell_length_b 11.605776
_cell_length_c 14.840380
_cell_angle_alpha 149.036232
_cell_angle_beta 82.803608
_cell_angle_gamma 105.585156
_cell_volume 647.823363
_symmetry_space_group_name_H-M "P -1"
_symmetry_group_IT_number 2
_symmetry_cell_setting 'triclinic'
loop_
_space_group_symop_operation_xyz
x,y,z
-x,-y,-z
loop_
_atom_site_type_symbol
_atom_site_label
_atom_site_fract_x
_atom_site_fract_y
_atom_site_fract_z
Si Si1 0.149491 0.284736 0.606128
Si Si2 0.781580 0.910114 0.128244
Si Si3 0.799245 0.492776 0.975824
Si Si4 0.741041 0.122378 0.588055
Si Si5 0.378857 0.699496 0.965051
Si Si6 0.657974 0.261920 0.503130
Si Si7 0.701610 0.837365 0.653559
Si Si8 0.902483 0.667276 0.669502
O O1 0.138446 0.165036 0.428754
O O2 0.950220 0.266473 0.641454
O O3 0.235989 0.127001 0.557228
O O4 0.277852 0.552693 0.787672
O O5 0.596542 0.795936 0.007194
O O6 0.731023 0.085132 0.320192
O O7 0.817563 0.706636 0.049951
O O8 0.949484 0.072711 0.166940
O O9 0.706382 0.252623 0.766200
O O10 0.676563 0.472469 0.059158
O O11 0.000000 0.500000 0.000000
O O12 0.623479 0.156727 0.534613
O O13 0.304940 0.915561 0.140874
O O14 0.476537 0.264785 0.465104
O O15 0.809971 0.520243 0.664402
O O16 0.734673 0.685235 0.631531
O O17 0.000000 0.500000 0.500000
#
# Coordination Sequence:
#
# PCOD9018640 Si02
#       8
#     2   2   2   2   2   2   2   2
#     4  11  23  40  65  98 140 168 218 269 327 398
#     4  10  23  39  64  92 129 174 222 262 329 389
#     4  12  22  39  63  96 136 180 213 269 333 392
#     4  11  24  39  65  99 134 175 220 263 332 398
#     4  11  23  41  63 100 134 175 209 271 332 391
#     4  10  23  42  67  96 128 173 223 274 327 386
#     4  11  23  42  71  99 129 172 219 271 333 394
#     4  10  21  43  73  91 127 176 221 270 331 385
#
# _framework density 24.698089
#
# number of rings (size 3 to 8) (size 9 to 14) (size 15 to 20)
#    0.000    1.250    2.500    3.750    3.500    1.500 
#    0.000    0.625    5.500    5.250    0.000    0.000 
#    0.000    0.000    0.000    0.000    0.000    0.000 
#
# Total GULP energy -89591.394242 kJ/mol
# GULP energy per Si atom -5599.462140 kJ/mol
# Density = 2.464188 g / cm^3
# Si number density = 24.698089 Si / 1000 Ang^3
#
#
#
# Elastic Constant Matrix: (Units=GPa)
#
#
# Indices 1 2 3 4 5 6 
#
# 1 92.2272 6.8671 21.7888 9.2217 11.7852 -12.1013
# 2 6.8671 86.3560 13.3431 19.7071 -6.5326 -7.3502
# 3 21.7888 13.3431 105.9935 5.5969 0.2503 -1.9423
# 4 9.2217 19.7071 5.5969 32.8003 5.6550 0.9136
# 5 11.7852 -6.5326 0.2503 5.6550 31.4112 4.8097
# 6 -12.1013 -7.3502 -1.9423 0.9136 4.8097 32.2506
#
#
#
# Elastic Compliance Matrix: (Units=1/GPa)
#
#
# Indices 1 2 3 4 5 6 
#
# 1 0.013086 -0.000017 -0.002441 -0.002494 -0.005305 0.005621
# 2 -0.000017 0.014461 -0.001285 -0.009278 0.004260 0.002840
# 3 -0.002441 -0.001285 0.010103 -0.000374 0.000743 -0.000700
# 4 -0.002494 -0.009278 -0.000374 0.038187 -0.007399 -0.003051
# 5 -0.005305 0.004260 0.000743 -0.007399 0.037000 -0.006284
# 6 0.005621 0.002840 -0.000700 -0.003051 -0.006284 0.034745
#
#
# Mechanical properties :
#
#
# Convention : Reuss Voigt Hill
#
# Bulk Modulus (GPa) = 33.15189 40.95275 37.05232
# Shear Modulus (GPa) = 30.28047 35.46427 32.87237
#
# Velocity S-wave (km/s) = 3.50526 3.79345 3.65220
# Velocity P-wave (km/s) = 5.46210 5.98368 5.72883
#
# Compressibility (1/GPa) = 0.03016419
#
# Stress axis : x y z
#
# Youngs Moduli (GPa) = 76.42039 69.15103 98.97873
#
# Poissons Ratio (x) = 0.00119 0.24156
# Poissons Ratio (y) = 0.00132 0.12719
# Poissons Ratio (z) = 0.18651 0.08886
#
# Static dielectric constant tensor:
#      x y z
#    x 2.002040 0.029670 0.050870 
#    y 0.029670 1.933800 0.023330 
#    z 0.050870 0.023330 1.928950 
# 
# From -- ./inp_files/355522.got.cif
#   From: 2010.05.17/outbox.cif.g08.bks.cpg/sg2_178_cif.got.tgz:355522.got - 2010.06.03 11:33:40.
