data_PCOD9018612
_publ_section_title
;
Structure prediction by ZEFSAII (Michael W. Deem and Ramdas Pophale) SiO2 
 PCOD9018612
Probable space group: P -1
;
_chemical_formula_sum "Si O2"
_cell_formula_units_Z 12
_cell_length_a 10.213571
_cell_length_b 9.862727
_cell_length_c 8.774385
_cell_angle_alpha 138.817924
_cell_angle_beta 117.816684
_cell_angle_gamma 75.552408
_cell_volume 506.828221
_symmetry_space_group_name_H-M "P -1"
_symmetry_group_IT_number 2
_symmetry_cell_setting 'triclinic'
loop_
_space_group_symop_operation_xyz
x,y,z
-x,-y,-z
loop_
_atom_site_type_symbol
_atom_site_label
_atom_site_fract_x
_atom_site_fract_y
_atom_site_fract_z
Si Si1 0.317904 0.876148 0.625654
Si Si2 0.149964 0.001219 0.176505
Si Si3 0.198797 0.605498 0.040293
Si Si4 0.003724 0.823308 0.481248
Si Si5 0.619167 0.695314 0.639561
Si Si6 0.590947 0.642857 0.913636
O O1 0.233814 0.751618 0.331929
O O2 0.179813 0.854841 0.652111
O O3 0.464505 0.780582 0.664032
O O4 0.384247 0.116087 0.826184
O O5 0.280737 0.133956 0.262343
O O6 0.111309 0.121547 0.408569
O O7 0.181340 0.770881 0.039681
O O8 0.000000 0.000000 0.000000
O O9 0.339487 0.483921 0.025579
O O10 0.058249 0.415010 0.803969
O O11 0.000000 0.000000 0.500000
O O12 0.680004 0.650264 0.802418
O O13 0.568872 0.490834 0.334476
#
# Coordination Sequence:
#
# PCOD9018612 Si02
#       6
#     2   2   2   2   2   2
#     4  11  22  41  72 100 134 182 235 276 335 415
#     4  12  28  46  68 106 145 173 228 298 348 399
#     4  11  24  43  72  99 135 186 232 280 341 413
#     4  12  24  45  73 103 135 185 235 279 342 418
#     4  10  25  43  67 103 142 180 228 291 343 403
#     4  10  21  43  72  99 137 188 235 274 342 420
#
# _framework density 23.676659000000001
#
# number of rings (size 3 to 8) (size 9 to 14) (size 15 to 20)
#    0.000    1.000    3.333    2.000    0.000    7.333 
#    0.000    5.000    0.000    0.000    0.000    0.000 
#    0.000    0.000    0.000    0.000    0.000    0.000 
#
# Total GULP energy -67001.379745 kJ/mol
# GULP energy per Si atom -5583.448312 kJ/mol
# Density = 2.362277 g / cm^3
# Si number density = 23.676659 Si / 1000 Ang^3
#
#
#
# Elastic Constant Matrix: (Units=GPa)
#
#
# Indices 1 2 3 4 5 6 
#
# 1 88.3265 48.3145 19.5405 10.9467 21.2953 -2.8880
# 2 48.3145 182.7622 71.0319 29.8798 18.6381 -2.7910
# 3 19.5405 71.0319 150.2709 42.9730 4.4455 -4.2150
# 4 10.9467 29.8798 42.9730 47.9831 0.8878 1.8503
# 5 21.2953 18.6381 4.4455 0.8878 35.1018 4.5999
# 6 -2.8880 -2.7910 -4.2150 1.8503 4.5999 33.2344
#
#
#
# Elastic Compliance Matrix: (Units=1/GPa)
#
#
# Indices 1 2 3 4 5 6 
#
# 1 0.015071 -0.002952 0.000233 -0.001751 -0.007859 0.002276
# 2 -0.002952 0.007812 -0.002748 -0.001709 -0.002022 0.000426
# 3 0.000233 -0.002748 0.010091 -0.007436 0.000035 0.001478
# 4 -0.001751 -0.001709 -0.007436 0.029040 0.002598 -0.003215
# 5 -0.007859 -0.002022 0.000035 0.002598 0.035025 -0.005841
# 6 0.002276 0.000426 0.001478 -0.003215 -0.005841 0.031498
#
#
# Mechanical properties :
#
#
# Convention : Reuss Voigt Hill
#
# Bulk Modulus (GPa) = 45.37587 77.68150 61.52868
# Shear Modulus (GPa) = 34.05554 42.09538 38.07546
#
# Velocity S-wave (km/s) = 3.79668 4.22112 4.01452
# Velocity P-wave (km/s) = 6.19888 7.52580 6.89434
#
# Compressibility (1/GPa) = 0.02203815
#
# Stress axis : x y z
#
# Youngs Moduli (GPa) = 66.35156 128.00365 99.10258
#
# Poissons Ratio (x) = 0.37788 -0.02306
# Poissons Ratio (y) = 0.19588 0.27238
# Poissons Ratio (z) = -0.01544 0.35182
#
# Static dielectric constant tensor:
#      x y z
#    x 2.019090 -0.002820 -0.048440 
#    y -0.002820 1.929410 -0.045440 
#    z -0.048440 -0.045440 1.953280 
# 
# From -- ./inp_files/241637.got.cif
#   From: 2010.05.17/outbox.cif.g08.bks.cpg/sg2_121_cif.got.tgz:241637.got - 2010.06.03 11:33:40.
