data_PCOD9018195
_publ_section_title
;
Structure prediction by ZEFSAII (Michael W. Deem and Ramdas Pophale) SiO2 
 PCOD9018195
Probable space group: P -1
;
_chemical_formula_sum "Si O2"
_cell_formula_units_Z 16
_cell_length_a 14.710829
_cell_length_b 14.048338
_cell_length_c 10.268488
_cell_angle_alpha 57.345761
_cell_angle_beta 68.367226
_cell_angle_gamma 22.024016
_cell_volume 609.085786
_symmetry_space_group_name_H-M "P -1"
_symmetry_group_IT_number 2
_symmetry_cell_setting 'triclinic'
loop_
_space_group_symop_operation_xyz
x,y,z
-x,-y,-z
loop_
_atom_site_type_symbol
_atom_site_label
_atom_site_fract_x
_atom_site_fract_y
_atom_site_fract_z
Si Si1 0.247958 0.040920 0.191983
Si Si2 0.040886 0.885335 0.693681
Si Si3 0.044463 0.591785 0.478223
Si Si4 0.472697 0.295179 0.348539
Si Si5 0.480094 0.402053 0.014497
Si Si6 0.601111 0.496727 0.533356
Si Si7 0.487333 0.999773 0.161530
Si Si8 0.778946 0.883438 0.151031
O O1 0.539377 0.669353 0.342226
O O2 0.268354 0.135908 0.194273
O O3 0.064884 0.129463 0.255456
O O4 0.174950 0.154495 0.999337
O O5 0.328494 0.567809 0.837161
O O6 0.884114 0.138982 0.688298
O O7 0.000000 0.000000 0.500000
O O8 0.245926 0.476274 0.415633
O O9 0.227395 0.345768 0.678360
O O10 0.986760 0.606365 0.349832
O O11 0.748440 0.934336 0.436938
O O12 0.549052 0.313257 0.394203
O O13 0.500000 0.500000 0.000000
O O14 0.353256 0.463093 0.151246
O O15 0.742409 0.049060 0.102524
O O16 0.500000 0.500000 0.500000
O O17 0.497429 0.114213 0.135224
O O18 0.500000 0.000000 0.000000
#
# Coordination Sequence:
#
# PCOD9018195 Si02
#       8
#     2   2   2   2   2   2   2   2
#     4  10  21  43  68  99 145 191 247 317 370 445
#     4  11  25  41  68 106 152 200 252 310 380 451
#     4  11  24  49  77 105 153 192 246 314 378 451
#     4  11  26  46  74 108 146 199 251 304 384 452
#     4  11  27  42  68 109 151 203 248 320 372 458
#     4  10  23  40  67  99 145 189 252 303 375 440
#     4  10  22  46  76 107 143 194 250 314 376 451
#     4  10  23  45  71 104 146 192 258 304 382 444
#
# _framework density 26.268877
#
# number of rings (size 3 to 8) (size 9 to 14) (size 15 to 20)
#    0.000    1.500    1.250    1.875   10.500    0.500 
#    9.000    9.375    0.000    0.000    0.000    0.000 
#    0.000    0.000    0.000    0.000    0.000    0.000 
#
# Total GULP energy -89122.569229 kJ/mol
# GULP energy per Si atom -5570.160577 kJ/mol
# Density = 2.620909 g / cm^3
# Si number density = 26.268877 Si / 1000 Ang^3
#
#
#
# Elastic Constant Matrix: (Units=GPa)
#
#
# Indices 1 2 3 4 5 6 
#
# 1 170.0004 24.6464 50.8523 15.0776 15.6968 -3.1187
# 2 24.6464 40.5767 15.1569 -0.6563 -1.3100 -4.1522
# 3 50.8523 15.1569 197.2548 12.6015 18.8192 -10.6791
# 4 15.0776 -0.6563 12.6015 35.3600 2.5794 3.6433
# 5 15.6968 -1.3100 18.8192 2.5794 34.8910 6.8965
# 6 -3.1187 -4.1522 -10.6791 3.6433 6.8965 29.8262
#
#
#
# Elastic Compliance Matrix: (Units=1/GPa)
#
#
# Indices 1 2 3 4 5 6 
#
# 1 0.007313 -0.004089 -0.001089 -0.002682 -0.002813 0.000783
# 2 -0.004089 0.028004 -0.001439 0.002348 0.003108 0.001950
# 3 -0.001089 -0.001439 0.006036 -0.001766 -0.003245 0.002813
# 4 -0.002682 0.002348 -0.001766 0.030498 0.000885 -0.004516
# 5 -0.002813 0.003108 -0.003245 0.000885 0.033481 -0.008873
# 6 0.000783 0.001950 0.002813 -0.004516 -0.008873 0.037492
#
#
# Mechanical properties :
#
#
# Convention : Reuss Voigt Hill
#
# Bulk Modulus (GPa) = 35.56332 65.46035 50.51184
# Shear Modulus (GPa) = 30.22447 41.16052 35.69249
#
# Velocity S-wave (km/s) = 3.39570 3.96269 3.69010
# Velocity P-wave (km/s) = 5.37977 6.77574 6.11771
#
# Compressibility (1/GPa) = 0.02811886
#
# Stress axis : x y z
#
# Youngs Moduli (GPa) = 136.74606 35.70963 165.68418
#
# Poissons Ratio (x) = 0.14602 0.18043
# Poissons Ratio (y) = 0.55917 0.23834
# Poissons Ratio (z) = 0.14891 0.05137
#
# Static dielectric constant tensor:
#      x y z
#    x 2.312100 -0.110880 -0.092920 
#    y -0.110880 2.373540 -0.106810 
#    z -0.092920 -0.106810 2.133990 
# 
# From -- ./inp_files/454636.got.cif
#   From: 2010.05.17/outbox.cif.g08.bks.cpg/sg2_228_cif.got.tgz:454636.got - 2010.06.03 11:33:40.
