data_PCOD9018529
_publ_section_title
;
Structure prediction by ZEFSAII (Michael W. Deem and Ramdas Pophale) SiO2 
 PCOD9018529
Probable space group: P -1
;
_chemical_formula_sum "Si O2"
_cell_formula_units_Z 16
_cell_length_a 5.332343
_cell_length_b 18.079675
_cell_length_c 9.288493
_cell_angle_alpha 52.708787
_cell_angle_beta 120.613533
_cell_angle_gamma 111.608151
_cell_volume 610.779196
_symmetry_space_group_name_H-M "P -1"
_symmetry_group_IT_number 2
_symmetry_cell_setting 'triclinic'
loop_
_space_group_symop_operation_xyz
x,y,z
-x,-y,-z
loop_
_atom_site_type_symbol
_atom_site_label
_atom_site_fract_x
_atom_site_fract_y
_atom_site_fract_z
Si Si1 0.977098 0.228965 0.280312
Si Si2 0.263134 0.447243 0.835212
Si Si3 0.180735 0.064595 0.362927
Si Si4 0.735263 0.145730 0.569508
Si Si5 0.535268 0.783109 0.075170
Si Si6 0.865114 0.115864 0.955978
Si Si7 0.489530 0.646450 0.714435
Si Si8 0.416000 0.592558 0.295571
O O1 0.993016 0.170313 0.501214
O O2 0.113932 0.171421 0.260139
O O3 0.170390 0.324502 0.257903
O O4 0.658693 0.233766 0.108825
O O5 0.325079 0.558508 0.688918
O O6 0.350574 0.396503 0.777700
O O7 0.930536 0.423751 0.815048
O O8 0.481045 0.404480 0.062898
O O9 0.518999 0.078892 0.485230
O O10 0.000000 0.000000 0.500000
O O11 0.047263 0.047808 0.185683
O O12 0.745978 0.096322 0.784623
O O13 0.645365 0.253442 0.443068
O O14 0.395789 0.860900 0.040417
O O15 0.474582 0.692844 0.266473
O O16 0.868434 0.806828 0.100271
O O17 0.500000 0.500000 0.500000
#
# Coordination Sequence:
#
# PCOD9018529 Si02
#       8
#     2   2   2   2   2   2   2   2
#     4  10  21  43  71  94 133 183 230 275 344 417
#     4  11  25  41  59  94 129 183 230 289 338 401
#     4  10  24  47  70 103 141 177 219 281 350 416
#     4  11  24  42  72 102 132 181 232 277 341 416
#     4  11  23  45  66  95 140 184 233 282 340 407
#     4  11  26  43  73 104 136 182 229 281 341 410
#     4  10  24  39  64  90 132 175 234 283 339 400
#     4  12  26  39  62  91 136 180 233 287 346 388
#
# _framework density 26.196044000000001
#
# number of rings (size 3 to 8) (size 9 to 14) (size 15 to 20)
#    0.000    1.250    2.500    1.875   10.500    2.000 
#    0.000    0.625    0.000    0.000    0.000    0.000 
#    0.000    0.000    0.000    0.000    0.000    0.000 
#
# Total GULP energy -89241.513507 kJ/mol
# GULP energy per Si atom -5577.594594 kJ/mol
# Density = 2.613642 g / cm^3
# Si number density = 26.196044 Si / 1000 Ang^3
#
#
#
# Elastic Constant Matrix: (Units=GPa)
#
#
# Indices 1 2 3 4 5 6 
#
# 1 66.4615 22.7904 13.6323 0.5767 -6.4251 6.2460
# 2 22.7904 88.6935 9.0595 -10.5210 -4.2661 7.0049
# 3 13.6323 9.0595 137.5150 -3.3517 -13.3658 -14.9471
# 4 0.5767 -10.5210 -3.3517 23.6040 1.6281 -7.5812
# 5 -6.4251 -4.2661 -13.3658 1.6281 41.0047 -8.6856
# 6 6.2460 7.0049 -14.9471 -7.5812 -8.6856 39.4630
#
#
#
# Elastic Compliance Matrix: (Units=1/GPa)
#
#
# Indices 1 2 3 4 5 6 
#
# 1 0.017355 -0.004422 -0.001738 -0.003710 0.001190 -0.003071
# 2 -0.004422 0.013184 -0.000338 0.005722 0.000209 -0.000623
# 3 -0.001738 -0.000338 0.008355 0.002353 0.003314 0.004681
# 4 -0.003710 0.005722 0.002353 0.048483 0.000972 0.009991
# 5 0.001190 0.000209 0.003314 0.000972 0.027161 0.007194
# 6 -0.003071 -0.000623 0.004681 0.009991 0.007194 0.031212
#
#
# Mechanical properties :
#
#
# Convention : Reuss Voigt Hill
#
# Bulk Modulus (GPa) = 38.61430 42.62606 40.62018
# Shear Modulus (GPa) = 29.87245 37.29354 33.58299
#
# Velocity S-wave (km/s) = 3.38056 3.77720 3.58437
# Velocity P-wave (km/s) = 5.47815 5.94393 5.71578
#
# Compressibility (1/GPa) = 0.02589714
#
# Stress axis : x y z
#
# Youngs Moduli (GPa) = 57.62019 75.85136 119.69314
#
# Poissons Ratio (x) = 0.33544 0.20799
# Poissons Ratio (y) = 0.25482 0.04046
# Poissons Ratio (z) = 0.10013 0.02564
#
# Static dielectric constant tensor:
#      x y z
#    x 2.091870 -0.041220 0.087330 
#    y -0.041220 2.128430 -0.007880 
#    z 0.087330 -0.007880 2.222070 
# 
# From -- ./inp_files/141205.got.cif
#   From: 2010.05.17/outbox.cif.g08.bks.cpg/sg2_71_cif.got.tgz:141205.got - 2010.06.03 11:33:40.
