data_PCOD9018016
_publ_section_title
;
Structure prediction by ZEFSAII (Michael W. Deem and Ramdas Pophale) SiO2 
 PCOD9018016
Probable space group: P -1
;
_chemical_formula_sum "Si O2"
_cell_formula_units_Z 14
_cell_length_a 29.491936
_cell_length_b 15.191621
_cell_length_c 24.147137
_cell_angle_alpha 17.625729
_cell_angle_beta 11.109897
_cell_angle_gamma 19.163928
_cell_volume 623.004310
_symmetry_space_group_name_H-M "P -1"
_symmetry_group_IT_number 2
_symmetry_cell_setting 'triclinic'
loop_
_space_group_symop_operation_xyz
x,y,z
-x,-y,-z
loop_
_atom_site_type_symbol
_atom_site_label
_atom_site_fract_x
_atom_site_fract_y
_atom_site_fract_z
Si Si1 0.758862 0.002123 0.717177
Si Si2 0.017239 0.765368 0.778505
Si Si3 0.928195 0.990669 0.185957
Si Si4 0.602686 0.248995 0.193165
Si Si5 0.873602 0.586580 0.394539
Si Si6 0.512661 0.174378 0.653435
Si Si7 0.596629 0.886113 0.838548
O O1 0.963221 0.728876 0.621604
O O2 0.858195 0.281779 0.403601
O O3 0.500000 0.000000 0.000000
O O4 0.671970 0.991246 0.890981
O O5 0.191604 0.964312 0.479064
O O6 0.000000 0.500000 0.000000
O O7 0.743646 0.888550 0.020756
O O8 0.896268 0.711779 0.353619
O O9 0.687016 0.142535 0.411691
O O10 0.123472 0.894375 0.057849
O O11 0.022395 0.208769 0.898423
O O12 0.408633 0.365036 0.309759
O O13 0.500000 0.000000 0.500000
O O14 0.619614 0.543385 0.031035
O O15 0.500000 0.500000 0.500000
O O16 0.606760 0.946842 0.725229
#
# Coordination Sequence:
#
# PCOD9018016 Si02
#       7
#     2   2   2   2   2   2   2
#     4  10  22  41  73 100 135 181 233 287 344 416
#     4  11  24  43  64 103 143 177 222 285 354 412
#     4  10  23  41  68  98 140 185 231 287 345 418
#     4  10  23  44  68 101 135 182 241 286 341 415
#     4  10  21  43  67  98 138 182 238 284 345 414
#     4  12  25  43  68 104 143 181 231 287 357 416
#     4  11  24  45  70 103 142 180 236 288 347 414
#
# _framework density 22.471755000000002
#
# number of rings (size 3 to 8) (size 9 to 14) (size 15 to 20)
#    0.000    1.429    1.429    3.429    2.000    6.286 
#    0.000    5.000    0.000    0.000    0.000    0.000 
#    0.000    0.000    0.000    0.000    0.000    0.000 
#
# Total GULP energy -78072.648680 kJ/mol
# GULP energy per Si atom -5576.617763 kJ/mol
# Density = 2.242061 g / cm^3
# Si number density = 22.471755 Si / 1000 Ang^3
#
#
#
# Elastic Constant Matrix: (Units=GPa)
#
#
# Indices 1 2 3 4 5 6 
#
# 1 81.2296 17.2174 46.2388 9.3141 -13.8792 -8.1273
# 2 17.2174 88.9364 45.2928 -9.0742 -8.0168 -0.8469
# 3 46.2388 45.2928 157.5307 7.5078 -10.5460 5.0803
# 4 9.3141 -9.0742 7.5078 46.8192 -4.0153 -2.0182
# 5 -13.8792 -8.0168 -10.5460 -4.0153 37.1895 13.5258
# 6 -8.1273 -0.8469 5.0803 -2.0182 13.5258 26.7572
#
#
#
# Elastic Compliance Matrix: (Units=1/GPa)
#
#
# Indices 1 2 3 4 5 6 
#
# 1 0.016103 -0.000853 -0.004311 -0.002255 0.002885 0.004054
# 2 -0.000853 0.013888 -0.003795 0.003643 0.001918 0.000206
# 3 -0.004311 -0.003795 0.008992 -0.001369 0.001413 -0.003955
# 4 -0.002255 0.003643 -0.001369 0.022913 0.001854 0.000481
# 5 0.002885 0.001918 0.001413 0.001854 0.035148 -0.016959
# 6 0.004054 0.000206 -0.003955 0.000481 -0.016959 0.047971
#
#
# Mechanical properties :
#
#
# Convention : Reuss Voigt Hill
#
# Bulk Modulus (GPa) = 47.47268 60.57720 54.02494
# Shear Modulus (GPa) = 29.41948 36.74968 33.08458
#
# Velocity S-wave (km/s) = 3.62218 4.04836 3.84119
# Velocity P-wave (km/s) = 6.21811 6.99056 6.61562
#
# Compressibility (1/GPa) = 0.02106475
#
# Stress axis : x y z
#
# Youngs Moduli (GPa) = 62.10007 72.00365 111.21159
#
# Poissons Ratio (x) = 0.06143 0.47948
# Poissons Ratio (y) = 0.05298 0.42200
# Poissons Ratio (z) = 0.26774 0.27322
#
# Static dielectric constant tensor:
#      x y z
#    x 1.957460 -0.013420 -0.024080 
#    y -0.013420 1.937300 -0.028260 
#    z -0.024080 -0.028260 1.814350 
# 
# From -- ./inp_files/614529.got.cif
#   From: 2010.05.17/outbox.cif.g08.bks.cpg/sg2_308_cif.got.tgz:614529.got - 2010.06.03 11:33:40.
