data_PCOD9018769
_publ_section_title
;
Structure prediction by ZEFSAII (Michael W. Deem and Ramdas Pophale) SiO2 
 PCOD9018769
Probable space group: P -1
;
_chemical_formula_sum "Si O2"
_cell_formula_units_Z 10
_cell_length_a 9.863540
_cell_length_b 7.226956
_cell_length_c 9.042842
_cell_angle_alpha 52.526395
_cell_angle_beta 66.561085
_cell_angle_gamma 103.749657
_cell_volume 353.124595
_symmetry_space_group_name_H-M "P -1"
_symmetry_group_IT_number 2
_symmetry_cell_setting 'triclinic'
loop_
_space_group_symop_operation_xyz
x,y,z
-x,-y,-z
loop_
_atom_site_type_symbol
_atom_site_label
_atom_site_fract_x
_atom_site_fract_y
_atom_site_fract_z
Si Si1 0.469877 0.282768 0.280648
Si Si2 0.821826 0.830268 0.775317
Si Si3 0.481532 0.691702 0.302765
Si Si4 0.203586 0.745010 0.902633
Si Si5 0.972086 0.682261 0.310729
O O1 0.329781 0.177699 0.253397
O O2 0.511479 0.581821 0.189181
O O3 0.352238 0.014834 0.581913
O O4 0.704743 0.459831 0.045352
O O5 0.000000 0.000000 0.500000
O O6 0.918753 0.001412 0.801941
O O7 0.500000 0.500000 0.500000
O O8 0.257630 0.527812 0.490582
O O9 0.615112 0.038401 0.132225
O O10 0.000000 0.500000 0.000000
O O11 0.062808 0.736855 0.087395
O O12 0.000000 0.500000 0.500000
#
# Coordination Sequence:
#
# PCOD9018769 Si02
#       5
#     2   2   2   2   2
#     4   9  20  40  67  90 134 168 206 266 336 366
#     4   9  20  39  67  95 129 164 210 273 326 371
#     4  12  27  44  64  95 136 177 214 261 326 390
#     4  10  21  44  63  91 134 170 208 272 319 376
#     4  12  25  39  71 104 123 165 227 267 321 384
#
# _framework density 28.318615000000001
#
# number of rings (size 3 to 8) (size 9 to 14) (size 15 to 20)
#    1.200    0.400    2.000    2.400    0.000    8.800 
#    0.000    2.000    0.000    0.000    0.000    0.000 
#    0.000    0.000    0.000    0.000    0.000    0.000 
#
# Total GULP energy -55745.937590 kJ/mol
# GULP energy per Si atom -5574.593759 kJ/mol
# Density = 2.825416 g / cm^3
# Si number density = 28.318615 Si / 1000 Ang^3
#
#
#
# Elastic Constant Matrix: (Units=GPa)
#
#
# Indices 1 2 3 4 5 6 
#
# 1 199.7230 70.9533 39.8500 4.6221 -35.4888 10.8340
# 2 70.9533 317.1489 99.7238 12.8960 -23.2234 -1.6134
# 3 39.8500 99.7238 165.7340 11.7525 -10.3401 -8.6016
# 4 4.6221 12.8960 11.7525 71.5888 14.8199 11.4410
# 5 -35.4888 -23.2234 -10.3401 14.8199 76.0041 -10.0851
# 6 10.8340 -1.6134 -8.6016 11.4410 -10.0851 43.2011
#
#
#
# Elastic Compliance Matrix: (Units=1/GPa)
#
#
# Indices 1 2 3 4 5 6 
#
# 1 0.005965 -0.000911 -0.000763 -0.000419 0.002349 -0.001023
# 2 -0.000911 0.004107 -0.002163 -0.000502 0.000665 0.000239
# 3 -0.000763 -0.002163 0.007757 -0.001294 0.000573 0.002132
# 4 -0.000419 -0.000502 -0.001294 0.016077 -0.004383 -0.005452
# 5 0.002349 0.000665 0.000573 -0.004383 0.015979 0.004441
# 6 -0.001023 0.000239 0.002132 -0.005452 0.004441 0.026318
#
#
# Mechanical properties :
#
#
# Convention : Reuss Voigt Hill
#
# Bulk Modulus (GPa) = 98.46532 122.62892 110.54712
# Shear Modulus (GPa) = 57.29802 69.63070 63.46436
#
# Velocity S-wave (km/s) = 4.50303 4.96404 4.73914
# Velocity P-wave (km/s) = 7.86653 8.73229 8.31069
#
# Compressibility (1/GPa) = 0.01015586
#
# Stress axis : x y z
#
# Youngs Moduli (GPa) = 167.63438 243.47014 128.91877
#
# Poissons Ratio (x) = 0.22175 0.09838
# Poissons Ratio (y) = 0.15268 0.27884
# Poissons Ratio (z) = 0.12793 0.52660
#
# Static dielectric constant tensor:
#      x y z
#    x 2.437780 -0.200060 -0.067190 
#    y -0.200060 2.474130 -0.057500 
#    z -0.067190 -0.057500 2.365490 
# 
# From -- ./inp_files/18135.got.cif
#   From: 2010.05.17/outbox.cif.g08.bks.cpg/sg2_10_cif.got.tgz:18135.got - 2010.06.03 11:33:40.
