data_PCOD9018833
_publ_section_title
;
Structure prediction by ZEFSAII (Michael W. Deem and Ramdas Pophale) SiO2 
 PCOD9018833
Probable space group: P -1
;
_chemical_formula_sum "Si O2"
_cell_formula_units_Z 15
_cell_length_a 7.864319
_cell_length_b 15.615396
_cell_length_c 11.890259
_cell_angle_alpha 131.251083
_cell_angle_beta 73.559213
_cell_angle_gamma 67.542362
_cell_volume 647.508204
_symmetry_space_group_name_H-M "P -1"
_symmetry_group_IT_number 2
_symmetry_cell_setting 'triclinic'
loop_
_space_group_symop_operation_xyz
x,y,z
-x,-y,-z
loop_
_atom_site_type_symbol
_atom_site_label
_atom_site_fract_x
_atom_site_fract_y
_atom_site_fract_z
Si Si1 0.765307 0.167289 0.921112
Si Si2 0.074094 0.739248 0.835157
Si Si3 0.805183 0.571026 0.486441
Si Si4 0.000000 0.000000 0.500000
Si Si5 0.671070 0.030927 0.994154
Si Si6 0.335870 0.135162 0.795267
Si Si7 0.043815 0.240724 0.715042
Si Si8 0.750097 0.571094 0.904059
O O1 0.691022 0.082412 0.915633
O O2 0.486184 0.358683 0.075209
O O3 0.002405 0.024866 0.658621
O O4 0.827496 0.217683 0.056737
O O5 0.253159 0.534276 0.600717
O O6 0.790387 0.830063 0.029781
O O7 0.977289 0.848737 0.834082
O O8 0.514876 0.789018 0.739367
O O9 0.000000 0.500000 0.500000
O O10 0.983306 0.521469 0.301308
O O11 0.061024 0.831294 0.361424
O O12 0.500000 0.000000 0.000000
O O13 0.090082 0.234803 0.834687
O O14 0.625713 0.919864 0.530724
O O15 0.408204 0.233521 0.852328
O O16 0.852786 0.434894 0.862727
#
# Coordination Sequence:
#
# PCOD9018833 Si02
#       8
#     2   2   2   1   2   2   2   2
#     4  12  26  47  64 106 145 179 231 284 337 421
#     4  11  24  44  69 101 144 175 225 288 348 402
#     4  11  22  43  68 105 128 174 235 281 338 414
#     4  12  26  46  66 100 144 184 226 274 352 404
#     4  12  24  45  77 100 135 184 228 285 349 406
#     4  10  21  44  65 100 130 174 240 279 323 413
#     4  11  23  41  70  92 135 184 230 278 338 396
#     4  11  23  42  69  95 135 178 227 281 342 400
#
# _framework density 23.165731999999998
#
# number of rings (size 3 to 8) (size 9 to 14) (size 15 to 20)
#    0.000    0.800    5.333    2.400    1.867    1.067 
#    2.400    0.000    0.000    0.000    0.000    0.000 
#    0.000    0.000    0.000    0.000    0.000    0.000 
#
# Total GULP energy -83658.806291 kJ/mol
# GULP energy per Si atom -5577.253753 kJ/mol
# Density = 2.311301 g / cm^3
# Si number density = 23.165732 Si / 1000 Ang^3
#
#
#
# Elastic Constant Matrix: (Units=GPa)
#
#
# Indices 1 2 3 4 5 6 
#
# 1 100.8389 24.2009 -3.2064 14.0852 35.6986 -7.3709
# 2 24.2009 116.1986 22.5676 15.7815 3.7139 -6.2009
# 3 -3.2064 22.5676 75.2261 6.6714 17.4495 6.1063
# 4 14.0852 15.7815 6.6714 40.0800 1.3041 -1.8953
# 5 35.6986 3.7139 17.4495 1.3041 33.5643 -2.2070
# 6 -7.3709 -6.2009 6.1063 -1.8953 -2.2070 30.7737
#
#
#
# Elastic Compliance Matrix: (Units=1/GPa)
#
#
# Indices 1 2 3 4 5 6 
#
# 1 0.021901 -0.004584 0.009213 -0.006530 -0.027314 0.000133
# 2 -0.004584 0.010694 -0.004936 -0.001877 0.006488 0.002386
# 3 0.009213 -0.004936 0.020576 -0.004282 -0.020084 -0.004575
# 4 -0.006530 -0.001877 -0.004282 0.028484 0.008356 0.001261
# 5 -0.027314 0.006488 -0.020084 0.008356 0.068517 0.004179
# 6 0.000133 0.002386 -0.004575 0.001261 0.004179 0.034293
#
#
# Mechanical properties :
#
#
# Convention : Reuss Voigt Hill
#
# Bulk Modulus (GPa) = 19.02657 42.15421 30.59039
# Shear Modulus (GPa) = 24.67926 37.46371 31.07149
#
# Velocity S-wave (km/s) = 3.26749 4.02581 3.66631
# Velocity P-wave (km/s) = 4.73987 6.31236 5.58176
#
# Compressibility (1/GPa) = 0.05255809
#
# Stress axis : x y z
#
# Youngs Moduli (GPa) = 45.65983 93.51010 48.59939
#
# Poissons Ratio (x) = 0.42861 -0.44772
# Poissons Ratio (y) = 0.20929 0.23987
# Poissons Ratio (z) = -0.42064 0.46153
#
# Static dielectric constant tensor:
#      x y z
#    x 2.000470 0.063090 -0.033140 
#    y 0.063090 1.834050 -0.036370 
#    z -0.033140 -0.036370 1.800680 
# 
# From -- ./inp_files/332215.got.cif
#   From: 2010.05.17/outbox.cif.g08.bks.cpg/sg2_167_cif.got.tgz:332215.got - 2010.06.03 11:33:40.
