data_PCOD9018018
_publ_section_title
;
Structure prediction by ZEFSAII (Michael W. Deem and Ramdas Pophale) SiO2 
 PCOD9018018
Probable space group: P -1
;
_chemical_formula_sum "Si O2"
_cell_formula_units_Z 16
_cell_length_a 10.285986
_cell_length_b 5.086220
_cell_length_c 23.037958
_cell_angle_alpha 110.239385
_cell_angle_beta 32.595163
_cell_angle_gamma 114.298452
_cell_volume 591.762105
_symmetry_space_group_name_H-M "P -1"
_symmetry_group_IT_number 2
_symmetry_cell_setting 'triclinic'
loop_
_space_group_symop_operation_xyz
x,y,z
-x,-y,-z
loop_
_atom_site_type_symbol
_atom_site_label
_atom_site_fract_x
_atom_site_fract_y
_atom_site_fract_z
Si Si1 0.302202 0.942981 0.410232
Si Si2 0.154091 0.856077 0.000899
Si Si3 0.729511 0.407160 0.177112
Si Si4 0.118698 0.304114 0.256648
Si Si5 0.814779 0.633698 0.643152
Si Si6 0.235188 0.163350 0.715329
Si Si7 0.357089 0.532704 0.498327
Si Si8 0.591829 0.517319 0.033658
O O1 0.230119 0.718180 0.366241
O O2 0.591968 0.946559 0.311534
O O3 0.080148 0.768655 0.524255
O O4 0.297113 0.263859 0.456483
O O5 0.226790 0.824545 0.903936
O O6 0.311449 0.721186 0.981075
O O7 0.196751 0.192132 0.021250
O O8 0.871677 0.682095 0.104940
O O9 0.433211 0.334730 0.294330
O O10 0.825928 0.546782 0.214317
O O11 0.893841 0.413363 0.377475
O O12 0.214581 0.207602 0.273668
O O13 0.340653 0.535715 0.163018
O O14 0.006327 0.059262 0.233747
O O15 0.439051 0.223887 0.592270
O O16 0.500000 0.500000 0.500000
O O17 0.500000 0.500000 0.000000
#
# Coordination Sequence:
#
# PCOD9018018 Si02
#       8
#     2   2   2   2   2   2   2   2
#     4  10  22  41  64  96 141 180 233 288 354 432
#     4  11  26  52  76 110 145 197 245 311 371 437
#     4  10  24  46  76 103 139 193 243 306 369 443
#     4  12  24  42  70 101 138 191 236 302 364 437
#     4  10  21  43  67  98 144 183 235 298 360 436
#     4  11  23  45  65  99 142 186 235 294 362 439
#     4  12  24  38  65 101 137 191 238 292 358 441
#     4  12  28  50  79 111 151 190 249 311 370 434
#
# _framework density 27.037890000000001
#
# number of rings (size 3 to 8) (size 9 to 14) (size 15 to 20)
#    0.000    1.000    3.750    2.250    1.750    5.500 
#    4.500    0.000    0.000    0.000    0.000    0.000 
#    0.000    0.000    0.000    0.000    0.000    0.000 
#
# Total GULP energy -89203.083610 kJ/mol
# GULP energy per Si atom -5575.192726 kJ/mol
# Density = 2.697635 g / cm^3
# Si number density = 27.037890 Si / 1000 Ang^3
#
#
#
# Elastic Constant Matrix: (Units=GPa)
#
#
# Indices 1 2 3 4 5 6 
#
# 1 109.9592 24.8624 4.7141 21.9110 -2.2174 28.8693
# 2 24.8624 90.0239 13.2160 2.4149 -12.0943 14.1679
# 3 4.7141 13.2160 119.1698 18.8548 18.7282 5.0959
# 4 21.9110 2.4149 18.8548 41.5956 12.8480 -0.4531
# 5 -2.2174 -12.0943 18.7282 12.8480 26.2896 -0.9615
# 6 28.8693 14.1679 5.0959 -0.4531 -0.9615 42.4144
#
#
#
# Elastic Compliance Matrix: (Units=1/GPa)
#
#
# Indices 1 2 3 4 5 6 
#
# 1 0.013545 -0.001767 0.000827 -0.008625 0.003636 -0.008738
# 2 -0.001767 0.013563 -0.002410 -0.001384 0.008379 -0.002863
# 3 0.000827 -0.002410 0.010216 -0.002776 -0.007002 -0.001174
# 4 -0.008625 -0.001384 -0.002776 0.035017 -0.016255 0.006672
# 5 0.003636 0.008379 -0.007002 -0.016255 0.055009 -0.003359
# 6 -0.008738 -0.002863 -0.001174 0.006672 -0.003359 0.030617
#
#
# Mechanical properties :
#
#
# Convention : Reuss Voigt Hill
#
# Bulk Modulus (GPa) = 32.65380 44.97086 38.81233
# Shear Modulus (GPa) = 28.59202 40.48394 34.53798
#
# Velocity S-wave (km/s) = 3.25542 3.87370 3.57794
# Velocity P-wave (km/s) = 5.12188 6.05607 5.60846
#
# Compressibility (1/GPa) = 0.03062431
#
# Stress axis : x y z
#
# Youngs Moduli (GPa) = 73.83070 73.72832 97.88705
#
# Poissons Ratio (x) = 0.13028 -0.08096
# Poissons Ratio (y) = 0.13046 0.23588
# Poissons Ratio (z) = -0.06106 0.17766
#
# Static dielectric constant tensor:
#      x y z
#    x 3.157050 -0.079990 -0.106840 
#    y -0.079990 2.138240 0.077830 
#    z -0.106840 0.077830 2.006050 
# 
# From -- ./inp_files/617930.got.cif
#   From: 2010.05.17/outbox.cif.g08.bks.cpg/sg2_309_cif.got.tgz:617930.got - 2010.06.03 11:33:40.
