data_PCOD9018005
_publ_section_title
;
Structure prediction by ZEFSAII (Michael W. Deem and Ramdas Pophale) SiO2 
 PCOD9018005
Probable space group: P -1
;
_chemical_formula_sum "Si O2"
_cell_formula_units_Z 16
_cell_length_a 6.805511
_cell_length_b 20.613175
_cell_length_c 15.649619
_cell_angle_alpha 158.658016
_cell_angle_beta 63.659930
_cell_angle_gamma 106.584689
_cell_volume 658.724284
_symmetry_space_group_name_H-M "P -1"
_symmetry_group_IT_number 2
_symmetry_cell_setting 'triclinic'
loop_
_space_group_symop_operation_xyz
x,y,z
-x,-y,-z
loop_
_atom_site_type_symbol
_atom_site_label
_atom_site_fract_x
_atom_site_fract_y
_atom_site_fract_z
Si Si1 0.578265 0.325262 0.203541
Si Si2 0.690523 0.921995 0.079117
Si Si3 0.651265 0.777801 0.617933
Si Si4 0.322380 0.815321 0.445611
Si Si5 0.802268 0.090791 0.029038
Si Si6 0.215729 0.117096 0.709503
Si Si7 0.350885 0.446899 0.078642
Si Si8 0.222240 0.625779 0.959434
O O1 0.500000 0.500000 0.500000
O O2 0.689008 0.341580 0.111563
O O3 0.352437 0.272939 0.160473
O O4 0.770688 0.159010 0.020630
O O5 0.952700 0.904382 0.980931
O O6 0.494952 0.069943 0.237584
O O7 0.635610 0.026119 0.308922
O O8 0.801939 0.579556 0.298971
O O9 0.784273 0.881265 0.777272
O O10 0.432899 0.767112 0.702296
O O11 0.249291 0.673361 0.347377
O O12 0.156719 0.957873 0.579815
O O13 0.551547 0.667189 0.169346
O O14 0.500000 0.000000 0.500000
O O15 0.207006 0.327406 0.003406
O O16 0.030951 0.195249 0.762766
O O17 0.578192 0.406733 0.047452
#
# Coordination Sequence:
#
# PCOD9018005 Si02
#       8
#     2   2   2   2   2   2   2   2
#     4  11  24  42  63 100 138 176 232 278 343 419
#     4  11  22  41  67  95 133 183 225 281 347 406
#     4  10  22  39  63  96 137 175 233 270 343 413
#     4  10  21  43  67  98 135 172 234 283 337 417
#     4  10  22  42  63  94 136 183 220 286 333 410
#     4  10  24  44  66  98 134 179 234 287 347 411
#     4  10  23  44  68  98 136 178 233 286 341 419
#     4  12  23  43  68  98 137 183 220 291 347 404
#
# _framework density 24.289373999999999
#
# number of rings (size 3 to 8) (size 9 to 14) (size 15 to 20)
#    0.000    1.500    2.500    1.875    1.750    2.500 
#    2.250   10.625    0.000    0.000    0.000    0.000 
#    0.000    0.000    0.000    0.000    0.000    0.000 
#
# Total GULP energy -89178.992033 kJ/mol
# GULP energy per Si atom -5573.687002 kJ/mol
# Density = 2.423409 g / cm^3
# Si number density = 24.289374 Si / 1000 Ang^3
#
#
#
# Elastic Constant Matrix: (Units=GPa)
#
#
# Indices 1 2 3 4 5 6 
#
# 1 125.5119 8.8060 52.9066 19.3666 11.8888 8.0196
# 2 8.8060 67.1108 23.1325 20.4323 -3.8446 -9.5931
# 3 52.9066 23.1325 92.0810 8.2912 5.8359 12.2183
# 4 19.3666 20.4323 8.2912 55.4459 -2.8155 2.6237
# 5 11.8888 -3.8446 5.8359 -2.8155 45.4480 -0.8799
# 6 8.0196 -9.5931 12.2183 2.6237 -0.8799 25.4704
#
#
#
# Elastic Compliance Matrix: (Units=1/GPa)
#
#
# Indices 1 2 3 4 5 6 
#
# 1 0.011383 0.001923 -0.006624 -0.003835 -0.002190 0.000637
# 2 0.001923 0.021474 -0.007501 -0.007927 0.002017 0.011967
# 3 -0.006624 -0.007501 0.017634 0.002832 -0.001175 -0.009531
# 4 -0.003835 -0.007927 0.002832 0.022190 0.001240 -0.005380
# 5 -0.002190 0.002017 -0.001175 0.001240 0.023026 0.002681
# 6 0.000637 0.011967 -0.009531 -0.005380 0.002681 0.048787
#
#
# Mechanical properties :
#
#
# Convention : Reuss Voigt Hill
#
# Bulk Modulus (GPa) = 38.33386 50.48820 44.41103
# Shear Modulus (GPa) = 28.15392 38.59676 33.37534
#
# Velocity S-wave (km/s) = 3.40826 3.99060 3.71087
# Velocity P-wave (km/s) = 5.59506 6.48571 6.05678
#
# Compressibility (1/GPa) = 0.02608660
#
# Stress axis : x y z
#
# Youngs Moduli (GPa) = 87.84970 46.56860 56.70711
#
# Poissons Ratio (x) = -0.08954 0.37561
# Poissons Ratio (y) = -0.16892 0.42538
# Poissons Ratio (z) = 0.58190 0.34933
#
# Static dielectric constant tensor:
#      x y z
#    x 1.955880 0.046830 0.001680 
#    y 0.046830 2.110410 0.020720 
#    z 0.001680 0.020720 2.017300 
# 
# From -- ./inp_files/551261.got.cif
#   From: 2010.05.17/outbox.cif.g08.bks.cpg/sg2_276_cif.got.tgz:551261.got - 2010.06.03 11:33:40.
