data_PCOD9018691
_publ_section_title
;
Structure prediction by ZEFSAII (Michael W. Deem and Ramdas Pophale) SiO2 
 PCOD9018691
Probable space group: P -1
;
_chemical_formula_sum "Si O2"
_cell_formula_units_Z 14
_cell_length_a 8.784950
_cell_length_b 12.909120
_cell_length_c 10.351207
_cell_angle_alpha 118.901279
_cell_angle_beta 121.408941
_cell_angle_gamma 103.408572
_cell_volume 668.437786
_symmetry_space_group_name_H-M "P -1"
_symmetry_group_IT_number 2
_symmetry_cell_setting 'triclinic'
loop_
_space_group_symop_operation_xyz
x,y,z
-x,-y,-z
loop_
_atom_site_type_symbol
_atom_site_label
_atom_site_fract_x
_atom_site_fract_y
_atom_site_fract_z
Si Si1 0.370252 0.690490 0.202622
Si Si2 0.988082 0.282460 0.062970
Si Si3 0.617567 0.573033 0.873919
Si Si4 0.697057 0.074271 0.238923
Si Si5 0.453137 0.053989 0.380527
Si Si6 0.751268 0.859634 0.250520
Si Si7 0.077257 0.395737 0.464769
O O1 0.349174 0.541472 0.117769
O O2 0.475340 0.785768 0.441374
O O3 0.555595 0.793947 0.233112
O O4 0.140964 0.665485 0.041496
O O5 0.233019 0.361898 0.151726
O O6 0.024755 0.332922 0.257420
O O7 0.812412 0.094770 0.861659
O O8 0.348023 0.491646 0.679915
O O9 0.729926 0.719099 0.104500
O O10 0.608717 0.081032 0.344130
O O11 0.919825 0.246009 0.397999
O O12 0.725542 0.945659 0.180570
O O13 0.500000 0.000000 0.000000
O O14 0.500000 0.000000 0.500000
O O15 0.000000 0.000000 0.500000
O O16 0.000000 0.500000 0.500000
#
# Coordination Sequence:
#
# PCOD9018691 Si02
#       7
#     2   2   2   2   2   2   2
#     4  11  23  45  71 106 140 183 238 297 352 414
#     4  11  23  46  69 102 143 189 238 289 354 427
#     4  12  27  44  68 109 145 181 236 298 359 420
#     4  12  23  46  75 102 137 194 241 287 352 425
#     4  10  21  43  75 105 137 184 246 290 346 422
#     4  12  25  45  71 103 143 184 241 294 351 428
#     4  12  27  47  70 102 147 189 233 296 361 423
#
# _framework density 20.944358000000001
#
# number of rings (size 3 to 8) (size 9 to 14) (size 15 to 20)
#    0.000    0.571    4.286    4.714    4.000    1.143 
#    2.571    1.429    0.000    0.000    0.000    0.000 
#    0.000    0.000    0.000    0.000    0.000    0.000 
#
# Total GULP energy -78286.159968 kJ/mol
# GULP energy per Si atom -5591.868569 kJ/mol
# Density = 2.089669 g / cm^3
# Si number density = 20.944358 Si / 1000 Ang^3
#
#
#
# Elastic Constant Matrix: (Units=GPa)
#
#
# Indices 1 2 3 4 5 6 
#
# 1 113.8115 67.0762 47.3315 18.7397 -0.5671 15.1189
# 2 67.0762 97.0365 61.5489 29.7479 -8.0701 0.1245
# 3 47.3315 61.5489 132.9291 14.8320 -7.0169 -4.5575
# 4 18.7397 29.7479 14.8320 36.3310 1.2364 -5.0521
# 5 -0.5671 -8.0701 -7.0169 1.2364 44.7681 7.5368
# 6 15.1189 0.1245 -4.5575 -5.0521 7.5368 52.0717
#
#
#
# Elastic Compliance Matrix: (Units=1/GPa)
#
#
# Indices 1 2 3 4 5 6 
#
# 1 0.016000 -0.010546 -0.001052 0.000219 -0.001107 -0.004531
# 2 -0.010546 0.026257 -0.006688 -0.013382 0.003826 0.000562
# 3 -0.001052 -0.006688 0.010855 0.001778 0.000195 0.001416
# 4 0.000219 -0.013382 0.001778 0.038391 -0.003935 0.004418
# 5 -0.001107 0.003826 0.000195 -0.003935 0.023740 -0.003489
# 6 -0.004531 0.000562 0.001416 0.004418 -0.003489 0.021576
#
#
# Mechanical properties :
#
#
# Convention : Reuss Voigt Hill
#
# Bulk Modulus (GPa) = 60.46330 77.29891 68.88111
# Shear Modulus (GPa) = 27.94806 37.82219 32.88512
#
# Velocity S-wave (km/s) = 3.65690 4.25413 3.96677
# Velocity P-wave (km/s) = 6.83826 7.81774 7.34435
#
# Compressibility (1/GPa) = 0.01653896
#
# Stress axis : x y z
#
# Youngs Moduli (GPa) = 62.50186 38.08486 92.12556
#
# Poissons Ratio (x) = 0.40163 0.09694
# Poissons Ratio (y) = 0.65912 0.61617
# Poissons Ratio (z) = 0.06577 0.25472
#
# Static dielectric constant tensor:
#      x y z
#    x 1.762590 -0.022290 -0.011530 
#    y -0.022290 1.761640 0.025730 
#    z -0.011530 0.025730 1.735090 
# 
# From -- ./inp_files/158650.got.cif
#   From: 2010.05.17/outbox.cif.g08.bks.cpg/sg2_80_cif.got.tgz:158650.got - 2010.06.03 11:33:40.
