data_PCOD9018108
_publ_section_title
;
Structure prediction by ZEFSAII (Michael W. Deem and Ramdas Pophale) SiO2 
 PCOD9018108
Probable space group: P -1
;
_chemical_formula_sum "Si O2"
_cell_formula_units_Z 11
_cell_length_a 7.982271
_cell_length_b 9.441659
_cell_length_c 8.453244
_cell_angle_alpha 106.882593
_cell_angle_beta 68.399541
_cell_angle_gamma 134.236833
_cell_volume 423.853499
_symmetry_space_group_name_H-M "P -1"
_symmetry_group_IT_number 2
_symmetry_cell_setting 'triclinic'
loop_
_space_group_symop_operation_xyz
x,y,z
-x,-y,-z
loop_
_atom_site_type_symbol
_atom_site_label
_atom_site_fract_x
_atom_site_fract_y
_atom_site_fract_z
Si Si1 0.804212 0.397144 0.197084
Si Si2 0.259638 0.937769 0.482618
Si Si3 0.475891 0.338174 0.555312
Si Si4 0.000000 0.000000 0.000000
Si Si5 0.154456 0.822523 0.120211
Si Si6 0.154595 0.378953 0.242955
O O1 0.631523 0.317942 0.379319
O O2 0.041120 0.445369 0.198134
O O3 0.889453 0.602645 0.171688
O O4 0.711227 0.235263 0.042174
O O5 0.249514 0.903702 0.288966
O O6 0.026378 0.738775 0.582073
O O7 0.500000 0.000000 0.500000
O O8 0.245527 0.107314 0.580876
O O9 0.500000 0.500000 0.500000
O O10 0.592648 0.432146 0.713778
O O11 0.868680 0.048588 0.940520
O O12 0.855927 0.781118 0.895099
#
# Coordination Sequence:
#
# PCOD9018108 Si02
#       6
#     2   2   2   1   2   2
#     4  10  21  43  68  93 133 179 215 272 333 385
#     4  12  24  42  72 101 126 179 225 266 333 395
#     4  12  25  39  66 102 133 172 219 272 332 390
#     4  10  24  42  70  96 128 188 210 270 344 376
#     4  10  22  41  70  95 133 176 221 269 332 389
#     4  11  23  47  66  95 139 170 222 275 326 398
#
# _framework density 25.952362000000001
#
# number of rings (size 3 to 8) (size 9 to 14) (size 15 to 20)
#    0.000    1.091    3.636    2.727    2.545    2.182 
#    3.273    0.909    0.000    0.000    0.000    0.000 
#    0.000    0.000    0.000    0.000    0.000    0.000 
#
# Total GULP energy -61349.313864 kJ/mol
# GULP energy per Si atom -5577.210351 kJ/mol
# Density = 2.589329 g / cm^3
# Si number density = 25.952362 Si / 1000 Ang^3
#
#
#
# Elastic Constant Matrix: (Units=GPa)
#
#
# Indices 1 2 3 4 5 6 
#
# 1 77.1777 41.1895 38.8348 10.2070 24.7837 -28.4575
# 2 41.1895 106.8663 31.0359 16.9254 10.2255 -33.3986
# 3 38.8348 31.0359 143.9402 45.2575 36.3206 7.4146
# 4 10.2070 16.9254 45.2575 55.3807 5.3184 2.9716
# 5 24.7837 10.2255 36.3206 5.3184 41.0012 -3.8388
# 6 -28.4575 -33.3986 7.4146 2.9716 -3.8388 45.4605
#
#
#
# Elastic Compliance Matrix: (Units=1/GPa)
#
#
# Indices 1 2 3 4 5 6 
#
# 1 0.024514 -0.003355 -0.004375 0.000253 -0.008938 0.012823
# 2 -0.003355 0.014436 -0.002286 -0.002576 0.001647 0.009186
# 3 -0.004375 -0.002286 0.013847 -0.008620 -0.008573 -0.006837
# 4 0.000253 -0.002576 -0.008620 0.025479 0.004671 -0.001599
# 5 -0.008938 0.001647 -0.008573 0.004671 0.036349 -0.000222
# 6 0.012823 0.009186 -0.006837 -0.001599 -0.000222 0.037973
#
#
# Mechanical properties :
#
#
# Convention : Reuss Voigt Hill
#
# Bulk Modulus (GPa) = 30.52230 61.12275 45.82253
# Shear Modulus (GPa) = 27.24019 42.83006 35.03512
#
# Velocity S-wave (km/s) = 3.24330 4.06684 3.67819
# Velocity P-wave (km/s) = 5.08053 6.75687 5.97775
#
# Compressibility (1/GPa) = 0.03276293
#
# Stress axis : x y z
#
# Youngs Moduli (GPa) = 40.79287 69.27207 72.22037
#
# Poissons Ratio (x) = 0.23243 0.31599
# Poissons Ratio (y) = 0.13687 0.16511
# Poissons Ratio (z) = 0.17848 0.15837
#
# Static dielectric constant tensor:
#      x y z
#    x 2.079170 0.025770 -0.073540 
#    y 0.025770 2.090620 -0.038050 
#    z -0.073540 -0.038050 2.091730 
# 
# From -- ./inp_files/89208.got.cif
#   From: 2010.05.17/outbox.cif.g08.bks.cpg/sg2_45_cif.got.tgz:89208.got - 2010.06.03 11:33:40.
