data_PCOD9018589
_publ_section_title
;
Structure prediction by ZEFSAII (Michael W. Deem and Ramdas Pophale) SiO2 
 PCOD9018589
Probable space group: P -1
;
_chemical_formula_sum "Si O2"
_cell_formula_units_Z 16
_cell_length_a 12.204818
_cell_length_b 9.641493
_cell_length_c 11.486081
_cell_angle_alpha 141.479817
_cell_angle_beta 113.869377
_cell_angle_gamma 90.426297
_cell_volume 633.028919
_symmetry_space_group_name_H-M "P -1"
_symmetry_group_IT_number 2
_symmetry_cell_setting 'triclinic'
loop_
_space_group_symop_operation_xyz
x,y,z
-x,-y,-z
loop_
_atom_site_type_symbol
_atom_site_label
_atom_site_fract_x
_atom_site_fract_y
_atom_site_fract_z
Si Si1 0.345375 0.696976 0.569877
Si Si2 0.993381 0.588051 0.724627
Si Si3 0.967711 0.835943 0.668545
Si Si4 0.396070 0.962456 0.534390
Si Si5 0.567215 0.745905 0.046538
Si Si6 0.866090 0.805762 0.228368
Si Si7 0.797326 0.232811 0.870971
Si Si8 0.349257 0.319408 0.495567
O O1 0.179330 0.574727 0.451832
O O2 0.357903 0.727058 0.455046
O O3 0.385252 0.510208 0.526089
O O4 0.434080 0.009851 0.853146
O O5 0.040825 0.403584 0.566861
O O6 0.041944 0.838021 0.823116
O O7 0.055540 0.666820 0.932197
O O8 0.806611 0.756306 0.572188
O O9 0.062641 0.103639 0.809039
O O10 0.247851 0.887719 0.358083
O O11 0.500000 0.000000 0.500000
O O12 0.471821 0.229725 0.821813
O O13 0.732770 0.837023 0.188400
O O14 0.533062 0.515790 0.245125
O O15 0.799521 0.499687 0.035530
O O16 0.000000 0.000000 0.500000
O O17 0.680962 0.974150 0.730807
#
# Coordination Sequence:
#
# PCOD9018589 Si02
#       8
#     2   2   2   2   2   2   2   2
#     4   9  21  48  76 101 147 190 251 298 375 436
#     4  10  21  43  72 107 139 191 248 309 352 443
#     4  10  22  43  72 106 142 190 252 292 373 431
#     4  10  26  45  68 107 144 191 240 303 363 441
#     4  10  24  48  77 101 152 192 251 296 374 439
#     4  12  25  47  74 105 146 201 241 305 364 444
#     4  12  28  42  70 108 150 186 251 294 374 432
#     4  11  26  43  76 111 143 201 235 316 367 436
#
# _framework density 25.275307999999999
#
# number of rings (size 3 to 8) (size 9 to 14) (size 15 to 20)
#    0.750    0.750    2.500    0.375    5.250    5.500 
#    2.250    0.625    0.000    0.000    0.000    0.875 
#    0.000    0.000    0.000    0.000    0.000    0.000 
#
# Total GULP energy -89460.286556 kJ/mol
# GULP energy per Si atom -5591.267910 kJ/mol
# Density = 2.521778 g / cm^3
# Si number density = 25.275308 Si / 1000 Ang^3
#
#
#
# Elastic Constant Matrix: (Units=GPa)
#
#
# Indices 1 2 3 4 5 6 
#
# 1 117.9614 39.3703 14.9350 -4.5854 -3.4661 6.0571
# 2 39.3703 214.8361 47.7380 8.1403 -13.9924 -11.4750
# 3 14.9350 47.7380 100.5346 11.3581 -7.2509 -17.0098
# 4 -4.5854 8.1403 11.3581 48.2893 -6.3940 -0.7761
# 5 -3.4661 -13.9924 -7.2509 -6.3940 22.8616 -2.8708
# 6 6.0571 -11.4750 -17.0098 -0.7761 -2.8708 29.5062
#
#
#
# Elastic Compliance Matrix: (Units=1/GPa)
#
#
# Indices 1 2 3 4 5 6 
#
# 1 0.009427 -0.001664 -0.001335 0.001433 -0.000029 -0.003317
# 2 -0.001664 0.005668 -0.001929 -0.000269 0.002742 0.001693
# 3 -0.001335 -0.001929 0.012729 -0.002298 0.002901 0.007083
# 4 0.001433 -0.000269 -0.002298 0.022141 0.005439 -0.000612
# 5 -0.000029 0.002742 0.002901 0.005439 0.048815 0.007637
# 6 -0.003317 0.001693 0.007083 -0.000612 0.007637 0.040041
#
#
# Mechanical properties :
#
#
# Convention : Reuss Voigt Hill
#
# Bulk Modulus (GPa) = 55.66267 70.82429 63.24348
# Shear Modulus (GPa) = 32.32757 42.21736 37.27246
#
# Velocity S-wave (km/s) = 3.58022 4.09136 3.84430
# Velocity P-wave (km/s) = 6.25787 7.09937 6.69186
#
# Compressibility (1/GPa) = 0.01796536
#
# Stress axis : x y z
#
# Youngs Moduli (GPa) = 106.07780 176.44085 78.56344
#
# Poissons Ratio (x) = 0.29363 0.10492
# Poissons Ratio (y) = 0.17653 0.15157
# Poissons Ratio (z) = 0.14166 0.34041
#
# Static dielectric constant tensor:
#      x y z
#    x 2.019630 -0.039780 -0.015990 
#    y -0.039780 2.055380 0.027260 
#    z -0.015990 0.027260 1.988820 
# 
# From -- ./inp_files/445239.got.cif
#   From: 2010.05.17/outbox.cif.g08.bks.cpg/sg2_223_cif.got.tgz:445239.got - 2010.06.03 11:33:40.
