data_PCOD9018569
_publ_section_title
;
Structure prediction by ZEFSAII (Michael W. Deem and Ramdas Pophale) SiO2 
 PCOD9018569
Probable space group: P -1
;
_chemical_formula_sum "Si O2"
_cell_formula_units_Z 14
_cell_length_a 8.780749
_cell_length_b 10.772627
_cell_length_c 8.518801
_cell_angle_alpha 132.630856
_cell_angle_beta 102.751156
_cell_angle_gamma 61.986517
_cell_volume 517.482011
_symmetry_space_group_name_H-M "P -1"
_symmetry_group_IT_number 2
_symmetry_cell_setting 'triclinic'
loop_
_space_group_symop_operation_xyz
x,y,z
-x,-y,-z
loop_
_atom_site_type_symbol
_atom_site_label
_atom_site_fract_x
_atom_site_fract_y
_atom_site_fract_z
Si Si1 0.989105 0.831235 0.153834
Si Si2 0.518066 0.814569 0.932138
Si Si3 0.357265 0.301050 0.656442
Si Si4 0.107602 0.611173 0.669441
Si Si5 0.701341 0.047343 0.676508
Si Si6 0.720998 0.237657 0.405922
Si Si7 0.779950 0.485849 0.872680
O O1 0.139509 0.902298 0.264398
O O2 0.030709 0.672904 0.163633
O O3 0.017993 0.739848 0.909892
O O4 0.809852 0.017674 0.284143
O O5 0.438732 0.722529 0.710903
O O6 0.714953 0.672034 0.908504
O O7 0.395053 0.874912 0.110822
O O8 0.500000 0.000000 0.000000
O O9 0.294314 0.447980 0.627639
O O10 0.555144 0.151614 0.599961
O O11 0.256593 0.171386 0.508230
O O12 0.306919 0.430724 0.909823
O O13 0.137732 0.730128 0.641662
O O14 0.000000 0.500000 0.500000
O O15 0.695468 0.371795 0.661772
#
# Coordination Sequence:
#
# PCOD9018569 Si02
#       7
#     2   2   2   2   2   2   2
#     4  11  24  45  71 101 139 187 235 279 346 420
#     4  11  26  44  70 104 141 178 232 292 349 408
#     4   9  22  40  67  99 135 188 227 284 330 421
#     4  11  24  40  68 103 140 179 236 282 347 407
#     4  10  21  43  72 100 138 183 238 278 345 411
#     4  12  25  43  71 103 142 182 227 294 349 400
#     4  10  25  45  64 103 138 187 226 279 348 415
#
# _framework density 27.054079999999999
#
# number of rings (size 3 to 8) (size 9 to 14) (size 15 to 20)
#    0.000    1.429    1.429    2.143    6.000    5.143 
#    0.000   11.429    0.000    0.000    0.000    0.000 
#    0.000    0.000    0.000    0.000    0.000    0.000 
#
# Total GULP energy -78534.589900 kJ/mol
# GULP energy per Si atom -5609.613564 kJ/mol
# Density = 2.699250 g / cm^3
# Si number density = 27.054080 Si / 1000 Ang^3
#
#
#
# Elastic Constant Matrix: (Units=GPa)
#
#
# Indices 1 2 3 4 5 6 
#
# 1 87.8771 26.4566 50.4138 -10.1992 -8.8312 6.2105
# 2 26.4566 208.5423 42.6257 18.9192 -1.0390 -8.7137
# 3 50.4138 42.6257 198.4802 -3.3972 7.3268 2.6460
# 4 -10.1992 18.9192 -3.3972 41.2511 -6.0627 11.9721
# 5 -8.8312 -1.0390 7.3268 -6.0627 34.6171 0.8607
# 6 6.2105 -8.7137 2.6460 11.9721 0.8607 32.2406
#
#
#
# Elastic Compliance Matrix: (Units=1/GPa)
#
#
# Indices 1 2 3 4 5 6 
#
# 1 0.016062 -0.002204 -0.003626 0.007438 0.006259 -0.006322
# 2 -0.002204 0.005794 -0.000771 -0.004521 -0.001111 0.003762
# 3 -0.003626 -0.000771 0.006201 -0.000436 -0.002342 0.000206
# 4 0.007438 -0.004521 -0.000436 0.033781 0.008153 -0.015381
# 5 0.006259 -0.001111 -0.002342 0.008153 0.032504 -0.005209
# 6 -0.006322 0.003762 0.000206 -0.015381 -0.005209 0.039085
#
#
# Mechanical properties :
#
#
# Convention : Reuss Voigt Hill
#
# Bulk Modulus (GPa) = 67.31652 81.54352 74.43002
# Shear Modulus (GPa) = 32.98557 46.64865 39.81711
#
# Velocity S-wave (km/s) = 3.49556 4.15694 3.84051
# Velocity P-wave (km/s) = 6.42091 7.29703 6.87294
#
# Compressibility (1/GPa) = 0.01485520
#
# Stress axis : x y z
#
# Youngs Moduli (GPa) = 62.25740 172.58370 161.26205
#
# Poissons Ratio (x) = 0.38044 0.58471
# Poissons Ratio (y) = 0.13724 0.12434
# Poissons Ratio (z) = 0.22574 0.13306
#
# Static dielectric constant tensor:
#      x y z
#    x 2.089370 0.003340 0.012740 
#    y 0.003340 2.106110 0.020980 
#    z 0.012740 0.020980 2.047310 
# 
# From -- ./inp_files/263787.got.cif
#   From: 2010.05.17/outbox.cif.g08.bks.cpg/sg2_132_cif.got.tgz:263787.got - 2010.06.03 11:33:40.
