data_PCOD9018535
_publ_section_title
;
Structure prediction by ZEFSAII (Michael W. Deem and Ramdas Pophale) SiO2 
 PCOD9018535
Probable space group: P -1
;
_chemical_formula_sum "Si O2"
_cell_formula_units_Z 16
_cell_length_a 12.340048
_cell_length_b 11.355189
_cell_length_c 11.915008
_cell_angle_alpha 131.081306
_cell_angle_beta 44.272060
_cell_angle_gamma 143.384538
_cell_volume 681.386844
_symmetry_space_group_name_H-M "P -1"
_symmetry_group_IT_number 2
_symmetry_cell_setting 'triclinic'
loop_
_space_group_symop_operation_xyz
x,y,z
-x,-y,-z
loop_
_atom_site_type_symbol
_atom_site_label
_atom_site_fract_x
_atom_site_fract_y
_atom_site_fract_z
Si Si1 0.329231 0.529217 0.286950
Si Si2 0.643299 0.973590 0.600628
Si Si3 0.811223 0.905536 0.878190
Si Si4 0.943966 0.453969 0.882550
Si Si5 0.628286 0.309964 0.870089
Si Si6 0.784957 0.267173 0.343552
Si Si7 0.871693 0.056727 0.682879
Si Si8 0.219430 0.075014 0.749667
O O1 0.247770 0.309842 0.245549
O O2 0.302221 0.520971 0.167026
O O3 0.210884 0.592108 0.478117
O O4 0.569304 0.707013 0.241001
O O5 0.701077 0.191780 0.691683
O O6 0.667254 0.932537 0.684270
O O7 0.774879 0.955913 0.407896
O O8 0.425578 0.832734 0.622520
O O9 0.008648 0.030636 0.887421
O O10 0.843243 0.020317 0.812630
O O11 0.610946 0.841762 0.044551
O O12 0.719031 0.368446 0.964290
O O13 0.969981 0.287068 0.732163
O O14 0.064416 0.622722 0.803103
O O15 0.000000 0.500000 0.000000
O O16 0.785063 0.098503 0.297431
O O17 0.000000 0.000000 0.500000
#
# Coordination Sequence:
#
# PCOD9018535 Si02
#       8
#     2   2   2   2   2   2   2   2
#     4  11  23  44  70 107 136 177 241 289 350 421
#     4  10  21  43  71  95 134 178 234 286 344 412
#     4  12  27  40  68 103 144 190 218 291 366 404
#     4  11  28  44  69 104 142 187 240 289 352 431
#     4  11  24  45  67  99 142 177 233 289 349 425
#     4  11  22  43  75 101 129 184 236 295 348 408
#     4  11  24  46  68  98 141 190 242 285 343 430
#     4  11  22  44  73 103 136 174 237 299 342 415
#
# _framework density 23.481521999999998
#
# number of rings (size 3 to 8) (size 9 to 14) (size 15 to 20)
#    0.000    1.000    3.750    2.625    5.250    3.500 
#    0.000    1.875    0.000    0.000    0.000    0.000 
#    0.000    0.000    0.000    0.000    0.000    0.000 
#
# Total GULP energy -89443.243669 kJ/mol
# GULP energy per Si atom -5590.202729 kJ/mol
# Density = 2.342808 g / cm^3
# Si number density = 23.481522 Si / 1000 Ang^3
#
#
#
# Elastic Constant Matrix: (Units=GPa)
#
#
# Indices 1 2 3 4 5 6 
#
# 1 134.0296 17.9962 28.6520 -8.9628 7.1516 21.7027
# 2 17.9962 68.6178 1.7554 -4.6003 -4.9251 0.7692
# 3 28.6520 1.7554 64.3217 -0.3532 11.2618 12.5369
# 4 -8.9628 -4.6003 -0.3532 33.3622 -1.9716 -0.6685
# 5 7.1516 -4.9251 11.2618 -1.9716 29.6437 3.8308
# 6 21.7027 0.7692 12.5369 -0.6685 3.8308 29.5850
#
#
#
# Elastic Compliance Matrix: (Units=1/GPa)
#
#
# Indices 1 2 3 4 5 6 
#
# 1 0.009458 -0.002256 -0.002948 0.002048 -0.000690 -0.005494
# 2 -0.002256 0.015502 -0.000147 0.001736 0.003169 0.000943
# 3 -0.002948 -0.000147 0.018885 -0.001063 -0.005900 -0.005096
# 4 0.002048 0.001736 -0.001063 0.030877 0.002343 -0.000702
# 5 -0.000690 0.003169 -0.005900 0.002343 0.037060 -0.001822
# 6 -0.005494 0.000943 -0.005096 -0.000702 -0.001822 0.040186
#
#
# Mechanical properties :
#
#
# Convention : Reuss Voigt Hill
#
# Bulk Modulus (GPa) = 30.17379 40.41958 35.29668
# Shear Modulus (GPa) = 28.78245 33.08921 30.93583
#
# Velocity S-wave (km/s) = 3.50487 3.75795 3.63361
# Velocity P-wave (km/s) = 5.40895 6.00669 5.71564
#
# Compressibility (1/GPa) = 0.03314135
#
# Stress axis : x y z
#
# Youngs Moduli (GPa) = 105.73527 64.50718 52.95322
#
# Poissons Ratio (x) = 0.14551 0.15613
# Poissons Ratio (y) = 0.23850 0.00781
# Poissons Ratio (z) = 0.31175 0.00951
#
# Static dielectric constant tensor:
#      x y z
#    x 1.905900 0.094140 -0.031150 
#    y 0.094140 1.930900 -0.002350 
#    z -0.031150 -0.002350 1.926490 
# 
# From -- ./inp_files/428684.got.cif
#   From: 2010.05.17/outbox.cif.g08.bks.cpg/sg2_215_cif.got.tgz:428684.got - 2010.06.03 11:33:40.
