data_PCOD9018654
_publ_section_title
;
Structure prediction by ZEFSAII (Michael W. Deem and Ramdas Pophale) SiO2 
 PCOD9018654
Probable space group: P -1
;
_chemical_formula_sum "Si O2"
_cell_formula_units_Z 15
_cell_length_a 7.257505
_cell_length_b 14.420658
_cell_length_c 9.087500
_cell_angle_alpha 82.608143
_cell_angle_beta 107.705756
_cell_angle_gamma 137.562584
_cell_volume 604.546473
_symmetry_space_group_name_H-M "P -1"
_symmetry_group_IT_number 2
_symmetry_cell_setting 'triclinic'
loop_
_space_group_symop_operation_xyz
x,y,z
-x,-y,-z
loop_
_atom_site_type_symbol
_atom_site_label
_atom_site_fract_x
_atom_site_fract_y
_atom_site_fract_z
Si Si1 0.361946 0.262600 0.863563
Si Si2 0.985958 0.181278 0.028017
Si Si3 0.000000 0.500000 0.500000
Si Si4 0.304604 0.309874 0.362625
Si Si5 0.922697 0.082757 0.562277
Si Si6 0.341362 0.813944 0.528494
Si Si7 0.472611 0.857671 0.901523
Si Si8 0.770986 0.495176 0.671549
O O1 0.585535 0.390938 0.781127
O O2 0.139879 0.128455 0.730550
O O3 0.495704 0.234645 0.009654
O O4 0.171973 0.267497 0.910484
O O5 0.777414 0.182932 0.052582
O O6 0.226952 0.248295 0.196282
O O7 0.770534 0.019482 0.971054
O O8 0.129518 0.655551 0.471519
O O9 0.950161 0.462286 0.309043
O O10 0.627492 0.416908 0.487313
O O11 0.236137 0.395999 0.343851
O O12 0.099061 0.178009 0.444879
O O13 0.788995 0.134739 0.567652
O O14 0.654723 0.919383 0.508098
O O15 0.403800 0.842287 0.714236
#
# Coordination Sequence:
#
# PCOD9018654 Si02
#       8
#     2   2   1   2   2   2   2   2
#     4  11  25  43  71 106 141 176 238 296 343 425
#     4  11  23  42  73  95 143 192 219 291 367 413
#     4  12  24  42  70 104 142 182 234 292 358 406
#     4  10  21  45  68  96 136 186 234 277 350 423
#     4  10  21  43  73  98 140 183 234 298 334 410
#     4  11  23  42  72 104 141 185 233 294 349 419
#     4  11  24  44  68 107 144 177 233 292 360 412
#     4  10  24  44  65 100 141 181 231 291 344 417
#
# _framework density 24.811989000000001
#
# number of rings (size 3 to 8) (size 9 to 14) (size 15 to 20)
#    0.000    1.333    4.000    0.400    1.867    2.667 
#    0.000    6.667    0.000    0.000    0.000    0.000 
#    0.000    0.000    0.000    0.000    0.000    0.000 
#
# Total GULP energy -83712.274177 kJ/mol
# GULP energy per Si atom -5580.818278 kJ/mol
# Density = 2.475552 g / cm^3
# Si number density = 24.811989 Si / 1000 Ang^3
#
#
#
# Elastic Constant Matrix: (Units=GPa)
#
#
# Indices 1 2 3 4 5 6 
#
# 1 90.8185 54.5792 37.4611 -22.1529 -19.4353 0.8552
# 2 54.5792 130.1861 33.1940 -9.2360 -2.1661 27.4679
# 3 37.4611 33.1940 138.5708 0.4161 -3.4110 11.9025
# 4 -22.1529 -9.2360 0.4161 40.1033 11.0522 -3.9547
# 5 -19.4353 -2.1661 -3.4110 11.0522 37.4857 -9.3082
# 6 0.8552 27.4679 11.9025 -3.9547 -9.3082 41.0565
#
#
#
# Elastic Compliance Matrix: (Units=1/GPa)
#
#
# Indices 1 2 3 4 5 6 
#
# 1 0.023474 -0.010205 -0.004599 0.008623 0.011371 0.011081
# 2 -0.010205 0.013977 0.000185 -0.001651 -0.006678 -0.010865
# 3 -0.004599 0.000185 0.008653 -0.002444 -0.001647 -0.003145
# 4 0.008623 -0.001651 -0.002444 0.030815 -0.004016 0.003691
# 5 0.011371 -0.006678 -0.001647 -0.004016 0.036340 0.012560
# 6 0.011081 -0.010865 -0.003145 0.003691 0.012560 0.035510
#
#
# Mechanical properties :
#
#
# Convention : Reuss Voigt Hill
#
# Bulk Modulus (GPa) = 59.29942 67.78266 63.54104
# Shear Modulus (GPa) = 27.22905 39.35184 33.29045
#
# Velocity S-wave (km/s) = 3.31632 3.98678 3.66691
# Velocity P-wave (km/s) = 6.21413 6.96925 6.60249
#
# Compressibility (1/GPa) = 0.01686357
#
# Stress axis : x y z
#
# Youngs Moduli (GPa) = 42.60114 71.54701 115.57353
#
# Poissons Ratio (x) = 0.73016 0.53151
# Poissons Ratio (y) = 0.43476 -0.02134
# Poissons Ratio (z) = 0.19592 -0.01321
#
# Static dielectric constant tensor:
#      x y z
#    x 2.228460 0.148400 0.014080 
#    y 0.148400 1.990600 0.035840 
#    z 0.014080 0.035840 1.955610 
# 
# From -- ./inp_files/201561.got.cif
#   From: 2010.05.17/outbox.cif.g08.bks.cpg/sg2_101_cif.got.tgz:201561.got - 2010.06.03 11:33:40.
