data_PCOD9018728
_publ_section_title
;
Structure prediction by ZEFSAII (Michael W. Deem and Ramdas Pophale) SiO2 
 PCOD9018728
Probable space group: P -1
;
_chemical_formula_sum "Si O2"
_cell_formula_units_Z 16
_cell_length_a 15.311126
_cell_length_b 6.870953
_cell_length_c 22.033773
_cell_angle_alpha 80.300775
_cell_angle_beta 166.139593
_cell_angle_gamma 98.574386
_cell_volume 546.325826
_symmetry_space_group_name_H-M "P -1"
_symmetry_group_IT_number 2
_symmetry_cell_setting 'triclinic'
loop_
_space_group_symop_operation_xyz
x,y,z
-x,-y,-z
loop_
_atom_site_type_symbol
_atom_site_label
_atom_site_fract_x
_atom_site_fract_y
_atom_site_fract_z
Si Si1 0.056346 0.658168 0.173697
Si Si2 0.700455 0.758150 0.437010
Si Si3 0.334098 0.959672 0.068569
Si Si4 0.614480 0.961546 0.507914
Si Si5 0.516991 0.373468 0.078219
Si Si6 0.542467 0.589318 0.624156
Si Si7 0.901008 0.901071 0.261364
Si Si8 0.795531 0.681479 0.318623
O O1 0.316104 0.801236 0.303563
O O2 0.269051 0.586618 0.381806
O O3 0.068002 0.481333 0.141547
O O4 0.719377 0.807226 0.961151
O O5 0.821596 0.919479 0.562666
O O6 0.584858 0.560103 0.402007
O O7 0.069919 0.723852 0.646931
O O8 0.397372 0.855606 0.182340
O O9 0.031184 0.903894 0.817073
O O10 0.686087 0.873296 0.273364
O O11 0.500000 0.000000 0.500000
O O12 0.461556 0.550908 0.079238
O O13 0.500000 0.500000 0.000000
O O14 0.207650 0.224316 0.863632
O O15 0.508356 0.815238 0.612519
O O16 0.993578 0.759941 0.388364
O O17 0.500000 0.000000 0.000000
O O18 0.000000 0.500000 0.500000
#
# Coordination Sequence:
#
# PCOD9018728 Si02
#       8
#     2   2   2   2   2   2   2   2
#     4  10  23  49  76 112 145 199 257 311 369 448
#     4  12  24  45  70 113 152 191 248 310 383 442
#     4  11  26  42  74 109 156 190 242 314 383 430
#     4  11  24  47  75 111 144 199 261 303 365 454
#     4  10  23  42  71 102 141 198 247 290 363 446
#     4  10  21  43  79 101 147 195 252 309 367 445
#     4  11  26  43  74 106 144 199 251 306 358 449
#     4  11  24  47  72 109 157 192 243 311 382 442
#
# _framework density 29.286553000000001
#
# number of rings (size 3 to 8) (size 9 to 14) (size 15 to 20)
#    0.000    1.250    2.500    3.375    5.250    3.000 
#    0.000    8.750    0.000    0.000    0.000    0.000 
#    0.000    0.000    0.000    0.000    0.000    0.000 
#
# Total GULP energy -89258.702180 kJ/mol
# GULP energy per Si atom -5578.668886 kJ/mol
# Density = 2.921990 g / cm^3
# Si number density = 29.286553 Si / 1000 Ang^3
#
#
#
# Elastic Constant Matrix: (Units=GPa)
#
#
# Indices 1 2 3 4 5 6 
#
# 1 118.1149 63.8781 48.6334 -18.5703 -15.2283 12.8516
# 2 63.8781 185.3916 64.6210 -19.7355 -8.2178 -5.4847
# 3 48.6334 64.6210 94.9596 -27.2216 -21.2080 -16.6396
# 4 -18.5703 -19.7355 -27.2216 57.5337 -7.7882 5.7179
# 5 -15.2283 -8.2178 -21.2080 -7.7882 51.6975 -27.2574
# 6 12.8516 -5.4847 -16.6396 5.7179 -27.2574 73.9478
#
#
#
# Elastic Compliance Matrix: (Units=1/GPa)
#
#
# Indices 1 2 3 4 5 6 
#
# 1 0.012463 -0.002508 -0.005269 0.000948 -0.000807 -0.003908
# 2 -0.002508 0.007723 -0.004670 -0.000555 -0.001874 -0.000690
# 3 -0.005269 -0.004670 0.024125 0.009026 0.014593 0.010679
# 4 0.000948 -0.000555 0.009026 0.022660 0.009118 0.003434
# 5 -0.000807 -0.001874 0.014593 0.009118 0.034168 0.015174
# 6 -0.003908 -0.000690 0.010679 0.003434 0.015174 0.021882
#
#
# Mechanical properties :
#
#
# Convention : Reuss Voigt Hill
#
# Bulk Modulus (GPa) = 51.50177 83.63679 67.56928
# Shear Modulus (GPa) = 32.38586 51.39140 41.88863
#
# Velocity S-wave (km/s) = 3.32901 4.19355 3.78604
# Velocity P-wave (km/s) = 5.69210 7.21581 6.49877
#
# Compressibility (1/GPa) = 0.01941681
#
# Stress axis : x y z
#
# Youngs Moduli (GPa) = 80.24068 129.47827 41.45031
#
# Poissons Ratio (x) = 0.32471 0.21842
# Poissons Ratio (y) = 0.20123 0.19357
# Poissons Ratio (z) = 0.42281 0.60466
#
# Static dielectric constant tensor:
#      x y z
#    x 2.528090 -0.390610 -0.255320 
#    y -0.390610 2.239000 -0.276890 
#    z -0.255320 -0.276890 1.932670 
# 
# From -- ./inp_files/597386.got.cif
#   From: 2010.05.17/outbox.cif.g08.bks.cpg/sg2_299_cif.got.tgz:597386.got - 2010.06.03 11:33:40.
