data_PCOD9018465
_publ_section_title
;
Structure prediction by ZEFSAII (Michael W. Deem and Ramdas Pophale) SiO2 
 PCOD9018465
Probable space group: P -1
;
_chemical_formula_sum "Si O2"
_cell_formula_units_Z 16
_cell_length_a 15.184031
_cell_length_b 10.538227
_cell_length_c 8.462139
_cell_angle_alpha 73.210799
_cell_angle_beta 51.198867
_cell_angle_gamma 108.883494
_cell_volume 744.121690
_symmetry_space_group_name_H-M "P -1"
_symmetry_group_IT_number 2
_symmetry_cell_setting 'triclinic'
loop_
_space_group_symop_operation_xyz
x,y,z
-x,-y,-z
loop_
_atom_site_type_symbol
_atom_site_label
_atom_site_fract_x
_atom_site_fract_y
_atom_site_fract_z
Si Si1 0.673850 0.958229 0.625767
Si Si2 0.564376 0.426711 0.050974
Si Si3 0.855768 0.290678 0.073678
Si Si4 0.332545 0.368616 0.815142
Si Si5 0.178198 0.479756 0.782544
Si Si6 0.359308 0.728172 0.212404
Si Si7 0.868011 0.002315 0.673641
Si Si8 0.127170 0.714669 0.296382
O O1 0.752040 0.133125 0.373821
O O2 0.535754 0.898280 0.915004
O O3 0.584082 0.784036 0.675662
O O4 0.793290 0.979814 0.597264
O O5 0.646080 0.539758 0.074785
O O6 0.500000 0.500000 0.000000
O O7 0.668736 0.419659 0.821418
O O8 0.852489 0.443505 0.066109
O O9 0.803245 0.221465 0.980427
O O10 0.028398 0.374217 0.878549
O O11 0.500000 0.500000 0.500000
O O12 0.218171 0.366060 0.838989
O O13 0.261148 0.169703 0.009510
O O14 0.319757 0.647411 0.459886
O O15 0.248317 0.755989 0.271441
O O16 0.925983 0.184049 0.621984
O O17 0.000000 0.000000 0.500000
O O18 0.000000 0.500000 0.500000
#
# Coordination Sequence:
#
# PCOD9018465 Si02
#       8
#     2   2   2   2   2   2   2   2
#     4  10  24  44  68 103 135 176 235 285 343 408
#     4  10  21  43  70  99 139 181 227 281 350 410
#     4  11  25  43  68 102 134 177 231 291 339 412
#     4  12  25  43  68 102 141 182 230 281 348 413
#     4  11  23  43  70  97 139 180 227 282 349 404
#     4  10  23  44  73  99 131 189 226 288 342 409
#     4  12  28  45  71 103 140 187 229 286 349 418
#     4  12  27  47  73 101 142 182 239 285 351 413
#
# _framework density 21.501859
#
# number of rings (size 3 to 8) (size 9 to 14) (size 15 to 20)
#    0.750    0.250    2.500    3.750    7.000    3.500 
#    2.250    1.250    0.000    0.000    0.000    0.000 
#    0.000    0.000    0.000    0.000    0.000    0.000 
#
# Total GULP energy -89449.673363 kJ/mol
# GULP energy per Si atom -5590.604585 kJ/mol
# Density = 2.145292 g / cm^3
# Si number density = 21.501859 Si / 1000 Ang^3
#
#
#
# Elastic Constant Matrix: (Units=GPa)
#
#
# Indices 1 2 3 4 5 6 
#
# 1 54.3642 26.0033 -4.4030 -1.1875 10.9867 -3.2197
# 2 26.0033 109.8876 20.8715 -3.3718 -3.1579 -13.9482
# 3 -4.4030 20.8715 78.5650 -11.6716 5.8217 -1.1607
# 4 -1.1875 -3.3718 -11.6716 37.1691 0.1022 0.1243
# 5 10.9867 -3.1579 5.8217 0.1022 33.9309 -0.2682
# 6 -3.2197 -13.9482 -1.1607 0.1243 -0.2682 30.5859
#
#
#
# Elastic Compliance Matrix: (Units=1/GPa)
#
#
# Indices 1 2 3 4 5 6 
#
# 1 0.023708 -0.006636 0.003962 0.001426 -0.008982 -0.000465
# 2 -0.006636 0.012106 -0.003866 -0.000354 0.003977 0.004712
# 3 0.003962 -0.003866 0.014944 0.004483 -0.004227 -0.000834
# 4 0.001426 -0.000354 0.004483 0.028329 -0.001349 0.000032
# 5 -0.008982 0.003977 -0.004227 -0.001349 0.033487 0.001007
# 6 -0.000465 0.004712 -0.000834 0.000032 0.001007 0.034772
#
#
# Mechanical properties :
#
#
# Convention : Reuss Voigt Hill
#
# Bulk Modulus (GPa) = 26.53971 36.41782 31.47876
# Shear Modulus (GPa) = 28.90403 33.69351 31.29877
#
# Velocity S-wave (km/s) = 3.67039 3.96284 3.81941
# Velocity P-wave (km/s) = 5.50746 6.15732 5.84143
#
# Compressibility (1/GPa) = 0.03767939
#
# Stress axis : x y z
#
# Youngs Moduli (GPa) = 42.17915 82.60149 66.91538
#
# Poissons Ratio (x) = 0.54816 -0.26513
# Poissons Ratio (y) = 0.27991 0.25868
# Poissons Ratio (z) = -0.16712 0.31932
#
# Static dielectric constant tensor:
#      x y z
#    x 1.738380 0.003060 -0.009530 
#    y 0.003060 1.826610 -0.007160 
#    z -0.009530 -0.007160 1.802320 
# 
# From -- ./inp_files/297796.got.cif
#   From: 2010.05.17/outbox.cif.g08.bks.cpg/sg2_149_cif.got.tgz:297796.got - 2010.06.03 11:33:40.
