data_PCOD9018722
_publ_section_title
;
Structure prediction by ZEFSAII (Michael W. Deem and Ramdas Pophale) SiO2 
 PCOD9018722
Probable space group: P -1
;
_chemical_formula_sum "Si O2"
_cell_formula_units_Z 16
_cell_length_a 20.542809
_cell_length_b 6.068910
_cell_length_c 9.111106
_cell_angle_alpha 128.989055
_cell_angle_beta 54.920332
_cell_angle_gamma 107.715221
_cell_volume 719.585812
_symmetry_space_group_name_H-M "P -1"
_symmetry_group_IT_number 2
_symmetry_cell_setting 'triclinic'
loop_
_space_group_symop_operation_xyz
x,y,z
-x,-y,-z
loop_
_atom_site_type_symbol
_atom_site_label
_atom_site_fract_x
_atom_site_fract_y
_atom_site_fract_z
Si Si1 0.937798 0.241754 0.485243
Si Si2 0.790414 0.900251 0.586008
Si Si3 0.475249 0.665184 0.746710
Si Si4 0.992957 0.570442 0.800789
Si Si5 0.676772 0.465483 0.927600
Si Si6 0.868920 0.419320 0.130800
Si Si7 0.815012 0.807115 0.858195
Si Si8 0.432110 0.327571 0.087519
O O1 0.989936 0.292918 0.582706
O O2 0.880747 0.537741 0.672198
O O3 0.988950 0.200969 0.252824
O O4 0.876426 0.010453 0.483376
O O5 0.791709 0.616290 0.369180
O O6 0.792704 0.846258 0.732996
O O7 0.723445 0.152674 0.742357
O O8 0.500000 0.500000 0.500000
O O9 0.551073 0.655092 0.754336
O O10 0.401228 0.535768 0.870236
O O11 0.447067 0.994851 0.890434
O O12 0.065271 0.580131 0.824475
O O13 0.911719 0.556895 0.993122
O O14 0.737382 0.696620 0.991249
O O15 0.647644 0.538897 0.830396
O O16 0.845213 0.102901 0.996303
O O17 0.500000 0.500000 0.000000
#
# Coordination Sequence:
#
# PCOD9018722 Si02
#       8
#     2   2   2   2   2   2   2   2
#     4  10  22  40  69  88 126 172 215 289 348 402
#     4  11  23  44  62  91 136 176 220 274 334 397
#     4  10  21  43  77 106 137 164 218 271 313 381
#     4  10  22  40  66  99 120 171 230 287 353 384
#     4  10  23  44  69  92 139 187 208 262 331 390
#     4  11  24  40  68  93 127 175 230 287 330 402
#     4  11  23  44  61  91 136 172 224 271 336 400
#     4   9  20  42  71 105 135 169 211 260 314 384
#
# _framework density 22.235014
#
# number of rings (size 3 to 8) (size 9 to 14) (size 15 to 20)
#    0.000    1.750    2.500    0.750    0.000    9.000 
#    0.000   16.250    0.000    0.000    0.000    0.000 
#    0.000    0.000    0.000    0.000    0.000    0.000 
#
# Total GULP energy -89375.336365 kJ/mol
# GULP energy per Si atom -5585.958523 kJ/mol
# Density = 2.218441 g / cm^3
# Si number density = 22.235014 Si / 1000 Ang^3
#
#
#
# Elastic Constant Matrix: (Units=GPa)
#
#
# Indices 1 2 3 4 5 6 
#
# 1 98.9941 50.6968 58.8959 5.6645 -3.9288 -1.2624
# 2 50.6968 118.5276 67.2153 10.0281 -2.1653 6.9689
# 3 58.8959 67.2153 144.6057 3.6816 18.1247 -5.0907
# 4 5.6645 10.0281 3.6816 31.7608 -0.2196 -1.8291
# 5 -3.9288 -2.1653 18.1247 -0.2196 18.2099 -5.9150
# 6 -1.2624 6.9689 -5.0907 -1.8291 -5.9150 36.3575
#
#
#
# Elastic Compliance Matrix: (Units=1/GPa)
#
#
# Indices 1 2 3 4 5 6 
#
# 1 0.015806 -0.003153 -0.006098 -0.000944 0.009687 0.001828
# 2 -0.003153 0.013594 -0.005771 -0.003179 0.005749 -0.002748
# 3 -0.006098 -0.005771 0.014051 0.001191 -0.015862 0.000341
# 4 -0.000944 -0.003179 0.001191 0.032647 -0.000632 0.002283
# 5 0.009687 0.005749 -0.015862 -0.000632 0.076532 0.009433
# 6 0.001828 -0.002748 0.000341 0.002283 0.009433 0.029792
#
#
# Mechanical properties :
#
#
# Convention : Reuss Voigt Hill
#
# Bulk Modulus (GPa) = 74.58511 79.52705 77.05608
# Shear Modulus (GPa) = 23.04855 29.62027 26.33441
#
# Velocity S-wave (km/s) = 3.22310 3.65382 3.44520
# Velocity P-wave (km/s) = 6.88970 7.32426 7.11030
#
# Compressibility (1/GPa) = 0.01340750
#
# Stress axis : x y z
#
# Youngs Moduli (GPa) = 63.26724 73.56431 71.17023
#
# Poissons Ratio (x) = 0.23197 0.43396
# Poissons Ratio (y) = 0.19950 0.41069
# Poissons Ratio (z) = 0.38577 0.42451
#
# Static dielectric constant tensor:
#      x y z
#    x 1.857100 0.006640 -0.002670 
#    y 0.006640 1.872170 -0.014750 
#    z -0.002670 -0.014750 1.791410 
# 
# From -- ./inp_files/340742.got.cif
#   From: 2010.05.17/outbox.cif.g08.bks.cpg/sg2_171_cif.got.tgz:340742.got - 2010.06.03 11:33:40.
