data_PCOD9018705
_publ_section_title
;
Structure prediction by ZEFSAII (Michael W. Deem and Ramdas Pophale) SiO2 
 PCOD9018705
Probable space group: P -1
;
_chemical_formula_sum "Si O2"
_cell_formula_units_Z 14
_cell_length_a 26.436577
_cell_length_b 5.766130
_cell_length_c 9.290329
_cell_angle_alpha 126.299706
_cell_angle_beta 29.828849
_cell_angle_gamma 124.400814
_cell_volume 563.033436
_symmetry_space_group_name_H-M "P -1"
_symmetry_group_IT_number 2
_symmetry_cell_setting 'triclinic'
loop_
_space_group_symop_operation_xyz
x,y,z
-x,-y,-z
loop_
_atom_site_type_symbol
_atom_site_label
_atom_site_fract_x
_atom_site_fract_y
_atom_site_fract_z
Si Si1 0.026533 0.191171 0.648281
Si Si2 0.819824 0.111813 0.699963
Si Si3 0.618594 0.788640 0.225567
Si Si4 0.246627 0.375507 0.784644
Si Si5 0.804967 0.303218 0.264319
Si Si6 0.467617 0.660430 0.282292
Si Si7 0.761027 0.402746 0.720692
O O1 0.126114 0.423542 0.469524
O O2 0.069502 0.982480 0.583955
O O3 0.000000 0.000000 0.500000
O O4 0.927857 0.335963 0.988262
O O5 0.777363 0.095758 0.637291
O O6 0.814738 0.433937 0.888713
O O7 0.731531 0.940735 0.954548
O O8 0.550465 0.713456 0.224901
O O9 0.568436 0.017453 0.531348
O O10 0.657712 0.496798 0.080602
O O11 0.218405 0.509249 0.747414
O O12 0.368401 0.462907 0.516742
O O13 0.222991 0.047370 0.781658
O O14 0.749211 0.403491 0.579393
O O15 0.500000 0.500000 0.000000
#
# Coordination Sequence:
#
# PCOD9018705 Si02
#       7
#     2   2   2   2   2   2   2
#     4  11  23  43  69  99 139 188 238 286 351 425
#     4  10  23  42  72  96 143 187 235 287 361 418
#     4   9  22  45  65 104 142 180 237 296 358 423
#     4  11  26  46  70 104 140 190 234 295 352 428
#     4  12  27  44  71 105 147 183 241 293 352 420
#     4  10  21  43  75  98 140 185 241 290 361 425
#     4  11  25  42  70 102 140 187 229 301 353 421
#
# _framework density 24.865309
#
# number of rings (size 3 to 8) (size 9 to 14) (size 15 to 20)
#    0.000    1.429    1.429    2.143   12.000    1.714 
#    2.571    3.571    0.000    0.000    0.000    0.000 
#    0.000    0.000    0.000    0.000    0.000    0.000 
#
# Total GULP energy -78140.079842 kJ/mol
# GULP energy per Si atom -5581.434274 kJ/mol
# Density = 2.480871 g / cm^3
# Si number density = 24.865309 Si / 1000 Ang^3
#
#
#
# Elastic Constant Matrix: (Units=GPa)
#
#
# Indices 1 2 3 4 5 6 
#
# 1 113.7422 30.0926 47.6787 13.1885 -7.3542 -24.7985
# 2 30.0926 92.4445 29.0134 12.5846 -2.1067 2.8683
# 3 47.6787 29.0134 126.0849 28.7175 1.1444 -1.6538
# 4 13.1885 12.5846 28.7175 38.2628 -1.5213 2.4168
# 5 -7.3542 -2.1067 1.1444 -1.5213 48.9148 -0.4084
# 6 -24.7985 2.8683 -1.6538 2.4168 -0.4084 37.2464
#
#
#
# Elastic Compliance Matrix: (Units=1/GPa)
#
#
# Indices 1 2 3 4 5 6 
#
# 1 0.013623 -0.003255 -0.004053 -0.001085 0.002046 0.009234
# 2 -0.003255 0.012632 -0.001290 -0.001870 0.000001 -0.003076
# 3 -0.004053 -0.001290 0.011242 -0.006555 -0.001146 -0.001687
# 4 -0.001085 -0.001870 -0.006555 0.032266 0.000889 -0.002953
# 5 0.002046 0.000001 -0.001146 0.000889 0.020818 0.001482
# 6 0.009234 -0.003076 -0.001687 -0.002953 0.001482 0.033366
#
#
# Mechanical properties :
#
#
# Convention : Reuss Voigt Hill
#
# Bulk Modulus (GPa) = 49.25901 60.64900 54.95400
# Shear Modulus (GPa) = 33.80442 39.91726 36.86084
#
# Velocity S-wave (km/s) = 3.69114 4.01102 3.85440
# Velocity P-wave (km/s) = 6.16599 6.77458 6.47743
#
# Compressibility (1/GPa) = 0.02030086
#
# Stress axis : x y z
#
# Youngs Moduli (GPa) = 73.40473 79.16534 88.95252
#
# Poissons Ratio (x) = 0.25766 0.36051
# Poissons Ratio (y) = 0.23891 0.11478
# Poissons Ratio (z) = 0.29750 0.10215
#
# Static dielectric constant tensor:
#      x y z
#    x 2.072300 -0.066910 0.056870 
#    y -0.066910 2.254520 0.078530 
#    z 0.056870 0.078530 1.927820 
# 
# From -- ./inp_files/143426.got.cif
#   From: 2010.05.17/outbox.cif.g08.bks.cpg/sg2_72_cif.got.tgz:143426.got - 2010.06.03 11:33:40.
