data_PCOD9018255
_publ_section_title
;
Structure prediction by ZEFSAII (Michael W. Deem and Ramdas Pophale) SiO2 
 PCOD9018255
Probable space group: P -1
;
_chemical_formula_sum "Si O2"
_cell_formula_units_Z 16
_cell_length_a 7.633334
_cell_length_b 25.912588
_cell_length_c 9.716235
_cell_angle_alpha 134.227258
_cell_angle_beta 118.931202
_cell_angle_gamma 31.589239
_cell_volume 689.492429
_symmetry_space_group_name_H-M "P -1"
_symmetry_group_IT_number 2
_symmetry_cell_setting 'triclinic'
loop_
_space_group_symop_operation_xyz
x,y,z
-x,-y,-z
loop_
_atom_site_type_symbol
_atom_site_label
_atom_site_fract_x
_atom_site_fract_y
_atom_site_fract_z
Si Si1 0.528205 0.905660 0.335777
Si Si2 0.969177 0.469530 0.081944
Si Si3 0.962915 0.697774 0.315866
Si Si4 0.777945 0.223222 0.006168
Si Si5 0.836490 0.356630 0.410840
Si Si6 0.808111 0.135660 0.583794
Si Si7 0.448564 0.290529 0.474102
Si Si8 0.252130 0.879497 0.972251
O O1 0.863792 0.785392 0.328699
O O2 0.506462 0.863522 0.111257
O O3 0.500000 0.000000 0.500000
O O4 0.169816 0.986326 0.428250
O O5 0.720212 0.585431 0.307154
O O6 0.352666 0.350466 0.075308
O O7 0.000000 0.500000 0.000000
O O8 0.854817 0.423496 0.912600
O O9 0.574860 0.783775 0.376767
O O10 0.167061 0.660492 0.459906
O O11 0.893038 0.266815 0.182467
O O12 0.879046 0.174885 0.798928
O O13 0.910794 0.120218 0.965181
O O14 0.500000 0.500000 0.500000
O O15 0.149380 0.319405 0.437762
O O16 0.751484 0.182442 0.495916
O O17 0.574092 0.235048 0.266252
O O18 0.000000 0.000000 0.000000
#
# Coordination Sequence:
#
# PCOD9018255 Si02
#       8
#     2   2   2   2   2   2   2   2
#     4  12  26  44  65  94 136 170 220 275 325 384
#     4  11  17  40  67  96 122 171 216 261 317 395
#     4  10  22  40  69  95 128 175 219 261 325 395
#     4  11  23  40  68  94 131 169 221 267 321 392
#     4  11  22  39  65 103 132 161 219 279 316 376
#     4  10  21  43  69  92 122 179 221 256 327 397
#     4  11  23  40  71  96 135 171 214 268 335 382
#     4  12  27  46  63  95 137 174 216 274 329 388
#
# _framework density 23.205476000000001
#
# number of rings (size 3 to 8) (size 9 to 14) (size 15 to 20)
#    0.000    1.000    8.750    0.375    3.500    0.500 
#    0.000    1.250    0.000    2.250    0.000    0.000 
#    0.000    0.000    0.000    0.000    0.000    0.000 
#
# Total GULP energy -89364.200747 kJ/mol
# GULP energy per Si atom -5585.262547 kJ/mol
# Density = 2.315266 g / cm^3
# Si number density = 23.205476 Si / 1000 Ang^3
#
#
#
# Elastic Constant Matrix: (Units=GPa)
#
#
# Indices 1 2 3 4 5 6 
#
# 1 59.4091 15.5531 23.1346 -8.7594 13.4392 8.2770
# 2 15.5531 125.1429 45.4241 -22.5780 11.5403 17.9471
# 3 23.1346 45.4241 204.5479 -14.7125 12.7470 10.1557
# 4 -8.7594 -22.5780 -14.7125 38.4156 0.5133 -1.0028
# 5 13.4392 11.5403 12.7470 0.5133 26.6774 9.9750
# 6 8.2770 17.9471 10.1557 -1.0028 9.9750 31.2238
#
#
#
# Elastic Compliance Matrix: (Units=1/GPa)
#
#
# Indices 1 2 3 4 5 6 
#
# 1 0.020263 -0.000230 -0.001304 0.004056 -0.008871 -0.001851
# 2 -0.000230 0.010394 -0.001541 0.005374 -0.002031 -0.004591
# 3 -0.001304 -0.001541 0.005532 0.000929 -0.001290 -0.000126
# 4 0.004056 0.005374 0.000929 0.030480 -0.004650 -0.002002
# 5 -0.008871 -0.002031 -0.001290 -0.004650 0.047836 -0.011493
# 6 -0.001851 -0.004591 -0.000126 -0.002002 -0.011493 0.038804
#
#
# Mechanical properties :
#
#
# Convention : Reuss Voigt Hill
#
# Bulk Modulus (GPa) = 33.29008 61.92485 47.60747
# Shear Modulus (GPa) = 29.50329 39.59593 34.54961
#
# Velocity S-wave (km/s) = 3.56953 4.13524 3.86276
# Velocity P-wave (km/s) = 5.60050 7.03873 6.36040
#
# Compressibility (1/GPa) = 0.03003898
#
# Stress axis : x y z
#
# Youngs Moduli (GPa) = 49.35056 96.20955 180.76256
#
# Poissons Ratio (x) = 0.02209 0.23577
# Poissons Ratio (y) = 0.01133 0.27860
# Poissons Ratio (z) = 0.06437 0.14828
#
# Static dielectric constant tensor:
#      x y z
#    x 1.975610 0.022050 -0.047790 
#    y 0.022050 1.901050 0.025260 
#    z -0.047790 0.025260 1.897930 
# 
# From -- ./inp_files/227536.got.cif
#   From: 2010.05.17/outbox.cif.g08.bks.cpg/sg2_114_cif.got.tgz:227536.got - 2010.06.03 11:33:40.
