data_PCOD9018124
_publ_section_title
;
Structure prediction by ZEFSAII (Michael W. Deem and Ramdas Pophale) SiO2 
 PCOD9018124
Probable space group: P -1
;
_chemical_formula_sum "Si O2"
_cell_formula_units_Z 16
_cell_length_a 8.681737
_cell_length_b 12.995737
_cell_length_c 11.234483
_cell_angle_alpha 33.474525
_cell_angle_beta 70.239912
_cell_angle_gamma 71.512911
_cell_volume 656.458548
_symmetry_space_group_name_H-M "P -1"
_symmetry_group_IT_number 2
_symmetry_cell_setting 'triclinic'
loop_
_space_group_symop_operation_xyz
x,y,z
-x,-y,-z
loop_
_atom_site_type_symbol
_atom_site_label
_atom_site_fract_x
_atom_site_fract_y
_atom_site_fract_z
Si Si1 0.007077 0.928819 0.704221
Si Si2 0.200967 0.405496 0.975673
Si Si3 0.398293 0.315437 0.216731
Si Si4 0.350185 0.981345 0.692620
Si Si5 0.813616 0.517804 0.494752
Si Si6 0.557350 0.296523 0.878120
Si Si7 0.783789 0.271654 0.501144
Si Si8 0.455026 0.193456 0.757216
O O1 0.891044 0.077881 0.664459
O O2 0.923957 0.731881 0.914591
O O3 0.000000 0.000000 0.500000
O O4 0.185612 0.928054 0.718516
O O5 0.226264 0.369616 0.143716
O O6 0.386730 0.354795 0.930132
O O7 0.168421 0.615554 0.737480
O O8 0.504183 0.149449 0.280351
O O9 0.366202 0.201700 0.455319
O O10 0.500000 0.500000 0.000000
O O11 0.370119 0.904624 0.896456
O O12 0.708107 0.426879 0.715265
O O13 0.808981 0.401011 0.484508
O O14 0.727993 0.726084 0.300181
O O15 0.000000 0.500000 0.500000
O O16 0.504651 0.319798 0.733711
O O17 0.593604 0.223759 0.593747
O O18 0.500000 0.000000 0.000000
#
# Coordination Sequence:
#
# PCOD9018124 Si02
#       8
#     2   2   2   2   2   2   2   2
#     4  12  27  45  68 103 146 187 248 310 354 417
#     4  11  22  43  70  97 137 189 235 293 361 430
#     4  10  23  42  69  95 136 185 244 293 364 425
#     4  10  24  44  62 101 138 180 238 306 347 426
#     4  11  24  45  72 111 147 181 242 305 359 443
#     4  10  21  43  68  94 139 180 228 284 360 436
#     4  11  25  43  71  99 142 193 238 286 374 432
#     4  11  22  43  73 105 137 190 235 291 367 451
#
# _framework density 24.373207000000001
#
# number of rings (size 3 to 8) (size 9 to 14) (size 15 to 20)
#    0.000    1.250    3.750    1.500    3.500    3.500 
#    2.250    2.500    0.000    0.000    0.000    0.000 
#    0.000    0.000    0.000    0.000    0.000    0.000 
#
# Total GULP energy -89330.988920 kJ/mol
# GULP energy per Si atom -5583.186808 kJ/mol
# Density = 2.431773 g / cm^3
# Si number density = 24.373207 Si / 1000 Ang^3
#
#
#
# Elastic Constant Matrix: (Units=GPa)
#
#
# Indices 1 2 3 4 5 6 
#
# 1 142.3686 10.5273 46.3228 -1.3886 8.6224 -12.8928
# 2 10.5273 56.2072 16.2281 -9.0684 6.8504 -11.8865
# 3 46.3228 16.2281 181.5130 -24.4093 7.0371 2.1707
# 4 -1.3886 -9.0684 -24.4093 31.1423 3.1797 1.0512
# 5 8.6224 6.8504 7.0371 3.1797 37.4551 0.9363
# 6 -12.8928 -11.8865 2.1707 1.0512 0.9363 34.6676
#
#
#
# Elastic Compliance Matrix: (Units=1/GPa)
#
#
# Indices 1 2 3 4 5 6 
#
# 1 0.008122 -0.000279 -0.002225 -0.001431 -0.001358 0.003144
# 2 -0.000279 0.021045 -0.000986 0.005536 -0.004247 0.007120
# 3 -0.002225 -0.000986 0.006925 0.005202 -0.001007 -0.001730
# 4 -0.001431 0.005536 0.005202 0.038237 -0.004907 0.000013
# 5 -0.001358 -0.004247 -0.001007 -0.004907 0.028457 -0.002518
# 6 0.003144 0.007120 -0.001730 0.000013 -0.002518 0.032632
#
#
# Mechanical properties :
#
#
# Convention : Reuss Voigt Hill
#
# Bulk Modulus (GPa) = 34.35227 58.47168 46.41198
# Shear Modulus (GPa) = 32.87281 41.12036 36.99659
#
# Velocity S-wave (km/s) = 3.67649 4.11190 3.90028
# Velocity P-wave (km/s) = 5.66983 6.82539 6.27427
#
# Compressibility (1/GPa) = 0.02911016
#
# Stress axis : x y z
#
# Youngs Moduli (GPa) = 123.12784 47.51721 144.41322
#
# Poissons Ratio (x) = 0.01327 0.32133
# Poissons Ratio (y) = 0.03437 0.14243
# Poissons Ratio (z) = 0.27397 0.04687
#
# Static dielectric constant tensor:
#      x y z
#    x 1.942620 0.097440 -0.020410 
#    y 0.097440 2.161110 0.076480 
#    z -0.020410 0.076480 2.056750 
# 
# From -- ./inp_files/398080.got.cif
#   From: 2010.05.17/outbox.cif.g08.bks.cpg/sg2_200_cif.got.tgz:398080.got - 2010.06.03 11:33:40.
