data_PCOD9018379
_publ_section_title
;
Structure prediction by ZEFSAII (Michael W. Deem and Ramdas Pophale) SiO2 
 PCOD9018379
Probable space group: P -1
;
_chemical_formula_sum "Si O2"
_cell_formula_units_Z 16
_cell_length_a 9.732242
_cell_length_b 9.554727
_cell_length_c 16.096266
_cell_angle_alpha 36.092893
_cell_angle_beta 39.098222
_cell_angle_gamma 53.651232
_cell_volume 553.682865
_symmetry_space_group_name_H-M "P -1"
_symmetry_group_IT_number 2
_symmetry_cell_setting 'triclinic'
loop_
_space_group_symop_operation_xyz
x,y,z
-x,-y,-z
loop_
_atom_site_type_symbol
_atom_site_label
_atom_site_fract_x
_atom_site_fract_y
_atom_site_fract_z
Si Si1 0.230009 0.595840 0.884017
Si Si2 0.662857 0.927192 0.886565
Si Si3 0.073521 0.254688 0.741299
Si Si4 0.059444 0.287089 0.334482
Si Si5 0.686946 0.874418 0.136873
Si Si6 0.358482 0.611657 0.589602
Si Si7 0.176056 0.087590 0.599365
Si Si8 0.538969 0.824557 0.732204
O O1 0.287765 0.730668 0.880954
O O2 0.274781 0.833141 0.691198
O O3 0.341157 0.355981 0.966545
O O4 0.000000 0.500000 0.000000
O O5 0.917512 0.035151 0.722372
O O6 0.545310 0.017627 0.815419
O O7 0.500000 0.000000 0.000000
O O8 0.194982 0.233609 0.606717
O O9 0.187998 0.176532 0.810738
O O10 0.858953 0.070175 0.920949
O O11 0.979604 0.472417 0.351431
O O12 0.904312 0.367365 0.296799
O O13 0.319370 0.307620 0.205085
O O14 0.000000 0.000000 0.500000
O O15 0.637843 0.612859 0.243103
O O16 0.500000 0.500000 0.500000
O O17 0.438634 0.889002 0.413834
O O18 0.319108 0.218096 0.397496
#
# Coordination Sequence:
#
# PCOD9018379 Si02
#       8
#     2   2   2   2   2   2   2   2
#     4  10  25  47  69 101 148 190 247 317 379 449
#     4  11  23  44  71 104 146 195 253 307 362 454
#     4  10  21  43  70 106 147 196 250 301 375 451
#     4   9  21  43  68 103 150 193 245 312 365 446
#     4  10  22  41  72 102 140 197 249 307 364 441
#     4  10  24  43  72 106 153 195 253 307 377 461
#     4  11  25  42  69 111 151 192 244 311 383 450
#     4  11  24  44  74 107 149 199 246 313 387 443
#
# _framework density 28.897409
#
# number of rings (size 3 to 8) (size 9 to 14) (size 15 to 20)
#    0.000    1.750    1.250    1.125    7.000    1.500 
#    0.000    0.625    0.000    0.000    0.000    0.000 
#    0.000    0.000    0.000    0.000    0.000    0.000 
#
# Total GULP energy -89240.516933 kJ/mol
# GULP energy per Si atom -5577.532308 kJ/mol
# Density = 2.883164 g / cm^3
# Si number density = 28.897409 Si / 1000 Ang^3
#
#
#
# Elastic Constant Matrix: (Units=GPa)
#
#
# Indices 1 2 3 4 5 6 
#
# 1 121.6640 89.1622 47.5181 -3.7593 -7.7221 -30.9011
# 2 89.1622 220.1335 48.5810 -29.4391 7.8746 -8.7519
# 3 47.5181 48.5810 123.5716 -10.2787 -28.1161 -0.4207
# 4 -3.7593 -29.4391 -10.2787 54.2382 -2.3621 -3.6777
# 5 -7.7221 7.8746 -28.1161 -2.3621 58.3888 13.1102
# 6 -30.9011 -8.7519 -0.4207 -3.6777 13.1102 74.6746
#
#
#
# Elastic Compliance Matrix: (Units=1/GPa)
#
#
# Indices 1 2 3 4 5 6 
#
# 1 0.014882 -0.005206 -0.003970 -0.002197 -0.000569 0.005518
# 2 -0.005206 0.007358 -0.001044 0.003299 -0.001869 -0.000807
# 3 -0.003970 -0.001044 0.011452 0.001401 0.005781 -0.002647
# 4 -0.002197 0.003299 0.001401 0.020396 0.000681 0.000370
# 5 -0.000569 -0.001869 0.005781 0.000681 0.021031 -0.004081
# 6 0.005518 -0.000807 -0.002647 0.000370 -0.004081 0.016300
#
#
# Mechanical properties :
#
#
# Convention : Reuss Voigt Hill
#
# Bulk Modulus (GPa) = 75.45587 92.87684 84.16635
# Shear Modulus (GPa) = 43.00095 56.13417 49.56756
#
# Velocity S-wave (km/s) = 3.86172 4.41220 4.14610
# Velocity P-wave (km/s) = 6.78617 7.62671 7.21868
#
# Compressibility (1/GPa) = 0.01325278
#
# Stress axis : x y z
#
# Youngs Moduli (GPa) = 67.19335 135.91232 87.31755
#
# Poissons Ratio (x) = 0.70756 0.34662
# Poissons Ratio (y) = 0.34981 0.09119
# Poissons Ratio (z) = 0.26673 0.14193
#
# Static dielectric constant tensor:
#      x y z
#    x 2.658030 0.126070 -0.034360 
#    y 0.126070 2.238020 0.063900 
#    z -0.034360 0.063900 2.408010 
# 
# From -- ./inp_files/589434.got.cif
#   From: 2010.05.17/outbox.cif.g08.bks.cpg/sg2_295_cif.got.tgz:589434.got - 2010.06.03 11:33:40.
