data_PCOD9018636
_publ_section_title
;
Structure prediction by ZEFSAII (Michael W. Deem and Ramdas Pophale) SiO2 
 PCOD9018636
Probable space group: P -1
;
_chemical_formula_sum "Si O2"
_cell_formula_units_Z 16
_cell_length_a 12.346218
_cell_length_b 12.419662
_cell_length_c 8.103837
_cell_angle_alpha 34.257976
_cell_angle_beta 77.898106
_cell_angle_gamma 88.403959
_cell_volume 659.639399
_symmetry_space_group_name_H-M "P -1"
_symmetry_group_IT_number 2
_symmetry_cell_setting 'triclinic'
loop_
_space_group_symop_operation_xyz
x,y,z
-x,-y,-z
loop_
_atom_site_type_symbol
_atom_site_label
_atom_site_fract_x
_atom_site_fract_y
_atom_site_fract_z
Si Si1 0.060424 0.332260 0.633064
Si Si2 0.921732 0.332710 0.360015
Si Si3 0.096336 0.074538 0.242036
Si Si4 0.692561 0.692421 0.919355
Si Si5 0.728049 0.771083 0.419406
Si Si6 0.697953 0.158264 0.797866
Si Si7 0.481147 0.658711 0.676002
Si Si8 0.536001 0.931527 0.836891
O O1 0.195501 0.360755 0.516682
O O2 0.000000 0.500000 0.500000
O O3 0.007159 0.284899 0.528947
O O4 0.043466 0.164230 0.990955
O O5 0.806899 0.343224 0.483177
O O6 0.867367 0.126702 0.546156
O O7 0.000000 0.500000 0.000000
O O8 0.200076 0.235483 0.086913
O O9 0.000000 0.000000 0.500000
O O10 0.728214 0.751767 0.642686
O O11 0.598332 0.800560 0.876784
O O12 0.631267 0.458097 0.235152
O O13 0.597835 0.701100 0.482686
O O14 0.759667 0.002289 0.065813
O O15 0.621145 0.033260 0.831252
O O16 0.592841 0.182761 0.917517
O O17 0.475600 0.863225 0.501110
O O18 0.500000 0.500000 0.000000
#
# Coordination Sequence:
#
# PCOD9018636 Si02
#       8
#     2   2   2   2   2   2   2   2
#     4  12  27  47  72 108 147 195 257 313 382 455
#     4  12  26  47  74 106 148 205 257 315 377 451
#     4  12  26  48  73 105 150 198 253 312 386 449
#     4  11  23  45  79 108 149 200 245 307 387 458
#     4  10  22  45  71 107 153 195 244 315 379 453
#     4  10  22  43  71 102 151 192 247 312 377 446
#     4   9  22  40  68 108 147 183 244 305 365 454
#     4  10  21  43  73 108 145 198 243 306 383 458
#
# _framework density 24.255675
#
# number of rings (size 3 to 8) (size 9 to 14) (size 15 to 20)
#    0.000    1.250    2.500    1.875    1.750    9.500 
#    4.500    8.750    0.000    0.000    0.000    0.000 
#    0.000    0.000    0.000    0.000    0.000    0.000 
#
# Total GULP energy -89268.312101 kJ/mol
# GULP energy per Si atom -5579.269506 kJ/mol
# Density = 2.420047 g / cm^3
# Si number density = 24.255675 Si / 1000 Ang^3
#
#
#
# Elastic Constant Matrix: (Units=GPa)
#
#
# Indices 1 2 3 4 5 6 
#
# 1 126.3753 19.9058 68.6313 1.7274 -10.2411 -7.1689
# 2 19.9058 75.9121 43.7043 -0.6998 -8.0691 -19.2420
# 3 68.6313 43.7043 175.6423 7.3676 -14.1370 -2.7665
# 4 1.7274 -0.6998 7.3676 37.0673 4.2653 0.0654
# 5 -10.2411 -8.0691 -14.1370 4.2653 40.1053 3.6879
# 6 -7.1689 -19.2420 -2.7665 0.0654 3.6879 58.1791
#
#
#
# Elastic Compliance Matrix: (Units=1/GPa)
#
#
# Indices 1 2 3 4 5 6 
#
# 1 0.010161 -0.000081 -0.003852 0.000161 0.001114 0.000971
# 2 -0.000081 0.017038 -0.004053 0.000962 0.001385 0.005344
# 3 -0.003852 -0.004053 0.008374 -0.001729 0.001475 -0.001508
# 4 0.000161 0.000962 -0.001729 0.027718 -0.003363 0.000438
# 5 0.001114 0.001385 0.001475 -0.003363 0.026468 -0.001008
# 6 0.000971 0.005344 -0.001508 0.000438 -0.001008 0.019067
#
#
# Mechanical properties :
#
#
# Convention : Reuss Voigt Hill
#
# Bulk Modulus (GPa) = 51.01320 71.37915 61.19618
# Shear Modulus (GPa) = 38.07158 43.44958 40.76058
#
# Velocity S-wave (km/s) = 3.96611 4.23699 4.10378
# Velocity P-wave (km/s) = 6.48463 7.30943 6.90935
#
# Compressibility (1/GPa) = 0.01960277
#
# Stress axis : x y z
#
# Youngs Moduli (GPa) = 98.41809 58.69195 119.41061
#
# Poissons Ratio (x) = 0.00473 0.45997
# Poissons Ratio (y) = 0.00793 0.48394
# Poissons Ratio (z) = 0.37910 0.23786
#
# Static dielectric constant tensor:
#      x y z
#    x 1.883680 0.220460 -0.004850 
#    y 0.220460 1.604300 0.040960 
#    z -0.004850 0.040960 2.022320 
# 
# From -- ./inp_files/271352.got.cif
#   From: 2010.05.17/outbox.cif.g08.bks.cpg/sg2_136_cif.got.tgz:271352.got - 2010.06.03 11:33:40.
