data_PCOD9018061
_publ_section_title
;
Structure prediction by ZEFSAII (Michael W. Deem and Ramdas Pophale) SiO2 
 PCOD9018061
Probable space group: P -1
;
_chemical_formula_sum "Si O2"
_cell_formula_units_Z 15
_cell_length_a 7.994277
_cell_length_b 9.294056
_cell_length_c 7.498728
_cell_angle_alpha 87.421860
_cell_angle_beta 103.584799
_cell_angle_gamma 91.374671
_cell_volume 540.962867
_symmetry_space_group_name_H-M "P -1"
_symmetry_group_IT_number 2
_symmetry_cell_setting 'triclinic'
loop_
_space_group_symop_operation_xyz
x,y,z
-x,-y,-z
loop_
_atom_site_type_symbol
_atom_site_label
_atom_site_fract_x
_atom_site_fract_y
_atom_site_fract_z
Si Si1 0.913353 0.344289 0.954547
Si Si2 0.505109 0.169418 0.450323
Si Si3 0.147721 0.115404 0.215233
Si Si4 0.667933 0.906367 0.074796
Si Si5 0.426687 0.672371 0.891122
Si Si6 0.572812 0.590499 0.347137
Si Si7 0.000000 0.000000 0.500000
Si Si8 0.921884 0.740536 0.367168
O O1 0.727117 0.336683 0.003727
O O2 0.019227 0.226615 0.093630
O O3 0.000000 0.500000 0.000000
O O4 0.956046 0.311685 0.757418
O O5 0.312084 0.200905 0.331494
O O6 0.610200 0.222521 0.298333
O O7 0.519010 0.257895 0.633099
O O8 0.500000 0.000000 0.500000
O O9 0.110773 0.986970 0.348394
O O10 0.213209 0.037715 0.055946
O O11 0.797349 0.884066 0.275508
O O12 0.594679 0.745924 0.022799
O O13 0.500000 0.000000 0.000000
O O14 0.461515 0.520248 0.815377
O O15 0.500000 0.500000 0.500000
O O16 0.779058 0.621360 0.388296
O O17 0.008912 0.821434 0.549011
#
# Coordination Sequence:
#
# PCOD9018061 Si02
#       8
#     2   2   2   2   2   2   1   2
#     4  11  24  47  71 102 146 193 249 294 370 445
#     4  10  22  43  72 106 148 188 246 301 369 440
#     4  10  25  42  69 102 142 188 237 308 358 440
#     4  10  25  44  70 103 140 187 250 297 362 432
#     4  10  23  43  72 101 140 194 246 304 367 436
#     4  10  21  43  68 103 145 188 235 307 363 426
#     4  12  26  44  72 102 148 186 238 298 400 418
#     4  11  25  46  72 102 146 192 240 309 365 441
#
# _framework density 27.728332000000002
#
# number of rings (size 3 to 8) (size 9 to 14) (size 15 to 20)
#    0.000    1.600    2.667    0.000    9.333    1.600 
#    4.800    2.667    0.000    0.000    0.000    0.000 
#    0.000    0.000    0.000    0.000    0.000    0.000 
#
# Total GULP energy -83652.111452 kJ/mol
# GULP energy per Si atom -5576.807430 kJ/mol
# Density = 2.766522 g / cm^3
# Si number density = 27.728332 Si / 1000 Ang^3
#
#
#
# Elastic Constant Matrix: (Units=GPa)
#
#
# Indices 1 2 3 4 5 6 
#
# 1 154.8555 33.8119 24.8646 -15.6798 -30.1012 5.7586
# 2 33.8119 155.4813 22.1556 25.6825 -18.9001 5.1586
# 3 24.8646 22.1556 93.0100 7.5297 -40.2400 1.3215
# 4 -15.6798 25.6825 7.5297 50.5061 7.3042 -7.3236
# 5 -30.1012 -18.9001 -40.2400 7.3042 56.1284 -10.4844
# 6 5.7586 5.1586 1.3215 -7.3236 -10.4844 51.9670
#
#
#
# Elastic Compliance Matrix: (Units=1/GPa)
#
#
# Indices 1 2 3 4 5 6 
#
# 1 0.007793 -0.001781 -0.000745 0.003090 0.002702 0.000313
# 2 -0.001781 0.007950 -0.000058 -0.005026 0.002174 -0.000860
# 3 -0.000745 -0.000058 0.016626 -0.004239 0.012343 0.001558
# 4 0.003090 -0.005026 -0.004239 0.025175 -0.005859 0.002630
# 5 0.002702 0.002174 0.012343 -0.005859 0.030447 0.004488
# 6 0.000313 -0.000860 0.001558 0.002630 0.004488 0.020530
#
#
# Mechanical properties :
#
#
# Convention : Reuss Voigt Hill
#
# Bulk Modulus (GPa) = 36.76369 62.77900 49.77135
# Shear Modulus (GPa) = 40.73126 53.22130 46.97628
#
# Velocity S-wave (km/s) = 3.83683 4.38583 4.12048
# Velocity P-wave (km/s) = 5.73722 6.95250 6.37389
#
# Compressibility (1/GPa) = 0.02720075
#
# Stress axis : x y z
#
# Youngs Moduli (GPa) = 128.32801 125.78335 60.14774
#
# Poissons Ratio (x) = 0.22401 0.04479
# Poissons Ratio (y) = 0.22854 0.00350
# Poissons Ratio (z) = 0.09557 0.00732
#
# Static dielectric constant tensor:
#      x y z
#    x 1.677220 -0.353190 -0.000610 
#    y -0.353190 1.999140 -0.066960 
#    z -0.000610 -0.066960 1.909500 
# 
# From -- ./inp_files/158695.got.cif
#   From: 2010.05.17/outbox.cif.g08.bks.cpg/sg2_80_cif.got.tgz:158695.got - 2010.06.03 11:33:40.
