data_PCOD9018434
_publ_section_title
;
Structure prediction by ZEFSAII (Michael W. Deem and Ramdas Pophale) SiO2 
 PCOD9018434
Probable space group: P -1
;
_chemical_formula_sum "Si O2"
_cell_formula_units_Z 10
_cell_length_a 8.916516
_cell_length_b 6.435252
_cell_length_c 9.633142
_cell_angle_alpha 55.387116
_cell_angle_beta 97.876407
_cell_angle_gamma 71.302543
_cell_volume 393.149202
_symmetry_space_group_name_H-M "P -1"
_symmetry_group_IT_number 2
_symmetry_cell_setting 'triclinic'
loop_
_space_group_symop_operation_xyz
x,y,z
-x,-y,-z
loop_
_atom_site_type_symbol
_atom_site_label
_atom_site_fract_x
_atom_site_fract_y
_atom_site_fract_z
Si Si1 0.883751 0.993127 0.115816
Si Si2 0.645963 0.799349 0.207287
Si Si3 0.897099 0.815446 0.792975
Si Si4 0.320457 0.167162 0.494046
Si Si5 0.367833 0.684487 0.243382
O O1 0.974030 0.048856 0.235539
O O2 0.835896 0.735264 0.205164
O O3 0.700300 0.263419 0.943501
O O4 0.000000 0.000000 0.000000
O O5 0.651574 0.936686 0.304772
O O6 0.572758 0.576579 0.310450
O O7 0.500000 0.000000 0.000000
O O8 0.728670 0.019340 0.791170
O O9 0.825930 0.823063 0.628015
O O10 0.000000 0.500000 0.000000
O O11 0.296638 0.487700 0.374130
O O12 0.500000 0.000000 0.500000
#
# Coordination Sequence:
#
# PCOD9018434 Si02
#       5
#     2   2   2   2   2
#     4   9  20  41  67  92 136 184 218 277 344 396
#     4  10  22  42  68  99 138 181 229 278 344 407
#     4  11  22  41  71  99 138 181 225 281 347 404
#     4  12  24  41  73 105 135 179 231 281 343 409
#     4  10  21  43  70  96 142 179 223 283 341 408
#
# _framework density 25.435638000000001
#
# number of rings (size 3 to 8) (size 9 to 14) (size 15 to 20)
#    0.000    1.600    4.000    0.600    0.000    0.800 
#    0.000   17.000    0.000    0.000    0.000    0.000 
#    0.000    0.000    0.000    0.000    0.000    0.000 
#
# Total GULP energy -55698.745660 kJ/mol
# GULP energy per Si atom -5569.874566 kJ/mol
# Density = 2.537775 g / cm^3
# Si number density = 25.435638 Si / 1000 Ang^3
#
#
#
# Elastic Constant Matrix: (Units=GPa)
#
#
# Indices 1 2 3 4 5 6 
#
# 1 206.9623 35.0404 29.2317 32.2414 43.3874 42.6830
# 2 35.0404 77.6256 61.3705 14.9730 12.2700 4.8939
# 3 29.2317 61.3705 140.1619 50.3124 31.1731 16.6627
# 4 32.2414 14.9730 50.3124 57.3922 12.4300 13.9911
# 5 43.3874 12.2700 31.1731 12.4300 34.6726 19.7259
# 6 42.6830 4.8939 16.6627 13.9911 19.7259 41.6290
#
#
#
# Elastic Compliance Matrix: (Units=1/GPa)
#
#
# Indices 1 2 3 4 5 6 
#
# 1 0.008405 -0.004727 0.004341 -0.004372 -0.008818 -0.004152
# 2 -0.004727 0.022887 -0.012764 0.006022 0.005683 0.002548
# 3 0.004341 -0.012764 0.019719 -0.013438 -0.014002 0.000308
# 4 -0.004372 0.006022 -0.013438 0.029550 0.007216 -0.004197
# 5 -0.008818 0.005683 -0.014002 0.007216 0.056535 -0.015236
# 6 -0.004152 0.002548 0.000308 -0.004197 -0.015236 0.036486
#
#
# Mechanical properties :
#
#
# Convention : Reuss Voigt Hill
#
# Bulk Modulus (GPa) = 40.46728 75.11501 57.79115
# Shear Modulus (GPa) = 24.02491 46.67924 35.35207
#
# Velocity S-wave (km/s) = 3.07667 4.28856 3.73213
# Velocity P-wave (km/s) = 5.34466 7.35648 6.42974
#
# Compressibility (1/GPa) = 0.02471132
#
# Stress axis : x y z
#
# Youngs Moduli (GPa) = 118.97688 43.69377 50.71256
#
# Poissons Ratio (x) = 0.20655 -0.22015
# Poissons Ratio (y) = 0.56242 0.64727
# Poissons Ratio (z) = -0.51649 0.55769
#
# Static dielectric constant tensor:
#      x y z
#    x 2.178850 0.118270 -0.183050 
#    y 0.118270 2.373460 -0.392940 
#    z -0.183050 -0.392940 2.571600 
# 
# From -- ./inp_files/202552.got.cif
#   From: 2010.05.17/outbox.cif.g08.bks.cpg/sg2_102_cif.got.tgz:202552.got - 2010.06.03 11:33:40.
