data_PCOD9018309
_publ_section_title
;
Structure prediction by ZEFSAII (Michael W. Deem and Ramdas Pophale) SiO2 
 PCOD9018309
Probable space group: P -1
;
_chemical_formula_sum "Si O2"
_cell_formula_units_Z 14
_cell_length_a 16.896654
_cell_length_b 9.324992
_cell_length_c 12.083202
_cell_angle_alpha 121.596426
_cell_angle_beta 47.862245
_cell_angle_gamma 150.580420
_cell_volume 683.839110
_symmetry_space_group_name_H-M "P -1"
_symmetry_group_IT_number 2
_symmetry_cell_setting 'triclinic'
loop_
_space_group_symop_operation_xyz
x,y,z
-x,-y,-z
loop_
_atom_site_type_symbol
_atom_site_label
_atom_site_fract_x
_atom_site_fract_y
_atom_site_fract_z
Si Si1 0.780085 0.228262 0.616143
Si Si2 0.120716 0.797666 0.069327
Si Si3 0.392553 0.325317 0.860179
Si Si4 0.446574 0.287897 0.548647
Si Si5 0.745535 0.405146 0.365253
Si Si6 0.587106 0.247288 0.683655
Si Si7 0.405378 0.060228 0.095693
O O1 0.683927 0.288088 0.714815
O O2 0.000000 0.500000 0.500000
O O3 0.689127 0.006847 0.511929
O O4 0.715675 0.072468 0.731817
O O5 0.960846 0.683429 0.243802
O O6 0.270012 0.901335 0.052089
O O7 0.000000 0.500000 0.000000
O O8 0.223221 0.054654 0.990608
O O9 0.362056 0.235069 0.723745
O O10 0.557321 0.409181 0.779635
O O11 0.453913 0.598853 0.912103
O O12 0.500000 0.500000 0.500000
O O13 0.638132 0.436413 0.450535
O O14 0.714902 0.353833 0.504059
O O15 0.618105 0.097866 0.297020
O O16 0.500000 0.000000 0.000000
#
# Coordination Sequence:
#
# PCOD9018309 Si02
#       7
#     2   2   2   2   2   2   2
#     4  11  23  41  69  99 136 169 225 282 331 393
#     4  12  25  42  70  99 133 176 234 269 326 412
#     4  11  23  45  70  94 133 180 224 274 336 410
#     4  10  21  43  69  97 134 175 221 274 344 393
#     4   9  19  37  67  97 126 172 221 269 320 402
#     4   9  18  39  69  92 128 174 218 267 338 386
#     4  12  28  47  65  96 142 182 216 281 352 393
#
# _framework density 20.472653000000001
#
# number of rings (size 3 to 8) (size 9 to 14) (size 15 to 20)
#    0.000    1.429    2.857    3.000    4.000    0.000 
#    5.143    3.571    0.000    0.000    0.000    0.000 
#    0.000    0.000    0.000    0.000    0.000    0.000 
#
# Total GULP energy -78154.803223 kJ/mol
# GULP energy per Si atom -5582.485944 kJ/mol
# Density = 2.042606 g / cm^3
# Si number density = 20.472653 Si / 1000 Ang^3
#
#
#
# Elastic Constant Matrix: (Units=GPa)
#
#
# Indices 1 2 3 4 5 6 
#
# 1 141.1887 70.8774 53.7624 -8.9602 19.4333 -25.7941
# 2 70.8774 94.6431 70.2175 -17.6173 -0.6962 -21.1403
# 3 53.7624 70.2175 120.1294 -28.3297 13.0663 -8.8216
# 4 -8.9602 -17.6173 -28.3297 40.1148 -5.5226 4.0045
# 5 19.4333 -0.6962 13.0663 -5.5226 35.7498 1.7466
# 6 -25.7941 -21.1403 -8.8216 4.0045 1.7466 38.0537
#
#
#
# Elastic Compliance Matrix: (Units=1/GPa)
#
#
# Indices 1 2 3 4 5 6 
#
# 1 0.013923 -0.010293 0.000396 -0.002758 -0.008559 0.004494
# 2 -0.010293 0.029713 -0.012933 0.002558 0.011015 0.005757
# 3 0.000396 -0.012933 0.017596 0.006366 -0.005756 -0.003243
# 4 -0.002758 0.002558 0.006366 0.030734 0.004087 -0.002394
# 5 -0.008559 0.011015 -0.005756 0.004087 0.035726 -0.003087
# 6 0.004494 0.005757 -0.003243 -0.002394 -0.003087 0.032165
#
#
# Mechanical properties :
#
#
# Convention : Reuss Voigt Hill
#
# Bulk Modulus (GPa) = 64.21957 82.85288 73.53623
# Shear Modulus (GPa) = 23.72951 33.52393 28.62672
#
# Velocity S-wave (km/s) = 3.40822 4.05099 3.74343
# Velocity P-wave (km/s) = 6.85015 7.90181 7.39470
#
# Compressibility (1/GPa) = 0.01557158
#
# Stress axis : x y z
#
# Youngs Moduli (GPa) = 71.82136 33.65524 56.83086
#
# Poissons Ratio (x) = 0.34643 -0.02251
# Poissons Ratio (y) = 0.73929 0.73500
# Poissons Ratio (z) = -0.02845 0.43527
#
# Static dielectric constant tensor:
#      x y z
#    x 35.479730 -42.917620 3.682720 
#    y -42.917620 56.322780 -4.658800 
#    z 3.682720 -4.658800 2.193880 
# 
# From -- ./inp_files/242360.got.cif
#   From: 2010.05.17/outbox.cif.g08.bks.cpg/sg2_122_cif.got.tgz:242360.got - 2010.06.03 11:33:40.
