data_PCOD9018047
_publ_section_title
;
Structure prediction by ZEFSAII (Michael W. Deem and Ramdas Pophale) SiO2 
 PCOD9018047
Probable space group: P -1
;
_chemical_formula_sum "Si O2"
_cell_formula_units_Z 12
_cell_length_a 12.603031
_cell_length_b 12.821954
_cell_length_c 5.121333
_cell_angle_alpha 57.658022
_cell_angle_beta 57.253271
_cell_angle_gamma 47.024561
_cell_volume 490.333826
_symmetry_space_group_name_H-M "P -1"
_symmetry_group_IT_number 2
_symmetry_cell_setting 'triclinic'
loop_
_space_group_symop_operation_xyz
x,y,z
-x,-y,-z
loop_
_atom_site_type_symbol
_atom_site_label
_atom_site_fract_x
_atom_site_fract_y
_atom_site_fract_z
Si Si1 0.749559 0.124486 0.820840
Si Si2 0.429740 0.945339 0.461911
Si Si3 0.832316 0.855497 0.776228
Si Si4 0.987701 0.653278 0.333954
Si Si5 0.740005 0.359198 0.800820
Si Si6 0.494857 0.338704 0.489731
O O1 0.823388 0.207371 0.728055
O O2 0.588103 0.256358 0.736496
O O3 0.840218 0.997097 0.656169
O O4 0.705537 0.053826 0.203647
O O5 0.534074 0.776488 0.455920
O O6 0.500000 0.000000 0.500000
O O7 0.344793 0.056005 0.185770
O O8 0.915600 0.744460 0.574667
O O9 0.889229 0.754122 0.089892
O O10 0.000000 0.500000 0.500000
O O11 0.153253 0.625490 0.164898
O O12 0.655917 0.499119 0.529867
O O13 0.614792 0.352563 0.141437
#
# Coordination Sequence:
#
# PCOD9018047 Si02
#       6
#     2   2   2   2   2   2
#     4  10  21  43  68 101 133 176 230 285 338 393
#     4  10  22  41  71 101 134 181 224 286 337 394
#     4  11  25  48  68 100 138 173 234 277 337 411
#     4  12  28  47  69 100 139 185 223 278 344 410
#     4  10  23  41  67 100 139 181 226 281 339 402
#     4   9  21  41  66 102 137 174 233 281 336 399
#
# _framework density 24.473122
#
# number of rings (size 3 to 8) (size 9 to 14) (size 15 to 20)
#    0.000    1.667    1.667    1.000    4.667    5.333 
#    0.000    0.000    0.000    0.000    0.000    0.000 
#    0.000    0.000    0.000    0.000    0.000    0.000 
#
# Total GULP energy -67122.757240 kJ/mol
# GULP energy per Si atom -5593.563103 kJ/mol
# Density = 2.441742 g / cm^3
# Si number density = 24.473122 Si / 1000 Ang^3
#
#
#
# Elastic Constant Matrix: (Units=GPa)
#
#
# Indices 1 2 3 4 5 6 
#
# 1 167.7545 79.8656 56.5797 -32.7075 6.3256 41.8362
# 2 79.8656 151.7620 59.2329 -24.6020 -1.6063 31.9206
# 3 56.5797 59.2329 99.4426 -24.3587 32.4031 10.0440
# 4 -32.7075 -24.6020 -24.3587 44.5346 0.6968 2.2761
# 5 6.3256 -1.6063 32.4031 0.6968 40.5711 -5.2222
# 6 41.8362 31.9206 10.0440 2.2761 -5.2222 47.5237
#
#
#
# Elastic Compliance Matrix: (Units=1/GPa)
#
#
# Indices 1 2 3 4 5 6 
#
# 1 0.011060 -0.002246 -0.002261 0.006081 -0.001163 -0.008169
# 2 -0.002246 0.011411 -0.006739 0.001067 0.005692 -0.003688
# 3 -0.002261 -0.006739 0.023557 0.007845 -0.018982 -0.000923
# 4 0.006081 0.001067 0.007845 0.032468 -0.009052 -0.010278
# 5 -0.001163 0.005692 -0.018982 -0.009052 0.041165 0.006170
# 6 -0.008169 -0.003688 -0.000923 -0.010278 0.006170 0.032076
#
#
# Mechanical properties :
#
#
# Convention : Reuss Voigt Hill
#
# Bulk Modulus (GPa) = 42.49132 90.03504 66.26318
# Shear Modulus (GPa) = 27.46127 41.41129 34.43628
#
# Velocity S-wave (km/s) = 3.35341 4.11799 3.75521
# Velocity P-wave (km/s) = 5.69157 7.71231 6.77767
#
# Compressibility (1/GPa) = 0.02353422
#
# Stress axis : x y z
#
# Youngs Moduli (GPa) = 90.41884 87.63665 42.44977
#
# Poissons Ratio (x) = 0.19684 0.09598
# Poissons Ratio (y) = 0.20309 0.28609
# Poissons Ratio (z) = 0.20445 0.59062
#
# Static dielectric constant tensor:
#      x y z
#    x 1.932430 -0.023850 -0.013140 
#    y -0.023850 1.974360 0.059980 
#    z -0.013140 0.059980 2.024080 
# 
# From -- ./inp_files/23470.got.cif
#   From: 2010.05.17/outbox.cif.g08.bks.cpg/sg2_12_cif.got.tgz:23470.got - 2010.06.03 11:33:40.
