data_PCOD9018878
_publ_section_title
;
Structure prediction by ZEFSAII (Michael W. Deem and Ramdas Pophale) SiO2 
 PCOD9018878
Probable space group: P -1
;
_chemical_formula_sum "Si O2"
_cell_formula_units_Z 16
_cell_length_a 7.397195
_cell_length_b 19.942368
_cell_length_c 12.799276
_cell_angle_alpha 37.769543
_cell_angle_beta 144.657882
_cell_angle_gamma 136.587691
_cell_volume 650.961871
_symmetry_space_group_name_H-M "P -1"
_symmetry_group_IT_number 2
_symmetry_cell_setting 'triclinic'
loop_
_space_group_symop_operation_xyz
x,y,z
-x,-y,-z
loop_
_atom_site_type_symbol
_atom_site_label
_atom_site_fract_x
_atom_site_fract_y
_atom_site_fract_z
Si Si1 0.824291 0.438113 0.123300
Si Si2 0.182939 0.921044 0.303514
Si Si3 0.946319 0.317404 0.538364
Si Si4 0.482336 0.481895 0.722586
Si Si5 0.191074 0.807743 0.646985
Si Si6 0.545646 0.267314 0.594460
Si Si7 0.271229 0.935555 0.735146
Si Si8 0.164586 0.909828 0.951190
O O1 0.872950 0.398624 0.312537
O O2 0.782673 0.318417 0.194130
O O3 0.166717 0.518985 0.156901
O O4 0.539529 0.480613 0.877379
O O5 0.963211 0.798685 0.315610
O O6 0.360483 0.877749 0.540616
O O7 0.947608 0.978656 0.827576
O O8 0.390316 0.974157 0.235155
O O9 0.612845 0.273793 0.495382
O O10 0.207605 0.387789 0.655055
O O11 0.425282 0.604582 0.514147
O O12 0.288931 0.851142 0.753929
O O13 0.810962 0.804104 0.462235
O O14 0.803788 0.205054 0.839124
O O15 0.149897 0.884507 0.851913
O O16 0.000000 0.000000 0.500000
O O17 0.500000 0.000000 0.000000
#
# Coordination Sequence:
#
# PCOD9018878 Si02
#       8
#     2   2   2   2   2   2   2   2
#     4   9  22  43  70 100 135 181 239 297 352 428
#     4  11  24  43  71 102 146 182 236 292 349 435
#     4  11  23  43  72 101 139 189 229 292 368 413
#     4  10  22  46  69 100 141 178 241 297 352 422
#     4  10  21  44  65  98 142 181 228 296 354 418
#     4  11  24  46  65 101 146 176 237 298 339 437
#     4  12  24  43  71 100 140 192 233 289 364 419
#     4  12  25  44  65  99 144 183 234 290 347 423
#
# _framework density 24.579011999999999
#
# number of rings (size 3 to 8) (size 9 to 14) (size 15 to 20)
#    0.000    1.250    2.500    2.625    0.000    4.500 
#   11.250    0.000    0.000    0.000    0.000    0.000 
#    0.000    0.000    0.000    0.000    0.000    0.000 
#
# Total GULP energy -89273.407373 kJ/mol
# GULP energy per Si atom -5579.587961 kJ/mol
# Density = 2.452307 g / cm^3
# Si number density = 24.579012 Si / 1000 Ang^3
#
#
#
# Elastic Constant Matrix: (Units=GPa)
#
#
# Indices 1 2 3 4 5 6 
#
# 1 98.6745 22.1649 36.6856 -3.9101 -16.9990 4.0077
# 2 22.1649 106.7016 41.6994 7.5792 10.9977 -12.6977
# 3 36.6856 41.6994 144.6027 -21.4612 -25.6201 -4.5999
# 4 -3.9101 7.5792 -21.4612 35.6190 -1.0454 -5.2358
# 5 -16.9990 10.9977 -25.6201 -1.0454 28.3354 -10.7350
# 6 4.0077 -12.6977 -4.5999 -5.2358 -10.7350 25.6844
#
#
#
# Elastic Compliance Matrix: (Units=1/GPa)
#
#
# Indices 1 2 3 4 5 6 
#
# 1 0.012655 -0.003600 -0.000193 0.002379 0.009090 0.000495
# 2 -0.003600 0.015218 -0.007727 -0.009036 -0.016093 -0.001867
# 3 -0.000193 -0.007727 0.015145 0.012878 0.020957 0.010307
# 4 0.002379 -0.009036 0.012878 0.041067 0.024126 0.015923
# 5 0.009090 -0.016093 0.020957 0.024126 0.079087 0.032352
# 6 0.000495 -0.001867 0.010307 0.015923 0.032352 0.056547
#
#
# Mechanical properties :
#
#
# Convention : Reuss Voigt Hill
#
# Bulk Modulus (GPa) = 50.05644 61.23093 55.64369
# Shear Modulus (GPa) = 20.04669 34.55636 27.30153
#
# Velocity S-wave (km/s) = 2.85897 3.75364 3.33643
# Velocity P-wave (km/s) = 5.59536 6.61456 6.12619
#
# Compressibility (1/GPa) = 0.01997745
#
# Stress axis : x y z
#
# Youngs Moduli (GPa) = 79.02045 65.71220 66.02898
#
# Poissons Ratio (x) = 0.23659 0.01274
# Poissons Ratio (y) = 0.28450 0.51019
# Poissons Ratio (z) = 0.01525 0.50775
#
# Static dielectric constant tensor:
#      x y z
#    x 2.337440 -0.091960 -0.188380 
#    y -0.091960 1.962920 0.162880 
#    z -0.188380 0.162880 2.116770 
# 
# From -- ./inp_files/406231.got.cif
#   From: 2010.05.17/outbox.cif.g08.bks.cpg/sg2_204_cif.got.tgz:406231.got - 2010.06.03 11:33:40.
