data_PCOD9018370
_publ_section_title
;
Structure prediction by ZEFSAII (Michael W. Deem and Ramdas Pophale) SiO2 
 PCOD9018370
Probable space group: P -1
;
_chemical_formula_sum "Si O2"
_cell_formula_units_Z 13
_cell_length_a 8.498023
_cell_length_b 8.259796
_cell_length_c 8.696021
_cell_angle_alpha 127.689484
_cell_angle_beta 86.202145
_cell_angle_gamma 107.088459
_cell_volume 456.479786
_symmetry_space_group_name_H-M "P -1"
_symmetry_group_IT_number 2
_symmetry_cell_setting 'triclinic'
loop_
_space_group_symop_operation_xyz
x,y,z
-x,-y,-z
loop_
_atom_site_type_symbol
_atom_site_label
_atom_site_fract_x
_atom_site_fract_y
_atom_site_fract_z
Si Si1 0.861607 0.905555 0.771541
Si Si2 0.000000 0.500000 0.500000
Si Si3 0.549337 0.666998 0.865736
Si Si4 0.796346 0.542043 0.323154
Si Si5 0.393727 0.927419 0.235907
Si Si6 0.812566 0.786323 0.162298
Si Si7 0.699991 0.189626 0.500406
O O1 0.702265 0.801127 0.828082
O O2 0.890208 0.703796 0.557002
O O3 0.779815 0.031611 0.733486
O O4 0.040074 0.083492 0.887363
O O5 0.864875 0.359717 0.280755
O O6 0.849326 0.401122 0.582163
O O7 0.399978 0.486458 0.684338
O O8 0.431789 0.798665 0.016752
O O9 0.653993 0.641265 0.993767
O O10 0.858408 0.649202 0.216888
O O11 0.384241 0.807736 0.328712
O O12 0.550006 0.143419 0.362422
O O13 0.760418 0.979527 0.357153
#
# Coordination Sequence:
#
# PCOD9018370 Si02
#       7
#     2   1   2   2   2   2   2
#     4  12  22  44  75 101 138 190 238 279 347 424
#     4  12  24  42  70 106 140 172 242 292 338 402
#     4  11  26  44  68 112 143 177 230 300 347 404
#     4  12  25  46  72 105 142 184 235 289 350 413
#     4  10  22  43  72  97 145 185 233 274 357 420
#     4  11  23  48  75 101 139 186 237 283 353 420
#     4  10  21  43  70 103 133 191 227 286 346 421
#
# _framework density 28.478808000000001
#
# number of rings (size 3 to 8) (size 9 to 14) (size 15 to 20)
#    0.000    0.923    3.077    4.154    0.000    1.231 
#    5.538    1.538    0.000    0.000    0.000    0.000 
#    0.000    0.000    0.000    0.000    0.000    0.000 
#
# Total GULP energy -72549.582728 kJ/mol
# GULP energy per Si atom -5580.737133 kJ/mol
# Density = 2.841399 g / cm^3
# Si number density = 28.478808 Si / 1000 Ang^3
#
#
#
# Elastic Constant Matrix: (Units=GPa)
#
#
# Indices 1 2 3 4 5 6 
#
# 1 160.1101 60.1186 46.9539 3.4400 31.4353 35.8935
# 2 60.1186 130.5926 35.5415 -26.6967 11.9110 38.9691
# 3 46.9539 35.5415 60.4824 -5.0533 10.8584 0.1421
# 4 3.4400 -26.6967 -5.0533 46.3623 -3.5916 2.6168
# 5 31.4353 11.9110 10.8584 -3.5916 71.2895 2.9452
# 6 35.8935 38.9691 0.1421 2.6168 2.9452 81.3950
#
#
#
# Elastic Compliance Matrix: (Units=1/GPa)
#
#
# Indices 1 2 3 4 5 6 
#
# 1 0.010434 -0.002422 -0.006331 -0.002929 -0.003246 -0.003219
# 2 -0.002422 0.013479 -0.005432 0.007688 0.000263 -0.005632
# 3 -0.006331 -0.005432 0.024656 -0.000297 -0.000293 0.005369
# 4 -0.002929 0.007688 -0.000297 0.026485 0.001523 -0.003295
# 5 -0.003246 0.000263 -0.000293 0.001523 0.015507 0.000696
# 6 -0.003219 -0.005632 0.005369 -0.003295 0.000696 0.016473
#
#
# Mechanical properties :
#
#
# Convention : Reuss Voigt Hill
#
# Bulk Modulus (GPa) = 49.50935 70.71258 60.11096
# Shear Modulus (GPa) = 35.17735 53.71409 44.44572
#
# Velocity S-wave (km/s) = 3.51837 4.34765 3.95480
# Velocity P-wave (km/s) = 5.82474 7.07718 6.48128
#
# Compressibility (1/GPa) = 0.02019820
#
# Stress axis : x y z
#
# Youngs Moduli (GPa) = 95.84335 74.18857 40.55867
#
# Poissons Ratio (x) = 0.17972 0.25677
# Poissons Ratio (y) = 0.23218 0.22031
# Poissons Ratio (z) = 0.60676 0.40299
#
# Static dielectric constant tensor:
#      x y z
#    x 2.381300 -0.124450 0.132860 
#    y -0.124450 2.382780 0.131570 
#    z 0.132860 0.131570 2.443110 
# 
# From -- ./inp_files/154522.got.cif
#   From: 2010.05.17/outbox.cif.g08.bks.cpg/sg2_78_cif.got.tgz:154522.got - 2010.06.03 11:33:40.
