data_PCOD9018503
_publ_section_title
;
Structure prediction by ZEFSAII (Michael W. Deem and Ramdas Pophale) SiO2 
 PCOD9018503
Probable space group: P -1
;
_chemical_formula_sum "Si O2"
_cell_formula_units_Z 16
_cell_length_a 11.010586
_cell_length_b 5.974956
_cell_length_c 11.466814
_cell_angle_alpha 65.902618
_cell_angle_beta 93.113299
_cell_angle_gamma 105.914014
_cell_volume 660.812895
_symmetry_space_group_name_H-M "P -1"
_symmetry_group_IT_number 2
_symmetry_cell_setting 'triclinic'
loop_
_space_group_symop_operation_xyz
x,y,z
-x,-y,-z
loop_
_atom_site_type_symbol
_atom_site_label
_atom_site_fract_x
_atom_site_fract_y
_atom_site_fract_z
Si Si1 0.708485 0.235140 0.832909
Si Si2 0.980185 0.291045 0.935476
Si Si3 0.815746 0.235688 0.581761
Si Si4 0.611478 0.877305 0.495651
Si Si5 0.524074 0.240947 0.100930
Si Si6 0.702666 0.950220 0.220903
Si Si7 0.085805 0.309877 0.690883
Si Si8 0.476701 0.480979 0.257280
O O1 0.833745 0.235197 0.905947
O O2 0.744712 0.264346 0.691542
O O3 0.645994 0.457094 0.815235
O O4 0.590976 0.988378 0.900029
O O5 0.059818 0.410763 0.796742
O O6 0.000000 0.500000 0.000000
O O7 0.000000 0.000000 0.000000
O O8 0.836438 0.470266 0.440443
O O9 0.951317 0.209415 0.639104
O O10 0.732212 0.995041 0.559463
O O11 0.660891 0.926436 0.358194
O O12 0.556060 0.588119 0.596657
O O13 0.500000 0.000000 0.500000
O O14 0.500150 0.252239 0.234966
O O15 0.660800 0.187180 0.113147
O O16 0.500000 0.500000 0.000000
O O17 0.840059 0.903301 0.236738
O O18 0.603953 0.707953 0.207223
#
# Coordination Sequence:
#
# PCOD9018503 Si02
#       8
#     2   2   2   2   2   2   2   2
#     4  10  23  46  73 102 144 195 252 310 385 451
#     4  11  28  51  78 111 149 203 259 315 376 461
#     4  10  21  43  71 105 145 189 237 308 381 457
#     4  12  20  37  70 105 144 188 240 304 380 452
#     4  11  25  44  69 100 143 197 252 309 370 446
#     4  11  24  41  66 108 141 189 240 312 376 450
#     4  10  24  45  71 107 151 188 248 303 384 456
#     4  11  22  41  68  97 141 187 236 301 378 447
#
# _framework density 24.212599999999998
#
# number of rings (size 3 to 8) (size 9 to 14) (size 15 to 20)
#    0.000    1.250    2.500    2.625    1.750    5.500 
#    0.000    0.000    0.000    0.000    0.000    0.000 
#    0.000    0.000    0.000    0.000    0.000    0.000 
#
# Total GULP energy -89336.272355 kJ/mol
# GULP energy per Si atom -5583.517022 kJ/mol
# Density = 2.415749 g / cm^3
# Si number density = 24.212600 Si / 1000 Ang^3
#
#
#
# Elastic Constant Matrix: (Units=GPa)
#
#
# Indices 1 2 3 4 5 6 
#
# 1 147.9844 42.6483 56.9669 -2.8998 14.7749 -35.0969
# 2 42.6483 73.2513 45.5146 13.5336 11.6103 -10.5624
# 3 56.9669 45.5146 151.4990 8.9725 -2.1471 -18.4884
# 4 -2.8998 13.5336 8.9725 49.0372 -6.1428 2.0741
# 5 14.7749 11.6103 -2.1471 -6.1428 50.7735 -4.1303
# 6 -35.0969 -10.5624 -18.4884 2.0741 -4.1303 32.8661
#
#
#
# Elastic Compliance Matrix: (Units=1/GPa)
#
#
# Indices 1 2 3 4 5 6 
#
# 1 0.010963 -0.003913 -0.001950 0.001519 -0.001456 0.009074
# 2 -0.003913 0.020356 -0.004415 -0.005579 -0.004404 -0.000321
# 3 -0.001950 -0.004415 0.008930 -0.000349 0.002059 0.001803
# 4 0.001519 -0.005579 -0.000349 0.022575 0.003440 -0.001360
# 5 -0.001456 -0.004404 0.002059 0.003440 0.021686 0.000696
# 6 0.009074 -0.000321 0.001803 -0.001360 0.000696 0.041200
#
#
# Mechanical properties :
#
#
# Convention : Reuss Voigt Hill
#
# Bulk Modulus (GPa) = 50.77995 73.66601 62.22298
# Shear Modulus (GPa) = 32.71608 41.70903 37.21255
#
# Velocity S-wave (km/s) = 3.67986 4.15494 3.92460
# Velocity P-wave (km/s) = 6.25085 7.31497 6.80375
#
# Compressibility (1/GPa) = 0.01969281
#
# Stress axis : x y z
#
# Youngs Moduli (GPa) = 91.21729 49.12650 111.97725
#
# Poissons Ratio (x) = 0.19221 0.21837
# Poissons Ratio (y) = 0.35689 0.49443
# Poissons Ratio (z) = 0.17788 0.21691
#
# Static dielectric constant tensor:
#      x y z
#    x 1.905120 -0.029300 -0.024820 
#    y -0.029300 1.942490 -0.042740 
#    z -0.024820 -0.042740 2.094780 
# 
# From -- ./inp_files/410092.got.cif
#   From: 2010.05.17/outbox.cif.g08.bks.cpg/sg2_206_cif.got.tgz:410092.got - 2010.06.03 11:33:40.
