data_PCOD9018935
_publ_section_title
;
Structure prediction by ZEFSAII (Michael W. Deem and Ramdas Pophale) SiO2 
 PCOD9018935
Probable space group: P -1
;
_chemical_formula_sum "Si O2"
_cell_formula_units_Z 14
_cell_length_a 7.074640
_cell_length_b 6.764541
_cell_length_c 14.820253
_cell_angle_alpha 124.186280
_cell_angle_beta 116.011685
_cell_angle_gamma 84.192613
_cell_volume 517.111482
_symmetry_space_group_name_H-M "P -1"
_symmetry_group_IT_number 2
_symmetry_cell_setting 'triclinic'
loop_
_space_group_symop_operation_xyz
x,y,z
-x,-y,-z
loop_
_atom_site_type_symbol
_atom_site_label
_atom_site_fract_x
_atom_site_fract_y
_atom_site_fract_z
Si Si1 0.704332 0.517761 0.422586
Si Si2 0.747339 0.486017 0.059206
Si Si3 0.968611 0.844924 0.070018
Si Si4 0.670433 0.784589 0.824903
Si Si5 0.574856 0.997166 0.299291
Si Si6 0.714603 0.041518 0.613519
Si Si7 0.886523 0.622589 0.302519
O O1 0.469461 0.464871 0.307967
O O2 0.676563 0.277675 0.416251
O O3 0.769294 0.771485 0.551885
O O4 0.864295 0.524180 0.373365
O O5 0.869766 0.317320 0.981186
O O6 0.784312 0.429562 0.156279
O O7 0.500000 0.500000 0.000000
O O8 0.882730 0.752453 0.125773
O O9 0.759561 0.794310 0.947027
O O10 0.110926 0.113984 0.158622
O O11 0.503620 0.962255 0.809040
O O12 0.360915 0.907068 0.289309
O O13 0.736874 0.826265 0.313181
O O14 0.500000 0.000000 0.500000
O O15 0.886631 0.241047 0.651003
#
# Coordination Sequence:
#
# PCOD9018935 Si02
#       7
#     2   2   2   2   2   2   2
#     4  10  24  45  68  98 137 176 223 278 336 396
#     4  11  24  40  70  98 135 178 224 272 342 396
#     4  10  21  44  66  94 137 176 225 278 330 402
#     4   9  21  41  67  96 130 177 221 277 330 396
#     4  10  24  46  67  96 141 170 227 278 328 409
#     4  12  25  45  73  97 136 182 228 277 338 402
#     4  12  25  45  68 104 134 180 223 281 341 395
#
# _framework density 27.073467000000001
#
# number of rings (size 3 to 8) (size 9 to 14) (size 15 to 20)
#    0.857    0.571    1.429    3.429    2.000    2.857 
#   10.286    4.286    0.000    0.000    0.000    0.000 
#    0.000    0.000    0.000    0.000    0.000    0.000 
#
# Total GULP energy -78278.080397 kJ/mol
# GULP energy per Si atom -5591.291457 kJ/mol
# Density = 2.701185 g / cm^3
# Si number density = 27.073467 Si / 1000 Ang^3
#
#
#
# Elastic Constant Matrix: (Units=GPa)
#
#
# Indices 1 2 3 4 5 6 
#
# 1 164.0007 32.0398 17.6209 2.4454 14.4019 14.6705
# 2 32.0398 75.3981 -14.2903 -5.5763 -4.0432 4.1247
# 3 17.6209 -14.2903 54.6718 -7.9071 11.4809 0.6211
# 4 2.4454 -5.5763 -7.9071 39.7474 9.8936 8.0797
# 5 14.4019 -4.0432 11.4809 9.8936 47.8805 0.4135
# 6 14.6705 4.1247 0.6211 8.0797 0.4135 48.2359
#
#
#
# Elastic Compliance Matrix: (Units=1/GPa)
#
#
# Indices 1 2 3 4 5 6 
#
# 1 0.007505 -0.003850 -0.003192 -0.000877 -0.001621 -0.001751
# 2 -0.003850 0.016396 0.006030 0.003854 0.000308 -0.000957
# 3 -0.003192 0.006030 0.023121 0.007230 -0.005560 -0.001006
# 4 -0.000877 0.003854 0.007230 0.030054 -0.007310 -0.005127
# 5 -0.001621 0.000308 -0.005560 -0.007310 0.024229 0.001555
# 6 -0.001751 -0.000957 -0.001006 -0.005127 0.001555 0.022204
#
#
# Mechanical properties :
#
#
# Convention : Reuss Voigt Hill
#
# Bulk Modulus (GPa) = 22.22348 40.53460 31.37904
# Shear Modulus (GPa) = 35.57938 44.41945 39.99941
#
# Velocity S-wave (km/s) = 3.62909 4.05495 3.84792
# Velocity P-wave (km/s) = 5.07807 6.07685 5.59977
#
# Compressibility (1/GPa) = 0.04499745
#
# Stress axis : x y z
#
# Youngs Moduli (GPa) = 133.25005 60.99126 43.25166
#
# Poissons Ratio (x) = 0.23482 0.13805
# Poissons Ratio (y) = 0.51301 -0.26081
# Poissons Ratio (z) = 0.42530 -0.36778
#
# Static dielectric constant tensor:
#      x y z
#    x 2.085470 -0.057970 0.014590 
#    y -0.057970 2.184040 0.080220 
#    z 0.014590 0.080220 2.259080 
# 
# From -- ./inp_files/548441.got.cif
#   From: 2010.05.17/outbox.cif.g08.bks.cpg/sg2_275_cif.got.tgz:548441.got - 2010.06.03 11:33:40.
