data_PCOD9018580
_publ_section_title
;
Structure prediction by ZEFSAII (Michael W. Deem and Ramdas Pophale) SiO2 
 PCOD9018580
Probable space group: P -1
;
_chemical_formula_sum "Si O2"
_cell_formula_units_Z 14
_cell_length_a 7.740808
_cell_length_b 4.951596
_cell_length_c 19.152432
_cell_angle_alpha 92.904165
_cell_angle_beta 56.865910
_cell_angle_gamma 64.457478
_cell_volume 513.273251
_symmetry_space_group_name_H-M "P -1"
_symmetry_group_IT_number 2
_symmetry_cell_setting 'triclinic'
loop_
_space_group_symop_operation_xyz
x,y,z
-x,-y,-z
loop_
_atom_site_type_symbol
_atom_site_label
_atom_site_fract_x
_atom_site_fract_y
_atom_site_fract_z
Si Si1 0.380791 0.049387 0.412584
Si Si2 0.756609 0.260864 0.784373
Si Si3 0.979888 0.492031 0.621990
Si Si4 0.686545 0.788498 0.154662
Si Si5 0.056073 0.902973 0.846916
Si Si6 0.379471 0.901638 0.965554
Si Si7 0.349091 0.629800 0.606965
O O1 0.724954 0.044899 0.187846
O O2 0.501777 0.668498 0.375854
O O3 0.603940 0.098022 0.376748
O O4 0.219667 0.255445 0.385538
O O5 0.580154 0.156128 0.791497
O O6 0.578912 0.580817 0.875617
O O7 0.870124 0.360036 0.699398
O O8 0.952564 0.004449 0.793669
O O9 0.102541 0.652798 0.638504
O O10 0.193982 0.202787 0.522191
O O11 0.857983 0.453843 0.152976
O O12 0.742533 0.820084 0.062285
O O13 0.827842 0.131176 0.952247
O O14 0.500000 0.000000 0.000000
O O15 0.500000 0.500000 0.500000
#
# Coordination Sequence:
#
# PCOD9018580 Si02
#       7
#     2   2   2   2   2   2   2
#     4  10  23  46  73 104 135 190 239 275 349 428
#     4  12  28  48  68 113 147 180 241 303 354 419
#     4  10  24  45  72 103 144 186 226 298 351 411
#     4  12  27  48  74 103 139 190 237 292 353 425
#     4  12  27  46  76  99 138 194 238 288 356 419
#     4  12  25  50  77 102 144 189 242 294 353 425
#     4  10  21  43  72 102 136 182 237 281 338 427
#
# _framework density 27.275919999999999
#
# number of rings (size 3 to 8) (size 9 to 14) (size 15 to 20)
#    0.000    0.857    2.857    3.857    2.000    8.571 
#   10.286    0.000    0.000    0.000    0.000    0.000 
#    0.000    0.000    0.000    0.000    0.000    0.000 
#
# Total GULP energy -78673.546123 kJ/mol
# GULP energy per Si atom -5619.539009 kJ/mol
# Density = 2.721384 g / cm^3
# Si number density = 27.275920 Si / 1000 Ang^3
#
#
#
# Elastic Constant Matrix: (Units=GPa)
#
#
# Indices 1 2 3 4 5 6 
#
# 1 148.0649 41.4684 86.5019 -16.4281 -5.4826 -19.3266
# 2 41.4684 126.7243 22.8974 -34.6801 15.0667 -21.7545
# 3 86.5019 22.8974 198.4636 -29.7933 7.6795 -3.7496
# 4 -16.4281 -34.6801 -29.7933 48.4078 -0.1952 8.1534
# 5 -5.4826 15.0667 7.6795 -0.1952 53.2754 -8.1156
# 6 -19.3266 -21.7545 -3.7496 8.1534 -8.1156 63.4269
#
#
#
# Elastic Compliance Matrix: (Units=1/GPa)
#
#
# Indices 1 2 3 4 5 6 
#
# 1 0.010511 -0.003039 -0.004574 -0.001835 0.002975 0.002507
# 2 -0.003039 0.011446 0.001324 0.007692 -0.003461 0.001646
# 3 -0.004574 0.001324 0.007578 0.004273 -0.002122 -0.001312
# 4 -0.001835 0.007692 0.004273 0.028454 -0.003139 -0.001728
# 5 0.002975 -0.003461 -0.002122 -0.003139 0.020754 0.002653
# 6 0.002507 0.001646 -0.001312 -0.001728 0.002653 0.017579
#
#
# Mechanical properties :
#
#
# Convention : Reuss Voigt Hill
#
# Bulk Modulus (GPa) = 58.97359 86.10981 72.54170
# Shear Modulus (GPa) = 43.64872 54.51436 49.08154
#
# Velocity S-wave (km/s) = 4.00467 4.47545 4.24659
# Velocity P-wave (km/s) = 6.56135 7.63837 7.12025
#
# Compressibility (1/GPa) = 0.01695674
#
# Stress axis : x y z
#
# Youngs Moduli (GPa) = 95.14097 87.37041 131.95612
#
# Poissons Ratio (x) = 0.26549 0.60355
# Poissons Ratio (y) = 0.28911 -0.17467
# Poissons Ratio (z) = 0.43516 -0.11565
#
# Static dielectric constant tensor:
#      x y z
#    x 2.020160 -0.029290 0.002030 
#    y -0.029290 2.168750 0.121860 
#    z 0.002030 0.121860 2.186980 
# 
# From -- ./inp_files/585593.got.cif
#   From: 2010.05.17/outbox.cif.g08.bks.cpg/sg2_293_cif.got.tgz:585593.got - 2010.06.03 11:33:40.
