data_PCOD9018476
_publ_section_title
;
Structure prediction by ZEFSAII (Michael W. Deem and Ramdas Pophale) SiO2 
 PCOD9018476
Probable space group: P -1
;
_chemical_formula_sum "Si O2"
_cell_formula_units_Z 16
_cell_length_a 27.862960
_cell_length_b 9.741881
_cell_length_c 8.330868
_cell_angle_alpha 68.326977
_cell_angle_beta 139.888168
_cell_angle_gamma 142.718397
_cell_volume 697.291806
_symmetry_space_group_name_H-M "P -1"
_symmetry_group_IT_number 2
_symmetry_cell_setting 'triclinic'
loop_
_space_group_symop_operation_xyz
x,y,z
-x,-y,-z
loop_
_atom_site_type_symbol
_atom_site_label
_atom_site_fract_x
_atom_site_fract_y
_atom_site_fract_z
Si Si1 0.915610 0.706161 0.886370
Si Si2 0.895684 0.181401 0.867775
Si Si3 0.585915 0.595849 0.420463
Si Si4 0.079370 0.795040 0.733051
Si Si5 0.356818 0.738904 0.854574
Si Si6 0.655010 0.623723 0.953661
Si Si7 0.548822 0.930959 0.740742
Si Si8 0.809508 0.315907 0.034759
O O1 0.791201 0.495727 0.522831
O O2 0.832175 0.505120 0.916026
O O3 0.042654 0.808469 0.122887
O O4 0.000000 0.000000 0.000000
O O5 0.722376 0.905294 0.548285
O O6 0.924892 0.145530 0.126705
O O7 0.000000 0.500000 0.000000
O O8 0.623081 0.625751 0.689854
O O9 0.447106 0.467336 0.139473
O O10 0.560113 0.389812 0.365715
O O11 0.154334 0.761323 0.951473
O O12 0.922272 0.504152 0.386758
O O13 0.175810 0.047511 0.742969
O O14 0.363301 0.581879 0.000718
O O15 0.500000 0.000000 0.000000
O O16 0.371018 0.878618 0.976118
O O17 0.500000 0.000000 0.500000
O O18 0.653912 0.036392 0.832898
#
# Coordination Sequence:
#
# PCOD9018476 Si02
#       8
#     2   2   2   2   2   2   2   2
#     4  12  28  46  67 101 149 189 230 292 360 417
#     4  11  24  43  70 103 141 181 231 286 359 414
#     4  10  23  41  75 101 137 184 232 291 344 423
#     4  10  21  43  71 101 129 178 241 288 338 416
#     4  12  28  44  70 103 147 183 231 294 359 419
#     4  10  21  44  68 102 134 180 236 284 347 413
#     4  12  24  45  70 106 140 183 233 287 355 424
#     4  11  23  42  72  97 135 182 232 290 344 415
#
# _framework density 22.945917999999999
#
# number of rings (size 3 to 8) (size 9 to 14) (size 15 to 20)
#    0.000    1.000    3.750    2.250    5.250    0.000 
#    0.000    3.750    0.000    0.000    0.000    0.000 
#    0.000    0.000    0.000    0.000    0.000    0.000 
#
# Total GULP energy -89430.774762 kJ/mol
# GULP energy per Si atom -5589.423423 kJ/mol
# Density = 2.289369 g / cm^3
# Si number density = 22.945918 Si / 1000 Ang^3
#
#
#
# Elastic Constant Matrix: (Units=GPa)
#
#
# Indices 1 2 3 4 5 6 
#
# 1 61.6159 22.7859 8.7564 10.4250 4.0526 0.6470
# 2 22.7859 132.4155 9.9639 33.2586 8.0132 -3.8114
# 3 8.7564 9.9639 57.3323 16.7280 -1.5595 5.6090
# 4 10.4250 33.2586 16.7280 34.1550 5.0436 1.0618
# 5 4.0526 8.0132 -1.5595 5.0436 32.6016 11.3571
# 6 0.6470 -3.8114 5.6090 1.0618 11.3571 41.6529
#
#
#
# Elastic Compliance Matrix: (Units=1/GPa)
#
#
# Indices 1 2 3 4 5 6 
#
# 1 0.017783 -0.002302 -0.001760 -0.002114 -0.001474 0.000206
# 2 -0.002302 0.010472 0.001279 -0.009992 -0.001167 0.001395
# 3 -0.001760 0.001279 0.021332 -0.011630 0.003946 -0.003508
# 4 -0.002114 -0.009992 -0.011630 0.046103 -0.005303 0.000955
# 5 -0.001474 -0.001167 0.003946 -0.005303 0.035712 -0.010217
# 6 0.000206 0.001395 -0.003508 0.000955 -0.010217 0.027366
#
#
# Mechanical properties :
#
#
# Convention : Reuss Voigt Hill
#
# Bulk Modulus (GPa) = 22.71535 37.15290 29.93413
# Shear Modulus (GPa) = 27.93177 35.67241 31.80209
#
# Velocity S-wave (km/s) = 3.49275 3.94716 3.72689
# Velocity P-wave (km/s) = 5.11730 6.08277 5.62080
#
# Compressibility (1/GPa) = 0.04402309
#
# Stress axis : x y z
#
# Youngs Moduli (GPa) = 56.23290 95.48949 46.87704
#
# Poissons Ratio (x) = 0.21979 0.08248
# Poissons Ratio (y) = 0.12943 -0.05995
# Poissons Ratio (z) = 0.09894 -0.12212
#
# Static dielectric constant tensor:
#      x y z
#    x 1.840480 -0.003270 -0.028070 
#    y -0.003270 1.899630 0.025140 
#    z -0.028070 0.025140 1.924210 
# 
# From -- ./inp_files/356608.got.cif
#   From: 2010.05.17/outbox.cif.g08.bks.cpg/sg2_179_cif.got.tgz:356608.got - 2010.06.03 11:33:40.
