data_PCOD9018600
_publ_section_title
;
Structure prediction by ZEFSAII (Michael W. Deem and Ramdas Pophale) SiO2 
 PCOD9018600
Probable space group: P -1
;
_chemical_formula_sum "Si O2"
_cell_formula_units_Z 14
_cell_length_a 8.289127
_cell_length_b 14.146955
_cell_length_c 13.389598
_cell_angle_alpha 148.659183
_cell_angle_beta 61.356664
_cell_angle_gamma 97.500097
_cell_volume 567.412398
_symmetry_space_group_name_H-M "P -1"
_symmetry_group_IT_number 2
_symmetry_cell_setting 'triclinic'
loop_
_space_group_symop_operation_xyz
x,y,z
-x,-y,-z
loop_
_atom_site_type_symbol
_atom_site_label
_atom_site_fract_x
_atom_site_fract_y
_atom_site_fract_z
Si Si1 0.493571 0.186069 0.999410
Si Si2 0.343933 0.673246 0.515146
Si Si3 0.150473 0.036610 0.751769
Si Si4 0.993234 0.308382 0.241059
Si Si5 0.049339 0.090177 0.472412
Si Si6 0.042554 0.465712 0.075733
Si Si7 0.349260 0.274126 0.403583
O O1 0.493345 0.399966 0.213075
O O2 0.232853 0.273716 0.137865
O O3 0.602677 0.967513 0.841964
O O4 0.673218 0.042642 0.725786
O O5 0.352320 0.791214 0.519683
O O6 0.426168 0.746872 0.650164
O O7 0.089569 0.748379 0.688103
O O8 0.007643 0.993193 0.682770
O O9 0.192586 0.200973 0.828208
O O10 0.013343 0.169524 0.013167
O O11 0.783381 0.569875 0.511330
O O12 0.892495 0.366050 0.765565
O O13 0.000000 0.000000 0.500000
O O14 0.000000 0.500000 0.000000
O O15 0.815994 0.587218 0.325228
#
# Coordination Sequence:
#
# PCOD9018600 Si02
#       7
#     2   2   2   2   2   2   2
#     4  11  25  44  69 102 143 176 241 286 339 412
#     4  12  25  44  69 103 143 185 236 278 351 411
#     4  11  24  42  71 100 142 183 227 290 336 418
#     4  11  24  48  68 102 144 187 230 290 339 410
#     4  11  24  46  74 102 137 186 229 287 353 410
#     4  10  21  43  72  95 137 176 230 289 344 397
#     4  10  24  43  69  99 139 185 230 284 346 409
#
# _framework density 24.673411999999999
#
# number of rings (size 3 to 8) (size 9 to 14) (size 15 to 20)
#    0.000    1.143    2.857    3.000    6.000    0.571 
#    0.000    5.000    0.000    0.000    0.000    0.000 
#    0.000    0.000    0.000    0.000    0.000    0.000 
#
# Total GULP energy -78151.514058 kJ/mol
# GULP energy per Si atom -5582.251004 kJ/mol
# Density = 2.461725 g / cm^3
# Si number density = 24.673412 Si / 1000 Ang^3
#
#
#
# Elastic Constant Matrix: (Units=GPa)
#
#
# Indices 1 2 3 4 5 6 
#
# 1 82.7874 39.3087 21.1851 17.5128 12.8266 -1.6173
# 2 39.3087 181.9935 52.8400 37.7460 3.0041 -2.1336
# 3 21.1851 52.8400 73.5980 40.2076 24.3434 -3.0448
# 4 17.5128 37.7460 40.2076 66.6201 8.1663 10.8405
# 5 12.8266 3.0041 24.3434 8.1663 46.3220 2.6005
# 6 -1.6173 -2.1336 -3.0448 10.8405 2.6005 34.1045
#
#
#
# Elastic Compliance Matrix: (Units=1/GPa)
#
#
# Indices 1 2 3 4 5 6 
#
# 1 0.014325 -0.002623 0.000232 -0.002224 -0.003611 0.001518
# 2 -0.002623 0.007754 -0.005459 -0.000786 0.003238 -0.000124
# 3 0.000232 -0.005459 0.030466 -0.015031 -0.013531 0.008199
# 4 -0.002224 -0.000786 -0.015031 0.026214 0.004516 -0.010173
# 5 -0.003611 0.003238 -0.013531 0.004516 0.028964 -0.004821
# 6 0.001518 -0.000124 0.008199 -0.010173 -0.004821 0.033719
#
#
# Mechanical properties :
#
#
# Convention : Reuss Voigt Hill
#
# Bulk Modulus (GPa) = 27.13974 62.78294 44.96134
# Shear Modulus (GPa) = 29.51191 44.41235 36.96213
#
# Velocity S-wave (km/s) = 3.46222 4.24725 3.87467
# Velocity P-wave (km/s) = 5.19674 7.03939 6.18705
#
# Compressibility (1/GPa) = 0.03684633
#
# Stress axis : x y z
#
# Youngs Moduli (GPa) = 69.80934 128.96204 32.82331
#
# Poissons Ratio (x) = 0.33822 -0.00761
# Poissons Ratio (y) = 0.18309 0.17917
# Poissons Ratio (z) = -0.01619 0.70396
#
# Static dielectric constant tensor:
#      x y z
#    x 1.946470 0.022240 0.003180 
#    y 0.022240 1.981900 0.048890 
#    z 0.003180 0.048890 2.068130 
# 
# From -- ./inp_files/505677.got.cif
#   From: 2010.05.17/outbox.cif.g08.bks.cpg/sg2_253_cif.got.tgz:505677.got - 2010.06.03 11:33:40.
