data_PCOD9018154
_publ_section_title
;
Structure prediction by ZEFSAII (Michael W. Deem and Ramdas Pophale) SiO2 
 PCOD9018154
Probable space group: P -1
;
_chemical_formula_sum "Si O2"
_cell_formula_units_Z 14
_cell_length_a 6.977429
_cell_length_b 21.017732
_cell_length_c 6.520410
_cell_angle_alpha 57.487268
_cell_angle_beta 64.253522
_cell_angle_gamma 52.159664
_cell_volume 628.880420
_symmetry_space_group_name_H-M "P -1"
_symmetry_group_IT_number 2
_symmetry_cell_setting 'triclinic'
loop_
_space_group_symop_operation_xyz
x,y,z
-x,-y,-z
loop_
_atom_site_type_symbol
_atom_site_label
_atom_site_fract_x
_atom_site_fract_y
_atom_site_fract_z
Si Si1 0.497496 0.004003 0.753203
Si Si2 0.310286 0.385883 0.124456
Si Si3 0.179216 0.777553 0.949754
Si Si4 0.934362 0.907951 0.473089
Si Si5 0.853051 0.703738 0.303527
Si Si6 0.631728 0.143143 0.935412
Si Si7 0.053667 0.546019 0.206443
O O1 0.753993 0.987102 0.570336
O O2 0.259845 0.084581 0.623863
O O3 0.473162 0.919785 0.852170
O O4 0.500000 0.000000 0.000000
O O5 0.578053 0.311168 0.069691
O O6 0.189128 0.343103 0.401394
O O7 0.289030 0.468235 0.117581
O O8 0.155145 0.421458 0.926936
O O9 0.053277 0.826942 0.712178
O O10 0.258566 0.832420 0.963555
O O11 0.990868 0.757021 0.193224
O O12 0.153870 0.906456 0.246943
O O13 0.588301 0.769116 0.214076
O O14 0.024132 0.632035 0.177948
O O15 0.000000 0.500000 0.500000
#
# Coordination Sequence:
#
# PCOD9018154 Si02
#       7
#     2   2   2   2   2   2   2
#     4  11  26  48  69  98 133 175 227 276 329 406
#     4  10  21  43  68  96 137 178 218 277 328 383
#     4  12  25  41  69 104 133 179 226 269 336 395
#     4  11  25  44  70  98 131 178 220 272 341 390
#     4  11  23  42  65 100 137 172 223 276 326 396
#     4  12  25  43  68  99 137 173 220 282 328 395
#     4   9  20  42  69  95 135 177 221 273 326 390
#
# _framework density 22.261783000000001
#
# number of rings (size 3 to 8) (size 9 to 14) (size 15 to 20)
#    0.000    1.143    4.286    1.286    0.000    6.286 
#    0.000    6.429    0.000    0.000    0.000    0.000 
#    0.000    0.000    0.000    0.000    0.000    0.000 
#
# Total GULP energy -78189.652422 kJ/mol
# GULP energy per Si atom -5584.975173 kJ/mol
# Density = 2.221111 g / cm^3
# Si number density = 22.261783 Si / 1000 Ang^3
#
#
#
# Elastic Constant Matrix: (Units=GPa)
#
#
# Indices 1 2 3 4 5 6 
#
# 1 92.4099 46.0731 50.8039 -0.9307 8.0759 3.5210
# 2 46.0731 97.7593 44.7887 7.7395 15.9963 -7.6617
# 3 50.8039 44.7887 139.7173 -2.6269 26.1242 -12.4208
# 4 -0.9307 7.7395 -2.6269 43.0378 -7.7953 4.6177
# 5 8.0759 15.9963 26.1242 -7.7953 36.7573 -1.3900
# 6 3.5210 -7.6617 -12.4208 4.6177 -1.3900 34.1558
#
#
#
# Elastic Compliance Matrix: (Units=1/GPa)
#
#
# Indices 1 2 3 4 5 6 
#
# 1 0.016895 -0.006797 -0.004965 0.002409 0.003086 -0.005272
# 2 -0.006797 0.015520 -0.001260 -0.004387 -0.005140 0.004108
# 3 -0.004965 -0.001260 0.010847 -0.000752 -0.006077 0.004028
# 4 0.002409 -0.004387 -0.000752 0.025842 0.007216 -0.004706
# 5 0.003086 -0.005140 -0.006077 0.007216 0.034491 -0.003253
# 6 -0.005272 0.004108 0.004028 -0.004706 -0.003253 0.032711
#
#
# Mechanical properties :
#
#
# Convention : Reuss Voigt Hill
#
# Bulk Modulus (GPa) = 58.07676 68.13531 63.10604
# Shear Modulus (GPa) = 29.74619 35.33824 32.54221
#
# Velocity S-wave (km/s) = 3.65937 3.98853 3.82749
# Velocity P-wave (km/s) = 6.63320 7.20306 6.92400
#
# Compressibility (1/GPa) = 0.01721859
#
# Stress axis : x y z
#
# Youngs Moduli (GPa) = 59.18924 64.43316 92.19317
#
# Poissons Ratio (x) = 0.43793 0.45774
# Poissons Ratio (y) = 0.40229 0.11616
# Poissons Ratio (z) = 0.29387 0.08118
#
# Static dielectric constant tensor:
#      x y z
#    x 1.806590 0.011590 0.012940 
#    y 0.011590 1.878230 0.013040 
#    z 0.012940 0.013040 1.791820 
# 
# From -- ./inp_files/10369.got.cif
#   From: 2010.05.17/outbox.cif.g08.bks.cpg/sg2_6_cif.got.tgz:10369.got - 2010.06.03 11:33:40.
