data_PCOD9018010
_publ_section_title
;
Structure prediction by ZEFSAII (Michael W. Deem and Ramdas Pophale) SiO2 
 PCOD9018010
Probable space group: P -1
;
_chemical_formula_sum "Si O2"
_cell_formula_units_Z 16
_cell_length_a 19.654884
_cell_length_b 5.245636
_cell_length_c 6.962198
_cell_angle_alpha 105.753674
_cell_angle_beta 91.097739
_cell_angle_gamma 91.742083
_cell_volume 690.256539
_symmetry_space_group_name_H-M "P -1"
_symmetry_group_IT_number 2
_symmetry_cell_setting 'triclinic'
loop_
_space_group_symop_operation_xyz
x,y,z
-x,-y,-z
loop_
_atom_site_type_symbol
_atom_site_label
_atom_site_fract_x
_atom_site_fract_y
_atom_site_fract_z
Si Si1 0.834370 0.654954 0.159567
Si Si2 0.585793 0.606289 0.209249
Si Si3 0.748694 0.175312 0.213892
Si Si4 0.935632 0.311632 0.009580
Si Si5 0.971655 0.992089 0.286089
Si Si6 0.342129 0.156577 0.087775
Si Si7 0.344835 0.596741 0.447103
Si Si8 0.449398 0.838219 0.188827
O O1 0.789526 0.455382 0.248325
O O2 0.865449 0.438539 0.969115
O O3 0.907829 0.779792 0.252882
O O4 0.793202 0.912780 0.158136
O O5 0.614552 0.525823 0.397865
O O6 0.526091 0.816805 0.261313
O O7 0.644365 0.722351 0.096311
O O8 0.556431 0.350857 0.038246
O O9 0.706196 0.205554 0.414065
O O10 0.698587 0.117327 0.016586
O O11 0.938486 0.231850 0.217511
O O12 0.000000 0.500000 0.000000
O O13 0.959199 0.055413 0.843672
O O14 0.000000 0.000000 0.500000
O O15 0.308981 0.359829 0.272192
O O16 0.416838 0.106755 0.169974
O O17 0.397913 0.734055 0.330152
#
# Coordination Sequence:
#
# PCOD9018010 Si02
#       8
#     2   2   2   2   2   2   2   2
#     4  11  24  46  72 101 142 194 233 277 350 414
#     4  10  21  43  67  98 137 170 232 309 363 426
#     4  12  26  48  68  95 152 192 239 290 338 426
#     4   9  20  42  72 102 141 179 218 281 349 395
#     4  10  21  44  75 110 145 174 229 292 349 403
#     4  11  25  43  68  96 133 187 234 292 364 418
#     4  11  25  43  68  97 135 185 233 295 361 417
#     4  10  22  40  69 101 128 177 238 291 376 426
#
# _framework density 23.179787000000001
#
# number of rings (size 3 to 8) (size 9 to 14) (size 15 to 20)
#    0.000    1.500    2.500    1.500    5.250    2.500 
#    4.500    0.000    0.000    0.000    0.000    0.000 
#    0.000    0.000    0.000    0.000    0.000    0.000 
#
# Total GULP energy -89205.348093 kJ/mol
# GULP energy per Si atom -5575.334256 kJ/mol
# Density = 2.312703 g / cm^3
# Si number density = 23.179787 Si / 1000 Ang^3
#
#
#
# Elastic Constant Matrix: (Units=GPa)
#
#
# Indices 1 2 3 4 5 6 
#
# 1 99.0826 35.7985 35.4333 3.1389 -10.3237 -21.3259
# 2 35.7985 111.6402 33.0602 -11.5490 -2.6345 -13.4523
# 3 35.4333 33.0602 105.2564 -16.6530 -5.0955 -0.3041
# 4 3.1389 -11.5490 -16.6530 36.4180 -3.6429 -7.2373
# 5 -10.3237 -2.6345 -5.0955 -3.6429 18.4063 7.8656
# 6 -21.3259 -13.4523 -0.3041 -7.2373 7.8656 46.7559
#
#
#
# Elastic Compliance Matrix: (Units=1/GPa)
#
#
# Indices 1 2 3 4 5 6 
#
# 1 0.014057 -0.002967 -0.004029 -0.002719 0.003903 0.004454
# 2 -0.002967 0.011123 -0.002025 0.003251 -0.001064 0.002516
# 3 -0.004029 -0.002025 0.012459 0.005286 0.002797 -0.001991
# 4 -0.002719 0.003251 0.005286 0.032429 0.005164 0.003880
# 5 0.003903 -0.001064 0.002797 0.005164 0.061612 -0.008074
# 6 0.004454 0.002516 -0.001991 0.003880 -0.008074 0.026089
#
#
# Mechanical properties :
#
#
# Convention : Reuss Voigt Hill
#
# Bulk Modulus (GPa) = 51.02640 58.28482 54.65561
# Shear Modulus (GPa) = 27.42112 34.42851 30.92481
#
# Velocity S-wave (km/s) = 3.44317 3.85812 3.65653
# Velocity P-wave (km/s) = 6.15373 6.71163 6.43872
#
# Compressibility (1/GPa) = 0.01959770
#
# Stress axis : x y z
#
# Youngs Moduli (GPa) = 71.14070 89.90698 80.26509
#
# Poissons Ratio (x) = 0.26674 0.32335
# Poissons Ratio (y) = 0.21107 0.16251
# Poissons Ratio (z) = 0.28659 0.18204
#
# Static dielectric constant tensor:
#      x y z
#    x 1.962470 -0.132540 -0.033720 
#    y -0.132540 2.252360 0.096790 
#    z -0.033720 0.096790 1.889030 
# 
# From -- ./inp_files/114744.got.cif
#   From: 2010.05.17/outbox.cif.g08.bks.cpg/sg2_58_cif.got.tgz:114744.got - 2010.06.03 11:33:40.
