data_PCOD9018510
_publ_section_title
;
Structure prediction by ZEFSAII (Michael W. Deem and Ramdas Pophale) SiO2 
 PCOD9018510
Probable space group: P -1
;
_chemical_formula_sum "Si O2"
_cell_formula_units_Z 12
_cell_length_a 7.688657
_cell_length_b 9.541740
_cell_length_c 15.824749
_cell_angle_alpha 133.028721
_cell_angle_beta 145.775882
_cell_angle_gamma 63.886365
_cell_volume 455.072249
_symmetry_space_group_name_H-M "P -1"
_symmetry_group_IT_number 2
_symmetry_cell_setting 'triclinic'
loop_
_space_group_symop_operation_xyz
x,y,z
-x,-y,-z
loop_
_atom_site_type_symbol
_atom_site_label
_atom_site_fract_x
_atom_site_fract_y
_atom_site_fract_z
Si Si1 0.844921 0.499734 0.572492
Si Si2 0.855998 0.919836 0.213448
Si Si3 0.353813 0.374626 0.618345
Si Si4 0.209749 0.871264 0.486814
Si Si5 0.163548 0.764845 0.135658
Si Si6 0.143415 0.820799 0.961959
O O1 0.596595 0.526967 0.413468
O O2 0.754252 0.295427 0.504096
O O3 0.164775 0.495006 0.647751
O O4 0.936754 0.677798 0.749036
O O5 0.013991 0.797377 0.292147
O O6 0.870844 0.820951 0.087572
O O7 0.504457 0.904252 0.101879
O O8 0.097965 0.149274 0.409953
O O9 0.669614 0.365539 0.792265
O O10 0.554494 0.020147 0.662938
O O11 0.000000 0.000000 0.500000
O O12 0.143012 0.710535 0.006488
O O13 0.000000 0.000000 0.000000
#
# Coordination Sequence:
#
# PCOD9018510 Si02
#       6
#     2   2   2   2   2   2
#     4  11  23  41  73 109 143 183 238 295 348 419
#     4  11  23  46  73 100 146 191 232 289 358 424
#     4  10  21  43  71 107 141 182 243 290 346 423
#     4  11  19  44  77 102 139 185 235 293 349 415
#     4  11  23  46  75 102 142 194 231 285 363 420
#     4  12  27  46  70 104 149 188 235 292 360 421
#
# _framework density 26.369441999999999
#
# number of rings (size 3 to 8) (size 9 to 14) (size 15 to 20)
#    0.000    1.000    5.000    3.000    0.000    5.333 
#    0.000   21.667    0.000    0.000    0.000    0.000 
#    0.000    0.000    0.000    0.000    0.000    0.000 
#
# Total GULP energy -67350.290149 kJ/mol
# GULP energy per Si atom -5612.524179 kJ/mol
# Density = 2.630942 g / cm^3
# Si number density = 26.369442 Si / 1000 Ang^3
#
#
#
# Elastic Constant Matrix: (Units=GPa)
#
#
# Indices 1 2 3 4 5 6 
#
# 1 165.3955 59.8611 45.8945 -5.3095 -13.4017 -33.3633
# 2 59.8611 156.2961 55.5782 -10.5885 -11.7645 10.2042
# 3 45.8945 55.5782 76.6521 -8.0229 3.1668 -17.9125
# 4 -5.3095 -10.5885 -8.0229 40.3041 -5.3462 -13.5793
# 5 -13.4017 -11.7645 3.1668 -5.3462 45.7491 -0.5460
# 6 -33.3633 10.2042 -17.9125 -13.5793 -0.5460 57.0167
#
#
#
# Elastic Compliance Matrix: (Units=1/GPa)
#
#
# Indices 1 2 3 4 5 6 
#
# 1 0.009021 -0.002840 -0.001843 0.002342 0.002383 0.005788
# 2 -0.002840 0.010753 -0.007732 -0.000873 0.002293 -0.006201
# 3 -0.001843 -0.007732 0.022328 0.004532 -0.003444 0.008366
# 4 0.002342 -0.000873 0.004532 0.029675 0.003736 0.010054
# 5 0.002383 0.002293 -0.003444 0.003736 0.023833 0.001020
# 6 0.005788 -0.006201 0.008366 0.010054 0.001020 0.027068
#
#
# Mechanical properties :
#
#
# Convention : Reuss Voigt Hill
#
# Bulk Modulus (GPa) = 57.89516 80.11238 69.00377
# Shear Modulus (GPa) = 32.62301 44.41464 38.51883
#
# Velocity S-wave (km/s) = 3.52113 4.10850 3.82611
# Velocity P-wave (km/s) = 6.20759 7.27689 6.76341
#
# Compressibility (1/GPa) = 0.01727260
#
# Stress axis : x y z
#
# Youngs Moduli (GPa) = 110.85062 92.99330 44.78773
#
# Poissons Ratio (x) = 0.26407 0.08254
# Poissons Ratio (y) = 0.31477 0.34630
# Poissons Ratio (z) = 0.20430 0.71904
#
# Static dielectric constant tensor:
#      x y z
#    x 2.073560 0.041710 -0.004050 
#    y 0.041710 2.076320 0.019410 
#    z -0.004050 0.019410 2.058270 
# 
# From -- ./inp_files/560081.got.cif
#   From: 2010.05.17/outbox.cif.g08.bks.cpg/sg2_281_cif.got.tgz:560081.got - 2010.06.03 11:33:40.
