data_PCOD9018355
_publ_section_title
;
Structure prediction by ZEFSAII (Michael W. Deem and Ramdas Pophale) SiO2 
 PCOD9018355
Probable space group: P -1
;
_chemical_formula_sum "Si O2"
_cell_formula_units_Z 14
_cell_length_a 11.612232
_cell_length_b 7.326738
_cell_length_c 9.673308
_cell_angle_alpha 90.151149
_cell_angle_beta 119.191526
_cell_angle_gamma 116.894343
_cell_volume 613.857813
_symmetry_space_group_name_H-M "P -1"
_symmetry_group_IT_number 2
_symmetry_cell_setting 'triclinic'
loop_
_space_group_symop_operation_xyz
x,y,z
-x,-y,-z
loop_
_atom_site_type_symbol
_atom_site_label
_atom_site_fract_x
_atom_site_fract_y
_atom_site_fract_z
Si Si1 0.029600 0.823152 0.193590
Si Si2 0.784263 0.376487 0.982933
Si Si3 0.297668 0.299058 0.989507
Si Si4 0.859760 0.297763 0.493226
Si Si5 0.653933 0.777228 0.686881
Si Si6 0.666497 0.371274 0.611240
Si Si7 0.336550 0.975734 0.876991
O O1 0.065171 0.811062 0.374431
O O2 0.955963 0.585261 0.087503
O O3 0.887323 0.858825 0.094396
O O4 0.188434 0.998860 0.222790
O O5 0.695709 0.477123 0.016549
O O6 0.767364 0.180977 0.058680
O O7 0.711159 0.326489 0.788126
O O8 0.343839 0.199321 0.894292
O O9 0.386601 0.300147 0.178903
O O10 0.771549 0.359501 0.553999
O O11 0.738750 0.140435 0.309764
O O12 0.000000 0.500000 0.500000
O O13 0.685969 0.605052 0.632859
O O14 0.514123 0.780525 0.531568
O O15 0.500000 0.000000 0.000000
#
# Coordination Sequence:
#
# PCOD9018355 Si02
#       7
#     2   2   2   2   2   2   2
#     4  10  23  41  65  96 131 175 219 272 337 390
#     4   9  23  45  65 101 127 178 228 271 338 383
#     4   9  22  44  66  95 137 168 229 274 321 410
#     4  12  26  44  62 101 138 175 222 271 338 401
#     4  10  21  43  70 101 126 174 225 283 340 369
#     4  10  24  42  70  99 135 168 228 286 322 402
#     4  12  26  44  69  96 138 185 219 273 340 399
#
# _framework density 22.806584000000001
#
# number of rings (size 3 to 8) (size 9 to 14) (size 15 to 20)
#    0.857    0.857    1.429    1.286    6.000    2.286 
#    2.571    0.000    0.000    0.000    0.000    0.000 
#    0.000    0.000    0.000    0.000    0.000    0.000 
#
# Total GULP energy -78231.248682 kJ/mol
# GULP energy per Si atom -5587.946334 kJ/mol
# Density = 2.275467 g / cm^3
# Si number density = 22.806584 Si / 1000 Ang^3
#
#
#
# Elastic Constant Matrix: (Units=GPa)
#
#
# Indices 1 2 3 4 5 6 
#
# 1 95.6441 22.6657 46.8850 21.8114 -10.1403 -13.0692
# 2 22.6657 48.8697 12.0063 -6.3361 -3.6699 -2.6674
# 3 46.8850 12.0063 174.9160 -1.8739 7.5712 -9.0984
# 4 21.8114 -6.3361 -1.8739 30.3199 -4.1931 4.2729
# 5 -10.1403 -3.6699 7.5712 -4.1931 43.1606 9.9928
# 6 -13.0692 -2.6674 -9.0984 4.2729 9.9928 33.1623
#
#
#
# Elastic Compliance Matrix: (Units=1/GPa)
#
#
# Indices 1 2 3 4 5 6 
#
# 1 0.020473 -0.010187 -0.004618 -0.018106 0.001150 0.007968
# 2 -0.010187 0.026726 0.000746 0.013811 0.002028 -0.004051
# 3 -0.004618 0.000746 0.007044 0.003596 -0.001978 0.000305
# 4 -0.018106 0.013811 0.003596 0.051538 0.004301 -0.012974
# 5 0.001150 0.002028 -0.001978 0.004301 0.026325 -0.008413
# 6 0.007968 -0.004051 0.000305 -0.012974 -0.008413 0.037260
#
#
# Mechanical properties :
#
#
# Convention : Reuss Voigt Hill
#
# Bulk Modulus (GPa) = 38.27865 53.61597 45.94731
# Shear Modulus (GPa) = 24.24932 37.18674 30.71803
#
# Velocity S-wave (km/s) = 3.26430 4.04236 3.67399
# Velocity P-wave (km/s) = 5.57028 6.73406 6.17963
#
# Compressibility (1/GPa) = 0.02612422
#
# Stress axis : x y z
#
# Youngs Moduli (GPa) = 48.84509 37.41677 141.97228
#
# Poissons Ratio (x) = 0.38117 0.65558
# Poissons Ratio (y) = 0.49759 -0.10585
# Poissons Ratio (z) = 0.22555 -0.02790
#
# Static dielectric constant tensor:
#      x y z
#    x 1.896450 0.016290 -0.024510 
#    y 0.016290 1.878130 0.016430 
#    z -0.024510 0.016430 1.825620 
# 
# From -- ./inp_files/153437.got.cif
#   From: 2010.05.17/outbox.cif.g08.bks.cpg/sg2_77_cif.got.tgz:153437.got - 2010.06.03 11:33:40.
