data_PCOD9018254
_publ_section_title
;
Structure prediction by ZEFSAII (Michael W. Deem and Ramdas Pophale) SiO2 
 PCOD9018254
Probable space group: P -1
;
_chemical_formula_sum "Si O2"
_cell_formula_units_Z 16
_cell_length_a 18.082254
_cell_length_b 9.394606
_cell_length_c 12.862507
_cell_angle_alpha 54.599359
_cell_angle_beta 132.971133
_cell_angle_gamma 150.253506
_cell_volume 792.783191
_symmetry_space_group_name_H-M "P -1"
_symmetry_group_IT_number 2
_symmetry_cell_setting 'triclinic'
loop_
_space_group_symop_operation_xyz
x,y,z
-x,-y,-z
loop_
_atom_site_type_symbol
_atom_site_label
_atom_site_fract_x
_atom_site_fract_y
_atom_site_fract_z
Si Si1 0.346383 0.163249 0.112263
Si Si2 0.064570 0.287255 0.809324
Si Si3 0.279163 0.166893 0.816198
Si Si4 0.240487 0.279787 0.136598
Si Si5 0.144826 0.343080 0.630909
Si Si6 0.502771 0.020427 0.370496
Si Si7 0.150500 0.803303 0.649805
Si Si8 0.528929 0.725904 0.378146
O O1 0.532443 0.501525 0.148878
O O2 0.254410 0.142346 0.124167
O O3 0.373132 0.994989 0.228139
O O4 0.264182 0.078181 0.957057
O O5 0.144405 0.331514 0.760249
O O6 0.070023 0.503043 0.715040
O O7 0.166302 0.345165 0.978347
O O8 0.882186 0.958221 0.790770
O O9 0.155205 0.158628 0.681023
O O10 0.243382 0.980556 0.770613
O O11 0.412694 0.565399 0.233305
O O12 0.314145 0.665085 0.620003
O O13 0.989438 0.245671 0.489067
O O14 0.500000 0.000000 0.500000
O O15 0.475674 0.803809 0.374378
O O16 0.284397 0.988015 0.606206
O O17 0.500000 0.500000 0.500000
#
# Coordination Sequence:
#
# PCOD9018254 Si02
#       8
#     2   2   2   2   2   2   2   2
#     4  10  21  43  69  91 134 171 217 274 329 388
#     4  11  25  44  68  99 133 178 214 277 340 382
#     4  10  22  41  66  98 127 174 220 271 330 387
#     4  11  24  46  69  96 137 173 222 274 328 394
#     4  11  23  44  64  96 137 174 218 271 334 396
#     4  11  26  42  67  98 132 176 217 271 334 392
#     4  12  25  41  71  97 132 176 226 272 326 393
#     4  12  26  43  69 100 131 171 229 273 321 397
#
# _framework density 20.182062999999999
#
# number of rings (size 3 to 8) (size 9 to 14) (size 15 to 20)
#    0.000    1.000    3.750    2.250    7.000    0.500 
#    2.250    0.625    0.000    0.000    0.000    0.000 
#    0.000    0.000    0.000    0.000    0.000    0.000 
#
# Total GULP energy -89430.800539 kJ/mol
# GULP energy per Si atom -5589.425034 kJ/mol
# Density = 2.013613 g / cm^3
# Si number density = 20.182063 Si / 1000 Ang^3
#
#
#
# Elastic Constant Matrix: (Units=GPa)
#
#
# Indices 1 2 3 4 5 6 
#
# 1 89.4553 19.9896 21.3767 -17.3030 -7.8594 -5.1317
# 2 19.9896 54.7380 33.1150 -21.2160 -0.6333 3.5766
# 3 21.3767 33.1150 81.8641 -13.2302 8.7002 0.2256
# 4 -17.3030 -21.2160 -13.2302 29.7612 0.9948 -2.6003
# 5 -7.8594 -0.6333 8.7002 0.9948 42.6284 -0.4939
# 6 -5.1317 3.5766 0.2256 -2.6003 -0.4939 40.9385
#
#
#
# Elastic Compliance Matrix: (Units=1/GPa)
#
#
# Indices 1 2 3 4 5 6 
#
# 1 0.013577 -0.001323 -0.002348 0.006008 0.002849 0.002246
# 2 -0.001323 0.031429 -0.009797 0.017068 0.001804 -0.001752
# 3 -0.002348 -0.009797 0.017130 -0.000565 -0.004057 0.000382
# 4 0.006008 0.017068 -0.000565 0.049207 0.000356 0.002395
# 5 0.002849 0.001804 -0.004057 0.000356 0.024837 0.000544
# 6 0.002246 -0.001752 0.000382 0.002395 0.000544 0.025018
#
#
# Mechanical properties :
#
#
# Convention : Reuss Voigt Hill
#
# Bulk Modulus (GPa) = 28.40835 41.66888 35.03861
# Shear Modulus (GPa) = 25.01675 32.77069 28.89372
#
# Velocity S-wave (km/s) = 3.52455 4.03395 3.78782
# Velocity P-wave (km/s) = 5.53804 6.51063 6.04393
#
# Compressibility (1/GPa) = 0.03520092
#
# Stress axis : x y z
#
# Youngs Moduli (GPa) = 73.65598 31.81761 58.37641
#
# Poissons Ratio (x) = 0.04209 0.13708
# Poissons Ratio (y) = 0.09743 0.57189
# Poissons Ratio (z) = 0.17295 0.31170
#
# Static dielectric constant tensor:
#      x y z
#    x 1.714030 0.004330 0.013980 
#    y 0.004330 1.682400 0.001490 
#    z 0.013980 0.001490 1.707500 
# 
# From -- ./inp_files/379021.got.cif
#   From: 2010.05.17/outbox.cif.g08.bks.cpg/sg2_190_cif.got.tgz:379021.got - 2010.06.03 11:33:40.
