data_PCOD9018547
_publ_section_title
;
Structure prediction by ZEFSAII (Michael W. Deem and Ramdas Pophale) SiO2 
 PCOD9018547
Probable space group: P -1
;
_chemical_formula_sum "Si O2"
_cell_formula_units_Z 14
_cell_length_a 6.007342
_cell_length_b 15.410005
_cell_length_c 9.294212
_cell_angle_alpha 47.526483
_cell_angle_beta 94.467457
_cell_angle_gamma 101.555190
_cell_volume 619.793498
_symmetry_space_group_name_H-M "P -1"
_symmetry_group_IT_number 2
_symmetry_cell_setting 'triclinic'
loop_
_space_group_symop_operation_xyz
x,y,z
-x,-y,-z
loop_
_atom_site_type_symbol
_atom_site_label
_atom_site_fract_x
_atom_site_fract_y
_atom_site_fract_z
Si Si1 0.365404 0.518553 0.324108
Si Si2 0.124316 0.265199 0.537916
Si Si3 0.088029 0.683494 0.252195
Si Si4 0.260273 0.042123 0.892184
Si Si5 0.019220 0.862638 0.619962
Si Si6 0.634672 0.115255 0.151538
Si Si7 0.306035 0.257839 0.025409
O O1 0.500000 0.500000 0.500000
O O2 0.286936 0.394029 0.376027
O O3 0.147967 0.563269 0.328276
O O4 0.491898 0.625543 0.107140
O O5 0.275285 0.183309 0.720016
O O6 0.003405 0.187070 0.486908
O O7 0.934897 0.294630 0.605892
O O8 0.275234 0.786994 0.075286
O O9 0.862594 0.708489 0.138659
O O10 0.270480 0.995967 0.779880
O O11 0.500000 0.000000 0.000000
O O12 0.000000 0.000000 0.000000
O O13 0.823981 0.771138 0.799848
O O14 0.254151 0.851614 0.724576
O O15 0.000000 0.000000 0.500000
O O16 0.376305 0.130283 0.133120
#
# Coordination Sequence:
#
# PCOD9018547 Si02
#       7
#     2   2   2   2   2   2   2
#     4  11  24  42  71 105 132 178 238 296 361 423
#     4  12  24  43  69 108 136 186 238 293 366 434
#     4  10  21  43  71  97 134 175 231 301 350 422
#     4  12  26  43  72 111 144 186 251 309 367 433
#     4  11  25  46  65  99 146 184 234 288 366 440
#     4  10  22  44  68  97 140 186 227 296 362 423
#     4  10  23  46  70  94 141 184 231 295 361 423
#
# _framework density 22.588169000000001
#
# number of rings (size 3 to 8) (size 9 to 14) (size 15 to 20)
#    0.000    1.143    4.286    1.286    4.000    1.143 
#    5.143    6.429    0.000    0.000    0.000    0.000 
#    0.000    0.000    0.000    0.000    0.000    0.000 
#
# Total GULP energy -77940.442933 kJ/mol
# GULP energy per Si atom -5567.174495 kJ/mol
# Density = 2.253676 g / cm^3
# Si number density = 22.588169 Si / 1000 Ang^3
#
#
#
# Elastic Constant Matrix: (Units=GPa)
#
#
# Indices 1 2 3 4 5 6 
#
# 1 91.1282 41.8286 27.3842 2.9588 25.3534 -14.2927
# 2 41.8286 151.3646 49.9072 -4.8716 17.8583 -3.8795
# 3 27.3842 49.9072 80.2163 -4.0304 4.5997 2.2898
# 4 2.9588 -4.8716 -4.0304 42.2331 6.7000 5.9273
# 5 25.3534 17.8583 4.5997 6.7000 22.8553 -9.3894
# 6 -14.2927 -3.8795 2.2898 5.9273 -9.3894 31.0785
#
#
#
# Elastic Compliance Matrix: (Units=1/GPa)
#
#
# Indices 1 2 3 4 5 6 
#
# 1 0.018176 -0.001492 -0.004389 0.000337 -0.016838 0.003345
# 2 -0.001492 0.009307 -0.004831 0.001788 -0.005671 -0.001223
# 3 -0.004389 -0.004831 0.016906 0.001203 0.003660 -0.002991
# 4 0.000337 0.001788 0.001203 0.027445 -0.013804 -0.009115
# 5 -0.016838 -0.005671 0.003660 -0.013804 0.077261 0.017254
# 6 0.003345 -0.001223 -0.002991 -0.009115 0.017254 0.040733
#
#
# Mechanical properties :
#
#
# Convention : Reuss Voigt Hill
#
# Bulk Modulus (GPa) = 43.54710 62.32768 52.93739
# Shear Modulus (GPa) = 22.84059 32.80599 27.82329
#
# Velocity S-wave (km/s) = 3.18335 3.81511 3.51346
# Velocity P-wave (km/s) = 5.72994 6.86001 6.32028
#
# Compressibility (1/GPa) = 0.02296364
#
# Stress axis : x y z
#
# Youngs Moduli (GPa) = 55.01837 107.44408 59.14941
#
# Poissons Ratio (x) = 0.16035 0.25963
# Poissons Ratio (y) = 0.08211 0.28576
# Poissons Ratio (z) = 0.24149 0.51907
#
# Static dielectric constant tensor:
#      x y z
#    x 1.219650 0.423310 0.093720 
#    y 0.423310 1.708800 -0.059280 
#    z 0.093720 -0.059280 1.886370 
# 
# From -- ./inp_files/39920.got.cif
#   From: 2010.05.17/outbox.cif.g08.bks.cpg/sg2_20_cif.got.tgz:39920.got - 2010.06.03 11:33:40.
