data_PCOD9018475
_publ_section_title
;
Structure prediction by ZEFSAII (Michael W. Deem and Ramdas Pophale) SiO2 
 PCOD9018475
Probable space group: P -1
;
_chemical_formula_sum "Si O2"
_cell_formula_units_Z 16
_cell_length_a 9.152299
_cell_length_b 23.648255
_cell_length_c 9.670484
_cell_angle_alpha 145.705575
_cell_angle_beta 43.078815
_cell_angle_gamma 130.814502
_cell_volume 798.599829
_symmetry_space_group_name_H-M "P -1"
_symmetry_group_IT_number 2
_symmetry_cell_setting 'triclinic'
loop_
_space_group_symop_operation_xyz
x,y,z
-x,-y,-z
loop_
_atom_site_type_symbol
_atom_site_label
_atom_site_fract_x
_atom_site_fract_y
_atom_site_fract_z
Si Si1 0.519822 0.896875 0.860839
Si Si2 0.960122 0.377688 0.164584
Si Si3 0.616408 0.722487 0.237289
Si Si4 0.291905 0.561898 0.272675
Si Si5 0.171136 0.946907 0.359524
Si Si6 0.864217 0.200038 0.667845
Si Si7 0.837897 0.896012 0.894634
Si Si8 0.594021 0.859045 0.272575
O O1 0.605119 0.815178 0.538469
O O2 0.663893 0.909026 0.923054
O O3 0.277592 0.869579 0.031613
O O4 0.500000 0.000000 0.000000
O O5 0.782915 0.396545 0.442178
O O6 0.078182 0.482907 0.229825
O O7 0.860538 0.302181 0.961710
O O8 0.167230 0.329415 0.987874
O O9 0.390263 0.651491 0.283026
O O10 0.626527 0.768504 0.170441
O O11 0.500000 0.500000 0.000000
O O12 0.087108 0.884437 0.424812
O O13 0.347978 0.037386 0.473120
O O14 0.000000 0.000000 0.500000
O O15 0.644456 0.159457 0.661263
O O16 0.048483 0.199255 0.426010
O O17 0.743701 0.872287 0.062223
O O18 0.000000 0.000000 0.000000
#
# Coordination Sequence:
#
# PCOD9018475 Si02
#       8
#     2   2   2   2   2   2   2   2
#     4  12  23  39  61  92 128 172 226 263 310 385
#     4  10  21  43  71 101 122 166 223 270 333 391
#     4  11  23  42  64  97 132 169 219 273 323 386
#     4   9  21  41  74 100 126 158 216 281 331 390
#     4  12  23  38  59  88 127 175 226 272 312 375
#     4  12  23  40  63  90 132 174 217 271 326 386
#     4  12  25  41  60  87 133 183 219 263 319 377
#     4  12  26  39  58  94 136 172 216 265 326 387
#
# _framework density 20.035066
#
# number of rings (size 3 to 8) (size 9 to 14) (size 15 to 20)
#    0.000    0.750    5.000    3.375    0.000    1.000 
#    0.000    0.625    0.000    7.500    0.000    0.000 
#    0.000    0.000    0.000    0.000    0.000    0.000 
#
# Total GULP energy -89292.689839 kJ/mol
# GULP energy per Si atom -5580.793115 kJ/mol
# Density = 1.998947 g / cm^3
# Si number density = 20.035066 Si / 1000 Ang^3
#
#
#
# Elastic Constant Matrix: (Units=GPa)
#
#
# Indices 1 2 3 4 5 6 
#
# 1 102.7923 41.5327 42.0545 -4.6649 11.0724 1.2750
# 2 41.5327 116.4345 30.1434 -11.3551 5.9362 -10.2121
# 3 42.0545 30.1434 133.5620 -21.9359 2.4584 1.9818
# 4 -4.6649 -11.3551 -21.9359 39.7330 8.7634 6.6939
# 5 11.0724 5.9362 2.4584 8.7634 25.8977 -4.0255
# 6 1.2750 -10.2121 1.9818 6.6939 -4.0255 25.6919
#
#
#
# Elastic Compliance Matrix: (Units=1/GPa)
#
#
# Indices 1 2 3 4 5 6 
#
# 1 0.013129 -0.003847 -0.003081 0.000312 -0.004980 -0.002805
# 2 -0.003847 0.010758 -0.001018 0.001511 -0.000605 0.004057
# 3 -0.003081 -0.001018 0.009660 0.005495 -0.001643 -0.002686
# 4 0.000312 0.001511 0.005495 0.033585 -0.014043 -0.010790
# 5 -0.004980 -0.000605 -0.001643 -0.014043 0.047537 0.011240
# 6 -0.002805 0.004057 -0.002686 -0.010790 0.011240 0.045454
#
#
# Mechanical properties :
#
#
# Convention : Reuss Voigt Hill
#
# Bulk Modulus (GPa) = 56.64076 64.47221 60.55649
# Shear Modulus (GPa) = 27.48776 34.20174 30.84475
#
# Velocity S-wave (km/s) = 3.70805 4.13618 3.92795
# Velocity P-wave (km/s) = 6.83118 7.42026 7.13180
#
# Compressibility (1/GPa) = 0.01765513
#
# Stress axis : x y z
#
# Youngs Moduli (GPa) = 76.16919 92.95164 103.52406
#
# Poissons Ratio (x) = 0.35759 0.31896
# Poissons Ratio (y) = 0.29303 0.10534
# Poissons Ratio (z) = 0.23468 0.09459
#
# Static dielectric constant tensor:
#      x y z
#    x 1.703330 0.018000 -0.004260 
#    y 0.018000 1.788140 -0.020700 
#    z -0.004260 -0.020700 1.772530 
# 
# From -- ./inp_files/222529.got.cif
#   From: 2010.05.17/outbox.cif.g08.bks.cpg/sg2_112_cif.got.tgz:222529.got - 2010.06.03 11:33:40.
