data_PCOD9018970
_publ_section_title
;
Structure prediction by ZEFSAII (Michael W. Deem and Ramdas Pophale) SiO2 
 PCOD9018970
Probable space group: P -1
;
_chemical_formula_sum "Si O2"
_cell_formula_units_Z 14
_cell_length_a 13.229299
_cell_length_b 11.122108
_cell_length_c 12.241426
_cell_angle_alpha 142.430600
_cell_angle_beta 46.100609
_cell_angle_gamma 148.192773
_cell_volume 577.728337
_symmetry_space_group_name_H-M "P -1"
_symmetry_group_IT_number 2
_symmetry_cell_setting 'triclinic'
loop_
_space_group_symop_operation_xyz
x,y,z
-x,-y,-z
loop_
_atom_site_type_symbol
_atom_site_label
_atom_site_fract_x
_atom_site_fract_y
_atom_site_fract_z
Si Si1 0.570376 0.284222 0.113836
Si Si2 0.306188 0.689266 0.196742
Si Si3 0.920178 0.719810 0.302728
Si Si4 0.269567 0.247068 0.992744
Si Si5 0.660569 0.074327 0.352491
Si Si6 0.977650 0.653788 0.443869
Si Si7 0.172125 0.064041 0.178578
O O1 0.705691 0.516169 0.269277
O O2 0.690144 0.359934 0.968346
O O3 0.500000 0.000000 0.000000
O O4 0.390034 0.249032 0.191901
O O5 0.204862 0.404973 0.126978
O O6 0.528169 0.926475 0.236578
O O7 0.191221 0.773978 0.376308
O O8 0.925935 0.580484 0.301244
O O9 0.055633 0.803109 0.157120
O O10 0.187173 0.084478 0.050892
O O11 0.500000 0.500000 0.000000
O O12 0.250768 0.054399 0.780572
O O13 0.500000 0.000000 0.500000
O O14 0.832401 0.386338 0.430856
O O15 0.934603 0.833907 0.640969
O O16 0.000000 0.000000 0.500000
#
# Coordination Sequence:
#
# PCOD9018970 Si02
#       7
#     2   2   2   2   2   2   2
#     4  12  25  44  79 104 138 198 247 296 363 435
#     4  11  25  44  68 105 142 183 240 288 364 428
#     4  10  26  46  69 108 147 185 242 305 364 422
#     4  10  21  44  67 101 141 185 237 293 356 429
#     4  11  24  42  71 101 143 185 236 297 353 425
#     4  11  25  44  68 104 143 183 235 299 357 424
#     4  11  24  46  73 101 147 189 238 301 358 435
#
# _framework density 24.232844
#
# number of rings (size 3 to 8) (size 9 to 14) (size 15 to 20)
#    0.000    1.143    2.857    3.429    2.000    8.571 
#    0.000    0.000    0.000    0.000    0.000    0.000 
#    0.000    0.000    0.000    0.000    0.000    0.000 
#
# Total GULP energy -78205.537452 kJ/mol
# GULP energy per Si atom -5586.109818 kJ/mol
# Density = 2.417769 g / cm^3
# Si number density = 24.232844 Si / 1000 Ang^3
#
#
#
# Elastic Constant Matrix: (Units=GPa)
#
#
# Indices 1 2 3 4 5 6 
#
# 1 81.7749 15.7049 36.7954 -5.2951 -9.9260 16.6760
# 2 15.7049 79.1411 13.8817 -20.3596 5.4780 -3.8390
# 3 36.7954 13.8817 112.2729 -20.7386 -13.9606 -1.1139
# 4 -5.2951 -20.3596 -20.7386 42.6449 4.9086 7.8290
# 5 -9.9260 5.4780 -13.9606 4.9086 46.0180 -8.4034
# 6 16.6760 -3.8390 -1.1139 7.8290 -8.4034 48.7315
#
#
#
# Elastic Compliance Matrix: (Units=1/GPa)
#
#
# Indices 1 2 3 4 5 6 
#
# 1 0.016301 -0.002976 -0.005034 -0.000998 0.001442 -0.005519
# 2 -0.002976 0.015321 0.000031 0.007224 -0.003131 0.000526
# 3 -0.005034 0.000031 0.011685 0.004505 0.002278 0.001661
# 4 -0.000998 0.007224 0.004505 0.030221 -0.003752 -0.004489
# 5 0.001442 -0.003131 0.002278 -0.003752 0.024254 0.004097
# 6 -0.005519 0.000526 0.001661 -0.004489 0.004097 0.023916
#
#
# Mechanical properties :
#
#
# Convention : Reuss Voigt Hill
#
# Bulk Modulus (GPa) = 36.56353 45.10587 40.83470
# Shear Modulus (GPa) = 34.06610 41.26600 37.66605
#
# Velocity S-wave (km/s) = 3.75344 4.13109 3.94679
# Velocity P-wave (km/s) = 5.82285 6.43494 6.13654
#
# Compressibility (1/GPa) = 0.02734966
#
# Stress axis : x y z
#
# Youngs Moduli (GPa) = 61.34477 65.26792 85.58140
#
# Poissons Ratio (x) = 0.19424 0.43084
# Poissons Ratio (y) = 0.18256 -0.00268
# Poissons Ratio (z) = 0.30883 -0.00204
#
# Static dielectric constant tensor:
#      x y z
#    x 2.210040 -0.241560 -0.151730 
#    y -0.241560 2.216990 0.256300 
#    z -0.151730 0.256300 2.137380 
# 
# From -- ./inp_files/450759.got.cif
#   From: 2010.05.17/outbox.cif.g08.bks.cpg/sg2_226_cif.got.tgz:450759.got - 2010.06.03 11:33:40.
