data_PCOD9018645
_publ_section_title
;
Structure prediction by ZEFSAII (Michael W. Deem and Ramdas Pophale) SiO2 
 PCOD9018645
Probable space group: P -1
;
_chemical_formula_sum "Si O2"
_cell_formula_units_Z 15
_cell_length_a 11.065462
_cell_length_b 4.846199
_cell_length_c 17.076937
_cell_angle_alpha 84.096186
_cell_angle_beta 144.155634
_cell_angle_gamma 97.885514
_cell_volume 531.128900
_symmetry_space_group_name_H-M "P -1"
_symmetry_group_IT_number 2
_symmetry_cell_setting 'triclinic'
loop_
_space_group_symop_operation_xyz
x,y,z
-x,-y,-z
loop_
_atom_site_type_symbol
_atom_site_label
_atom_site_fract_x
_atom_site_fract_y
_atom_site_fract_z
Si Si1 0.397675 0.037597 0.528709
Si Si2 0.000000 0.000000 0.500000
Si Si3 0.004482 0.721763 0.748884
Si Si4 0.824915 0.590746 0.299595
Si Si5 0.412343 0.662606 0.023045
Si Si6 0.389459 0.886904 0.684766
Si Si7 0.199864 0.249439 0.053864
Si Si8 0.211435 0.607043 0.208684
O O1 0.166139 0.101807 0.383394
O O2 0.565708 0.262502 0.651003
O O3 0.500000 0.000000 0.500000
O O4 0.405297 0.797191 0.605313
O O5 0.256688 0.684624 0.683793
O O6 0.237472 0.130253 0.594960
O O7 0.886233 0.568610 0.764010
O O8 0.074816 0.519670 0.723186
O O9 0.230956 0.851087 0.896245
O O10 0.628121 0.765217 0.174073
O O11 0.987420 0.785101 0.427007
O O12 0.296746 0.448553 0.029587
O O13 0.500000 0.500000 0.000000
O O14 0.621004 0.957902 0.836325
O O15 0.207771 0.426118 0.133075
O O16 0.962154 0.172075 0.906557
#
# Coordination Sequence:
#
# PCOD9018645 Si02
#       8
#     2   1   2   2   2   2   2   2
#     4  12  27  41  63 104 140 184 231 269 337 406
#     4  12  26  40  68 110 130 172 230 272 350 410
#     4  10  21  43  73  94 141 182 223 285 336 394
#     4  10  23  44  72 102 134 176 223 286 342 402
#     4   8  17  38  70  99 129 180 226 273 342 396
#     4  11  25  43  65  99 140 175 221 281 336 401
#     4   9  20  41  69  94 132 180 225 279 341 389
#     4  10  22  41  68 100 129 184 231 278 332 400
#
# _framework density 28.241733
#
# number of rings (size 3 to 8) (size 9 to 14) (size 15 to 20)
#    0.000    1.867    0.000    2.400    7.467    0.533 
#    2.400    0.000    0.000    5.600    0.000    0.933 
#    0.000    0.000    0.000    0.000    0.000    0.000 
#
# Total GULP energy -83722.381599 kJ/mol
# GULP energy per Si atom -5581.492107 kJ/mol
# Density = 2.817745 g / cm^3
# Si number density = 28.241733 Si / 1000 Ang^3
#
#
#
# Elastic Constant Matrix: (Units=GPa)
#
#
# Indices 1 2 3 4 5 6 
#
# 1 217.9806 60.1545 53.4944 -4.2611 -3.3518 18.0252
# 2 60.1545 66.8174 32.3054 16.2592 -9.9069 7.8607
# 3 53.4944 32.3054 206.5470 -18.1168 22.8386 -2.1526
# 4 -4.2611 16.2592 -18.1168 40.7826 -5.7103 -3.6075
# 5 -3.3518 -9.9069 22.8386 -5.7103 63.8968 -6.3466
# 6 18.0252 7.8607 -2.1526 -3.6075 -6.3466 43.9316
#
#
#
# Elastic Compliance Matrix: (Units=1/GPa)
#
#
# Indices 1 2 3 4 5 6 
#
# 1 0.006605 -0.006300 -0.000453 0.002825 -0.000358 -0.001425
# 2 -0.006300 0.026662 -0.004119 -0.012835 0.003842 -0.002887
# 3 -0.000453 -0.004119 0.006245 0.004141 -0.002403 0.001222
# 4 0.002825 -0.012835 0.004141 0.032115 -0.000058 0.003969
# 5 -0.000358 0.003842 -0.002403 -0.000058 0.017263 0.001831
# 6 -0.001425 -0.002887 0.001222 0.003969 0.001831 0.024514
#
#
# Mechanical properties :
#
#
# Convention : Reuss Voigt Hill
#
# Bulk Modulus (GPa) = 56.28240 87.02819 71.65530
# Shear Modulus (GPa) = 35.44358 52.74825 44.09591
#
# Velocity S-wave (km/s) = 3.54645 4.32643 3.95571
# Velocity P-wave (km/s) = 6.06150 7.47259 6.80373
#
# Compressibility (1/GPa) = 0.01776754
#
# Stress axis : x y z
#
# Youngs Moduli (GPa) = 151.40604 37.50666 160.13637
#
# Poissons Ratio (x) = 0.23629 0.07251
# Poissons Ratio (y) = 0.95385 0.65963
# Poissons Ratio (z) = 0.06856 0.15450
#
# Static dielectric constant tensor:
#      x y z
#    x 2.272790 0.156830 -0.173270 
#    y 0.156830 1.438920 0.923240 
#    z -0.173270 0.923240 0.858830 
# 
# From -- ./inp_files/431013.got.cif
#   From: 2010.05.17/outbox.cif.g08.bks.cpg/sg2_216_cif.got.tgz:431013.got - 2010.06.03 11:33:40.
