data_PCOD9018669
_publ_section_title
;
Structure prediction by ZEFSAII (Michael W. Deem and Ramdas Pophale) SiO2 
 PCOD9018669
Probable space group: P -1
;
_chemical_formula_sum "Si O2"
_cell_formula_units_Z 12
_cell_length_a 16.259883
_cell_length_b 11.268970
_cell_length_c 11.426309
_cell_angle_alpha 154.604109
_cell_angle_beta 147.553350
_cell_angle_gamma 34.555180
_cell_volume 464.367910
_symmetry_space_group_name_H-M "P -1"
_symmetry_group_IT_number 2
_symmetry_cell_setting 'triclinic'
loop_
_space_group_symop_operation_xyz
x,y,z
-x,-y,-z
loop_
_atom_site_type_symbol
_atom_site_label
_atom_site_fract_x
_atom_site_fract_y
_atom_site_fract_z
Si Si1 0.427599 0.175428 0.705888
Si Si2 0.173488 0.367732 0.140184
Si Si3 0.873227 0.349504 0.155160
Si Si4 0.246345 0.015719 0.137986
Si Si5 0.644299 0.177247 0.269346
Si Si6 0.657020 0.314688 0.677697
O O1 0.300725 0.435004 0.841699
O O2 0.604291 0.213401 0.946407
O O3 0.349865 0.168626 0.479312
O O4 0.417832 0.889165 0.509755
O O5 0.289735 0.136099 0.987265
O O6 0.249606 0.629068 0.484017
O O7 0.000000 0.500000 0.000000
O O8 0.160652 0.210654 0.105586
O O9 0.000000 0.500000 0.500000
O O10 0.866803 0.086040 0.997612
O O11 0.833557 0.296019 0.924440
O O12 0.668511 0.183760 0.444087
O O13 0.464334 0.366569 0.195796
#
# Coordination Sequence:
#
# PCOD9018669 Si02
#       6
#     2   2   2   2   2   2
#     4  10  21  43  74 102 141 192 253 310 371 446
#     4  12  27  47  74 110 152 201 247 312 381 450
#     4  11  25  42  72 108 150 191 246 319 382 444
#     4  10  23  43  71 103 141 194 255 307 373 448
#     4  11  26  47  76 111 150 198 255 304 376 457
#     4  10  24  44  76 108 145 197 249 315 372 453
#
# _framework density 25.841578999999999
#
# number of rings (size 3 to 8) (size 9 to 14) (size 15 to 20)
#    0.000    1.333    1.667    2.000    4.667    6.667 
#    0.000    0.000    0.000    0.000    0.000    0.000 
#    0.000    0.000    0.000    0.000    0.000    0.000 
#
# Total GULP energy -67148.696476 kJ/mol
# GULP energy per Si atom -5595.724706 kJ/mol
# Density = 2.578276 g / cm^3
# Si number density = 25.841579 Si / 1000 Ang^3
#
#
#
# Elastic Constant Matrix: (Units=GPa)
#
#
# Indices 1 2 3 4 5 6 
#
# 1 108.6320 29.6617 24.8955 -32.3347 -0.4161 34.8136
# 2 29.6617 136.0166 40.3869 -46.7060 -15.3159 28.1406
# 3 24.8955 40.3869 114.4202 -33.8725 5.4742 29.8591
# 4 -32.3347 -46.7060 -33.8725 57.5502 6.2216 -11.1084
# 5 -0.4161 -15.3159 5.4742 6.2216 44.9374 -8.2549
# 6 34.8136 28.1406 29.8591 -11.1084 -8.2549 44.3936
#
#
#
# Elastic Compliance Matrix: (Units=1/GPa)
#
#
# Indices 1 2 3 4 5 6 
#
# 1 0.014897 0.001272 0.002282 0.008689 -0.003195 -0.012444
# 2 0.001272 0.011468 -0.000460 0.008496 0.001790 -0.005499
# 3 0.002282 -0.000460 0.013262 0.007385 -0.004502 -0.009407
# 4 0.008689 0.008496 0.007385 0.032036 -0.004183 -0.009929
# 5 -0.003195 0.001790 -0.004502 -0.004183 0.025446 0.008084
# 6 -0.012444 -0.005499 -0.009407 -0.009929 0.008084 0.041116
#
#
# Mechanical properties :
#
#
# Convention : Reuss Voigt Hill
#
# Bulk Modulus (GPa) = 21.82688 60.99522 41.41105
# Shear Modulus (GPa) = 33.94237 46.98454 40.46345
#
# Velocity S-wave (km/s) = 3.62813 4.26863 3.96135
# Velocity P-wave (km/s) = 5.10057 6.92457 6.08135
#
# Compressibility (1/GPa) = 0.04581506
#
# Stress axis : x y z
#
# Youngs Moduli (GPa) = 67.12785 87.20045 75.40182
#
# Poissons Ratio (x) = -0.11092 -0.17208
# Poissons Ratio (y) = -0.08539 0.03470
# Poissons Ratio (z) = -0.15320 0.04013
#
# Static dielectric constant tensor:
#      x y z
#    x 2.275930 -0.121280 -0.179590 
#    y -0.121280 2.136880 0.101970 
#    z -0.179590 0.101970 2.125880 
# 
# From -- ./inp_files/130608.got.cif
#   From: 2010.05.17/outbox.cif.g08.bks.cpg/sg2_66_cif.got.tgz:130608.got - 2010.06.03 11:33:40.
