data_PCOD9018546
_publ_section_title
;
Structure prediction by ZEFSAII (Michael W. Deem and Ramdas Pophale) SiO2 
 PCOD9018546
Probable space group: P -1
;
_chemical_formula_sum "Si O2"
_cell_formula_units_Z 16
_cell_length_a 8.705407
_cell_length_b 6.851816
_cell_length_c 15.845539
_cell_angle_alpha 83.204541
_cell_angle_beta 48.970280
_cell_angle_gamma 72.831813
_cell_volume 677.482240
_symmetry_space_group_name_H-M "P -1"
_symmetry_group_IT_number 2
_symmetry_cell_setting 'triclinic'
loop_
_space_group_symop_operation_xyz
x,y,z
-x,-y,-z
loop_
_atom_site_type_symbol
_atom_site_label
_atom_site_fract_x
_atom_site_fract_y
_atom_site_fract_z
Si Si1 0.043447 0.953091 0.616985
Si Si2 0.287024 0.491686 0.528483
Si Si3 0.567628 0.010121 0.806962
Si Si4 0.325467 0.155934 0.407633
Si Si5 0.754084 0.874948 0.326742
Si Si6 0.390101 0.393540 0.114460
Si Si7 0.008813 0.440427 0.861014
Si Si8 0.321654 0.474164 0.872933
O O1 0.120817 0.716068 0.572601
O O2 0.114820 0.096838 0.515316
O O3 0.800012 0.041346 0.727208
O O4 0.164638 0.963359 0.659730
O O5 0.500000 0.500000 0.500000
O O6 0.209796 0.326918 0.618740
O O7 0.325727 0.378128 0.429792
O O8 0.529322 0.852325 0.897253
O O9 0.603138 0.890270 0.711188
O O10 0.393148 0.226725 0.860098
O O11 0.506474 0.978231 0.398360
O O12 0.877266 0.788424 0.201828
O O13 0.469973 0.468857 0.170241
O O14 0.147406 0.447307 0.164608
O O15 0.500000 0.500000 0.000000
O O16 0.197021 0.530221 0.825128
O O17 0.855910 0.440959 0.995428
#
# Coordination Sequence:
#
# PCOD9018546 Si02
#       8
#     2   2   2   2   2   2   2   2
#     4  11  23  40  64  98 134 182 223 276 340 410
#     4  11  20  37  63  93 132 177 222 272 334 399
#     4  12  25  43  67 100 136 182 227 274 360 403
#     4  11  23  39  63  97 139 172 225 281 324 410
#     4  11  20  39  65  96 135 174 228 278 332 404
#     4  10  24  46  67  98 136 173 229 292 335 406
#     4  10  21  43  71  97 132 178 223 285 342 401
#     4  10  23  45  70  99 136 174 229 291 343 404
#
# _framework density 23.616855000000001
#
# number of rings (size 3 to 8) (size 9 to 14) (size 15 to 20)
#    0.000    1.250    3.750    2.625    0.000    5.500 
#    2.250    8.125    0.000    0.000    0.000    0.000 
#    0.000    0.000    0.000    0.000    0.000    0.000 
#
# Total GULP energy -89271.162965 kJ/mol
# GULP energy per Si atom -5579.447685 kJ/mol
# Density = 2.356310 g / cm^3
# Si number density = 23.616855 Si / 1000 Ang^3
#
#
#
# Elastic Constant Matrix: (Units=GPa)
#
#
# Indices 1 2 3 4 5 6 
#
# 1 176.3376 62.1757 45.0162 64.2153 40.6280 -0.9313
# 2 62.1757 147.5038 89.6379 92.1475 51.1445 -17.1081
# 3 45.0162 89.6379 145.3329 105.5901 56.6459 -21.6817
# 4 64.2153 92.1475 105.5901 173.3536 83.3035 -26.3102
# 5 40.6280 51.1445 56.6459 83.3035 73.2967 -9.5367
# 6 -0.9313 -17.1081 -21.6817 -26.3102 -9.5367 34.4621
#
#
#
# Elastic Compliance Matrix: (Units=1/GPa)
#
#
# Indices 1 2 3 4 5 6 
#
# 1 0.007146 -0.002100 0.000315 -0.001302 -0.001528 -0.002068
# 2 -0.002100 0.012520 -0.004860 -0.002168 -0.001208 0.001112
# 3 0.000315 -0.004860 0.014631 -0.005178 -0.001904 0.002321
# 4 -0.001302 -0.002168 -0.005178 0.017744 -0.013212 0.005522
# 5 -0.001528 -0.001208 -0.001904 -0.013212 0.031399 -0.003236
# 6 -0.002068 0.001112 0.002321 0.005522 -0.003236 0.034293
#
#
# Mechanical properties :
#
#
# Convention : Reuss Voigt Hill
#
# Bulk Modulus (GPa) = 47.60250 95.87041 71.73646
# Shear Modulus (GPa) = 36.22477 74.37880 55.30178
#
# Velocity S-wave (km/s) = 3.92069 5.61804 4.84428
# Velocity P-wave (km/s) = 6.37932 9.09754 7.85687
#
# Compressibility (1/GPa) = 0.02100730
#
# Stress axis : x y z
#
# Youngs Moduli (GPa) = 139.92878 79.87096 68.34800
#
# Poissons Ratio (x) = 0.16775 -0.02153
# Poissons Ratio (y) = 0.29389 0.33217
# Poissons Ratio (z) = -0.04409 0.38817
#
# Static dielectric constant tensor:
#      x y z
#    x 1.795260 0.071680 -0.053840 
#    y 0.071680 1.851720 -0.003200 
#    z -0.053840 -0.003200 1.882680 
# 
# From -- ./inp_files/553592.got.cif
#   From: 2010.05.17/outbox.cif.g08.bks.cpg/sg2_277_cif.got.tgz:553592.got - 2010.06.03 11:33:40.
