data_PCOD9018474
_publ_section_title
;
Structure prediction by ZEFSAII (Michael W. Deem and Ramdas Pophale) SiO2 
 PCOD9018474
Probable space group: P -1
;
_chemical_formula_sum "Si O2"
_cell_formula_units_Z 13
_cell_length_a 9.455505
_cell_length_b 11.883879
_cell_length_c 16.275728
_cell_angle_alpha 145.578553
_cell_angle_beta 149.960338
_cell_angle_gamma 39.930823
_cell_volume 508.467501
_symmetry_space_group_name_H-M "P -1"
_symmetry_group_IT_number 2
_symmetry_cell_setting 'triclinic'
loop_
_space_group_symop_operation_xyz
x,y,z
-x,-y,-z
loop_
_atom_site_type_symbol
_atom_site_label
_atom_site_fract_x
_atom_site_fract_y
_atom_site_fract_z
Si Si1 0.863171 0.588453 0.355775
Si Si2 0.500000 0.500000 0.000000
Si Si3 0.704847 0.969016 0.377814
Si Si4 0.604003 0.261131 0.248151
Si Si5 0.933974 0.426118 0.031951
Si Si6 0.467560 0.796718 0.408899
Si Si7 0.418824 0.142082 0.917303
O O1 0.686080 0.427685 0.136571
O O2 0.743801 0.756605 0.322315
O O3 0.747643 0.652188 0.426689
O O4 0.196325 0.589824 0.527919
O O5 0.215095 0.598428 0.971358
O O6 0.497373 0.947751 0.184745
O O7 0.584480 0.142734 0.486704
O O8 0.000000 0.000000 0.500000
O O9 0.694510 0.045625 0.208707
O O10 0.626676 0.206959 0.130278
O O11 0.273473 0.352173 0.155785
O O12 0.787988 0.297246 0.815652
O O13 0.167206 0.336470 0.894963
O O14 0.500000 0.000000 0.500000
#
# Coordination Sequence:
#
# PCOD9018474 Si02
#       7
#     2   1   2   2   2   2   2
#     4  10  21  43  71 100 144 190 230 296 362 422
#     4  10  22  44  72 100 146 186 236 294 362 430
#     4  11  19  39  70 101 134 190 237 280 355 427
#     4  11  25  43  72 108 141 184 244 301 352 424
#     4  11  23  46  72 101 145 193 234 298 362 417
#     4   9  22  40  72  99 144 200 225 282 379 416
#     4  11  24  43  71 107 146 179 243 300 352 421
#
# _framework density 25.567021
#
# number of rings (size 3 to 8) (size 9 to 14) (size 15 to 20)
#    0.000    1.538    3.077    1.385    6.462    0.615 
#    0.000    7.692    0.000    2.769    0.000    0.000 
#    0.000    0.000    0.000    0.000    0.000    0.000 
#
# Total GULP energy -72463.230020 kJ/mol
# GULP energy per Si atom -5574.094617 kJ/mol
# Density = 2.550883 g / cm^3
# Si number density = 25.567021 Si / 1000 Ang^3
#
#
#
# Elastic Constant Matrix: (Units=GPa)
#
#
# Indices 1 2 3 4 5 6 
#
# 1 168.4142 42.3674 66.9319 -10.0282 -40.0963 -18.6527
# 2 42.3674 101.1722 33.2992 0.1094 -6.9585 7.2338
# 3 66.9319 33.2992 155.5206 -9.2311 -23.0486 -33.0204
# 4 -10.0282 0.1094 -9.2311 33.8528 -10.0390 6.0085
# 5 -40.0963 -6.9585 -23.0486 -10.0390 69.5223 -1.6788
# 6 -18.6527 7.2338 -33.0204 6.0085 -1.6788 45.0514
#
#
#
# Elastic Compliance Matrix: (Units=1/GPa)
#
#
# Indices 1 2 3 4 5 6 
#
# 1 0.009055 -0.003079 -0.001753 0.003172 0.004857 0.002716
# 2 -0.003079 0.012327 -0.002750 -0.001310 -0.001767 -0.005161
# 3 -0.001753 -0.002750 0.009618 0.001615 0.002296 0.006636
# 4 0.003172 -0.001310 0.001615 0.033261 0.007002 -0.001467
# 5 0.004857 -0.001767 0.002296 0.007002 0.018871 0.003747
# 6 0.002716 -0.005161 0.006636 -0.001467 0.003747 0.029349
#
#
# Mechanical properties :
#
#
# Convention : Reuss Voigt Hill
#
# Bulk Modulus (GPa) = 63.14075 78.92268 71.03171
# Shear Modulus (GPa) = 37.61575 48.51921 43.06748
#
# Velocity S-wave (km/s) = 3.83986 4.36102 4.10871
# Velocity P-wave (km/s) = 6.66402 7.50293 7.09588
#
# Compressibility (1/GPa) = 0.01583763
#
# Stress axis : x y z
#
# Youngs Moduli (GPa) = 110.43709 81.12103 103.96863
#
# Poissons Ratio (x) = 0.24973 0.18226
# Poissons Ratio (y) = 0.33998 0.28590
# Poissons Ratio (z) = 0.19360 0.22307
#
# Static dielectric constant tensor:
#      x y z
#    x 1.989080 -0.012810 -0.189860 
#    y -0.012810 2.016960 -0.121740 
#    z -0.189860 -0.121740 1.548520 
# 
# From -- ./inp_files/502238.got.cif
#   From: 2010.05.17/outbox.cif.g08.bks.cpg/sg2_252_cif.got.tgz:502238.got - 2010.06.03 11:33:40.
