data_PCOD9018285
_publ_section_title
;
Structure prediction by ZEFSAII (Michael W. Deem and Ramdas Pophale) SiO2 
 PCOD9018285
Probable space group: P -1
;
_chemical_formula_sum "Si O2"
_cell_formula_units_Z 14
_cell_length_a 8.347609
_cell_length_b 16.809537
_cell_length_c 13.142713
_cell_angle_alpha 22.628933
_cell_angle_beta 131.424960
_cell_angle_gamma 125.235817
_cell_volume 528.395580
_symmetry_space_group_name_H-M "P -1"
_symmetry_group_IT_number 2
_symmetry_cell_setting 'triclinic'
loop_
_space_group_symop_operation_xyz
x,y,z
-x,-y,-z
loop_
_atom_site_type_symbol
_atom_site_label
_atom_site_fract_x
_atom_site_fract_y
_atom_site_fract_z
Si Si1 0.721554 0.196877 0.941763
Si Si2 0.366055 0.161080 0.532942
Si Si3 0.055337 0.689346 0.561769
Si Si4 0.802762 0.868110 0.079449
Si Si5 0.497429 0.251549 0.273151
Si Si6 0.833261 0.678761 0.106255
Si Si7 0.331677 0.421076 0.382770
O O1 0.533026 0.259306 0.705517
O O2 0.650900 0.364112 0.804449
O O3 0.947098 0.233678 0.940962
O O4 0.756476 0.974564 0.277794
O O5 0.337018 0.183353 0.373798
O O6 0.375836 0.384699 0.324621
O O7 0.595120 0.025221 0.793106
O O8 0.831559 0.792388 0.295935
O O9 0.933471 0.575012 0.731037
O O10 0.246266 0.815645 0.527218
O O11 0.140952 0.546612 0.670521
O O12 0.813423 0.697182 0.197117
O O13 0.000000 0.000000 0.000000
O O14 0.500000 0.500000 0.000000
O O15 0.386426 0.213710 0.164664
#
# Coordination Sequence:
#
# PCOD9018285 Si02
#       7
#     2   2   2   2   2   2   2
#     4  10  22  39  65 100 132 170 217 266 338 386
#     4  12  24  39  68  97 131 173 217 270 327 391
#     4  10  21  43  69  95 128 173 221 268 329 385
#     4  12  23  38  66 103 124 169 224 272 329 378
#     4  10  24  46  65  94 133 178 220 264 330 388
#     4  10  24  43  64  93 137 171 214 275 319 395
#     4  10  22  41  66  99 136 166 212 281 326 387
#
# _framework density 26.495298999999999
#
# number of rings (size 3 to 8) (size 9 to 14) (size 15 to 20)
#    0.000    1.429    2.857    1.714    2.000    3.429 
#    0.000    7.857    0.000    0.000    0.000    0.000 
#    0.000    0.000    0.000    0.000    0.000    0.000 
#
# Total GULP energy -78081.724348 kJ/mol
# GULP energy per Si atom -5577.266025 kJ/mol
# Density = 2.643499 g / cm^3
# Si number density = 26.495299 Si / 1000 Ang^3
#
#
#
# Elastic Constant Matrix: (Units=GPa)
#
#
# Indices 1 2 3 4 5 6 
#
# 1 95.9046 32.2099 7.0103 13.2111 9.7932 15.6775
# 2 32.2099 130.0789 17.6445 12.4203 7.3457 7.8809
# 3 7.0103 17.6445 47.5348 7.5641 11.6397 3.1590
# 4 13.2111 12.4203 7.5641 46.8203 -4.7463 12.6450
# 5 9.7932 7.3457 11.6397 -4.7463 28.3717 -5.0618
# 6 15.6775 7.8809 3.1590 12.6450 -5.0618 35.4506
#
#
#
# Elastic Compliance Matrix: (Units=1/GPa)
#
#
# Indices 1 2 3 4 5 6 
#
# 1 0.012931 -0.002498 0.001106 -0.002318 -0.005592 -0.005233
# 2 -0.002498 0.008819 -0.002538 -0.001211 -0.000634 -0.000288
# 3 0.001106 -0.002538 0.025406 -0.004271 -0.011268 -0.002274
# 4 -0.002318 -0.001211 -0.004271 0.025391 0.005948 -0.006532
# 5 -0.005592 -0.000634 -0.011268 0.005948 0.044355 0.007830
# 6 -0.005233 -0.000288 -0.002274 -0.006532 0.007830 0.034237
#
#
# Mechanical properties :
#
#
# Convention : Reuss Voigt Hill
#
# Bulk Modulus (GPa) = 25.44736 43.02752 34.23744
# Shear Modulus (GPa) = 29.05306 36.57209 32.81258
#
# Velocity S-wave (km/s) = 3.31499 3.71930 3.52295
# Velocity P-wave (km/s) = 4.92723 5.89230 5.43124
#
# Compressibility (1/GPa) = 0.03929680
#
# Stress axis : x y z
#
# Youngs Moduli (GPa) = 77.33397 113.38717 39.36045
#
# Poissons Ratio (x) = 0.28322 -0.04354
# Poissons Ratio (y) = 0.19316 0.09990
# Poissons Ratio (z) = -0.08554 0.28780
#
# Static dielectric constant tensor:
#      x y z
#    x 1.772750 0.088900 0.365110 
#    y 0.088900 2.016020 -0.067140 
#    z 0.365110 -0.067140 2.001390 
# 
# From -- ./inp_files/154668.got.cif
#   From: 2010.05.17/outbox.cif.g08.bks.cpg/sg2_78_cif.got.tgz:154668.got - 2010.06.03 11:33:40.
