data_PCOD9018481
_publ_section_title
;
Structure prediction by ZEFSAII (Michael W. Deem and Ramdas Pophale) SiO2 
 PCOD9018481
Probable space group: P -1
;
_chemical_formula_sum "Si O2"
_cell_formula_units_Z 15
_cell_length_a 5.651982
_cell_length_b 13.687501
_cell_length_c 11.728688
_cell_angle_alpha 135.945398
_cell_angle_beta 69.938960
_cell_angle_gamma 105.148547
_cell_volume 592.487804
_symmetry_space_group_name_H-M "P -1"
_symmetry_group_IT_number 2
_symmetry_cell_setting 'triclinic'
loop_
_space_group_symop_operation_xyz
x,y,z
-x,-y,-z
loop_
_atom_site_type_symbol
_atom_site_label
_atom_site_fract_x
_atom_site_fract_y
_atom_site_fract_z
Si Si1 0.374038 0.479996 0.883686
Si Si2 0.014941 0.329833 0.545656
Si Si3 0.701765 0.671416 0.843298
Si Si4 0.562354 0.193291 0.354676
Si Si5 0.000000 0.500000 0.500000
Si Si6 0.957141 0.284080 0.776682
Si Si7 0.876046 0.109065 0.025238
Si Si8 0.335848 0.914790 0.187488
O O1 0.571845 0.533161 0.803745
O O2 0.252982 0.324883 0.766333
O O3 0.500000 0.500000 0.000000
O O4 0.160014 0.598158 0.021893
O O5 0.293126 0.266625 0.460435
O O6 0.801147 0.274520 0.442438
O O7 0.055144 0.485731 0.617660
O O8 0.897464 0.309198 0.674368
O O9 0.789085 0.620260 0.662579
O O10 0.938576 0.761785 0.928950
O O11 0.490590 0.789006 0.999338
O O12 0.648734 0.165502 0.187011
O O13 0.518959 0.043486 0.298517
O O14 0.842656 0.141967 0.729619
O O15 0.815466 0.031596 0.852473
O O16 0.000000 0.000000 0.000000
#
# Coordination Sequence:
#
# PCOD9018481 Si02
#       8
#     2   2   2   2   1   2   2   2
#     4  10  21  43  71 101 146 195 252 306 360 456
#     4  12  29  50  74 112 157 202 243 315 376 456
#     4  11  24  41  72 108 142 195 243 311 377 440
#     4  12  27  49  77 110 154 198 253 308 384 441
#     4  12  26  46  70 114 150 202 244 308 386 456
#     4  10  25  45  70 108 145 199 248 310 375 442
#     4  12  23  44  74 110 146 192 255 319 367 445
#     4  11  25  46  76 107 144 198 258 313 369 452
#
# _framework density 25.316977000000001
#
# number of rings (size 3 to 8) (size 9 to 14) (size 15 to 20)
#    0.000    0.800    2.667    3.600    3.733    3.733 
#    0.000    0.000    0.000    0.000    0.000    0.000 
#    0.000    0.000    0.000    0.000    0.000    0.000 
#
# Total GULP energy -83513.390569 kJ/mol
# GULP energy per Si atom -5567.559371 kJ/mol
# Density = 2.525935 g / cm^3
# Si number density = 25.316977 Si / 1000 Ang^3
#
#
#
# Elastic Constant Matrix: (Units=GPa)
#
#
# Indices 1 2 3 4 5 6 
#
# 1 85.7901 52.9229 33.9331 -11.0472 -12.8098 7.8295
# 2 52.9229 113.3583 13.5130 -21.3939 -4.5216 11.4595
# 3 33.9331 13.5130 70.7334 -24.7916 -18.9837 -7.8986
# 4 -11.0472 -21.3939 -24.7916 39.4597 -0.9024 -1.5546
# 5 -12.8098 -4.5216 -18.9837 -0.9024 42.5480 -4.5258
# 6 7.8295 11.4595 -7.8986 -1.5546 -4.5258 37.7240
#
#
#
# Elastic Compliance Matrix: (Units=1/GPa)
#
#
# Indices 1 2 3 4 5 6 
#
# 1 0.021486 -0.009469 -0.011225 -0.006340 -0.000128 -0.004210
# 2 -0.009469 0.014333 0.004771 0.008100 0.000872 -0.000951
# 3 -0.011225 0.004771 0.029161 0.018388 0.011499 0.009123
# 4 -0.006340 0.008100 0.018388 0.039920 0.008575 0.005379
# 5 -0.000128 0.000872 0.011499 0.008575 0.029514 0.006064
# 6 -0.004210 -0.000951 0.009123 0.005379 0.006064 0.030530
#
#
# Mechanical properties :
#
#
# Convention : Reuss Voigt Hill
#
# Bulk Modulus (GPa) = 30.18053 52.29110 41.23581
# Shear Modulus (GPa) = 24.05740 35.24718 29.65229
#
# Velocity S-wave (km/s) = 3.08595 3.73531 3.42605
# Velocity P-wave (km/s) = 4.96431 6.26920 5.65452
#
# Compressibility (1/GPa) = 0.03313395
#
# Stress axis : x y z
#
# Youngs Moduli (GPa) = 46.54088 69.76746 34.29259
#
# Poissons Ratio (x) = 0.66064 0.38495
# Poissons Ratio (y) = 0.44070 -0.16362
# Poissons Ratio (z) = 0.52244 -0.33287
#
# Static dielectric constant tensor:
#      x y z
#    x 2.076400 -0.021180 -0.105060 
#    y -0.021180 2.438640 0.080540 
#    z -0.105060 0.080540 2.086970 
# 
# From -- ./inp_files/367138.got.cif
#   From: 2010.05.17/outbox.cif.g08.bks.cpg/sg2_184_cif.got.tgz:367138.got - 2010.06.03 11:33:40.
