data_PCOD9018552
_publ_section_title
;
Structure prediction by ZEFSAII (Michael W. Deem and Ramdas Pophale) SiO2 
 PCOD9018552
Probable space group: P -1
;
_chemical_formula_sum "Si O2"
_cell_formula_units_Z 16
_cell_length_a 11.140824
_cell_length_b 27.916651
_cell_length_c 9.743595
_cell_angle_alpha 29.663275
_cell_angle_beta 138.068357
_cell_angle_gamma 148.622036
_cell_volume 780.866479
_symmetry_space_group_name_H-M "P -1"
_symmetry_group_IT_number 2
_symmetry_cell_setting 'triclinic'
loop_
_space_group_symop_operation_xyz
x,y,z
-x,-y,-z
loop_
_atom_site_type_symbol
_atom_site_label
_atom_site_fract_x
_atom_site_fract_y
_atom_site_fract_z
Si Si1 0.968396 0.739507 0.065468
Si Si2 0.461036 0.213909 0.043076
Si Si3 0.284430 0.362291 0.610540
Si Si4 0.020106 0.587322 0.919262
Si Si5 0.846107 0.408975 0.471345
Si Si6 0.202040 0.125752 0.777383
Si Si7 0.935084 0.023320 0.533167
Si Si8 0.618301 0.643058 0.769344
O O1 0.880457 0.716518 0.203654
O O2 0.095101 0.681677 0.287334
O O3 0.740882 0.669317 0.952852
O O4 0.107508 0.878843 0.783300
O O5 0.720963 0.294476 0.116652
O O6 0.289431 0.096123 0.288029
O O7 0.384831 0.299420 0.786928
O O8 0.414535 0.173746 0.942907
O O9 0.500000 0.500000 0.500000
O O10 0.133249 0.374149 0.349709
O O11 0.000000 0.500000 0.000000
O O12 0.917356 0.499291 0.180977
O O13 0.580172 0.342959 0.432953
O O14 0.000000 0.500000 0.500000
O O15 0.204070 0.244909 0.464715
O O16 0.142239 0.078894 0.683532
O O17 0.000000 0.000000 0.000000
O O18 0.000000 0.000000 0.500000
O O19 0.500000 0.500000 0.000000
#
# Coordination Sequence:
#
# PCOD9018552 Si02
#       8
#     2   2   2   2   2   2   2   2
#     4  11  23  41  62  96 131 168 224 272 330 396
#     4  11  23  43  67  94 139 178 222 281 330 401
#     4  12  23  38  66  95 134 178 219 275 343 392
#     4  12  25  39  62 101 133 171 225 273 337 404
#     4  12  24  40  63  96 136 167 214 280 337 400
#     4   9  22  42  66  96 133 175 227 274 336 404
#     4  10  21  43  71  98 129 184 233 272 327 407
#     4  11  23  38  68  96 127 173 220 271 343 400
#
# _framework density 20.490058999999999
#
# number of rings (size 3 to 8) (size 9 to 14) (size 15 to 20)
#    0.000    1.000    5.000    1.500    3.500    0.000 
#    0.000    4.375    0.000    6.750    0.000    0.000 
#    0.000    0.000    0.000    0.000    0.000    0.000 
#
# Total GULP energy -89252.846021 kJ/mol
# GULP energy per Si atom -5578.302876 kJ/mol
# Density = 2.044342 g / cm^3
# Si number density = 20.490059 Si / 1000 Ang^3
#
#
#
# Elastic Constant Matrix: (Units=GPa)
#
#
# Indices 1 2 3 4 5 6 
#
# 1 62.9833 36.5593 43.0201 15.3398 -4.6610 -0.9796
# 2 36.5593 132.9918 67.7265 11.1601 -3.1382 5.0122
# 3 43.0201 67.7265 157.4184 11.2050 -14.9002 4.9649
# 4 15.3398 11.1601 11.2050 42.6890 6.0137 -4.5340
# 5 -4.6610 -3.1382 -14.9002 6.0137 45.7046 14.3463
# 6 -0.9796 5.0122 4.9649 -4.5340 14.3463 29.5628
#
#
#
# Elastic Compliance Matrix: (Units=1/GPa)
#
#
# Indices 1 2 3 4 5 6 
#
# 1 0.022290 -0.003551 -0.004000 -0.006192 0.001423 0.000372
# 2 -0.003551 0.010328 -0.003417 -0.000618 -0.000295 -0.001247
# 3 -0.004000 -0.003417 0.009406 -0.000943 0.003479 -0.002966
# 4 -0.006192 -0.000618 -0.000943 0.027884 -0.007091 0.007776
# 5 0.001423 -0.000295 0.003479 -0.007091 0.028981 -0.015638
# 6 0.000372 -0.001247 -0.002966 0.007776 -0.015638 0.043330
#
#
# Mechanical properties :
#
#
# Convention : Reuss Voigt Hill
#
# Bulk Modulus (GPa) = 49.78511 72.00057 60.89284
# Shear Modulus (GPa) = 29.26535 37.33044 33.29790
#
# Velocity S-wave (km/s) = 3.78335 4.27298 4.03560
# Velocity P-wave (km/s) = 6.59052 7.71751 7.17617
#
# Compressibility (1/GPa) = 0.02008633
#
# Stress axis : x y z
#
# Youngs Moduli (GPa) = 44.86317 96.82695 106.31704
#
# Poissons Ratio (x) = 0.34387 0.42525
# Poissons Ratio (y) = 0.15932 0.36333
# Poissons Ratio (z) = 0.17945 0.33089
#
# Static dielectric constant tensor:
#      x y z
#    x 1.751320 0.027790 -0.034740 
#    y 0.027790 1.772910 -0.052900 
#    z -0.034740 -0.052900 1.722240 
# 
# From -- ./inp_files/285776.got.cif
#   From: 2010.05.17/outbox.cif.g08.bks.cpg/sg2_143_cif.got.tgz:285776.got - 2010.06.03 11:33:40.
