data_PCOD9018462
_publ_section_title
;
Structure prediction by ZEFSAII (Michael W. Deem and Ramdas Pophale) SiO2 
 PCOD9018462
Probable space group: P -1
;
_chemical_formula_sum "Si O2"
_cell_formula_units_Z 16
_cell_length_a 9.189746
_cell_length_b 11.415375
_cell_length_c 15.277307
_cell_angle_alpha 26.873074
_cell_angle_beta 87.095648
_cell_angle_gamma 78.289415
_cell_volume 677.872226
_symmetry_space_group_name_H-M "P -1"
_symmetry_group_IT_number 2
_symmetry_cell_setting 'triclinic'
loop_
_space_group_symop_operation_xyz
x,y,z
-x,-y,-z
loop_
_atom_site_type_symbol
_atom_site_label
_atom_site_fract_x
_atom_site_fract_y
_atom_site_fract_z
Si Si1 0.853112 0.097739 0.224686
Si Si2 0.256152 0.685098 0.363531
Si Si3 0.936357 0.932420 0.140917
Si Si4 0.581488 0.839726 0.385009
Si Si5 0.432672 0.794472 0.588363
Si Si6 0.180152 0.760397 0.513668
Si Si7 0.315017 0.115239 0.941904
Si Si8 0.380204 0.438242 0.979681
O O1 0.896799 0.122521 0.104107
O O2 0.723910 0.949637 0.323978
O O3 0.782696 0.384792 0.089037
O O4 0.998594 0.905678 0.404604
O O5 0.250280 0.747350 0.423541
O O6 0.621198 0.613153 0.460812
O O7 0.086443 0.683247 0.338074
O O8 0.281537 0.921709 0.145892
O O9 0.777156 0.900974 0.134137
O O10 0.000000 0.000000 0.000000
O O11 0.547847 0.693095 0.570727
O O12 0.433427 0.111804 0.190371
O O13 0.259372 0.918200 0.470744
O O14 0.418851 0.560897 0.807683
O O15 0.500000 0.000000 0.500000
O O16 0.236805 0.438444 0.754804
O O17 0.500000 0.000000 0.000000
O O18 0.500000 0.500000 0.000000
#
# Coordination Sequence:
#
# PCOD9018462 Si02
#       8
#     2   2   2   2   2   2   2   2
#     4  10  21  43  70  99 136 189 228 281 345 406
#     4  10  23  43  67 105 138 182 222 277 351 407
#     4   9  20  40  67 100 142 178 227 277 341 414
#     4  11  23  43  74  98 142 182 231 277 337 418
#     4  12  25  47  67 100 133 182 236 286 342 408
#     4  11  26  43  68 100 144 172 226 292 345 409
#     4  11  23  40  62 104 138 176 222 273 343 405
#     4  10  23  44  69  99 132 179 236 279 336 402
#
# _framework density 23.603266999999999
#
# number of rings (size 3 to 8) (size 9 to 14) (size 15 to 20)
#    0.000    1.500    2.500    2.250    0.000   14.500 
#    0.000    5.625    0.000    0.000    0.000    0.000 
#    0.000    0.000    0.000    0.000    0.000    0.000 
#
# Total GULP energy -89390.840241 kJ/mol
# GULP energy per Si atom -5586.927515 kJ/mol
# Density = 2.354954 g / cm^3
# Si number density = 23.603267 Si / 1000 Ang^3
#
#
#
# Elastic Constant Matrix: (Units=GPa)
#
#
# Indices 1 2 3 4 5 6 
#
# 1 125.5887 50.5552 55.9337 -9.9395 15.7299 7.0153
# 2 50.5552 91.3161 74.5775 -5.2792 9.7122 -7.0425
# 3 55.9337 74.5775 141.7118 -4.8005 -0.7377 -8.4434
# 4 -9.9395 -5.2792 -4.8005 48.0858 -16.4985 3.7889
# 5 15.7299 9.7122 -0.7377 -16.4985 34.6940 10.2464
# 6 7.0153 -7.0425 -8.4434 3.7889 10.2464 51.4739
#
#
#
# Elastic Compliance Matrix: (Units=1/GPa)
#
#
# Indices 1 2 3 4 5 6 
#
# 1 0.011204 -0.003999 -0.002423 0.000719 -0.003107 -0.001906
# 2 -0.003999 0.022155 -0.009978 -0.001883 -0.006492 0.003371
# 3 -0.002423 -0.009978 0.013341 0.001375 0.004801 0.000097
# 4 0.000719 -0.001883 0.001375 0.026084 0.014067 -0.004850
# 5 -0.003107 -0.006492 0.004801 0.014067 0.041491 -0.008972
# 6 -0.001906 0.003371 0.000097 -0.004850 -0.008972 0.022307
#
#
# Mechanical properties :
#
#
# Convention : Reuss Voigt Hill
#
# Bulk Modulus (GPa) = 71.93833 80.08327 76.01080
# Shear Modulus (GPa) = 28.73300 38.68742 33.71021
#
# Velocity S-wave (km/s) = 3.49281 4.05294 3.78325
# Velocity P-wave (km/s) = 6.84183 7.47692 7.16641
#
# Compressibility (1/GPa) = 0.01390079
#
# Stress axis : x y z
#
# Youngs Moduli (GPa) = 89.25430 45.13578 74.95496
#
# Poissons Ratio (x) = 0.18049 0.18163
# Poissons Ratio (y) = 0.35691 0.74790
# Poissons Ratio (z) = 0.21628 0.45036
#
# Static dielectric constant tensor:
#      x y z
#    x 1.962880 -0.003310 -0.007770 
#    y -0.003310 1.901990 -0.008650 
#    z -0.007770 -0.008650 1.891340 
# 
# From -- ./inp_files/499717.got.cif
#   From: 2010.05.17/outbox.cif.g08.bks.cpg/sg2_250_cif.got.tgz:499717.got - 2010.06.03 11:33:40.
