data_PCOD9018734
_publ_section_title
;
Structure prediction by ZEFSAII (Michael W. Deem and Ramdas Pophale) SiO2 
 PCOD9018734
Probable space group: P -1
;
_chemical_formula_sum "Si O2"
_cell_formula_units_Z 16
_cell_length_a 5.345678
_cell_length_b 7.167853
_cell_length_c 23.435799
_cell_angle_alpha 100.957222
_cell_angle_beta 124.076133
_cell_angle_gamma 86.061655
_cell_volume 729.449877
_symmetry_space_group_name_H-M "P -1"
_symmetry_group_IT_number 2
_symmetry_cell_setting 'triclinic'
loop_
_space_group_symop_operation_xyz
x,y,z
-x,-y,-z
loop_
_atom_site_type_symbol
_atom_site_label
_atom_site_fract_x
_atom_site_fract_y
_atom_site_fract_z
Si Si1 0.420188 0.662502 0.057282
Si Si2 0.177798 0.532286 0.283490
Si Si3 0.194653 0.347219 0.087745
Si Si4 0.047516 0.695849 0.159303
Si Si5 0.417877 0.999395 0.168415
Si Si6 0.268826 0.697312 0.703251
Si Si7 0.066577 0.111376 0.425384
Si Si8 0.435025 0.137546 0.585655
O O1 0.381188 0.450275 0.066286
O O2 0.758353 0.687059 0.079681
O O3 0.444641 0.820277 0.119611
O O4 0.140482 0.695471 0.982839
O O5 0.012012 0.640854 0.217462
O O6 0.405035 0.379267 0.277549
O O7 0.395471 0.684151 0.352888
O O8 0.926410 0.442472 0.288546
O O9 0.216507 0.515570 0.146577
O O10 0.302878 0.161601 0.121358
O O11 0.197899 0.904006 0.182568
O O12 0.684491 0.104917 0.244076
O O13 0.081595 0.735053 0.624539
O O14 0.759637 0.809114 0.491696
O O15 0.311355 0.001290 0.413235
O O16 0.797464 0.969017 0.406475
#
# Coordination Sequence:
#
# PCOD9018734 Si02
#       8
#     2   2   2   2   2   2   2   2
#     4  10  23  38  67  88 124 173 208 280 331 394
#     4  12  26  42  66  95 135 174 219 277 324 386
#     4  10  21  44  59  93 127 159 223 270 334 397
#     4  11  24  39  63  91 126 172 216 273 333 388
#     4  11  24  39  63  92 128 170 220 270 329 395
#     4  12  26  42  66  96 134 175 220 276 321 392
#     4  10  22  42  68  98 132 173 221 269 326 389
#     4  10  22  42  68  97 134 173 218 273 323 390
#
# _framework density 21.934339000000001
#
# number of rings (size 3 to 8) (size 9 to 14) (size 15 to 20)
#    0.000    1.250    1.250    3.750    5.250    2.500 
#    0.000    0.000    0.000    0.000    0.000    0.000 
#    0.000    0.000    0.000    0.000    0.000    0.000 
#
# Total GULP energy -89316.752432 kJ/mol
# GULP energy per Si atom -5582.297027 kJ/mol
# Density = 2.188442 g / cm^3
# Si number density = 21.934339 Si / 1000 Ang^3
#
#
#
# Elastic Constant Matrix: (Units=GPa)
#
#
# Indices 1 2 3 4 5 6 
#
# 1 55.9233 14.8907 11.7635 -3.8515 8.7614 8.9737
# 2 14.8907 94.7686 32.9366 -7.1334 0.3649 13.2692
# 3 11.7635 32.9366 96.5839 5.1004 4.7560 14.9132
# 4 -3.8515 -7.1334 5.1004 44.2444 2.0778 -1.8048
# 5 8.7614 0.3649 4.7560 2.0778 29.5844 1.6716
# 6 8.9737 13.2692 14.9132 -1.8048 1.6716 29.9171
#
#
#
# Elastic Compliance Matrix: (Units=1/GPa)
#
#
# Indices 1 2 3 4 5 6 
#
# 1 0.020336 -0.002142 -0.000888 0.001621 -0.005725 -0.004289
# 2 -0.002142 0.012794 -0.003795 0.002136 0.001110 -0.003074
# 3 -0.000888 -0.003795 0.012620 -0.002262 -0.001311 -0.004405
# 4 0.001621 0.002136 -0.002262 0.023485 -0.001861 0.001215
# 5 -0.005725 0.001110 -0.001311 -0.001861 0.035838 -0.000236
# 6 -0.004289 -0.003074 -0.004405 0.001215 -0.000236 0.038358
#
#
# Mechanical properties :
#
#
# Convention : Reuss Voigt Hill
#
# Bulk Modulus (GPa) = 31.15231 40.71749 35.93490
# Shear Modulus (GPa) = 29.80079 33.26153 31.53116
#
# Velocity S-wave (km/s) = 3.68997 3.89834 3.79558
# Velocity P-wave (km/s) = 5.69103 6.23429 5.96885
#
# Compressibility (1/GPa) = 0.03210035
#
# Stress axis : x y z
#
# Youngs Moduli (GPa) = 49.17497 78.15884 79.23847
#
# Poissons Ratio (x) = 0.16742 0.07034
# Poissons Ratio (y) = 0.10534 0.30072
# Poissons Ratio (z) = 0.04365 0.29662
#
# Static dielectric constant tensor:
#      x y z
#    x 1.953400 -0.041870 -0.013420 
#    y -0.041870 1.769960 -0.004800 
#    z -0.013420 -0.004800 1.778730 
# 
# From -- ./inp_files/10829.got.cif
#   From: 2010.05.17/outbox.cif.g08.bks.cpg/sg2_6_cif.got.tgz:10829.got - 2010.06.03 11:33:40.
