data_PCOD9018795
_publ_section_title
;
Structure prediction by ZEFSAII (Michael W. Deem and Ramdas Pophale) SiO2 
 PCOD9018795
Probable space group: P -1
;
_chemical_formula_sum "Si O2"
_cell_formula_units_Z 14
_cell_length_a 8.002752
_cell_length_b 10.602623
_cell_length_c 11.138007
_cell_angle_alpha 87.914509
_cell_angle_beta 46.431937
_cell_angle_gamma 62.907429
_cell_volume 550.320216
_symmetry_space_group_name_H-M "P -1"
_symmetry_group_IT_number 2
_symmetry_cell_setting 'triclinic'
loop_
_space_group_symop_operation_xyz
x,y,z
-x,-y,-z
loop_
_atom_site_type_symbol
_atom_site_label
_atom_site_fract_x
_atom_site_fract_y
_atom_site_fract_z
Si Si1 0.392283 0.207068 0.602722
Si Si2 0.934410 0.225855 0.999869
Si Si3 0.226663 0.497317 0.799900
Si Si4 0.301112 0.949351 0.998933
Si Si5 0.058705 0.633785 0.370315
Si Si6 0.109166 0.355242 0.280108
Si Si7 0.989124 0.064908 0.633640
O O1 0.441303 0.321775 0.648894
O O2 0.266653 0.271523 0.529621
O O3 0.314669 0.963990 0.526306
O O4 0.128160 0.226373 0.801227
O O5 0.708282 0.398882 0.160027
O O6 0.160744 0.111467 0.994580
O O7 0.795167 0.144420 0.023416
O O8 0.077650 0.591786 0.747942
O O9 0.000000 0.500000 0.000000
O O10 0.180965 0.967117 0.189858
O O11 0.639586 0.827591 0.839274
O O12 0.214363 0.468142 0.230570
O O13 0.144280 0.751306 0.306138
O O14 0.051553 0.611977 0.516120
O O15 0.000000 0.000000 0.500000
#
# Coordination Sequence:
#
# PCOD9018795 Si02
#       7
#     2   2   2   2   2   2   2
#     4  10  21  44  64  85 124 168 204 244 306 376
#     4  10  22  41  64  91 121 166 203 246 311 363
#     4   9  21  40  66  88 114 164 208 247 301 361
#     4  11  25  39  61  96 125 159 203 255 304 359
#     4  10  22  44  65  89 122 170 200 247 311 364
#     4  10  23  41  67  92 121 158 212 253 299 363
#     4  12  27  39  61  94 127 161 203 255 308 355
#
# _framework density 25.439734000000001
#
# number of rings (size 3 to 8) (size 9 to 14) (size 15 to 20)
#    0.000    1.714    1.429    1.286   10.000    2.286 
#    0.000    0.714    0.000    0.000    0.000    0.000 
#    0.000    0.000    0.000    0.000    0.000    0.000 
#
# Total GULP energy -78389.438000 kJ/mol
# GULP energy per Si atom -5599.245571 kJ/mol
# Density = 2.538183 g / cm^3
# Si number density = 25.439734 Si / 1000 Ang^3
#
#
#
# Elastic Constant Matrix: (Units=GPa)
#
#
# Indices 1 2 3 4 5 6 
#
# 1 67.3065 18.9779 18.2971 3.1279 22.2594 7.3011
# 2 18.9779 115.9686 26.3282 2.7636 13.8104 -5.0179
# 3 18.2971 26.3282 87.5920 -10.1553 22.9274 -4.3077
# 4 3.1279 2.7636 -10.1553 34.1779 -5.7508 11.5253
# 5 22.2594 13.8104 22.9274 -5.7508 40.0221 8.9795
# 6 7.3011 -5.0179 -4.3077 11.5253 8.9795 33.1551
#
#
#
# Elastic Compliance Matrix: (Units=1/GPa)
#
#
# Indices 1 2 3 4 5 6 
#
# 1 0.019109 -0.001625 -0.001444 -0.003344 -0.009519 -0.000901
# 2 -0.001625 0.009866 -0.002171 -0.002761 -0.002364 0.003169
# 3 -0.001444 -0.002171 0.014680 0.002455 -0.007175 0.002986
# 4 -0.003344 -0.002761 0.002455 0.037311 0.010151 -0.015082
# 5 -0.009519 -0.002364 -0.007175 0.010151 0.039687 -0.013471
# 6 -0.000901 0.003169 0.002986 -0.015082 -0.013471 0.040119
#
#
# Mechanical properties :
#
#
# Convention : Reuss Voigt Hill
#
# Bulk Modulus (GPa) = 30.14290 44.23038 37.18664
# Shear Modulus (GPa) = 27.42542 35.28861 31.35702
#
# Velocity S-wave (km/s) = 3.28694 3.72848 3.51465
# Velocity P-wave (km/s) = 5.12638 5.99662 5.57850
#
# Compressibility (1/GPa) = 0.03317530
#
# Stress axis : x y z
#
# Youngs Moduli (GPa) = 52.33075 101.35343 68.11798
#
# Poissons Ratio (x) = 0.16471 0.09835
# Poissons Ratio (y) = 0.08505 0.14792
# Poissons Ratio (z) = 0.07555 0.22009
#
# Static dielectric constant tensor:
#      x y z
#    x 2.125700 0.051310 0.017320 
#    y 0.051310 2.000180 0.032960 
#    z 0.017320 0.032960 1.924610 
# 
# From -- ./inp_files/390684.got.cif
#   From: 2010.05.17/outbox.cif.g08.bks.cpg/sg2_196_cif.got.tgz:390684.got - 2010.06.03 11:33:40.
