data_PCOD9018145
_publ_section_title
;
Structure prediction by ZEFSAII (Michael W. Deem and Ramdas Pophale) SiO2 
 PCOD9018145
Probable space group: P -1
;
_chemical_formula_sum "Si O2"
_cell_formula_units_Z 16
_cell_length_a 9.882428
_cell_length_b 14.072398
_cell_length_c 9.189349
_cell_angle_alpha 131.091401
_cell_angle_beta 116.119693
_cell_angle_gamma 99.863630
_cell_volume 633.468983
_symmetry_space_group_name_H-M "P -1"
_symmetry_group_IT_number 2
_symmetry_cell_setting 'triclinic'
loop_
_space_group_symop_operation_xyz
x,y,z
-x,-y,-z
loop_
_atom_site_type_symbol
_atom_site_label
_atom_site_fract_x
_atom_site_fract_y
_atom_site_fract_z
Si Si1 0.780060 0.462455 0.581535
Si Si2 0.200210 0.273017 0.767093
Si Si3 0.190342 0.105574 0.868664
Si Si4 0.345259 0.523529 0.745681
Si Si5 0.221467 0.187271 0.291222
Si Si6 0.333415 0.627242 0.226126
Si Si7 0.552214 0.115988 0.002713
Si Si8 0.233207 0.728278 0.017800
O O1 0.626752 0.451336 0.391517
O O2 0.739577 0.422225 0.691127
O O3 0.749651 0.304363 0.346155
O O4 0.001953 0.644780 0.831843
O O5 0.154263 0.202780 0.841639
O O6 0.436542 0.361800 0.955498
O O7 0.222361 0.435938 0.920710
O O8 0.024513 0.094403 0.422241
O O9 0.267765 0.200039 0.154320
O O10 0.354878 0.096949 0.875177
O O11 0.218966 0.324602 0.497014
O O12 0.241307 0.591606 0.816770
O O13 0.419542 0.240118 0.515841
O O14 0.000000 0.000000 0.000000
O O15 0.284960 0.722931 0.204461
O O16 0.622644 0.114976 0.871793
O O17 0.500000 0.000000 0.000000
#
# Coordination Sequence:
#
# PCOD9018145 Si02
#       8
#     2   2   2   2   2   2   2   2
#     4  11  22  46  70  96 134 189 234 274 334 413
#     4  10  22  38  70  97 135 174 220 281 343 402
#     4  11  22  42  64 102 136 177 228 278 348 403
#     4  10  21  43  68  96 132 179 232 274 336 407
#     4  11  25  38  68 100 140 174 223 284 348 404
#     4  11  24  43  69 102 139 179 227 280 344 409
#     4  11  24  44  70  97 137 181 232 286 339 404
#     4  11  25  43  70 100 133 185 236 278 332 417
#
# _framework density 25.257746999999998
#
# number of rings (size 3 to 8) (size 9 to 14) (size 15 to 20)
#    0.000    1.250    3.750    2.625    5.250    4.000 
#    0.000    0.625    0.000    0.000    0.000    0.000 
#    0.000    0.000    0.000    0.000    0.000    0.000 
#
# Total GULP energy -89279.323936 kJ/mol
# GULP energy per Si atom -5579.957746 kJ/mol
# Density = 2.520026 g / cm^3
# Si number density = 25.257747 Si / 1000 Ang^3
#
#
#
# Elastic Constant Matrix: (Units=GPa)
#
#
# Indices 1 2 3 4 5 6 
#
# 1 40.5897 5.5291 22.2822 3.6623 11.4167 23.2474
# 2 5.5291 155.7963 23.2498 -3.1644 18.9145 28.3471
# 3 22.2822 23.2498 133.9593 11.6455 8.3975 3.8338
# 4 3.6623 -3.1644 11.6455 53.1614 10.0869 -2.0995
# 5 11.4167 18.9145 8.3975 10.0869 28.3165 -0.1616
# 6 23.2474 28.3471 3.8338 -2.0995 -0.1616 38.0550
#
#
#
# Elastic Compliance Matrix: (Units=1/GPa)
#
#
# Indices 1 2 3 4 5 6 
#
# 1 0.063528 0.011500 -0.009472 0.002558 -0.031662 -0.046414
# 2 0.011500 0.010526 -0.002774 0.002083 -0.011669 -0.014521
# 3 -0.009472 -0.002774 0.009268 -0.001968 0.003663 0.006826
# 4 0.002558 0.002083 -0.001968 0.020880 -0.009287 -0.001803
# 5 -0.031662 -0.011669 0.003663 -0.009287 0.058254 0.027400
# 6 -0.046414 -0.014521 0.006826 -0.001803 0.027400 0.064778
#
#
# Mechanical properties :
#
#
# Convention : Reuss Voigt Hill
#
# Bulk Modulus (GPa) = 12.22044 48.05192 30.13618
# Shear Modulus (GPa) = 19.53112 42.52554 31.02833
#
# Velocity S-wave (km/s) = 2.78379 4.10770 3.50875
# Velocity P-wave (km/s) = 3.89634 6.44698 5.32658
#
# Compressibility (1/GPa) = 0.08183013
#
# Stress axis : x y z
#
# Youngs Moduli (GPa) = 15.74105 95.00709 107.89811
#
# Poissons Ratio (x) = -1.09257 1.02202
# Poissons Ratio (y) = -0.18102 0.29926
# Poissons Ratio (z) = 0.14910 0.26351
#
# Static dielectric constant tensor:
#      x y z
#    x 2.038910 0.077770 -0.029780 
#    y 0.077770 2.185270 -0.019260 
#    z -0.029780 -0.019260 1.984270 
# 
# From -- ./inp_files/274136.got.cif
#   From: 2010.05.17/outbox.cif.g08.bks.cpg/sg2_138_cif.got.tgz:274136.got - 2010.06.03 11:33:40.
