data_PCOD9018125
_publ_section_title
;
Structure prediction by ZEFSAII (Michael W. Deem and Ramdas Pophale) SiO2 
 PCOD9018125
Probable space group: P -1
;
_chemical_formula_sum "Si O2"
_cell_formula_units_Z 15
_cell_length_a 17.927733
_cell_length_b 16.509917
_cell_length_c 4.989060
_cell_angle_alpha 66.686546
_cell_angle_beta 109.735298
_cell_angle_gamma 155.066562
_cell_volume 570.836023
_symmetry_space_group_name_H-M "P -1"
_symmetry_group_IT_number 2
_symmetry_cell_setting 'triclinic'
loop_
_space_group_symop_operation_xyz
x,y,z
-x,-y,-z
loop_
_atom_site_type_symbol
_atom_site_label
_atom_site_fract_x
_atom_site_fract_y
_atom_site_fract_z
Si Si1 0.886367 0.030026 0.134898
Si Si2 0.201630 0.803687 0.832410
Si Si3 0.829796 0.408662 0.151376
Si Si4 0.457415 0.756134 0.223553
Si Si5 0.483040 0.306923 0.115620
Si Si6 0.948354 0.659874 0.350563
Si Si7 0.000000 0.000000 0.500000
Si Si8 0.808888 0.710821 0.194413
O O1 0.714082 0.860311 0.972272
O O2 0.835073 0.794194 0.375969
O O3 0.873442 0.964863 0.476227
O O4 0.967811 0.207818 0.984994
O O5 0.040057 0.611437 0.077883
O O6 0.107228 0.781887 0.559479
O O7 0.371627 0.010531 0.918634
O O8 0.247546 0.765559 0.750340
O O9 0.717408 0.359345 0.881716
O O10 0.829502 0.461706 0.358482
O O11 0.503191 0.754794 0.560414
O O12 0.449584 0.671856 0.102804
O O13 0.614388 0.514328 0.095065
O O14 0.855654 0.653328 0.375110
O O15 0.951154 0.873361 0.909000
#
# Coordination Sequence:
#
# PCOD9018125 Si02
#       8
#     2   2   2   2   2   2   1   2
#     4  10  25  45  70 105 136 187 231 299 355 441
#     4  11  24  42  68 104 145 192 245 300 355 415
#     4  11  24  42  68 104 145 192 245 300 355 415
#     4  12  25  46  68 111 142 196 246 299 348 432
#     4  12  26  45  79 102 144 190 248 284 369 435
#     4  10  21  43  68  94 142 184 234 289 351 428
#     4  12  26  46  78 102 144 176 240 300 372 422
#     4  10  25  45  70 105 136 187 231 299 355 441
#
# _framework density 26.277249999999999
#
# number of rings (size 3 to 8) (size 9 to 14) (size 15 to 20)
#    0.800    0.267    2.667    2.800    9.333    0.533 
#    0.000    2.667    0.000    0.000    0.000    0.000 
#    0.000    0.000    0.000    0.000    0.000    0.000 
#
# Total GULP energy -83747.952716 kJ/mol
# GULP energy per Si atom -5583.196848 kJ/mol
# Density = 2.621744 g / cm^3
# Si number density = 26.277250 Si / 1000 Ang^3
#
#
#
# Elastic Constant Matrix: (Units=GPa)
#
#
# Indices 1 2 3 4 5 6 
#
# 1 71.8477 19.2401 26.0932 9.4405 -5.6132 -14.2002
# 2 19.2401 143.0216 -6.4678 25.2364 -7.0402 -4.0409
# 3 26.0932 -6.4678 73.0758 18.8849 3.1074 6.9887
# 4 9.4405 25.2364 18.8849 35.8025 -3.2026 5.7765
# 5 -5.6132 -7.0402 3.1074 -3.2026 34.3256 3.9024
# 6 -14.2002 -4.0409 6.9887 5.7765 3.9024 47.1579
#
#
#
# Elastic Compliance Matrix: (Units=1/GPa)
#
#
# Indices 1 2 3 4 5 6 
#
# 1 0.018858 -0.002604 -0.007715 0.000131 0.002536 0.006373
# 2 -0.002604 0.008849 0.003599 -0.007473 0.000329 0.000329
# 3 -0.007715 0.003599 0.019990 -0.010759 -0.002949 -0.003415
# 4 0.000131 -0.007473 -0.010759 0.039842 0.003656 -0.004189
# 5 0.002536 0.000329 -0.002949 0.003656 0.030420 -0.001736
# 6 0.006373 0.000329 -0.003415 -0.004189 -0.001736 0.024316
#
#
# Mechanical properties :
#
#
# Convention : Reuss Voigt Hill
#
# Bulk Modulus (GPa) = 29.19171 40.63069 34.91120
# Shear Modulus (GPa) = 29.91575 40.06249 34.98912
#
# Velocity S-wave (km/s) = 3.37778 3.90886 3.65298
# Velocity P-wave (km/s) = 5.13281 5.98900 5.57736
#
# Compressibility (1/GPa) = 0.03425630
#
# Stress axis : x y z
#
# Youngs Moduli (GPa) = 53.02743 113.00601 50.02382
#
# Poissons Ratio (x) = 0.29428 0.38596
# Poissons Ratio (y) = 0.13809 -0.18003
# Poissons Ratio (z) = 0.40913 -0.40669
#
# Static dielectric constant tensor:
#      x y z
#    x 2.132260 0.067230 -0.073880 
#    y 0.067230 2.081780 -0.185380 
#    z -0.073880 -0.185380 2.468330 
# 
# From -- ./inp_files/110480.got.cif
#   From: 2010.05.17/outbox.cif.g08.bks.cpg/sg2_56_cif.got.tgz:110480.got - 2010.06.03 11:33:40.
