data_PCOD9018237
_publ_section_title
;
Structure prediction by ZEFSAII (Michael W. Deem and Ramdas Pophale) SiO2 
 PCOD9018237
Probable space group: P -1
;
_chemical_formula_sum "Si O2"
_cell_formula_units_Z 13
_cell_length_a 10.383634
_cell_length_b 5.305182
_cell_length_c 14.415558
_cell_angle_alpha 112.911222
_cell_angle_beta 56.739030
_cell_angle_gamma 135.646020
_cell_volume 464.204053
_symmetry_space_group_name_H-M "P -1"
_symmetry_group_IT_number 2
_symmetry_cell_setting 'triclinic'
loop_
_space_group_symop_operation_xyz
x,y,z
-x,-y,-z
loop_
_atom_site_type_symbol
_atom_site_label
_atom_site_fract_x
_atom_site_fract_y
_atom_site_fract_z
Si Si1 0.080347 0.750178 0.883562
Si Si2 0.500000 0.500000 0.500000
Si Si3 0.698169 0.009605 0.989544
Si Si4 0.377464 0.039969 0.181259
Si Si5 0.751721 0.669469 0.246870
Si Si6 0.203928 0.719679 0.390235
Si Si7 0.240804 0.341355 0.457198
O O1 0.213291 0.015531 0.955711
O O2 0.159281 0.532156 0.799879
O O3 0.099158 0.968583 0.820300
O O4 0.856705 0.439811 0.967539
O O5 0.675346 0.739058 0.376886
O O6 0.354583 0.609703 0.533829
O O7 0.479026 0.876828 0.082195
O O8 0.687293 0.868741 0.871087
O O9 0.557521 0.387739 0.217007
O O10 0.205197 0.769297 0.287064
O O11 0.293251 0.543134 0.368607
O O12 0.000000 0.500000 0.500000
O O13 0.328788 0.139202 0.430076
O O14 0.000000 0.000000 0.500000
#
# Coordination Sequence:
#
# PCOD9018237 Si02
#       7
#     2   1   2   2   2   2   2
#     4  10  24  47  66 102 135 185 226 302 339 428
#     4  12  26  44  72 104 138 198 228 294 354 440
#     4   9  22  42  73  99 140 177 242 279 361 405
#     4  10  21  43  69 105 134 185 225 299 339 426
#     4  11  26  43  70  99 145 176 240 280 360 414
#     4  10  22  42  66  96 138 179 226 286 346 420
#     4  10  24  42  63  95 135 179 231 281 338 420
#
# _framework density 28.004926999999999
#
# number of rings (size 3 to 8) (size 9 to 14) (size 15 to 20)
#    0.000    1.846    1.538    0.000    4.308   13.538 
#    0.000    6.154    0.000    0.000    0.000    0.000 
#    0.000    0.000    0.000    0.000    0.000    0.000 
#
# Total GULP energy -72411.316689 kJ/mol
# GULP energy per Si atom -5570.101284 kJ/mol
# Density = 2.794119 g / cm^3
# Si number density = 28.004927 Si / 1000 Ang^3
#
#
#
# Elastic Constant Matrix: (Units=GPa)
#
#
# Indices 1 2 3 4 5 6 
#
# 1 104.2733 40.6675 44.1636 10.7364 -7.5077 -0.9826
# 2 40.6675 106.3765 35.9623 -25.0672 7.2138 -27.7524
# 3 44.1636 35.9623 222.3294 -22.2464 11.1106 -7.7479
# 4 10.7364 -25.0672 -22.2464 43.8542 10.5466 10.4974
# 5 -7.5077 7.2138 11.1106 10.5466 43.3588 -1.2214
# 6 -0.9826 -27.7524 -7.7479 10.4974 -1.2214 59.0474
#
#
#
# Elastic Compliance Matrix: (Units=1/GPa)
#
#
# Indices 1 2 3 4 5 6 
#
# 1 0.016574 -0.009227 -0.003554 -0.012633 0.008329 -0.002109
# 2 -0.009227 0.017837 0.000886 0.013414 -0.007892 0.005798
# 3 -0.003554 0.000886 0.005748 0.005095 -0.003471 0.000134
# 4 -0.012633 0.013414 0.005095 0.040033 -0.015481 -0.000674
# 5 0.008329 -0.007892 -0.003471 -0.015481 0.030456 -0.000644
# 6 -0.002109 0.005798 0.000134 -0.000674 -0.000644 0.019750
#
#
# Mechanical properties :
#
#
# Convention : Reuss Voigt Hill
#
# Bulk Modulus (GPa) = 61.08128 74.95177 68.01652
# Shear Modulus (GPa) = 31.31972 50.06448 40.69210
#
# Velocity S-wave (km/s) = 3.34782 4.23271 3.81600
# Velocity P-wave (km/s) = 6.06648 7.12107 6.61482
#
# Compressibility (1/GPa) = 0.01637163
#
# Stress axis : x y z
#
# Youngs Moduli (GPa) = 60.33398 56.06235 173.96238
#
# Poissons Ratio (x) = 0.51728 0.61820
# Poissons Ratio (y) = 0.55669 -0.15419
# Poissons Ratio (z) = 0.21441 -0.04969
#
# Static dielectric constant tensor:
#      x y z
#    x 2.555890 -0.071930 -0.186680 
#    y -0.071930 2.234020 0.137800 
#    z -0.186680 0.137800 2.354330 
# 
# From -- ./inp_files/509435.got.cif
#   From: 2010.05.17/outbox.cif.g08.bks.cpg/sg2_255_cif.got.tgz:509435.got - 2010.06.03 11:33:40.
