data_PCOD9018464
_publ_section_title
;
Structure prediction by ZEFSAII (Michael W. Deem and Ramdas Pophale) SiO2 
 PCOD9018464
Probable space group: P -1
;
_chemical_formula_sum "Si O2"
_cell_formula_units_Z 12
_cell_length_a 8.571505
_cell_length_b 8.972756
_cell_length_c 15.897187
_cell_angle_alpha 36.396864
_cell_angle_beta 43.685446
_cell_angle_gamma 51.421413
_cell_volume 498.519174
_symmetry_space_group_name_H-M "P -1"
_symmetry_group_IT_number 2
_symmetry_cell_setting 'triclinic'
loop_
_space_group_symop_operation_xyz
x,y,z
-x,-y,-z
loop_
_atom_site_type_symbol
_atom_site_label
_atom_site_fract_x
_atom_site_fract_y
_atom_site_fract_z
Si Si1 0.432521 0.993781 0.125141
Si Si2 0.428972 0.300606 0.401882
Si Si3 0.421087 0.801095 0.876943
Si Si4 0.723306 0.184953 0.490110
Si Si5 0.038355 0.774344 0.460129
Si Si6 0.227635 0.530925 0.944237
O O1 0.634019 0.023404 0.099548
O O2 0.289889 0.257822 0.083116
O O3 0.253257 0.798643 0.304990
O O4 0.500000 0.000000 0.000000
O O5 0.534510 0.340710 0.435270
O O6 0.166840 0.338356 0.457343
O O7 0.575745 0.431674 0.216562
O O8 0.500000 0.000000 0.500000
O O9 0.221383 0.761928 0.906495
O O10 0.602315 0.957811 0.685758
O O11 0.500000 0.500000 0.000000
O O12 0.848995 0.330972 0.447655
O O13 0.914281 0.044178 0.418875
O O14 0.000000 0.500000 0.000000
#
# Coordination Sequence:
#
# PCOD9018464 Si02
#       6
#     2   2   2   2   2   2
#     4  10  22  38  55  81 119 153 182 228 295 343
#     4  10  17  30  53  85 110 134 185 244 277 322
#     4   9  18  33  55  81 111 140 191 233 272 332
#     4   9  16  29  53  84 105 136 188 238 279 318
#     4   9  17  31  55  74 108 150 181 223 282 333
#     4  11  20  34  58  88 111 142 194 240 275 329
#
# _framework density 24.071293000000001
#
# number of rings (size 3 to 8) (size 9 to 14) (size 15 to 20)
#    0.000    2.333    3.333    2.000    0.000    1.333 
#    0.000    1.667    0.000    4.000    0.000    0.000 
#    0.000    0.000    0.000    0.000    0.000    0.000 
#
# Total GULP energy -66830.157623 kJ/mol
# GULP energy per Si atom -5569.179802 kJ/mol
# Density = 2.401651 g / cm^3
# Si number density = 24.071293 Si / 1000 Ang^3
#
#
#
# Elastic Constant Matrix: (Units=GPa)
#
#
# Indices 1 2 3 4 5 6 
#
# 1 216.5752 54.1293 51.8590 5.8872 -36.0437 57.5577
# 2 54.1293 80.4759 34.0277 18.3811 -13.0191 26.4335
# 3 51.8590 34.0277 113.8171 13.7439 -4.6218 14.0687
# 4 5.8872 18.3811 13.7439 39.3409 3.5609 10.6289
# 5 -36.0437 -13.0191 -4.6218 3.5609 35.3320 -6.3470
# 6 57.5577 26.4335 14.0687 10.6289 -6.3470 38.3058
#
#
#
# Elastic Compliance Matrix: (Units=1/GPa)
#
#
# Indices 1 2 3 4 5 6 
#
# 1 0.010062 -0.000765 -0.002776 0.002751 0.006975 -0.013178
# 2 -0.000765 0.019333 -0.003475 -0.005866 0.004959 -0.008465
# 3 -0.002776 -0.003475 0.010943 -0.002392 -0.001919 0.002895
# 4 0.002751 -0.005866 -0.002392 0.031308 -0.004372 -0.008618
# 5 0.006975 0.004959 -0.001919 -0.004372 0.036364 -0.005959
# 6 -0.013178 -0.008465 0.002895 -0.008618 -0.005959 0.052090
#
#
# Mechanical properties :
#
#
# Convention : Reuss Voigt Hill
#
# Bulk Modulus (GPa) = 38.01529 76.76667 57.39098
# Shear Modulus (GPa) = 27.33743 40.65255 33.99499
#
# Velocity S-wave (km/s) = 3.37365 4.11401 3.76209
# Velocity P-wave (km/s) = 5.56798 7.38426 6.53949
#
# Compressibility (1/GPa) = 0.02630520
#
# Stress axis : x y z
#
# Youngs Moduli (GPa) = 99.38846 51.72541 91.38526
#
# Poissons Ratio (x) = 0.03958 0.25365
# Poissons Ratio (y) = 0.07605 0.31758
# Poissons Ratio (z) = 0.27586 0.17975
#
# Static dielectric constant tensor:
#      x y z
#    x 1.899930 -0.059310 0.054190 
#    y -0.059310 1.950220 -0.015170 
#    z 0.054190 -0.015170 1.889970 
# 
# From -- ./inp_files/145687.got.cif
#   From: 2010.05.17/outbox.cif.g08.bks.cpg/sg2_73_cif.got.tgz:145687.got - 2010.06.03 11:33:40.
