data_PCOD9018799
_publ_section_title
;
Structure prediction by ZEFSAII (Michael W. Deem and Ramdas Pophale) SiO2 
 PCOD9018799
Probable space group: P -1
;
_chemical_formula_sum "Si O2"
_cell_formula_units_Z 12
_cell_length_a 8.491100
_cell_length_b 15.122326
_cell_length_c 10.529845
_cell_angle_alpha 31.420344
_cell_angle_beta 51.017215
_cell_angle_gamma 40.712937
_cell_volume 459.131614
_symmetry_space_group_name_H-M "P -1"
_symmetry_group_IT_number 2
_symmetry_cell_setting 'triclinic'
loop_
_space_group_symop_operation_xyz
x,y,z
-x,-y,-z
loop_
_atom_site_type_symbol
_atom_site_label
_atom_site_fract_x
_atom_site_fract_y
_atom_site_fract_z
Si Si1 0.314862 0.185315 0.216427
Si Si2 0.269930 0.139595 0.027479
Si Si3 0.991450 0.044078 0.641461
Si Si4 0.219586 0.639198 0.123860
Si Si5 0.230823 0.660760 0.388056
Si Si6 0.282620 0.288276 0.373743
O O1 0.303251 0.243073 0.005239
O O2 0.079807 0.177023 0.375520
O O3 0.302887 0.321710 0.171505
O O4 0.549157 0.954772 0.391784
O O5 0.187703 0.991817 0.303145
O O6 0.061253 0.281580 0.860185
O O7 0.500000 0.000000 0.000000
O O8 0.862709 0.137917 0.727064
O O9 0.218926 0.817065 0.830049
O O10 0.264379 0.658372 0.223071
O O11 0.348284 0.418076 0.269350
O O12 0.500000 0.500000 0.500000
O O13 0.994250 0.646673 0.540349
#
# Coordination Sequence:
#
# PCOD9018799 Si02
#       6
#     2   2   2   2   2   2
#     4  10  21  44  64  89 129 170 210 253 322 375
#     4  10  22  38  68  94 126 164 211 265 311 375
#     4   9  23  40  63  92 129 166 204 263 313 370
#     4  10  23  38  62  97 124 163 217 256 311 367
#     4  11  23  40  64  95 131 168 209 260 316 376
#     4  10  23  40  64  90 125 173 210 258 311 378
#
# _framework density 26.136295
#
# number of rings (size 3 to 8) (size 9 to 14) (size 15 to 20)
#    1.000    1.000    0.000    2.500    4.667    1.333 
#    0.000    0.000    0.000    0.000    0.000    0.000 
#    0.000    0.000    0.000    0.000    0.000    0.000 
#
# Total GULP energy -67007.706535 kJ/mol
# GULP energy per Si atom -5583.975545 kJ/mol
# Density = 2.607681 g / cm^3
# Si number density = 26.136295 Si / 1000 Ang^3
#
#
#
# Elastic Constant Matrix: (Units=GPa)
#
#
# Indices 1 2 3 4 5 6 
#
# 1 85.2393 26.3085 13.8007 8.1638 21.6615 17.2332
# 2 26.3085 110.4557 19.2478 5.0286 12.2632 10.6948
# 3 13.8007 19.2478 43.0920 -10.8166 11.1457 1.6589
# 4 8.1638 5.0286 -10.8166 38.8052 7.7789 2.6429
# 5 21.6615 12.2632 11.1457 7.7789 51.9586 1.0286
# 6 17.2332 10.6948 1.6589 2.6429 1.0286 65.2235
#
#
#
# Elastic Compliance Matrix: (Units=1/GPa)
#
#
# Indices 1 2 3 4 5 6 
#
# 1 0.014991 -0.002051 -0.003223 -0.002632 -0.004614 -0.003363
# 2 -0.002051 0.010542 -0.004431 -0.002030 -0.000359 -0.000986
# 3 -0.003223 -0.004431 0.030417 0.010856 -0.005770 0.000455
# 4 -0.002632 -0.002030 0.010856 0.030711 -0.005342 -0.000408
# 5 -0.004614 -0.000359 -0.005770 -0.005342 0.023266 0.001274
# 6 -0.003363 -0.000986 0.000455 -0.000408 0.001274 0.016367
#
#
# Mechanical properties :
#
#
# Convention : Reuss Voigt Hill
#
# Bulk Modulus (GPa) = 27.36671 39.72232 33.54451
# Shear Modulus (GPa) = 31.66869 43.15946 37.41408
#
# Velocity S-wave (km/s) = 3.48469 4.06806 3.78762
# Velocity P-wave (km/s) = 5.16568 6.10709 5.65601
#
# Compressibility (1/GPa) = 0.03654075
#
# Stress axis : x y z
#
# Youngs Moduli (GPa) = 66.70628 94.86035 32.87610
#
# Poissons Ratio (x) = 0.19459 0.10595
# Poissons Ratio (y) = 0.13683 0.14566
# Poissons Ratio (z) = 0.21498 0.42029
#
# Static dielectric constant tensor:
#      x y z
#    x 2.081070 -0.034780 -0.046970 
#    y -0.034780 2.044930 0.012820 
#    z -0.046970 0.012820 2.125950 
# 
# From -- ./inp_files/395204.got.cif
#   From: 2010.05.17/outbox.cif.g08.bks.cpg/sg2_198_cif.got.tgz:395204.got - 2010.06.03 11:33:40.
