data_PCOD9018884
_publ_section_title
;
Structure prediction by ZEFSAII (Michael W. Deem and Ramdas Pophale) SiO2 
 PCOD9018884
Probable space group: P -1
;
_chemical_formula_sum "Si O2"
_cell_formula_units_Z 14
_cell_length_a 24.121684
_cell_length_b 16.526614
_cell_length_c 13.007454
_cell_angle_alpha 27.114236
_cell_angle_beta 25.750681
_cell_angle_gamma 15.947471
_cell_volume 606.265034
_symmetry_space_group_name_H-M "P -1"
_symmetry_group_IT_number 2
_symmetry_cell_setting 'triclinic'
loop_
_space_group_symop_operation_xyz
x,y,z
-x,-y,-z
loop_
_atom_site_type_symbol
_atom_site_label
_atom_site_fract_x
_atom_site_fract_y
_atom_site_fract_z
Si Si1 0.434774 0.273501 0.511904
Si Si2 0.720707 0.136296 0.046779
Si Si3 0.092045 0.855631 0.897419
Si Si4 0.974071 0.689693 0.751363
Si Si5 0.769162 0.163506 0.706392
Si Si6 0.267481 0.038679 0.347828
Si Si7 0.619081 0.791657 0.893525
O O1 0.637176 0.063724 0.335025
O O2 0.410752 0.479678 0.388730
O O3 0.206816 0.524132 0.549702
O O4 0.456719 0.074299 0.768889
O O5 0.500000 0.500000 0.000000
O O6 0.771500 0.054039 0.934371
O O7 0.910955 0.016271 0.930375
O O8 0.229076 0.875058 0.615260
O O9 0.235323 0.519447 0.048483
O O10 0.000000 0.000000 0.000000
O O11 0.910366 0.704420 0.728560
O O12 0.782164 0.027750 0.737352
O O13 0.000000 0.500000 0.000000
O O14 0.000000 0.000000 0.500000
O O15 0.247143 0.191190 0.305730
O O16 0.495868 0.831439 0.147861
#
# Coordination Sequence:
#
# PCOD9018884 Si02
#       7
#     2   2   2   2   2   2   2
#     4  10  21  44  66 100 135 177 230 283 343 404
#     4  10  22  42  69  97 132 179 228 279 345 402
#     4  12  27  47  70 100 140 186 229 278 350 415
#     4  11  22  41  68 104 132 172 232 285 331 406
#     4   9  20  37  69  93 132 175 223 278 336 395
#     4  11  25  45  70 101 137 179 232 283 345 402
#     4  11  26  45  70 101 140 179 231 285 343 412
#
# _framework density 23.092210000000001
#
# number of rings (size 3 to 8) (size 9 to 14) (size 15 to 20)
#    0.000    1.429    1.429    3.857    2.000    9.143 
#    0.000    0.714    0.000    0.000    0.000    0.000 
#    0.000    0.000    0.000    0.000    0.000    0.000 
#
# Total GULP energy -78228.456303 kJ/mol
# GULP energy per Si atom -5587.746879 kJ/mol
# Density = 2.303965 g / cm^3
# Si number density = 23.092210 Si / 1000 Ang^3
#
#
#
# Elastic Constant Matrix: (Units=GPa)
#
#
# Indices 1 2 3 4 5 6 
#
# 1 75.9407 39.8475 13.4173 4.2123 -6.2689 -8.7965
# 2 39.8475 89.0451 29.6650 -16.1304 -5.3837 10.2085
# 3 13.4173 29.6650 94.9091 2.8643 -1.9770 10.8560
# 4 4.2123 -16.1304 2.8643 40.0174 -0.3420 1.9874
# 5 -6.2689 -5.3837 -1.9770 -0.3420 35.4353 6.1523
# 6 -8.7965 10.2085 10.8560 1.9874 6.1523 34.8056
#
#
#
# Elastic Compliance Matrix: (Units=1/GPa)
#
#
# Indices 1 2 3 4 5 6 
#
# 1 0.020742 -0.011584 -0.000121 -0.007291 0.000262 0.009047
# 2 -0.011584 0.020826 -0.004128 0.010367 0.002510 -0.008784
# 3 -0.000121 -0.004128 0.012220 -0.002394 0.000457 -0.002576
# 4 -0.007291 0.010367 -0.002394 0.030425 0.001512 -0.006141
# 5 0.000262 0.002510 0.000457 0.001512 0.029757 -0.006159
# 6 0.009047 -0.008784 -0.002576 -0.006141 -0.006159 0.035837
#
#
# Mechanical properties :
#
#
# Convention : Reuss Voigt Hill
#
# Bulk Modulus (GPa) = 45.20222 47.30607 46.25415
# Shear Modulus (GPa) = 26.47671 33.84934 30.16302
#
# Velocity S-wave (km/s) = 3.38977 3.83277 3.61806
# Velocity P-wave (km/s) = 5.91083 6.33380 6.12597
#
# Compressibility (1/GPa) = 0.02212280
#
# Stress axis : x y z
#
# Youngs Moduli (GPa) = 48.21190 48.01734 81.83295
#
# Poissons Ratio (x) = 0.55622 0.00990
# Poissons Ratio (y) = 0.55848 0.33777
# Poissons Ratio (z) = 0.00583 0.19820
#
# Static dielectric constant tensor:
#      x y z
#    x 1.941080 -0.060480 -0.015720 
#    y -0.060480 1.932210 0.025210 
#    z -0.015720 0.025210 1.919710 
# 
# From -- ./inp_files/471836.got.cif
#   From: 2010.05.17/outbox.cif.g08.bks.cpg/sg2_236_cif.got.tgz:471836.got - 2010.06.03 11:33:40.
