data_PCOD9018439
_publ_section_title
;
Structure prediction by ZEFSAII (Michael W. Deem and Ramdas Pophale) SiO2 
 PCOD9018439
Probable space group: P -1
;
_chemical_formula_sum "Si O2"
_cell_formula_units_Z 16
_cell_length_a 27.002921
_cell_length_b 14.800832
_cell_length_c 9.215580
_cell_angle_alpha 48.817132
_cell_angle_beta 34.071828
_cell_angle_gamma 23.642427
_cell_volume 740.364313
_symmetry_space_group_name_H-M "P -1"
_symmetry_group_IT_number 2
_symmetry_cell_setting 'triclinic'
loop_
_space_group_symop_operation_xyz
x,y,z
-x,-y,-z
loop_
_atom_site_type_symbol
_atom_site_label
_atom_site_fract_x
_atom_site_fract_y
_atom_site_fract_z
Si Si1 0.186203 0.380619 0.939651
Si Si2 0.154753 0.097370 0.626634
Si Si3 0.693513 0.295692 0.161853
Si Si4 0.231291 0.335585 0.544239
Si Si5 0.605277 0.286393 0.079281
Si Si6 0.465749 0.211160 0.615210
Si Si7 0.870927 0.819155 0.724895
Si Si8 0.425848 0.303661 0.941002
O O1 0.167035 0.432787 0.761262
O O2 0.344712 0.272764 0.739708
O O3 0.232073 0.184922 0.046649
O O4 0.997568 0.636488 0.211218
O O5 0.112369 0.138152 0.516327
O O6 0.159451 0.962883 0.837784
O O7 0.360688 0.907836 0.344050
O O8 0.500000 0.500000 0.500000
O O9 0.677386 0.270018 0.063219
O O10 0.706364 0.423748 0.999368
O O11 0.063890 0.550540 0.612334
O O12 0.327581 0.090927 0.562893
O O13 0.382147 0.252556 0.215177
O O14 0.474888 0.335711 0.404639
O O15 0.500000 0.500000 0.000000
O O16 0.763761 0.031461 0.872036
O O17 0.393578 0.295160 0.865743
#
# Coordination Sequence:
#
# PCOD9018439 Si02
#       8
#     2   2   2   2   2   2   2   2
#     4  12  26  44  70 104 140 179 231 291 348 405
#     4  11  23  45  70 100 139 187 229 280 346 413
#     4  10  21  43  70  97 136 188 227 278 341 412
#     4  12  26  45  70 106 142 178 233 291 344 407
#     4  12  25  43  72 105 141 182 232 281 349 415
#     4  12  25  44  70 104 140 184 230 283 347 414
#     4  12  26  44  72 102 141 184 231 285 349 409
#     4  11  24  45  73  99 141 185 233 280 345 415
#
# _framework density 21.610983000000001
#
# number of rings (size 3 to 8) (size 9 to 14) (size 15 to 20)
#    0.000    0.500    3.750    6.000    3.500    0.000 
#    2.250    2.500    0.000    0.000    0.000    0.000 
#    0.000    0.000    0.000    0.000    0.000    0.000 
#
# Total GULP energy -89582.055691 kJ/mol
# GULP energy per Si atom -5598.878481 kJ/mol
# Density = 2.156180 g / cm^3
# Si number density = 21.610983 Si / 1000 Ang^3
#
#
#
# Elastic Constant Matrix: (Units=GPa)
#
#
# Indices 1 2 3 4 5 6 
#
# 1 133.1211 40.3488 18.3856 0.9415 36.0296 -9.9237
# 2 40.3488 104.8339 16.7567 -15.7547 14.2141 -8.9171
# 3 18.3856 16.7567 61.4076 -9.1142 26.6035 -3.4197
# 4 0.9415 -15.7547 -9.1142 30.4041 -4.9839 9.5780
# 5 36.0296 14.2141 26.6035 -4.9839 46.0380 3.3297
# 6 -9.9237 -8.9171 -3.4197 9.5780 3.3297 41.0488
#
#
#
# Elastic Compliance Matrix: (Units=1/GPa)
#
#
# Indices 1 2 3 4 5 6 
#
# 1 0.011237 -0.003634 0.001090 -0.004598 -0.009077 0.003827
# 2 -0.003634 0.012002 -0.001600 0.005915 0.000692 0.000159
# 3 0.001090 -0.001600 0.022748 0.003087 -0.013327 0.002172
# 4 -0.004598 0.005915 0.003087 0.040857 0.005099 -0.009516
# 5 -0.009077 0.000692 -0.013327 0.005099 0.037398 -0.007378
# 6 0.003827 0.000159 0.002172 -0.009516 -0.007378 0.028321
#
#
# Mechanical properties :
#
#
# Convention : Reuss Voigt Hill
#
# Bulk Modulus (GPa) = 26.52552 50.03832 38.28192
# Shear Modulus (GPa) = 28.83223 38.42295 33.62759
#
# Velocity S-wave (km/s) = 3.65656 4.22113 3.94895
# Velocity P-wave (km/s) = 5.48890 6.85286 6.20845
#
# Compressibility (1/GPa) = 0.03769954
#
# Stress axis : x y z
#
# Youngs Moduli (GPa) = 88.98860 83.31922 43.96065
#
# Poissons Ratio (x) = 0.30279 -0.04793
# Poissons Ratio (y) = 0.32339 0.07033
# Poissons Ratio (z) = -0.09702 0.13331
#
# Static dielectric constant tensor:
#      x y z
#    x 1.769860 0.005670 -0.029580 
#    y 0.005670 1.785730 0.004640 
#    z -0.029580 0.004640 1.797410 
# 
# From -- ./inp_files/296112.got.cif
#   From: 2010.05.17/outbox.cif.g08.bks.cpg/sg2_149_cif.got.tgz:296112.got - 2010.06.03 11:33:40.
