data_PCOD9018203
_publ_section_title
;
Structure prediction by ZEFSAII (Michael W. Deem and Ramdas Pophale) SiO2 
 PCOD9018203
Probable space group: P -1
;
_chemical_formula_sum "Si O2"
_cell_formula_units_Z 16
_cell_length_a 12.690564
_cell_length_b 11.941601
_cell_length_c 12.749361
_cell_angle_alpha 89.739239
_cell_angle_beta 62.032110
_cell_angle_gamma 35.696097
_cell_volume 680.263893
_symmetry_space_group_name_H-M "P -1"
_symmetry_group_IT_number 2
_symmetry_cell_setting 'triclinic'
loop_
_space_group_symop_operation_xyz
x,y,z
-x,-y,-z
loop_
_atom_site_type_symbol
_atom_site_label
_atom_site_fract_x
_atom_site_fract_y
_atom_site_fract_z
Si Si1 0.169631 0.908857 0.208209
Si Si2 0.304594 0.502994 0.601518
Si Si3 0.221883 0.194732 0.695059
Si Si4 0.171513 0.251990 0.114299
Si Si5 0.516326 0.339048 0.730441
Si Si6 0.783680 0.395019 0.794581
Si Si7 0.867114 0.859119 0.070675
Si Si8 0.475894 0.639748 0.729226
O O1 0.218629 0.903393 0.307780
O O2 0.131722 0.807716 0.223925
O O3 0.468371 0.679505 0.003448
O O4 0.888535 0.217405 0.293518
O O5 0.503269 0.311882 0.614684
O O6 0.469111 0.376919 0.416354
O O7 0.055306 0.620673 0.705273
O O8 0.315854 0.046092 0.754809
O O9 0.011021 0.478757 0.827829
O O10 0.022690 0.277770 0.723417
O O11 0.500000 0.000000 0.500000
O O12 0.210005 0.133072 0.001428
O O13 0.500000 0.000000 0.000000
O O14 0.465995 0.515694 0.748497
O O15 0.222508 0.537616 0.918963
O O16 0.726503 0.460880 0.697532
O O17 0.803940 0.045030 0.105167
#
# Coordination Sequence:
#
# PCOD9018203 Si02
#       8
#     2   2   2   2   2   2   2   2
#     4  10  21  43  69 101 130 180 227 276 341 414
#     4  11  24  42  65 101 140 172 220 284 349 395
#     4  12  25  44  66 103 138 173 227 289 342 393
#     4  11  25  46  70  91 131 189 236 272 328 418
#     4  10  22  40  68  96 136 176 225 272 342 420
#     4  10  22  41  68  97 134 176 226 272 337 420
#     4  11  23  42  68  93 128 178 230 272 338 405
#     4  11  23  41  64 104 135 172 213 285 351 402
#
# _framework density 23.520282999999999
#
# number of rings (size 3 to 8) (size 9 to 14) (size 15 to 20)
#    0.000    1.250    1.250    4.875    1.750    3.000 
#   11.250    2.500    0.000    0.000    0.000    0.000 
#    0.000    0.000    0.000    0.000    0.000    0.000 
#
# Total GULP energy -89551.486849 kJ/mol
# GULP energy per Si atom -5596.967928 kJ/mol
# Density = 2.346675 g / cm^3
# Si number density = 23.520283 Si / 1000 Ang^3
#
#
#
# Elastic Constant Matrix: (Units=GPa)
#
#
# Indices 1 2 3 4 5 6 
#
# 1 102.3657 11.9579 49.6099 -10.2627 -10.8370 -12.0661
# 2 11.9579 61.3097 13.3238 -10.6168 1.7635 -2.7838
# 3 49.6099 13.3238 97.2700 -15.0262 -5.8806 -8.3906
# 4 -10.2627 -10.6168 -15.0262 37.2152 7.2640 6.0540
# 5 -10.8370 1.7635 -5.8806 7.2640 30.4647 -0.0656
# 6 -12.0661 -2.7838 -8.3906 6.0540 -0.0656 37.2923
#
#
#
# Elastic Compliance Matrix: (Units=1/GPa)
#
#
# Indices 1 2 3 4 5 6 
#
# 1 0.013743 -0.001335 -0.006401 -0.000409 0.003834 0.002980
# 2 -0.001335 0.017737 -0.001195 0.004797 -0.002877 -0.000161
# 3 -0.006401 -0.001195 0.014294 0.003652 -0.000318 0.000462
# 4 -0.000409 0.004797 0.003652 0.031691 -0.007283 -0.004110
# 5 0.003834 -0.002877 -0.000318 -0.007283 0.036035 0.002200
# 6 0.002980 -0.000161 0.000462 -0.004110 0.002200 0.028543
#
#
# Mechanical properties :
#
#
# Convention : Reuss Voigt Hill
#
# Bulk Modulus (GPa) = 35.82780 45.63653 40.73217
# Shear Modulus (GPa) = 29.54927 33.39801 31.47364
#
# Velocity S-wave (km/s) = 3.54832 3.77233 3.66204
# Velocity P-wave (km/s) = 5.66156 6.19832 5.93601
#
# Compressibility (1/GPa) = 0.02791128
#
# Stress axis : x y z
#
# Youngs Moduli (GPa) = 72.76408 56.37958 69.96102
#
# Poissons Ratio (x) = 0.07528 0.44779
# Poissons Ratio (y) = 0.09716 0.08363
# Poissons Ratio (z) = 0.46574 0.06739
#
# Static dielectric constant tensor:
#      x y z
#    x 1.902100 -0.005700 0.018550 
#    y -0.005700 1.912970 0.011780 
#    z 0.018550 0.011780 1.913910 
# 
# From -- ./inp_files/428377.got.cif
#   From: 2010.05.17/outbox.cif.g08.bks.cpg/sg2_215_cif.got.tgz:428377.got - 2010.06.03 11:33:40.
