data_PCOD9018971
_publ_section_title
;
Structure prediction by ZEFSAII (Michael W. Deem and Ramdas Pophale) SiO2 
 PCOD9018971
Probable space group: P -1
;
_chemical_formula_sum "Si O2"
_cell_formula_units_Z 16
_cell_length_a 16.707704
_cell_length_b 11.903378
_cell_length_c 8.753831
_cell_angle_alpha 147.950624
_cell_angle_beta 120.041818
_cell_angle_gamma 50.333075
_cell_volume 707.649200
_symmetry_space_group_name_H-M "P -1"
_symmetry_group_IT_number 2
_symmetry_cell_setting 'triclinic'
loop_
_space_group_symop_operation_xyz
x,y,z
-x,-y,-z
loop_
_atom_site_type_symbol
_atom_site_label
_atom_site_fract_x
_atom_site_fract_y
_atom_site_fract_z
Si Si1 0.245905 0.604419 0.893552
Si Si2 0.485048 0.018932 0.323753
Si Si3 0.956048 0.921734 0.721773
Si Si4 0.907002 0.442241 0.797621
Si Si5 0.715059 0.640893 0.652336
Si Si6 0.817116 0.677462 0.277020
Si Si7 0.355131 0.812076 0.408213
Si Si8 0.402646 0.469644 0.314087
O O1 0.242285 0.575713 0.677460
O O2 0.239075 0.384702 0.712615
O O3 0.344520 0.641017 0.073609
O O4 0.146909 0.834165 0.130678
O O5 0.500000 0.000000 0.500000
O O6 0.369513 0.135614 0.269981
O O7 0.536436 0.180311 0.493990
O O8 0.551739 0.755862 0.015669
O O9 0.911147 0.730106 0.485715
O O10 0.038205 0.806470 0.529522
O O11 0.000000 0.000000 0.000000
O O12 0.818189 0.631784 0.817668
O O13 0.852441 0.473705 0.945986
O O14 0.000000 0.500000 0.000000
O O15 0.656266 0.585785 0.670386
O O16 0.732852 0.919918 0.397594
O O17 0.337439 0.708721 0.429907
O O18 0.500000 0.500000 0.500000
#
# Coordination Sequence:
#
# PCOD9018971 Si02
#       8
#     2   2   2   2   2   2   2   2
#     4  11  24  43  73 103 140 189 235 296 359 431
#     4  12  27  45  71 103 145 187 234 293 358 427
#     4  10  21  44  67 101 145 183 238 296 352 422
#     4  10  22  43  71 101 142 185 237 293 349 419
#     4  12  24  44  72 104 145 184 243 291 358 428
#     4  10  23  43  71 104 140 189 235 294 360 424
#     4  11  23  45  69  98 145 182 237 291 352 428
#     4  12  27  45  71 105 142 188 236 296 355 424
#
# _framework density 22.610071999999999
#
# number of rings (size 3 to 8) (size 9 to 14) (size 15 to 20)
#    0.000    1.000    2.500    4.125    3.500    2.000 
#    0.000    2.500    0.000    0.000    0.000    0.000 
#    0.000    0.000    0.000    0.000    0.000    0.000 
#
# Total GULP energy -89328.952006 kJ/mol
# GULP energy per Si atom -5583.059500 kJ/mol
# Density = 2.255861 g / cm^3
# Si number density = 22.610072 Si / 1000 Ang^3
#
#
#
# Elastic Constant Matrix: (Units=GPa)
#
#
# Indices 1 2 3 4 5 6 
#
# 1 76.9225 48.6416 58.1599 -3.7117 -17.5365 0.2169
# 2 48.6416 112.0064 48.8106 -9.7444 -2.4430 -8.0682
# 3 58.1599 48.8106 129.6355 -24.1687 -13.7579 12.4438
# 4 -3.7117 -9.7444 -24.1687 43.5970 -4.1113 5.4299
# 5 -17.5365 -2.4430 -13.7579 -4.1113 42.8298 -15.0599
# 6 0.2169 -8.0682 12.4438 5.4299 -15.0599 36.9721
#
#
#
# Elastic Compliance Matrix: (Units=1/GPa)
#
#
# Indices 1 2 3 4 5 6 
#
# 1 0.026715 -0.007117 -0.009779 -0.004626 0.009036 0.005942
# 2 -0.007117 0.013150 -0.002094 0.000656 -0.001793 0.002790
# 3 -0.009779 -0.002094 0.014887 0.007721 -0.001052 -0.006973
# 4 -0.004626 0.000656 0.007721 0.027833 0.001172 -0.006039
# 5 0.009036 -0.001793 -0.001052 0.001172 0.031080 0.012397
# 6 0.005942 0.002790 -0.006973 -0.006039 0.012397 0.035905
#
#
# Mechanical properties :
#
#
# Convention : Reuss Voigt Hill
#
# Bulk Modulus (GPa) = 59.62695 69.97651 64.80173
# Shear Modulus (GPa) = 25.88780 35.54326 30.71553
#
# Velocity S-wave (km/s) = 3.38741 3.96916 3.68977
# Velocity P-wave (km/s) = 6.45976 7.21263 6.84655
#
# Compressibility (1/GPa) = 0.01677094
#
# Stress axis : x y z
#
# Youngs Moduli (GPa) = 37.43267 76.04353 67.17267
#
# Poissons Ratio (x) = 0.54122 0.65690
# Poissons Ratio (y) = 0.26642 0.14067
# Poissons Ratio (z) = 0.36606 0.15924
#
# Static dielectric constant tensor:
#      x y z
#    x 1.866110 -0.067650 0.002120 
#    y -0.067650 1.881290 -0.009030 
#    z 0.002120 -0.009030 1.865950 
# 
# From -- ./inp_files/334007.got.cif
#   From: 2010.05.17/outbox.cif.g08.bks.cpg/sg2_168_cif.got.tgz:334007.got - 2010.06.03 11:33:40.
