data_PCOD9018102
_publ_section_title
;
Structure prediction by ZEFSAII (Michael W. Deem and Ramdas Pophale) SiO2 
 PCOD9018102
Probable space group: P -1
;
_chemical_formula_sum "Si O2"
_cell_formula_units_Z 16
_cell_length_a 25.166387
_cell_length_b 22.033671
_cell_length_c 9.260925
_cell_angle_alpha 152.348148
_cell_angle_beta 29.518118
_cell_angle_gamma 160.352120
_cell_volume 779.741741
_symmetry_space_group_name_H-M "P -1"
_symmetry_group_IT_number 2
_symmetry_cell_setting 'triclinic'
loop_
_space_group_symop_operation_xyz
x,y,z
-x,-y,-z
loop_
_atom_site_type_symbol
_atom_site_label
_atom_site_fract_x
_atom_site_fract_y
_atom_site_fract_z
Si Si1 0.148767 0.043169 0.285889
Si Si2 0.129550 0.685251 0.979738
Si Si3 0.423844 0.821082 0.407388
Si Si4 0.620696 0.361930 0.155925
Si Si5 0.572664 0.940309 0.785066
Si Si6 0.392409 0.375067 0.632779
Si Si7 0.446715 0.252857 0.840641
Si Si8 0.989270 0.632271 0.890505
O O1 0.231300 0.167426 0.503958
O O2 0.284123 0.175833 0.118854
O O3 0.000000 0.000000 0.500000
O O4 0.094049 0.842648 0.012166
O O5 0.267936 0.718960 0.652976
O O6 0.047510 0.667955 0.993247
O O7 0.000000 0.500000 0.000000
O O8 0.241028 0.877817 0.223041
O O9 0.547167 0.868699 0.327011
O O10 0.500000 0.000000 0.500000
O O11 0.375444 0.667094 0.083151
O O12 0.532802 0.172664 0.060116
O O13 0.497018 0.370833 0.474669
O O14 0.807523 0.526171 0.103738
O O15 0.553141 0.798271 0.428676
O O16 0.500000 0.000000 0.000000
O O17 0.500000 0.500000 0.500000
O O18 0.397478 0.515626 0.003709
O O19 0.000000 0.500000 0.500000
#
# Coordination Sequence:
#
# PCOD9018102 Si02
#       8
#     2   2   2   2   2   2   2   2
#     4  11  24  43  70 103 140 176 230 292 347 408
#     4  12  26  41  62 103 151 176 216 293 361 397
#     4  12  21  40  71  98 128 183 231 276 334 413
#     4  12  23  41  70  93 130 179 235 276 333 411
#     4  12  25  43  66  97 139 179 226 281 349 413
#     4  10  21  43  68  93 127 178 235 278 331 412
#     4  11  24  42  71  96 132 182 236 275 339 421
#     4  12  26  39  67 105 137 176 230 285 344 404
#
# _framework density 20.519615999999999
#
# number of rings (size 3 to 8) (size 9 to 14) (size 15 to 20)
#    0.000    0.500    6.250    3.750    3.500    0.500 
#    0.000    0.000    0.000    3.000    0.000    0.000 
#    0.000    0.000    0.000    0.000    0.000    0.000 
#
# Total GULP energy -89224.941009 kJ/mol
# GULP energy per Si atom -5576.558813 kJ/mol
# Density = 2.047291 g / cm^3
# Si number density = 20.519616 Si / 1000 Ang^3
#
#
#
# Elastic Constant Matrix: (Units=GPa)
#
#
# Indices 1 2 3 4 5 6 
#
# 1 120.3104 32.2524 41.2500 3.6869 -6.9016 18.3228
# 2 32.2524 112.2096 32.8058 4.7013 -1.6643 14.1492
# 3 41.2500 32.8058 100.9605 14.2078 13.1966 10.3142
# 4 3.6869 4.7013 14.2078 41.8784 5.5646 3.1313
# 5 -6.9016 -1.6643 13.1966 5.5646 41.6739 5.8384
# 6 18.3228 14.1492 10.3142 3.1313 5.8384 36.5033
#
#
#
# Elastic Compliance Matrix: (Units=1/GPa)
#
#
# Indices 1 2 3 4 5 6 
#
# 1 0.010956 -0.001350 -0.004120 0.000434 0.003628 -0.004429
# 2 -0.001350 0.010486 -0.002743 -0.000112 0.001476 -0.002838
# 3 -0.004120 -0.002743 0.013524 -0.003321 -0.004679 0.000344
# 4 0.000434 -0.000112 -0.003321 0.025341 -0.002114 -0.001072
# 5 0.003628 0.001476 -0.004679 -0.002114 0.027153 -0.005233
# 6 -0.004429 -0.002838 0.000344 -0.001072 -0.005233 0.031550
#
#
# Mechanical properties :
#
#
# Convention : Reuss Voigt Hill
#
# Bulk Modulus (GPa) = 53.94165 60.67743 57.30954
# Shear Modulus (GPa) = 35.30671 39.15593 37.23132
#
# Velocity S-wave (km/s) = 4.15255 4.37306 4.26423
# Velocity P-wave (km/s) = 7.02399 7.42515 7.22735
#
# Compressibility (1/GPa) = 0.01853855
#
# Stress axis : x y z
#
# Youngs Moduli (GPa) = 91.27527 95.36111 73.94518
#
# Poissons Ratio (x) = 0.12877 0.30468
# Poissons Ratio (y) = 0.12325 0.20283
# Poissons Ratio (z) = 0.37608 0.26158
#
# Static dielectric constant tensor:
#      x y z
#    x 1.762000 0.024570 -0.077960 
#    y 0.024570 1.806980 0.100840 
#    z -0.077960 0.100840 1.863340 
# 
# From -- ./inp_files/355310.got.cif
#   From: 2010.05.17/outbox.cif.g08.bks.cpg/sg2_178_cif.got.tgz:355310.got - 2010.06.03 11:33:40.
