data_PCOD9018123
_publ_section_title
;
Structure prediction by ZEFSAII (Michael W. Deem and Ramdas Pophale) SiO2 
 PCOD9018123
Probable space group: P -1
;
_chemical_formula_sum "Si O2"
_cell_formula_units_Z 15
_cell_length_a 13.642957
_cell_length_b 13.912740
_cell_length_c 8.008904
_cell_angle_alpha 100.575677
_cell_angle_beta 62.673325
_cell_angle_gamma 151.420237
_cell_volume 553.145027
_symmetry_space_group_name_H-M "P -1"
_symmetry_group_IT_number 2
_symmetry_cell_setting 'triclinic'
loop_
_space_group_symop_operation_xyz
x,y,z
-x,-y,-z
loop_
_atom_site_type_symbol
_atom_site_label
_atom_site_fract_x
_atom_site_fract_y
_atom_site_fract_z
Si Si1 0.802416 0.180680 0.175407
Si Si2 0.847133 0.038954 0.340752
Si Si3 0.924561 0.467131 0.360760
Si Si4 0.219637 0.429682 0.454875
Si Si5 0.500000 0.000000 0.000000
Si Si6 0.711228 0.999949 0.873324
Si Si7 0.333596 0.345022 0.912987
Si Si8 0.598844 0.389738 0.190507
O O1 0.765124 0.054702 0.276697
O O2 0.767800 0.253725 0.322593
O O3 0.636874 0.021046 0.083467
O O4 0.112610 0.425328 0.958669
O O5 0.062632 0.269702 0.361630
O O6 0.616587 0.812002 0.566483
O O7 0.028875 0.101889 0.131906
O O8 0.781638 0.456147 0.479987
O O9 0.000000 0.500000 0.500000
O O10 0.203496 0.705627 0.127531
O O11 0.509754 0.618418 0.279897
O O12 0.019324 0.224958 0.688950
O O13 0.361909 0.982543 0.208999
O O14 0.531949 0.761733 0.925021
O O15 0.371919 0.471605 0.809014
O O16 0.500000 0.500000 0.000000
#
# Coordination Sequence:
#
# PCOD9018123 Si02
#       8
#     2   2   2   2   1   2   2   2
#     4  11  22  40  68  99 130 175 217 267 333 393
#     4   9  19  38  63  95 130 166 226 266 321 398
#     4  11  21  38  66  93 134 171 212 275 327 386
#     4   9  19  36  62  94 128 168 220 263 324 395
#     4  10  22  40  60  92 134 168 214 262 322 390
#     4  10  22  40  66  98 133 170 225 264 328 402
#     4   9  19  36  67 100 125 175 226 265 328 395
#     4  10  21  43  68  94 137 172 212 283 326 376
#
# _framework density 27.117660999999998
#
# number of rings (size 3 to 8) (size 9 to 14) (size 15 to 20)
#    0.000    2.133    2.667    0.000    0.000    6.933 
#    0.000   14.000    0.000   10.400    0.000    0.000 
#    0.000    0.000    0.000    0.000    0.000    0.000 
#
# Total GULP energy -83822.991357 kJ/mol
# GULP energy per Si atom -5588.199424 kJ/mol
# Density = 2.705594 g / cm^3
# Si number density = 27.117661 Si / 1000 Ang^3
#
#
#
# Elastic Constant Matrix: (Units=GPa)
#
#
# Indices 1 2 3 4 5 6 
#
# 1 111.4149 39.1312 65.5071 0.1221 -34.4475 -1.8835
# 2 39.1312 121.2332 77.2569 -0.4144 -19.6454 24.3597
# 3 65.5071 77.2569 153.7446 -22.5533 -40.9348 -13.0945
# 4 0.1221 -0.4144 -22.5533 70.8233 0.5652 -4.1917
# 5 -34.4475 -19.6454 -40.9348 0.5652 66.4612 10.1385
# 6 -1.8835 24.3597 -13.0945 -4.1917 10.1385 21.4216
#
#
#
# Elastic Compliance Matrix: (Units=1/GPa)
#
#
# Indices 1 2 3 4 5 6 
#
# 1 0.013493 0.002652 -0.006952 -0.002789 0.004883 -0.008936
# 2 0.002652 0.036508 -0.024666 -0.011346 0.006474 -0.061644
# 3 -0.006952 -0.024666 0.027131 0.011296 -0.001436 0.046913
# 4 -0.002789 -0.011346 0.011296 0.019094 -0.001680 0.024093
# 5 0.004883 0.006474 -0.001436 -0.001680 0.021408 -0.018271
# 6 -0.008936 -0.061644 0.046913 0.024093 -0.018271 0.158033
#
#
# Mechanical properties :
#
#
# Convention : Reuss Voigt Hill
#
# Bulk Modulus (GPa) = 52.08312 83.35368 67.71840
# Shear Modulus (GPa) = 14.70588 45.37437 30.04013
#
# Velocity S-wave (km/s) = 2.33126 4.09496 3.33193
# Velocity P-wave (km/s) = 5.14727 7.29128 6.31099
#
# Compressibility (1/GPa) = 0.01920008
#
# Stress axis : x y z
#
# Youngs Moduli (GPa) = 74.11205 27.39143 36.85753
#
# Poissons Ratio (x) = -0.07265 0.25624
# Poissons Ratio (y) = -0.19657 0.90914
# Poissons Ratio (z) = 0.51524 0.67564
#
# Static dielectric constant tensor:
#      x y z
#    x 3.129550 0.196470 0.377490 
#    y 0.196470 2.227880 0.119880 
#    z 0.377490 0.119880 2.292900 
# 
# From -- ./inp_files/313514.got.cif
#   From: 2010.05.17/outbox.cif.g08.bks.cpg/sg2_157_cif.got.tgz:313514.got - 2010.06.03 11:33:40.
