data_PCOD9018363
_publ_section_title
;
Structure prediction by ZEFSAII (Michael W. Deem and Ramdas Pophale) SiO2 
 PCOD9018363
Probable space group: P -1
;
_chemical_formula_sum "Si O2"
_cell_formula_units_Z 14
_cell_length_a 14.438488
_cell_length_b 11.845131
_cell_length_c 9.511441
_cell_angle_alpha 137.271231
_cell_angle_beta 53.467684
_cell_angle_gamma 148.699266
_cell_volume 571.013796
_symmetry_space_group_name_H-M "P -1"
_symmetry_group_IT_number 2
_symmetry_cell_setting 'triclinic'
loop_
_space_group_symop_operation_xyz
x,y,z
-x,-y,-z
loop_
_atom_site_type_symbol
_atom_site_label
_atom_site_fract_x
_atom_site_fract_y
_atom_site_fract_z
Si Si1 0.028116 0.994842 0.805897
Si Si2 0.405374 0.006994 0.338602
Si Si3 0.617962 0.757434 0.213574
Si Si4 0.062822 0.233085 0.740936
Si Si5 0.994539 0.621902 0.334772
Si Si6 0.485098 0.667900 0.730201
Si Si7 0.678335 0.019849 0.130824
O O1 0.947251 0.735174 0.575211
O O2 0.238592 0.186278 0.775599
O O3 0.991815 0.115928 0.853931
O O4 0.000000 0.000000 0.000000
O O5 0.481709 0.230736 0.580423
O O6 0.449121 0.122226 0.249586
O O7 0.503085 0.945358 0.230125
O O8 0.190648 0.770519 0.334604
O O9 0.712611 0.973702 0.207274
O O10 0.500000 0.500000 0.000000
O O11 0.995713 0.307052 0.770989
O O12 0.277716 0.479597 0.774832
O O13 0.000000 0.000000 0.500000
O O14 0.841550 0.317807 0.213692
O O15 0.500000 0.500000 0.500000
O O16 0.613486 0.820596 0.888217
#
# Coordination Sequence:
#
# PCOD9018363 Si02
#       7
#     2   2   2   2   2   2   2
#     4  10  23  42  69 106 139 185 239 290 343 427
#     4  11  25  46  70 106 144 182 238 296 350 430
#     4  11  25  46  70 103 142 192 238 285 362 423
#     4  10  21  43  70 101 144 181 235 292 351 424
#     4  10  24  46  70 105 141 185 238 286 364 415
#     4  12  24  45  70 103 140 185 243 291 350 431
#     4  12  26  47  71 104 146 187 233 300 358 416
#
# _framework density 24.517795
#
# number of rings (size 3 to 8) (size 9 to 14) (size 15 to 20)
#    0.000    1.143    1.429    5.143    2.000    6.286 
#   10.286    0.000    0.000    0.000    0.000    0.000 
#    0.000    0.000    0.000    0.000    0.000    0.000 
#
# Total GULP energy -78445.468965 kJ/mol
# GULP energy per Si atom -5603.247783 kJ/mol
# Density = 2.446199 g / cm^3
# Si number density = 24.517795 Si / 1000 Ang^3
#
#
#
# Elastic Constant Matrix: (Units=GPa)
#
#
# Indices 1 2 3 4 5 6 
#
# 1 106.9161 28.6443 35.0657 3.4251 3.7401 -4.9102
# 2 28.6443 104.0465 35.7236 12.7547 8.4713 2.2994
# 3 35.0657 35.7236 120.3564 0.7804 2.3893 2.1918
# 4 3.4251 12.7547 0.7804 43.4195 -3.6244 14.0713
# 5 3.7401 8.4713 2.3893 -3.6244 39.6044 -7.5927
# 6 -4.9102 2.2994 2.1918 14.0713 -7.5927 45.8456
#
#
#
# Elastic Compliance Matrix: (Units=1/GPa)
#
#
# Indices 1 2 3 4 5 6 
#
# 1 0.010845 -0.002028 -0.002578 -0.000742 -0.000200 0.001581
# 2 -0.002028 0.011765 -0.002829 -0.003444 -0.002474 -0.000025
# 3 -0.002578 -0.002829 0.009905 0.001176 0.000179 -0.000939
# 4 -0.000742 -0.003444 0.001176 0.026782 0.001671 -0.007906
# 5 -0.000200 -0.002474 0.000179 0.001671 0.026708 0.004004
# 6 0.001581 -0.000025 -0.000939 -0.007906 0.004004 0.025118
#
#
# Mechanical properties :
#
#
# Convention : Reuss Voigt Hill
#
# Bulk Modulus (GPa) = 56.67284 58.90960 57.79122
# Shear Modulus (GPa) = 37.91455 41.23292 39.57373
#
# Velocity S-wave (km/s) = 3.93671 4.10537 4.02192
# Velocity P-wave (km/s) = 6.62033 6.82287 6.72236
#
# Compressibility (1/GPa) = 0.01764514
#
# Stress axis : x y z
#
# Youngs Moduli (GPa) = 92.20507 84.99760 100.95547
#
# Poissons Ratio (x) = 0.17241 0.26024
# Poissons Ratio (y) = 0.18703 0.28562
# Poissons Ratio (z) = 0.23768 0.24047
#
# Static dielectric constant tensor:
#      x y z
#    x 1.899590 0.048870 -0.011980 
#    y 0.048870 1.718840 -0.070820 
#    z -0.011980 -0.070820 1.986300 
# 
# From -- ./inp_files/308487.got.cif
#   From: 2010.05.17/outbox.cif.g08.bks.cpg/sg2_155_cif.got.tgz:308487.got - 2010.06.03 11:33:40.
