data_PCOD9018416
_publ_section_title
;
Structure prediction by ZEFSAII (Michael W. Deem and Ramdas Pophale) SiO2 
 PCOD9018416
Probable space group: P -1
;
_chemical_formula_sum "Si O2"
_cell_formula_units_Z 16
_cell_length_a 7.919990
_cell_length_b 20.023489
_cell_length_c 10.591488
_cell_angle_alpha 40.392756
_cell_angle_beta 137.813254
_cell_angle_gamma 135.338060
_cell_volume 688.027517
_symmetry_space_group_name_H-M "P -1"
_symmetry_group_IT_number 2
_symmetry_cell_setting 'triclinic'
loop_
_space_group_symop_operation_xyz
x,y,z
-x,-y,-z
loop_
_atom_site_type_symbol
_atom_site_label
_atom_site_fract_x
_atom_site_fract_y
_atom_site_fract_z
Si Si1 0.276614 0.886726 0.005644
Si Si2 0.681744 0.206978 0.482853
Si Si3 0.817536 0.440217 0.867806
Si Si4 0.297825 0.671453 0.445180
Si Si5 0.730444 0.531543 0.423259
Si Si6 0.230531 0.970914 0.600659
Si Si7 0.715640 0.214418 0.208903
Si Si8 0.087212 0.112991 0.966091
O O1 0.348759 0.782413 0.237125
O O2 0.028462 0.892154 0.946708
O O3 0.275444 0.891684 0.848090
O O4 0.500000 0.000000 0.000000
O O5 0.595694 0.284463 0.420562
O O6 0.722996 0.254834 0.298521
O O7 0.950840 0.191348 0.707951
O O8 0.467522 0.083328 0.544241
O O9 0.851281 0.504690 0.660923
O O10 0.506045 0.420994 0.753798
O O11 0.849796 0.321551 0.045682
O O12 0.000000 0.500000 0.000000
O O13 0.395273 0.582958 0.557044
O O14 0.977906 0.610752 0.368277
O O15 0.162892 0.884890 0.573780
O O16 0.000000 0.000000 0.500000
O O17 0.403606 0.158452 0.084411
O O18 0.000000 0.000000 0.000000
#
# Coordination Sequence:
#
# PCOD9018416 Si02
#       8
#     2   2   2   2   2   2   2   2
#     4  11  20  39  61  93 130 162 214 262 323 394
#     4  11  23  42  64  94 133 175 223 262 334 401
#     4  11  24  44  68  99 130 171 226 279 335 386
#     4  10  21  43  70  95 129 177 217 273 335 387
#     4  10  23  44  70  96 131 170 228 278 325 394
#     4  12  25  39  59  95 134 173 216 273 325 396
#     4  12  25  44  65  95 135 176 225 278 331 403
#     4  11  22  39  67  90 127 183 218 263 328 395
#
# _framework density 23.254881999999998
#
# number of rings (size 3 to 8) (size 9 to 14) (size 15 to 20)
#    0.000    1.000    3.750    4.125    1.750    2.000 
#    0.000    8.125    0.000    0.000    0.000    0.000 
#    0.000    0.000    0.000    0.000    0.000    0.000 
#
# Total GULP energy -89406.719530 kJ/mol
# GULP energy per Si atom -5587.919971 kJ/mol
# Density = 2.320195 g / cm^3
# Si number density = 23.254882 Si / 1000 Ang^3
#
#
#
# Elastic Constant Matrix: (Units=GPa)
#
#
# Indices 1 2 3 4 5 6 
#
# 1 51.2894 -5.1172 6.6042 -1.8350 5.6012 -0.4297
# 2 -5.1172 98.5005 20.2491 -25.0530 3.3033 -19.9246
# 3 6.6042 20.2491 57.1104 -2.8935 -4.8258 4.8068
# 4 -1.8350 -25.0530 -2.8935 33.9116 -8.6906 0.6840
# 5 5.6012 3.3033 -4.8258 -8.6906 32.2680 -3.5445
# 6 -0.4297 -19.9246 4.8068 0.6840 -3.5445 44.3413
#
#
#
# Elastic Compliance Matrix: (Units=1/GPa)
#
#
# Indices 1 2 3 4 5 6 
#
# 1 0.020741 0.002739 -0.003723 0.001830 -0.003779 0.001505
# 2 0.002739 0.015997 -0.005976 0.011545 0.000955 0.007761
# 3 -0.003723 -0.005976 0.020635 -0.001912 0.003317 -0.004664
# 4 0.001830 0.011545 -0.001912 0.040323 0.009686 0.005565
# 5 -0.003779 0.000955 0.003317 0.009686 0.034948 0.002677
# 6 0.001505 0.007761 -0.004664 0.005565 0.002677 0.026688
#
#
# Mechanical properties :
#
#
# Convention : Reuss Voigt Hill
#
# Bulk Modulus (GPa) = 23.01318 27.81919 25.41618
# Shear Modulus (GPa) = 26.63296 34.44845 30.54070
#
# Velocity S-wave (km/s) = 3.38784 3.85300 3.62788
# Velocity P-wave (km/s) = 5.02204 5.63762 5.33871
#
# Compressibility (1/GPa) = 0.04345335
#
# Stress axis : x y z
#
# Youngs Moduli (GPa) = 48.21429 62.51013 48.46028
#
# Poissons Ratio (x) = -0.17124 0.18042
# Poissons Ratio (y) = -0.13208 0.28962
# Poissons Ratio (z) = 0.17951 0.37359
#
# Static dielectric constant tensor:
#      x y z
#    x 0.681040 2.016140 -1.478110 
#    y 2.016140 -1.398380 2.319820 
#    z -1.478110 2.319820 0.239100 
# 
# From -- ./inp_files/405454.got.cif
#   From: 2010.05.17/outbox.cif.g08.bks.cpg/sg2_203_cif.got.tgz:405454.got - 2010.06.03 11:33:40.
