data_PCOD9018182
_publ_section_title
;
Structure prediction by ZEFSAII (Michael W. Deem and Ramdas Pophale) SiO2 
 PCOD9018182
Probable space group: P -1
;
_chemical_formula_sum "Si O2"
_cell_formula_units_Z 13
_cell_length_a 14.138575
_cell_length_b 12.413634
_cell_length_c 14.772860
_cell_angle_alpha 36.132244
_cell_angle_beta 19.481748
_cell_angle_gamma 36.662749
_cell_volume 498.815732
_symmetry_space_group_name_H-M "P -1"
_symmetry_group_IT_number 2
_symmetry_cell_setting 'triclinic'
loop_
_space_group_symop_operation_xyz
x,y,z
-x,-y,-z
loop_
_atom_site_type_symbol
_atom_site_label
_atom_site_fract_x
_atom_site_fract_y
_atom_site_fract_z
Si Si1 0.217585 0.182101 0.899788
Si Si2 0.487124 0.126712 0.288265
Si Si3 0.267988 0.800005 0.804415
Si Si4 0.680035 0.419352 0.689467
Si Si5 0.500000 0.500000 0.000000
Si Si6 0.842165 0.760374 0.752239
Si Si7 0.798008 0.185036 0.445046
O O1 0.476086 0.275695 0.638610
O O2 0.383617 0.988128 0.837247
O O3 0.000020 0.261432 0.960562
O O4 0.012557 0.157295 0.184727
O O5 0.736186 0.174145 0.100623
O O6 0.315899 0.333307 0.288134
O O7 0.317382 0.991160 0.586177
O O8 0.546475 0.638144 0.643774
O O9 0.981439 0.344334 0.420136
O O10 0.642408 0.404366 0.841003
O O11 0.456971 0.305728 0.922062
O O12 0.049054 0.716057 0.683103
O O13 0.780086 0.982530 0.639603
#
# Coordination Sequence:
#
# PCOD9018182 Si02
#       7
#     2   2   2   2   1   2   2
#     4  12  22  42  68 100 130 181 223 274 326 412
#     4  10  21  43  68  98 140 176 220 274 335 397
#     4  10  24  42  66 101 139 184 211 272 343 408
#     4  11  25  43  70  98 142 169 226 273 337 394
#     4  10  22  44  68 110 122 178 222 274 322 406
#     4  11  24  46  66  99 134 179 219 290 332 389
#     4  11  24  41  72  97 131 174 235 276 340 381
#
# _framework density 26.061727000000001
#
# number of rings (size 3 to 8) (size 9 to 14) (size 15 to 20)
#    0.000    1.231    1.538    4.154    2.154    3.077 
#    8.308    4.615    0.000    0.000    0.000    0.000 
#    0.000    0.000    0.000    0.000    0.000    0.000 
#
# Total GULP energy -72546.961540 kJ/mol
# GULP energy per Si atom -5580.535503 kJ/mol
# Density = 2.600241 g / cm^3
# Si number density = 26.061727 Si / 1000 Ang^3
#
#
#
# Elastic Constant Matrix: (Units=GPa)
#
#
# Indices 1 2 3 4 5 6 
#
# 1 183.0677 -13.0743 28.9415 4.5778 -25.7975 27.4289
# 2 -13.0743 40.9713 -4.8701 -17.1652 -5.4834 6.3204
# 3 28.9415 -4.8701 92.0384 -2.6366 -5.6488 -7.0555
# 4 4.5778 -17.1652 -2.6366 22.0128 -6.1153 -3.7816
# 5 -25.7975 -5.4834 -5.6488 -6.1153 25.7912 13.3746
# 6 27.4289 6.3204 -7.0555 -3.7816 13.3746 14.5699
#
#
#
# Elastic Compliance Matrix: (Units=1/GPa)
#
#
# Indices 1 2 3 4 5 6 
#
# 1 -0.002562 -0.012320 0.000655 -0.010297 -0.022006 0.028013
# 2 -0.012320 0.016452 0.007332 0.016795 -0.029897 0.051411
# 3 0.000655 0.007332 0.011470 0.008690 0.009593 -0.005410
# 4 -0.010297 0.016795 0.008690 0.065955 -0.012444 0.044849
# 5 -0.022006 -0.029897 0.009593 -0.012444 -0.037002 0.089779
# 6 0.028013 0.051411 -0.005410 0.044849 0.089779 -0.079796
#
#
# Mechanical properties :
#
#
# Convention : Reuss Voigt Hill
#
# Bulk Modulus (GPa) = 59.90086 37.56350 48.73218
# Shear Modulus (GPa) = -444.32097 32.81347 -205.75375
#
# Velocity S-wave (km/s) = -13.07127 3.55218 -8.89494
# Velocity P-wave (km/s) = 14.31002 5.59183 9.31418
#
# Compressibility (1/GPa) = 0.01669425
#
# Stress axis : x y z
#
# Youngs Moduli (GPa) = -390.35481 60.78365 87.18521
#
# Poissons Ratio (x) = 0.74886 -0.05715
# Poissons Ratio (y) = -4.80921 -0.63923
# Poissons Ratio (z) = 0.25586 -0.44566
#
# Static dielectric constant tensor:
#      x y z
#    x 2.253440 -0.213390 -0.170460 
#    y -0.213390 2.216500 0.114890 
#    z -0.170460 0.114890 2.147730 
# 
# From -- ./inp_files/134640.got.cif
#   From: 2010.05.17/outbox.cif.g08.bks.cpg/sg2_68_cif.got.tgz:134640.got - 2010.06.03 11:33:40.
