data_PCOD9018938
_publ_section_title
;
Structure prediction by ZEFSAII (Michael W. Deem and Ramdas Pophale) SiO2 
 PCOD9018938
Probable space group: P -1
;
_chemical_formula_sum "Si O2"
_cell_formula_units_Z 16
_cell_length_a 17.458948
_cell_length_b 5.304932
_cell_length_c 26.115281
_cell_angle_alpha 98.485272
_cell_angle_beta 18.682568
_cell_angle_gamma 89.261811
_cell_volume 671.473589
_symmetry_space_group_name_H-M "P -1"
_symmetry_group_IT_number 2
_symmetry_cell_setting 'triclinic'
loop_
_space_group_symop_operation_xyz
x,y,z
-x,-y,-z
loop_
_atom_site_type_symbol
_atom_site_label
_atom_site_fract_x
_atom_site_fract_y
_atom_site_fract_z
Si Si1 0.352239 0.431815 0.955097
Si Si2 0.737282 0.974360 0.776604
Si Si3 0.262659 0.640465 0.550988
Si Si4 0.250229 0.675044 0.832886
Si Si5 0.972566 0.396245 0.929997
Si Si6 0.862732 0.306286 0.566308
Si Si7 0.516200 0.920753 0.546219
Si Si8 0.296776 0.845242 0.091172
O O1 0.536009 0.140098 0.861623
O O2 0.560089 0.470785 0.786115
O O3 0.130427 0.453597 0.055217
O O4 0.236119 0.669297 0.080715
O O5 0.721113 0.196982 0.837886
O O6 0.039687 0.788267 0.556850
O O7 0.593082 0.804417 0.888042
O O8 0.450154 0.416636 0.381041
O O9 0.334883 0.419702 0.545988
O O10 0.347601 0.896163 0.509153
O O11 0.939077 0.818176 0.754654
O O12 0.136501 0.522328 0.861481
O O13 0.258831 0.571264 0.882545
O O14 0.000000 0.000000 0.000000
O O15 0.199395 0.061799 0.768203
O O16 0.000000 0.500000 0.500000
O O17 0.000000 0.000000 0.500000
O O18 0.500000 0.000000 0.500000
#
# Coordination Sequence:
#
# PCOD9018938 Si02
#       8
#     2   2   2   2   2   2   2   2
#     4  11  23  42  70  99 132 181 231 283 345 412
#     4  10  24  44  64  98 135 180 227 290 340 409
#     4  11  25  41  67  96 133 179 224 275 337 414
#     4  10  21  45  63  95 138 176 225 279 349 402
#     4  10  23  39  69  96 133 177 224 286 337 414
#     4  10  21  44  66  95 135 172 226 286 338 396
#     4  11  23  43  63  99 135 171 220 281 337 402
#     4  11  24  42  68  94 138 180 229 281 348 407
#
# _framework density 23.828191
#
# number of rings (size 3 to 8) (size 9 to 14) (size 15 to 20)
#    0.000    1.500    2.500    1.500    5.250    1.000 
#    0.000    0.000    0.000    0.000    0.000    0.000 
#    0.000    0.000    0.000    0.000    0.000    0.000 
#
# Total GULP energy -89247.140802 kJ/mol
# GULP energy per Si atom -5577.946300 kJ/mol
# Density = 2.377396 g / cm^3
# Si number density = 23.828191 Si / 1000 Ang^3
#
#
#
# Elastic Constant Matrix: (Units=GPa)
#
#
# Indices 1 2 3 4 5 6 
#
# 1 143.8173 13.5587 16.6566 -1.0687 12.7156 -8.3444
# 2 13.5587 62.7140 8.0828 3.2411 0.7187 -9.7047
# 3 16.6566 8.0828 107.6214 -2.8230 31.3380 -1.8642
# 4 -1.0687 3.2411 -2.8230 29.9227 -8.7855 6.2566
# 5 12.7156 0.7187 31.3380 -8.7855 43.6191 9.5983
# 6 -8.3444 -9.7047 -1.8642 6.2566 9.5983 25.0284
#
#
#
# Elastic Compliance Matrix: (Units=1/GPa)
#
#
# Indices 1 2 3 4 5 6 
#
# 1 0.007542 -0.000935 -0.000149 -0.001341 -0.003158 0.003687
# 2 -0.000935 0.017810 -0.000420 -0.004566 -0.002549 0.008682
# 3 -0.000149 -0.000420 0.012511 -0.003136 -0.010813 0.005650
# 4 -0.001341 -0.004566 -0.003136 0.042006 0.015323 -0.018828
# 5 -0.003158 -0.002549 -0.010813 0.015323 0.039549 -0.021844
# 6 0.003687 0.008682 0.005650 -0.018828 -0.021844 0.058055
#
#
# Mechanical properties :
#
#
# Convention : Reuss Voigt Hill
#
# Bulk Modulus (GPa) = 28.69076 43.41654 36.05365
# Shear Modulus (GPa) = 26.02822 38.10434 32.06628
#
# Velocity S-wave (km/s) = 3.30863 4.00325 3.67240
# Velocity P-wave (km/s) = 5.16361 6.29509 5.75721
#
# Compressibility (1/GPa) = 0.03485443
#
# Stress axis : x y z
#
# Youngs Moduli (GPa) = 132.59403 56.14701 79.93275
#
# Poissons Ratio (x) = 0.05251 0.01190
# Poissons Ratio (y) = 0.12401 0.03357
# Poissons Ratio (z) = 0.01974 0.02358
#
# Static dielectric constant tensor:
#      x y z
#    x 1.951970 -0.012410 0.019280 
#    y -0.012410 1.968890 -0.001530 
#    z 0.019280 -0.001530 2.025920 
# 
# From -- ./inp_files/477808.got.cif
#   From: 2010.05.17/outbox.cif.g08.bks.cpg/sg2_239_cif.got.tgz:477808.got - 2010.06.03 11:33:40.
