data_PCOD9018127
_publ_section_title
;
Structure prediction by ZEFSAII (Michael W. Deem and Ramdas Pophale) SiO2 
 PCOD9018127
Probable space group: P -1
;
_chemical_formula_sum "Si O2"
_cell_formula_units_Z 16
_cell_length_a 12.202000
_cell_length_b 20.262053
_cell_length_c 9.207862
_cell_angle_alpha 127.825663
_cell_angle_beta 38.496481
_cell_angle_gamma 151.024162
_cell_volume 666.952843
_symmetry_space_group_name_H-M "P -1"
_symmetry_group_IT_number 2
_symmetry_cell_setting 'triclinic'
loop_
_space_group_symop_operation_xyz
x,y,z
-x,-y,-z
loop_
_atom_site_type_symbol
_atom_site_label
_atom_site_fract_x
_atom_site_fract_y
_atom_site_fract_z
Si Si1 0.030896 0.924120 0.946420
Si Si2 0.658444 0.409875 0.558723
Si Si3 0.163430 0.325987 0.865401
Si Si4 0.388751 0.846851 0.996659
Si Si5 0.377151 0.927253 0.733095
Si Si6 0.497635 0.617537 0.984792
Si Si7 0.624375 0.860589 0.494347
Si Si8 0.172457 0.616724 0.104231
O O1 0.826399 0.777177 0.881724
O O2 0.883378 0.899517 0.219703
O O3 0.325205 0.983552 0.751521
O O4 0.000000 0.000000 0.000000
O O5 0.374399 0.326067 0.642185
O O6 0.632284 0.425556 0.774584
O O7 0.660548 0.309834 0.428961
O O8 0.933580 0.554184 0.386706
O O9 0.931638 0.258563 0.888210
O O10 0.401459 0.489901 0.861270
O O11 0.949094 0.230518 0.097216
O O12 0.342148 0.756829 0.042230
O O13 0.496302 0.972658 0.127019
O O14 0.622349 0.902116 0.709826
O O15 0.566716 0.914654 0.514664
O O16 0.371751 0.631405 0.012192
O O17 0.000000 0.500000 0.000000
#
# Coordination Sequence:
#
# PCOD9018127 Si02
#       8
#     2   2   2   2   2   2   2   2
#     4  11  25  46  67 101 137 176 229 279 334 409
#     4  11  23  41  70 101 131 181 224 280 341 401
#     4  11  21  43  69  99 135 173 236 276 330 410
#     4  11  24  43  67  99 139 181 220 281 341 398
#     4  11  23  44  68  96 141 176 225 279 333 406
#     4  11  23  44  69  98 135 179 222 282 341 398
#     4  10  21  43  68  95 127 183 225 266 340 397
#     4  12  22  42  65  97 140 172 226 284 331 401
#
# _framework density 23.989701
#
# number of rings (size 3 to 8) (size 9 to 14) (size 15 to 20)
#    0.000    1.000    5.000    3.750    0.000    3.500 
#    4.500    0.000    0.000    0.000    0.000    0.000 
#    0.000    0.000    0.000    0.000    0.000    0.000 
#
# Total GULP energy -89309.077929 kJ/mol
# GULP energy per Si atom -5581.817371 kJ/mol
# Density = 2.393510 g / cm^3
# Si number density = 23.989701 Si / 1000 Ang^3
#
#
#
# Elastic Constant Matrix: (Units=GPa)
#
#
# Indices 1 2 3 4 5 6 
#
# 1 145.1235 16.5070 43.6307 2.0995 -2.3335 -11.6751
# 2 16.5070 82.4359 18.1369 25.8269 -6.8622 -4.2967
# 3 43.6307 18.1369 52.3572 9.5087 -22.8214 -6.2945
# 4 2.0995 25.8269 9.5087 2.7933 -17.8642 10.3731
# 5 -2.3335 -6.8622 -22.8214 -17.8642 30.8977 1.7109
# 6 -11.6751 -4.2967 -6.2945 10.3731 1.7109 50.8748
#
#
#
# Elastic Compliance Matrix: (Units=1/GPa)
#
#
# Indices 1 2 3 4 5 6 
#
# 1 0.010305 -0.001175 -0.011310 0.003631 -0.005755 0.000320
# 2 -0.001175 0.007793 -0.000193 0.017242 0.011664 -0.003543
# 3 -0.011310 -0.000193 0.040748 -0.014530 0.020538 0.004702
# 4 0.003631 0.017242 -0.014530 -0.055438 -0.039408 0.013121
# 5 -0.005755 0.011664 0.020538 -0.039408 0.026388 0.009353
# 6 0.000320 -0.003543 0.004702 0.013121 0.009353 0.017022
#
#
# Mechanical properties :
#
#
# Convention : Reuss Voigt Hill
#
# Bulk Modulus (GPa) = 29.86055 48.49623 39.17839
# Shear Modulus (GPa) = 59.99657 30.35595 45.17626
#
# Velocity S-wave (km/s) = 5.00636 3.56107 4.34424
# Velocity P-wave (km/s) = 6.77439 6.09652 6.44438
#
# Compressibility (1/GPa) = 0.03348900
#
# Stress axis : x y z
#
# Youngs Moduli (GPa) = 97.03752 128.32071 24.54118
#
# Poissons Ratio (x) = 0.15080 0.27756
# Poissons Ratio (y) = 0.11404 0.00475
# Poissons Ratio (z) = 1.09749 0.02481
#
# Static dielectric constant tensor:
#      x y z
#    x 1.976960 -0.009780 0.026590 
#    y -0.009780 1.921130 -0.046320 
#    z 0.026590 -0.046320 1.978660 
# 
# From -- ./inp_files/283214.got.cif
#   From: 2010.05.17/outbox.cif.g08.bks.cpg/sg2_142_cif.got.tgz:283214.got - 2010.06.03 11:33:40.
