data_PCOD9018004
_publ_section_title
;
Structure prediction by ZEFSAII (Michael W. Deem and Ramdas Pophale) SiO2 
 PCOD9018004
Probable space group: P -1
;
_chemical_formula_sum "Si O2"
_cell_formula_units_Z 16
_cell_length_a 11.740863
_cell_length_b 9.087330
_cell_length_c 17.084274
_cell_angle_alpha 126.298998
_cell_angle_beta 134.660514
_cell_angle_gamma 89.088519
_cell_volume 748.110564
_symmetry_space_group_name_H-M "P -1"
_symmetry_group_IT_number 2
_symmetry_cell_setting 'triclinic'
loop_
_space_group_symop_operation_xyz
x,y,z
-x,-y,-z
loop_
_atom_site_type_symbol
_atom_site_label
_atom_site_fract_x
_atom_site_fract_y
_atom_site_fract_z
Si Si1 0.858494 0.423876 0.984470
Si Si2 0.700146 0.637931 0.048395
Si Si3 0.796882 0.705260 0.294842
Si Si4 0.149708 0.402003 0.223695
Si Si5 0.447420 0.843170 0.633382
Si Si6 0.737343 0.837674 0.890287
Si Si7 0.013639 0.540314 0.426211
Si Si8 0.680340 0.983779 0.065958
O O1 0.615384 0.133140 0.774990
O O2 0.838083 0.623260 0.051822
O O3 0.000000 0.500000 0.000000
O O4 0.991033 0.433440 0.122730
O O5 0.772089 0.638694 0.170321
O O6 0.714830 0.867515 0.116279
O O7 0.439269 0.391758 0.830727
O O8 0.850330 0.571940 0.330331
O O9 0.000000 0.000000 0.500000
O O10 0.326318 0.636028 0.440224
O O11 0.255697 0.370277 0.192991
O O12 0.987752 0.122287 0.097771
O O13 0.597877 0.824025 0.750147
O O14 0.256088 0.764980 0.575856
O O15 0.632047 0.820493 0.915731
O O16 0.000000 0.500000 0.500000
O O17 0.910805 0.274796 0.256476
O O18 0.500000 0.000000 0.000000
#
# Coordination Sequence:
#
# PCOD9018004 Si02
#       8
#     2   2   2   2   2   2   2   2
#     4  11  25  45  69  99 139 186 237 285 348 417
#     4  11  25  43  69  99 140 185 228 289 354 414
#     4  11  24  44  68 100 139 181 233 286 353 422
#     4  10  21  43  67  98 134 179 229 291 340 412
#     4  11  23  41  70 100 137 185 233 290 353 414
#     4  10  22  39  67  98 138 175 226 284 353 408
#     4  12  24  42  70 106 142 183 234 290 352 423
#     4  12  23  42  66  99 141 178 229 289 346 421
#
# _framework density 21.387214
#
# number of rings (size 3 to 8) (size 9 to 14) (size 15 to 20)
#    0.000    1.000    2.500    4.125    1.750    1.500 
#    2.250    0.000    0.000    0.000    0.000    0.000 
#    0.000    0.000    0.000    0.000    0.000    0.000 
#
# Total GULP energy -89412.099264 kJ/mol
# GULP energy per Si atom -5588.256204 kJ/mol
# Density = 2.133854 g / cm^3
# Si number density = 21.387214 Si / 1000 Ang^3
#
#
#
# Elastic Constant Matrix: (Units=GPa)
#
#
# Indices 1 2 3 4 5 6 
#
# 1 147.8933 38.4864 28.8794 -8.6981 -1.5689 -11.5565
# 2 38.4864 104.0313 38.1618 -7.1847 -9.5331 -5.1007
# 3 28.8794 38.1618 112.7225 -6.5422 -1.4203 2.5508
# 4 -8.6981 -7.1847 -6.5422 28.8838 9.7711 3.1709
# 5 -1.5689 -9.5331 -1.4203 9.7711 31.0008 4.0168
# 6 -11.5565 -5.1007 2.5508 3.1709 4.0168 35.1695
#
#
#
# Elastic Compliance Matrix: (Units=1/GPa)
#
#
# Indices 1 2 3 4 5 6 
#
# 1 0.007874 -0.002358 -0.001190 0.001669 -0.001208 0.002319
# 2 -0.002358 0.012113 -0.003455 0.000335 0.003234 0.000833
# 3 -0.001190 -0.003455 0.010469 0.001660 -0.000947 -0.001693
# 4 0.001669 0.000335 0.001660 0.039859 -0.012074 -0.001738
# 5 -0.001208 0.003234 -0.000947 -0.012074 0.037346 -0.003036
# 6 0.002319 0.000833 -0.001693 -0.001738 -0.003036 0.029943
#
#
# Mechanical properties :
#
#
# Convention : Reuss Voigt Hill
#
# Bulk Modulus (GPa) = 60.79414 63.96690 62.38052
# Shear Modulus (GPa) = 31.82829 36.28545 34.05687
#
# Velocity S-wave (km/s) = 3.86189 4.12344 3.99481
# Velocity P-wave (km/s) = 6.95506 7.25564 7.10694
#
# Compressibility (1/GPa) = 0.01644896
#
# Stress axis : x y z
#
# Youngs Moduli (GPa) = 126.99619 82.55800 95.52377
#
# Poissons Ratio (x) = 0.19470 0.11365
# Poissons Ratio (y) = 0.29950 0.33005
# Poissons Ratio (z) = 0.15110 0.28525
#
# Static dielectric constant tensor:
#      x y z
#    x 1.825840 0.023530 0.009370 
#    y 0.023530 1.784450 0.011550 
#    z 0.009370 0.011550 1.766000 
# 
# From -- ./inp_files/566967.got.cif
#   From: 2010.05.17/outbox.cif.g08.bks.cpg/sg2_284_cif.got.tgz:566967.got - 2010.06.03 11:33:40.
