data_PCOD9018693
_publ_section_title
;
Structure prediction by ZEFSAII (Michael W. Deem and Ramdas Pophale) SiO2 
 PCOD9018693
Probable space group: P -1
;
_chemical_formula_sum "Si O2"
_cell_formula_units_Z 15
_cell_length_a 9.702261
_cell_length_b 9.278310
_cell_length_c 13.715914
_cell_angle_alpha 97.617347
_cell_angle_beta 43.232669
_cell_angle_gamma 124.394848
_cell_volume 606.910750
_symmetry_space_group_name_H-M "P -1"
_symmetry_group_IT_number 2
_symmetry_cell_setting 'triclinic'
loop_
_space_group_symop_operation_xyz
x,y,z
-x,-y,-z
loop_
_atom_site_type_symbol
_atom_site_label
_atom_site_fract_x
_atom_site_fract_y
_atom_site_fract_z
Si Si1 0.107894 0.661330 0.242878
Si Si2 0.399997 0.621121 0.828921
Si Si3 0.481505 0.684272 0.580978
Si Si4 0.857211 0.197171 0.073690
Si Si5 0.391399 0.295471 0.077517
Si Si6 0.000000 0.500000 0.500000
Si Si7 0.401016 0.936164 0.432892
Si Si8 0.022611 0.127236 0.785510
O O1 0.125469 0.836341 0.211590
O O2 0.833547 0.462711 0.309619
O O3 0.077274 0.630953 0.372028
O O4 0.378761 0.708603 0.073510
O O5 0.465171 0.595945 0.685467
O O6 0.297967 0.736320 0.882199
O O7 0.637890 0.718362 0.792247
O O8 0.141874 0.403453 0.987758
O O9 0.500000 0.000000 0.500000
O O10 0.631373 0.908321 0.556699
O O11 0.660876 0.022847 0.236890
O O12 0.951021 0.148356 0.930639
O O13 0.098687 0.094474 0.172750
O O14 0.500000 0.500000 0.000000
O O15 0.842908 0.295286 0.491394
O O16 0.665038 0.716038 0.401331
#
# Coordination Sequence:
#
# PCOD9018693 Si02
#       8
#     2   2   2   2   2   1   2   2
#     4  12  25  50  75 107 155 202 256 319 391 467
#     4  10  21  43  75 105 144 198 256 307 392 462
#     4  11  25  46  79 109 150 202 261 325 384 464
#     4  10  21  44  76 106 138 204 261 306 384 469
#     4  12  28  46  71 109 156 198 252 326 386 458
#     4  12  28  42  78 110 154 206 260 308 404 458
#     4  11  24  46  72 109 158 210 253 318 393 466
#     4  12  26  46  78 114 147 198 266 321 384 465
#
# _framework density 24.715332
#
# number of rings (size 3 to 8) (size 9 to 14) (size 15 to 20)
#    0.000    0.800    4.000    3.200    5.600    1.600 
#    0.000    1.333    0.000    0.000    0.000    0.000 
#    0.000    0.000    0.000    0.000    0.000    0.000 
#
# Total GULP energy -83624.956169 kJ/mol
# GULP energy per Si atom -5574.997078 kJ/mol
# Density = 2.465908 g / cm^3
# Si number density = 24.715332 Si / 1000 Ang^3
#
#
#
# Elastic Constant Matrix: (Units=GPa)
#
#
# Indices 1 2 3 4 5 6 
#
# 1 67.2046 23.4627 26.7788 7.7595 21.5788 22.9035
# 2 23.4627 117.8944 24.1388 -17.7850 2.9123 27.1727
# 3 26.7788 24.1388 132.2766 17.0883 10.3430 12.3996
# 4 7.7595 -17.7850 17.0883 40.9537 10.7654 12.5757
# 5 21.5788 2.9123 10.3430 10.7654 37.2496 11.5396
# 6 22.9035 27.1727 12.3996 12.5757 11.5396 34.0347
#
#
#
# Elastic Compliance Matrix: (Units=1/GPa)
#
#
# Indices 1 2 3 4 5 6 
#
# 1 0.023073 -0.000624 -0.003065 0.002753 -0.009651 -0.011657
# 2 -0.000624 0.014273 -0.002697 0.011644 0.001182 -0.014696
# 3 -0.003065 -0.002697 0.009081 -0.005276 0.000117 0.002818
# 4 0.002753 0.011644 -0.005276 0.039348 -0.005642 -0.021853
# 5 -0.009651 0.001182 0.000117 -0.005642 0.035298 -0.004375
# 6 -0.011657 -0.014696 0.002818 -0.021853 -0.004375 0.057491
#
#
# Mechanical properties :
#
#
# Convention : Reuss Voigt Hill
#
# Bulk Modulus (GPa) = 29.71432 51.79291 40.75361
# Shear Modulus (GPa) = 24.68467 38.64729 31.66598
#
# Velocity S-wave (km/s) = 3.16374 3.95865 3.58331
# Velocity P-wave (km/s) = 5.03929 6.47270 5.80044
#
# Compressibility (1/GPa) = 0.03365381
#
# Stress axis : x y z
#
# Youngs Moduli (GPa) = 43.34107 70.06102 110.11972
#
# Poissons Ratio (x) = 0.04370 0.33757
# Poissons Ratio (y) = 0.02703 0.29705
# Poissons Ratio (z) = 0.13286 0.18899
#
# Static dielectric constant tensor:
#      x y z
#    x 1.947900 -0.040070 -0.029370 
#    y -0.040070 2.043410 -0.006000 
#    z -0.029370 -0.006000 1.927290 
# 
# From -- ./inp_files/492699.got.cif
#   From: 2010.05.17/outbox.cif.g08.bks.cpg/sg2_247_cif.got.tgz:492699.got - 2010.06.03 11:33:40.
