data_PCOD9018570
_publ_section_title
;
Structure prediction by ZEFSAII (Michael W. Deem and Ramdas Pophale) SiO2 
 PCOD9018570
Probable space group: P -1
;
_chemical_formula_sum "Si O2"
_cell_formula_units_Z 12
_cell_length_a 12.482261
_cell_length_b 8.215869
_cell_length_c 13.480189
_cell_angle_alpha 136.989271
_cell_angle_beta 128.069944
_cell_angle_gamma 88.112551
_cell_volume 466.149469
_symmetry_space_group_name_H-M "P -1"
_symmetry_group_IT_number 2
_symmetry_cell_setting 'triclinic'
loop_
_space_group_symop_operation_xyz
x,y,z
-x,-y,-z
loop_
_atom_site_type_symbol
_atom_site_label
_atom_site_fract_x
_atom_site_fract_y
_atom_site_fract_z
Si Si1 0.212379 0.627832 0.654486
Si Si2 0.619885 0.866531 0.668780
Si Si3 0.598967 0.647623 0.851099
Si Si4 0.523729 0.810042 0.241000
Si Si5 0.032991 0.827208 0.867338
Si Si6 0.192137 0.221053 0.630613
O O1 0.602446 0.934149 0.006004
O O2 0.000000 0.500000 0.500000
O O3 0.181803 0.536997 0.478939
O O4 0.174465 0.346092 0.575756
O O5 0.500000 0.500000 0.500000
O O6 0.613577 0.744740 0.501360
O O7 0.487633 0.930665 0.621283
O O8 0.842978 0.198963 0.005325
O O9 0.618453 0.527830 0.909413
O O10 0.251635 0.026560 0.558734
O O11 0.405656 0.615517 0.982628
O O12 0.203679 0.128702 0.012212
O O13 0.000000 0.000000 0.000000
O O14 0.000000 0.000000 0.500000
#
# Coordination Sequence:
#
# PCOD9018570 Si02
#       6
#     2   2   2   2   2   2
#     4  10  21  43  72 100 139 183 235 288 351 426
#     4  10  22  45  68  97 142 185 233 287 354 424
#     4  10  22  44  68 101 142 183 235 286 356 423
#     4  11  24  44  70 105 143 187 235 298 360 417
#     4  10  22  42  68 106 140 183 241 290 351 421
#     4  11  24  44  70 107 143 182 240 296 356 425
#
# _framework density 25.742813999999999
#
# number of rings (size 3 to 8) (size 9 to 14) (size 15 to 20)
#    0.000    1.667    0.000    5.500    2.333    0.667 
#   30.000    0.833    0.000    1.000    0.000    0.000 
#    0.000    0.000    0.000    0.000    0.000    0.000 
#
# Total GULP energy -67137.956867 kJ/mol
# GULP energy per Si atom -5594.829739 kJ/mol
# Density = 2.568422 g / cm^3
# Si number density = 25.742814 Si / 1000 Ang^3
#
#
#
# Elastic Constant Matrix: (Units=GPa)
#
#
# Indices 1 2 3 4 5 6 
#
# 1 192.3898 80.0095 41.6439 -4.6285 -10.2964 -24.9480
# 2 80.0095 126.4487 64.2932 -5.8690 4.2468 -29.8005
# 3 41.6439 64.2932 155.2599 -24.1316 -31.3176 -5.7171
# 4 -4.6285 -5.8690 -24.1316 44.5492 4.6109 9.1267
# 5 -10.2964 4.2468 -31.3176 4.6109 52.4604 1.3616
# 6 -24.9480 -29.8005 -5.7171 9.1267 1.3616 61.1346
#
#
#
# Elastic Compliance Matrix: (Units=1/GPa)
#
#
# Indices 1 2 3 4 5 6 
#
# 1 0.007268 -0.004752 0.000465 0.000035 0.002069 0.000642
# 2 -0.004752 0.015702 -0.006646 -0.002543 -0.006093 0.005609
# 3 0.000465 -0.006646 0.011146 0.005094 0.006911 -0.002922
# 4 0.000035 -0.002543 0.005094 0.025704 0.001114 -0.004611
# 5 0.002069 -0.006093 0.006911 0.001114 0.024046 -0.002181
# 6 0.000642 0.005609 -0.002922 -0.004611 -0.002181 0.019817
#
#
# Mechanical properties :
#
#
# Convention : Reuss Voigt Hill
#
# Bulk Modulus (GPa) = 81.62286 93.99907 87.81097
# Shear Modulus (GPa) = 38.57019 50.83896 44.70457
#
# Velocity S-wave (km/s) = 3.87497 4.44878 4.17176
# Velocity P-wave (km/s) = 7.19697 7.93617 7.57560
#
# Compressibility (1/GPa) = 0.01225147
#
# Stress axis : x y z
#
# Youngs Moduli (GPa) = 137.58779 63.68431 89.71478
#
# Poissons Ratio (x) = 0.30260 -0.04168
# Poissons Ratio (y) = 0.65377 0.59622
# Poissons Ratio (z) = -0.06392 0.42323
#
# Static dielectric constant tensor:
#      x y z
#    x 2.074760 0.004970 0.081500 
#    y 0.004970 1.982950 0.051410 
#    z 0.081500 0.051410 2.308260 
# 
# From -- ./inp_files/413549.got.cif
#   From: 2010.05.17/outbox.cif.g08.bks.cpg/sg2_207_cif.got.tgz:413549.got - 2010.06.03 11:33:40.
