data_PCOD9018366
_publ_section_title
;
Structure prediction by ZEFSAII (Michael W. Deem and Ramdas Pophale) SiO2 
 PCOD9018366
Probable space group: P -1
;
_chemical_formula_sum "Si O2"
_cell_formula_units_Z 16
_cell_length_a 11.560567
_cell_length_b 11.501613
_cell_length_c 5.444993
_cell_angle_alpha 85.985735
_cell_angle_beta 98.522087
_cell_angle_gamma 62.072666
_cell_volume 624.513239
_symmetry_space_group_name_H-M "P -1"
_symmetry_group_IT_number 2
_symmetry_cell_setting 'triclinic'
loop_
_space_group_symop_operation_xyz
x,y,z
-x,-y,-z
loop_
_atom_site_type_symbol
_atom_site_label
_atom_site_fract_x
_atom_site_fract_y
_atom_site_fract_z
Si Si1 0.507047 0.634979 0.288580
Si Si2 0.828084 0.914985 0.597013
Si Si3 0.972245 0.889170 0.140944
Si Si4 0.283251 0.626928 0.856256
Si Si5 0.081550 0.605943 0.139751
Si Si6 0.463073 0.152068 0.008032
Si Si7 0.805206 0.684983 0.782854
Si Si8 0.660350 0.191092 0.397417
O O1 0.631507 0.497853 0.272382
O O2 0.453628 0.672480 0.540924
O O3 0.383998 0.635536 0.093374
O O4 0.545208 0.751006 0.227436
O O5 0.892206 0.934778 0.364748
O O6 0.795177 0.794718 0.563341
O O7 0.722734 0.066719 0.615913
O O8 0.903800 0.866282 0.883750
O O9 0.075809 0.733402 0.258063
O O10 0.000000 0.000000 0.000000
O O11 0.236007 0.768029 0.688896
O O12 0.166500 0.605034 0.930020
O O13 0.164969 0.457264 0.299111
O O14 0.932708 0.634362 0.017566
O O15 0.330840 0.234305 0.117858
O O16 0.590747 0.142634 0.188674
O O17 0.500000 0.000000 0.000000
#
# Coordination Sequence:
#
# PCOD9018366 Si02
#       8
#     2   2   2   2   2   2   2   2
#     4  10  22  41  69 101 142 180 247 307 366 442
#     4  11  26  44  72 104 148 188 247 303 364 440
#     4  11  25  46  72 107 146 193 244 303 367 441
#     4  10  21  43  70 102 140 188 239 308 375 435
#     4  10  22  44  75  99 145 194 239 306 364 449
#     4  11  24  43  72 100 145 194 244 307 371 445
#     4  10  23  46  68 104 140 193 251 292 371 443
#     4  11  25  41  71 107 138 193 243 320 370 437
#
# _framework density 25.619955999999998
#
# number of rings (size 3 to 8) (size 9 to 14) (size 15 to 20)
#    0.000    1.500    1.250    2.250    8.750    3.500 
#    0.000    0.000    0.000    0.000    0.000    0.000 
#    0.000    0.000    0.000    0.000    0.000    0.000 
#
# Total GULP energy -89213.847698 kJ/mol
# GULP energy per Si atom -5575.865481 kJ/mol
# Density = 2.556164 g / cm^3
# Si number density = 25.619956 Si / 1000 Ang^3
#
#
#
# Elastic Constant Matrix: (Units=GPa)
#
#
# Indices 1 2 3 4 5 6 
#
# 1 -25.8905 -201.4967 -76.3885 -19.5481 111.7633 -70.7946
# 2 -201.4967 -352.3910 -217.6709 -16.8137 263.1651 -176.6915
# 3 -76.3885 -217.6709 -43.9036 0.8284 108.6268 -68.4814
# 4 -19.5481 -16.8137 0.8284 33.8630 12.7781 -6.7008
# 5 111.7633 263.1651 108.6268 12.7781 -101.4937 97.3314
# 6 -70.7946 -176.6915 -68.4814 -6.7008 97.3314 -28.0209
#
#
#
# Elastic Compliance Matrix: (Units=1/GPa)
#
#
# Indices 1 2 3 4 5 6 
#
# 1 0.018323 -0.003021 -0.008568 0.008148 0.001593 -0.002717
# 2 -0.003021 0.004812 -0.000291 -0.002003 0.005169 -0.003562
# 3 -0.008568 -0.000291 0.025048 -0.010225 0.007940 -0.007706
# 4 0.008148 -0.002003 -0.010225 0.034484 -0.002404 0.000437
# 5 0.001593 0.005169 0.007940 -0.002404 0.017020 0.003672
# 6 -0.002717 -0.003562 -0.007706 0.000437 0.003672 0.025124
#
#
# Mechanical properties :
#
#
# Convention : Reuss Voigt Hill
#
# Bulk Modulus (GPa) = 40.94885 -157.03301 -58.04208
# Shear Modulus (GPa) = 31.90569 -14.23893 8.83338
#
# Velocity S-wave (km/s) = 3.53277 -2.36005 1.85885
# Velocity P-wave (km/s) = 5.71476 8.29775 4.25407
#
# Compressibility (1/GPa) = 0.02442071
#
# Stress axis : x y z
#
# Youngs Moduli (GPa) = 54.57637 207.83153 39.92358
#
# Poissons Ratio (x) = 0.62789 0.34208
# Poissons Ratio (y) = 0.16488 0.01164
# Poissons Ratio (z) = 0.46762 0.06057
#
# Static dielectric constant tensor:
#      x y z
#    x 2.088800 0.035680 0.016490 
#    y 0.035680 2.188080 -0.074230 
#    z 0.016490 -0.074230 2.146510 
# 
# From -- ./inp_files/69876.got.cif
#   From: 2010.05.17/outbox.cif.g08.bks.cpg/sg2_35_cif.got.tgz:69876.got - 2010.06.03 11:33:40.
