data_PCOD9018721
_publ_section_title
;
Structure prediction by ZEFSAII (Michael W. Deem and Ramdas Pophale) SiO2 
 PCOD9018721
Probable space group: P -1
;
_chemical_formula_sum "Si O2"
_cell_formula_units_Z 16
_cell_length_a 8.652837
_cell_length_b 5.096166
_cell_length_c 16.834236
_cell_angle_alpha 69.162765
_cell_angle_beta 75.931628
_cell_angle_gamma 63.601447
_cell_volume 618.224514
_symmetry_space_group_name_H-M "P -1"
_symmetry_group_IT_number 2
_symmetry_cell_setting 'triclinic'
loop_
_space_group_symop_operation_xyz
x,y,z
-x,-y,-z
loop_
_atom_site_type_symbol
_atom_site_label
_atom_site_fract_x
_atom_site_fract_y
_atom_site_fract_z
Si Si1 0.959981 0.685111 0.151461
Si Si2 0.439577 0.505025 0.598179
Si Si3 0.625773 0.250190 0.124533
Si Si4 0.777582 0.569488 0.604374
Si Si5 0.168527 0.021993 0.169802
Si Si6 0.260430 0.190596 0.974269
Si Si7 0.907677 0.949559 0.437396
Si Si8 0.615306 0.924460 0.727779
O O1 0.013621 0.325182 0.191806
O O2 0.924343 0.738750 0.054759
O O3 0.100140 0.786394 0.163863
O O4 0.777957 0.943319 0.174833
O O5 0.500000 0.500000 0.500000
O O6 0.586262 0.580479 0.617046
O O7 0.756463 0.257186 0.393916
O O8 0.471907 0.175167 0.664286
O O9 0.680293 0.535956 0.084509
O O10 0.460588 0.288663 0.193147
O O11 0.617086 0.125321 0.050155
O O12 0.769379 0.748948 0.666586
O O13 0.811293 0.737675 0.504647
O O14 0.939224 0.245297 0.619575
O O15 0.313291 0.918701 0.230196
O O16 0.244446 0.145218 0.073100
O O17 0.000000 0.000000 0.500000
#
# Coordination Sequence:
#
# PCOD9018721 Si02
#       8
#     2   2   2   2   2   2   2   2
#     4  10  21  44  71 108 142 207 265 317 388 457
#     4  12  25  51  78 107 152 199 254 321 391 472
#     4  10  24  44  70 104 154 200 261 312 397 461
#     4  11  25  47  76 113 150 196 255 318 396 473
#     4  12  24  42  75 108 155 199 263 331 380 463
#     4  10  21  43  77 105 146 206 273 309 391 464
#     4  11  23  48  83 113 138 193 264 313 390 475
#     4  12  30  46  67 113 159 202 249 331 399 456
#
# _framework density 25.880566999999999
#
# number of rings (size 3 to 8) (size 9 to 14) (size 15 to 20)
#    0.750    0.250    3.750    1.875    3.500    1.000 
#    6.750    0.000    0.000    0.000    0.000    0.000 
#    0.000    0.000    0.000    0.000    0.000    0.000 
#
# Total GULP energy -89555.709050 kJ/mol
# GULP energy per Si atom -5597.231816 kJ/mol
# Density = 2.582166 g / cm^3
# Si number density = 25.880567 Si / 1000 Ang^3
#
#
#
# Elastic Constant Matrix: (Units=GPa)
#
#
# Indices 1 2 3 4 5 6 
#
# 1 111.1514 66.7986 47.0256 6.5600 10.0592 -11.4444
# 2 66.7986 173.9541 53.3907 12.3269 8.5294 -12.1540
# 3 47.0256 53.3907 121.7179 8.0649 13.0627 -3.2403
# 4 6.5600 12.3269 8.0649 30.3042 -3.4810 2.8001
# 5 10.0592 8.5294 13.0627 -3.4810 40.6443 -9.6551
# 6 -11.4444 -12.1540 -3.2403 2.8001 -9.6551 55.4283
#
#
#
# Elastic Compliance Matrix: (Units=1/GPa)
#
#
# Indices 1 2 3 4 5 6 
#
# 1 0.012882 -0.003784 -0.003114 -0.000684 -0.001097 0.001491
# 2 -0.003784 0.007992 -0.001874 -0.002030 -0.000087 0.000949
# 3 -0.003114 -0.001874 0.010602 -0.001606 -0.002571 -0.000801
# 4 -0.000684 -0.002030 -0.001606 0.034990 0.003679 -0.001807
# 5 -0.001097 -0.000087 -0.002571 0.003679 0.027015 0.004124
# 6 0.001491 0.000949 -0.000801 -0.001807 0.004124 0.019320
#
#
# Mechanical properties :
#
#
# Convention : Reuss Voigt Hill
#
# Bulk Modulus (GPa) = 71.78770 82.36146 77.07458
# Shear Modulus (GPa) = 37.04020 41.24925 39.14472
#
# Velocity S-wave (km/s) = 3.78722 3.99661 3.89332
# Velocity P-wave (km/s) = 6.84999 7.29315 7.07504
#
# Compressibility (1/GPa) = 0.01392996
#
# Stress axis : x y z
#
# Youngs Moduli (GPa) = 77.62926 125.13291 94.32166
#
# Poissons Ratio (x) = 0.47354 0.29372
# Poissons Ratio (y) = 0.29377 0.17678
# Poissons Ratio (z) = 0.24174 0.23453
#
# Static dielectric constant tensor:
#      x y z
#    x 2.096700 0.007510 -0.000350 
#    y 0.007510 2.125400 -0.025850 
#    z -0.000350 -0.025850 1.985390 
# 
# From -- ./inp_files/553354.got.cif
#   From: 2010.05.17/outbox.cif.g08.bks.cpg/sg2_277_cif.got.tgz:553354.got - 2010.06.03 11:33:40.
