data_PCOD9018537
_publ_section_title
;
Structure prediction by ZEFSAII (Michael W. Deem and Ramdas Pophale) SiO2 
 PCOD9018537
Probable space group: P -1
;
_chemical_formula_sum "Si O2"
_cell_formula_units_Z 14
_cell_length_a 9.389309
_cell_length_b 14.564971
_cell_length_c 11.390441
_cell_angle_alpha 52.527976
_cell_angle_beta 67.702705
_cell_angle_gamma 113.399305
_cell_volume 592.892041
_symmetry_space_group_name_H-M "P -1"
_symmetry_group_IT_number 2
_symmetry_cell_setting 'triclinic'
loop_
_space_group_symop_operation_xyz
x,y,z
-x,-y,-z
loop_
_atom_site_type_symbol
_atom_site_label
_atom_site_fract_x
_atom_site_fract_y
_atom_site_fract_z
Si Si1 0.562224 0.296468 0.834450
Si Si2 0.953781 0.637967 0.642474
Si Si3 0.190851 0.694246 0.920427
Si Si4 0.350191 0.896108 0.960717
Si Si5 0.056981 0.111829 0.510979
Si Si6 0.718561 0.900956 0.159320
Si Si7 0.550168 0.287410 0.352876
O O1 0.757059 0.506327 0.689060
O O2 0.511429 0.289602 0.719536
O O3 0.700252 0.256814 0.838261
O O4 0.235268 0.083633 0.162780
O O5 0.871127 0.472891 0.872966
O O6 0.901015 0.725708 0.654820
O O7 0.299510 0.853826 0.335984
O O8 0.891099 0.543659 0.068814
O O9 0.275445 0.824589 0.903781
O O10 0.432583 0.817830 0.650117
O O11 0.195252 0.911431 0.044515
O O12 0.339115 0.241722 0.389173
O O13 0.000000 0.000000 0.500000
O O14 0.575851 0.814171 0.399484
O O15 0.000000 0.000000 0.000000
#
# Coordination Sequence:
#
# PCOD9018537 Si02
#       7
#     2   2   2   2   2   2   2
#     4  10  23  42  67  97 130 179 227 268 327 398
#     4  10  21  43  71  96 129 175 224 275 329 388
#     4  10  23  45  69 102 127 175 230 277 334 381
#     4  10  22  44  71  96 131 178 228 275 323 400
#     4  11  23  43  68 100 133 173 222 279 333 392
#     4  12  24  44  66  98 139 181 216 270 345 391
#     4  11  23  44  66  98 142 166 223 280 328 403
#
# _framework density 23.613066
#
# number of rings (size 3 to 8) (size 9 to 14) (size 15 to 20)
#    0.000    1.429    2.857    3.000    0.000    4.571 
#   10.286    1.429    0.000    0.000    0.000    0.000 
#    0.000    0.000    0.000    0.000    0.000    0.000 
#
# Total GULP energy -78435.332337 kJ/mol
# GULP energy per Si atom -5602.523738 kJ/mol
# Density = 2.355932 g / cm^3
# Si number density = 23.613066 Si / 1000 Ang^3
#
#
#
# Elastic Constant Matrix: (Units=GPa)
#
#
# Indices 1 2 3 4 5 6 
#
# 1 151.4701 66.8064 30.2930 -6.7858 -24.4496 0.1073
# 2 66.8064 180.8812 28.3510 -5.6205 -6.8844 11.7338
# 3 30.2930 28.3510 65.7729 7.3570 -3.1828 -1.7956
# 4 -6.7858 -5.6205 7.3570 34.4351 3.9389 -0.9984
# 5 -24.4496 -6.8844 -3.1828 3.9389 30.6440 2.8895
# 6 0.1073 11.7338 -1.7956 -0.9984 2.8895 51.2345
#
#
#
# Elastic Compliance Matrix: (Units=1/GPa)
#
#
# Indices 1 2 3 4 5 6 
#
# 1 0.009536 -0.002770 -0.003029 0.001337 0.006483 0.000169
# 2 -0.002770 0.006957 -0.001924 0.001050 -0.000832 -0.001588
# 3 -0.003029 -0.001924 0.017954 -0.004663 -0.000481 0.001012
# 4 0.001337 0.001050 -0.004663 0.030846 -0.003181 0.000374
# 5 0.006483 -0.000832 -0.000481 -0.003181 0.038172 -0.002055
# 6 0.000169 -0.001588 0.001012 0.000374 -0.002055 0.020040
#
#
# Mechanical properties :
#
#
# Convention : Reuss Voigt Hill
#
# Bulk Modulus (GPa) = 52.62946 72.11388 62.37167
# Shear Modulus (GPa) = 34.41526 41.44097 37.92811
#
# Velocity S-wave (km/s) = 3.82182 4.19382 4.01213
# Velocity P-wave (km/s) = 6.46620 7.35234 6.92346
#
# Compressibility (1/GPa) = 0.01900076
#
# Stress axis : x y z
#
# Youngs Moduli (GPa) = 104.86886 143.74037 55.69692
#
# Poissons Ratio (x) = 0.39812 0.16872
# Poissons Ratio (y) = 0.29046 0.10717
# Poissons Ratio (z) = 0.31767 0.27658
#
# Static dielectric constant tensor:
#      x y z
#    x 1.875560 -0.011060 0.030640 
#    y -0.011060 1.890070 0.018570 
#    z 0.030640 0.018570 1.937990 
# 
# From -- ./inp_files/398567.got.cif
#   From: 2010.05.17/outbox.cif.g08.bks.cpg/sg2_200_cif.got.tgz:398567.got - 2010.06.03 11:33:40.
