data_PCOD9018511
_publ_section_title
;
Structure prediction by ZEFSAII (Michael W. Deem and Ramdas Pophale) SiO2 
 PCOD9018511
Probable space group: P -1
;
_chemical_formula_sum "Si O2"
_cell_formula_units_Z 14
_cell_length_a 8.479535
_cell_length_b 14.063494
_cell_length_c 9.166215
_cell_angle_alpha 150.802887
_cell_angle_beta 76.536145
_cell_angle_gamma 100.183780
_cell_volume 517.764817
_symmetry_space_group_name_H-M "P -1"
_symmetry_group_IT_number 2
_symmetry_cell_setting 'triclinic'
loop_
_space_group_symop_operation_xyz
x,y,z
-x,-y,-z
loop_
_atom_site_type_symbol
_atom_site_label
_atom_site_fract_x
_atom_site_fract_y
_atom_site_fract_z
Si Si1 0.196119 0.173689 0.420527
Si Si2 0.138136 0.755501 0.254501
Si Si3 0.208624 0.638726 0.754405
Si Si4 0.513872 0.233428 0.322680
Si Si5 0.035755 0.270558 0.306313
Si Si6 0.666068 0.907386 0.411172
Si Si7 0.266314 0.549664 0.219636
O O1 0.332863 0.306786 0.501678
O O2 0.116711 0.121018 0.207582
O O3 0.299588 0.063605 0.382726
O O4 0.043337 0.253936 0.657064
O O5 0.252614 0.622581 0.155983
O O6 0.192691 0.978076 0.545468
O O7 0.165151 0.687741 0.994117
O O8 0.388736 0.684856 0.725529
O O9 0.171050 0.417108 0.422977
O O10 0.076684 0.769622 0.861899
O O11 0.621503 0.302653 0.525069
O O12 0.500000 0.000000 0.000000
O O13 0.910248 0.404639 0.611385
O O14 0.676930 0.674897 0.076372
O O15 0.500000 0.000000 0.500000
#
# Coordination Sequence:
#
# PCOD9018511 Si02
#       7
#     2   2   2   2   2   2   2
#     4  11  24  46  74 108 150 197 249 313 375 444
#     4  11  24  47  80 112 146 194 257 315 373 444
#     4  10  21  43  71 107 146 189 250 307 366 447
#     4  11  25  47  71 105 153 199 246 303 378 453
#     4   9  21  44  76 107 145 198 252 308 379 447
#     4  12  26  44  74 114 151 194 253 312 374 445
#     4  10  24  49  77 108 151 198 249 315 377 442
#
# _framework density 27.039300999999998
#
# number of rings (size 3 to 8) (size 9 to 14) (size 15 to 20)
#    0.000    1.429    0.000    3.857    0.000    7.429 
#    0.000   30.000    0.000    6.857    0.000    0.000 
#    0.000    0.000    0.000    0.000    0.000    0.000 
#
# Total GULP energy -78276.607113 kJ/mol
# GULP energy per Si atom -5591.186222 kJ/mol
# Density = 2.697776 g / cm^3
# Si number density = 27.039301 Si / 1000 Ang^3
#
#
#
# Elastic Constant Matrix: (Units=GPa)
#
#
# Indices 1 2 3 4 5 6 
#
# 1 161.7257 99.3055 64.5508 -8.6244 9.1793 -0.1384
# 2 99.3055 179.0539 75.8945 -5.2260 6.0124 -7.7315
# 3 64.5508 75.8945 117.2433 -3.1772 11.3067 -12.1353
# 4 -8.6244 -5.2260 -3.1772 70.6356 -1.7593 -1.0634
# 5 9.1793 6.0124 11.3067 -1.7593 30.2556 -13.0179
# 6 -0.1384 -7.7315 -12.1353 -1.0634 -13.0179 81.2043
#
#
#
# Elastic Compliance Matrix: (Units=1/GPa)
#
#
# Indices 1 2 3 4 5 6 
#
# 1 0.010092 -0.004465 -0.002599 0.000729 -0.001610 -0.001045
# 2 -0.004465 0.009685 -0.003863 0.000033 0.001096 0.000513
# 3 -0.002599 -0.003863 0.012840 -0.000078 -0.002773 0.001101
# 4 0.000729 0.000033 -0.000078 0.014269 0.000761 0.000302
# 5 -0.001610 0.001096 -0.002773 0.000761 0.036812 0.005599
# 6 -0.001045 0.000513 0.001101 0.000302 0.005599 0.013428
#
#
# Mechanical properties :
#
#
# Convention : Reuss Voigt Hill
#
# Bulk Modulus (GPa) = 92.91009 104.16939 98.53974
# Shear Modulus (GPa) = 40.79445 50.97059 45.88252
#
# Velocity S-wave (km/s) = 3.88842 4.34643 4.12379
# Velocity P-wave (km/s) = 7.38888 7.98733 7.69393
#
# Compressibility (1/GPa) = 0.01076309
#
# Stress axis : x y z
#
# Youngs Moduli (GPa) = 99.08991 103.25373 77.88316
#
# Poissons Ratio (x) = 0.46105 0.20241
# Poissons Ratio (y) = 0.44246 0.30083
# Poissons Ratio (z) = 0.25753 0.39882
#
# Static dielectric constant tensor:
#      x y z
#    x 2.158520 -0.028170 0.013280 
#    y -0.028170 2.168920 0.070300 
#    z 0.013280 0.070300 2.176110 
# 
# From -- ./inp_files/204714.got.cif
#   From: 2010.05.17/outbox.cif.g08.bks.cpg/sg2_103_cif.got.tgz:204714.got - 2010.06.03 11:33:40.
