data_PCOD9018104
_publ_section_title
;
Structure prediction by ZEFSAII (Michael W. Deem and Ramdas Pophale) SiO2 
 PCOD9018104
Probable space group: P -1
;
_chemical_formula_sum "Si O2"
_cell_formula_units_Z 16
_cell_length_a 8.351734
_cell_length_b 11.896143
_cell_length_c 10.971474
_cell_angle_alpha 143.333079
_cell_angle_beta 101.708698
_cell_angle_gamma 86.258479
_cell_volume 628.466470
_symmetry_space_group_name_H-M "P -1"
_symmetry_group_IT_number 2
_symmetry_cell_setting 'triclinic'
loop_
_space_group_symop_operation_xyz
x,y,z
-x,-y,-z
loop_
_atom_site_type_symbol
_atom_site_label
_atom_site_fract_x
_atom_site_fract_y
_atom_site_fract_z
Si Si1 0.701751 0.138319 0.395889
Si Si2 0.684344 0.396939 0.177778
Si Si3 0.830277 0.508015 0.850035
Si Si4 0.355757 0.191027 0.491015
Si Si5 0.904635 0.186642 0.910971
Si Si6 0.597804 0.729155 0.149965
Si Si7 0.396795 0.344859 0.264027
Si Si8 0.851440 0.003004 0.077187
O O1 0.822742 0.284636 0.628775
O O2 0.519792 0.194006 0.438516
O O3 0.671568 0.925524 0.262623
O O4 0.764700 0.149521 0.274147
O O5 0.724614 0.624070 0.400044
O O6 0.839603 0.289901 0.108790
O O7 0.540748 0.298952 0.158449
O O8 0.587656 0.350455 0.994789
O O9 0.738260 0.567381 0.762200
O O10 0.013735 0.631474 0.997909
O O11 0.713560 0.577838 0.994652
O O12 0.404875 0.228436 0.671612
O O13 0.239694 0.986228 0.293833
O O14 0.058334 0.082727 0.870220
O O15 0.500000 0.500000 0.500000
O O16 0.296944 0.151013 0.133693
O O17 0.000000 0.000000 0.000000
#
# Coordination Sequence:
#
# PCOD9018104 Si02
#       8
#     2   2   2   2   2   2   2   2
#     4  12  22  45  73  93 135 181 223 276 328 401
#     4  11  23  42  68 100 139 170 233 280 321 407
#     4  10  24  43  65  96 143 174 217 282 339 393
#     4  12  25  40  76 100 130 185 229 273 334 394
#     4  11  25  44  62 103 139 171 226 281 331 403
#     4  11  22  45  67 102 138 177 230 276 328 399
#     4  10  21  43  68  93 129 171 224 278 326 399
#     4  11  26  46  69  98 139 176 218 281 348 397
#
# _framework density 25.458798000000002
#
# number of rings (size 3 to 8) (size 9 to 14) (size 15 to 20)
#    0.000    1.000    7.500    0.750    3.500    1.500 
#    0.000    5.625    0.000    0.000    0.000    0.000 
#    0.000    0.000    0.000    0.000    0.000    0.000 
#
# Total GULP energy -89340.771482 kJ/mol
# GULP energy per Si atom -5583.798218 kJ/mol
# Density = 2.540085 g / cm^3
# Si number density = 25.458798 Si / 1000 Ang^3
#
#
#
# Elastic Constant Matrix: (Units=GPa)
#
#
# Indices 1 2 3 4 5 6 
#
# 1 86.2910 20.3709 69.3781 7.6820 -1.7762 17.1038
# 2 20.3709 59.2442 41.5047 12.5287 0.3198 22.3174
# 3 69.3781 41.5047 179.2030 14.7362 -4.3757 29.6251
# 4 7.6820 12.5287 14.7362 42.6692 7.9360 6.0785
# 5 -1.7762 0.3198 -4.3757 7.9360 39.7629 13.3655
# 6 17.1038 22.3174 29.6251 6.0785 13.3655 30.2342
#
#
#
# Elastic Compliance Matrix: (Units=1/GPa)
#
#
# Indices 1 2 3 4 5 6 
#
# 1 0.017310 0.000116 -0.005808 -0.000809 0.001935 -0.004880
# 2 0.000116 0.027175 -0.002407 -0.005704 0.007336 -0.019863
# 3 -0.005808 -0.002407 0.009406 -0.001282 0.002773 -0.005122
# 4 -0.000809 -0.005704 -0.001282 0.026423 -0.006590 0.003525
# 5 0.001935 0.007336 0.002773 -0.006590 0.034593 -0.023194
# 6 -0.004880 -0.019863 -0.005122 0.003525 -0.023194 0.065061
#
#
# Mechanical properties :
#
#
# Convention : Reuss Voigt Hill
#
# Bulk Modulus (GPa) = 26.53038 65.24953 45.88995
# Shear Modulus (GPa) = 23.95438 35.43221 29.69330
#
# Velocity S-wave (km/s) = 3.07075 3.73466 3.41886
# Velocity P-wave (km/s) = 4.79752 6.65447 5.80079
#
# Compressibility (1/GPa) = 0.03769264
#
# Stress axis : x y z
#
# Youngs Moduli (GPa) = 57.77016 36.79918 106.31320
#
# Poissons Ratio (x) = -0.00426 0.61745
# Poissons Ratio (y) = -0.00668 0.25588
# Poissons Ratio (z) = 0.33552 0.08857
#
# Static dielectric constant tensor:
#      x y z
#    x 1.982550 0.013640 -0.021780 
#    y 0.013640 2.245680 -0.017030 
#    z -0.021780 -0.017030 2.035930 
# 
# From -- ./inp_files/400048.got.cif
#   From: 2010.05.17/outbox.cif.g08.bks.cpg/sg2_201_cif.got.tgz:400048.got - 2010.06.03 11:33:40.
