data_PCOD9018128
_publ_section_title
;
Structure prediction by ZEFSAII (Michael W. Deem and Ramdas Pophale) SiO2 
 PCOD9018128
Probable space group: P -1
;
_chemical_formula_sum "Si O2"
_cell_formula_units_Z 14
_cell_length_a 28.850357
_cell_length_b 5.429210
_cell_length_c 15.144922
_cell_angle_alpha 129.363630
_cell_angle_beta 160.683132
_cell_angle_gamma 51.371990
_cell_volume 603.611690
_symmetry_space_group_name_H-M "P -1"
_symmetry_group_IT_number 2
_symmetry_cell_setting 'triclinic'
loop_
_space_group_symop_operation_xyz
x,y,z
-x,-y,-z
loop_
_atom_site_type_symbol
_atom_site_label
_atom_site_fract_x
_atom_site_fract_y
_atom_site_fract_z
Si Si1 0.126813 0.602404 0.690926
Si Si2 0.383491 0.377287 0.323915
Si Si3 0.528515 0.371495 0.123083
Si Si4 0.155887 0.840339 0.353275
Si Si5 0.575898 0.372299 0.822063
Si Si6 0.907826 0.644916 0.168383
Si Si7 0.051631 0.450289 0.216175
O O1 0.000000 0.500000 0.500000
O O2 0.059107 0.562031 0.464407
O O3 0.124080 0.976606 0.792963
O O4 0.290751 0.469352 0.945910
O O5 0.500000 0.500000 0.500000
O O6 0.432802 0.461101 0.530086
O O7 0.394394 0.002742 0.233619
O O8 0.220601 0.508533 0.050525
O O9 0.696062 0.368330 0.442140
O O10 0.445047 0.561632 0.096764
O O11 0.500000 0.500000 0.000000
O O12 0.500000 0.000000 0.000000
O O13 0.117698 0.760512 0.367712
O O14 0.161768 0.197232 0.407434
O O15 0.021296 0.732153 0.034385
O O16 0.924493 0.550404 0.076391
#
# Coordination Sequence:
#
# PCOD9018128 Si02
#       7
#     2   2   2   2   2   2   2
#     4  10  22  39  61  95 130 164 214 270 340 406
#     4  10  21  43  68  95 129 172 225 284 351 405
#     4  12  28  45  68 100 141 191 231 277 340 418
#     4  10  23  44  64  97 131 168 235 264 334 385
#     4  10  24  42  64  99 134 174 229 283 339 414
#     4  10  22  37  62  95 123 164 219 264 340 396
#     4  10  22  42  69  95 128 172 215 292 320 395
#
# _framework density 23.193715999999998
#
# number of rings (size 3 to 8) (size 9 to 14) (size 15 to 20)
#    0.000    1.714    0.000    2.571    8.000    0.000 
#    7.714    0.000    0.000    0.000    0.000    0.000 
#    0.000    0.000    0.000    0.000    0.000    0.000 
#
# Total GULP energy -78011.231216 kJ/mol
# GULP energy per Si atom -5572.230801 kJ/mol
# Density = 2.314093 g / cm^3
# Si number density = 23.193716 Si / 1000 Ang^3
#
#
#
# Elastic Constant Matrix: (Units=GPa)
#
#
# Indices 1 2 3 4 5 6 
#
# 1 140.8628 39.2967 29.3591 3.1397 7.0488 2.7633
# 2 39.2967 19.7133 67.1881 4.9612 -15.2080 25.0368
# 3 29.3591 67.1881 56.7036 -24.0636 28.8942 -6.3141
# 4 3.1397 4.9612 -24.0636 24.8131 6.0158 4.7044
# 5 7.0488 -15.2080 28.8942 6.0158 38.6454 2.9616
# 6 2.7633 25.0368 -6.3141 4.7044 2.9616 29.1747
#
#
#
# Elastic Compliance Matrix: (Units=1/GPa)
#
#
# Indices 1 2 3 4 5 6 
#
# 1 0.008703 -0.002554 -0.004130 -0.005110 0.001201 0.001175
# 2 -0.002554 0.000687 0.012270 0.014495 -0.010776 0.001065
# 3 -0.004130 0.012270 0.003246 0.002277 0.003579 -0.010166
# 4 -0.005110 0.014495 0.002277 0.043879 -0.000480 -0.018490
# 5 0.001201 -0.010776 0.003579 -0.000480 0.018191 0.008139
# 6 0.001175 0.001065 -0.010166 -0.018490 0.008139 0.033206
#
#
# Mechanical properties :
#
#
# Convention : Reuss Voigt Hill
#
# Bulk Modulus (GPa) = 42.00308 54.32973 48.16641
# Shear Modulus (GPa) = 47.76645 23.95571 35.86108
#
# Velocity S-wave (km/s) = 4.54305 3.21729 3.93638
# Velocity P-wave (km/s) = 6.75781 6.10545 6.43989
#
# Compressibility (1/GPa) = 0.02380778
#
# Stress axis : x y z
#
# Youngs Moduli (GPa) = 114.90345 1456.46941 308.08372
#
# Poissons Ratio (x) = 3.71916 1.27232
# Poissons Ratio (y) = 0.29341 -3.78004
# Poissons Ratio (z) = 0.47453 -17.87017
#
# Static dielectric constant tensor:
#      x y z
#    x 1.989040 0.050710 -0.001530 
#    y 0.050710 1.917920 -0.018260 
#    z -0.001530 -0.018260 1.930050 
# 
# From -- ./inp_files/364090.got.cif
#   From: 2010.05.17/outbox.cif.g08.bks.cpg/sg2_183_cif.got.tgz:364090.got - 2010.06.03 11:33:40.
