data_PCOD9018745
_publ_section_title
;
Structure prediction by ZEFSAII (Michael W. Deem and Ramdas Pophale) SiO2 
 PCOD9018745
Probable space group: P -1
;
_chemical_formula_sum "Si O2"
_cell_formula_units_Z 16
_cell_length_a 11.491993
_cell_length_b 27.668014
_cell_length_c 8.374711
_cell_angle_alpha 32.211200
_cell_angle_beta 141.198901
_cell_angle_gamma 155.130606
_cell_volume 596.116781
_symmetry_space_group_name_H-M "P -1"
_symmetry_group_IT_number 2
_symmetry_cell_setting 'triclinic'
loop_
_space_group_symop_operation_xyz
x,y,z
-x,-y,-z
loop_
_atom_site_type_symbol
_atom_site_label
_atom_site_fract_x
_atom_site_fract_y
_atom_site_fract_z
Si Si1 0.627934 0.111981 0.456815
Si Si2 0.361729 0.060002 0.875101
Si Si3 0.604438 0.664146 0.045859
Si Si4 0.574577 0.832180 0.694174
Si Si5 0.085677 0.409903 0.385346
Si Si6 0.956437 0.266303 0.092791
Si Si7 0.265714 0.202799 0.523063
Si Si8 0.786007 0.468915 0.479037
O O1 0.409257 0.106080 0.299485
O O2 0.879607 0.247457 0.249966
O O3 0.500000 0.000000 0.500000
O O4 0.699152 0.066693 0.799025
O O5 0.320612 0.071245 0.615587
O O6 0.203926 0.075470 0.776175
O O7 0.684949 0.192423 0.903118
O O8 0.300990 0.519431 0.174238
O O9 0.809180 0.653585 0.286031
O O10 0.684847 0.770921 0.961716
O O11 0.605400 0.716125 0.734165
O O12 0.238174 0.706522 0.670767
O O13 0.132756 0.490726 0.363360
O O14 0.031383 0.190268 0.347554
O O15 0.202886 0.422999 0.872932
O O16 0.504056 0.311173 0.602432
O O17 0.000000 0.500000 0.500000
#
# Coordination Sequence:
#
# PCOD9018745 Si02
#       8
#     2   2   2   2   2   2   2   2
#     4  10  25  41  66  90 117 157 206 259 302 358
#     4  10  21  44  61  89 119 159 209 250 300 350
#     4  10  23  38  58  91 124 161 200 241 294 362
#     4  11  21  41  65  83 118 161 201 249 305 353
#     4  11  23  38  57  91 128 158 201 242 293 365
#     4  11  22  40  59  90 126 157 202 245 302 355
#     4  11  22  38  64  89 125 164 199 242 302 361
#     4  12  22  37  62  93 129 165 192 246 302 362
#
# _framework density 26.84038
#
# number of rings (size 3 to 8) (size 9 to 14) (size 15 to 20)
#    0.000    1.250    3.750    1.875    3.500    1.500 
#    0.000    2.500    0.000    9.000    0.000    0.000 
#    0.000    0.000    0.000    0.000    0.000    0.000 
#
# Total GULP energy -89701.893560 kJ/mol
# GULP energy per Si atom -5606.368348 kJ/mol
# Density = 2.677929 g / cm^3
# Si number density = 26.840380 Si / 1000 Ang^3
#
#
#
# Elastic Constant Matrix: (Units=GPa)
#
#
# Indices 1 2 3 4 5 6 
#
# 1 150.2521 24.8087 18.8997 7.9475 33.2091 -12.9121
# 2 24.8087 73.3268 3.5593 -9.4074 10.4026 -5.6159
# 3 18.8997 3.5593 103.1346 -7.1164 14.5035 2.9762
# 4 7.9475 -9.4074 -7.1164 21.5235 10.6950 14.8905
# 5 33.2091 10.4026 14.5035 10.6950 59.7979 -7.0447
# 6 -12.9121 -5.6159 2.9762 14.8905 -7.0447 38.8086
#
#
#
# Elastic Compliance Matrix: (Units=1/GPa)
#
#
# Indices 1 2 3 4 5 6 
#
# 1 0.008712 -0.003248 -0.001968 -0.008193 -0.001693 0.005416
# 2 -0.003248 0.016957 0.001992 0.015827 -0.005141 -0.005786
# 3 -0.001968 0.001992 0.011871 0.013273 -0.005372 -0.007345
# 4 -0.008193 0.015827 0.013273 0.106094 -0.025918 -0.046866
# 5 -0.001693 -0.005141 -0.005372 -0.025918 0.026121 0.013791
# 6 0.005416 -0.005786 -0.007345 -0.046866 0.013791 0.047781
#
#
# Mechanical properties :
#
#
# Convention : Reuss Voigt Hill
#
# Bulk Modulus (GPa) = 32.16320 46.80543 39.48431
# Shear Modulus (GPa) = 21.33580 42.65574 31.99577
#
# Velocity S-wave (km/s) = 2.82248 3.99085 3.45639
# Velocity P-wave (km/s) = 4.75721 6.22191 5.53819
#
# Compressibility (1/GPa) = 0.03109143
#
# Stress axis : x y z
#
# Youngs Moduli (GPa) = 114.78025 58.97395 84.23725
#
# Poissons Ratio (x) = 0.19157 0.16579
# Poissons Ratio (y) = 0.37285 -0.16781
# Poissons Ratio (z) = 0.22590 -0.11748
#
# Static dielectric constant tensor:
#      x y z
#    x 2.094600 -0.024250 -0.015390 
#    y -0.024250 2.137420 -0.030260 
#    z -0.015390 -0.030260 2.126640 
# 
# From -- ./inp_files/277732.got.cif
#   From: 2010.05.17/outbox.cif.g08.bks.cpg/sg2_139_cif.got.tgz:277732.got - 2010.06.03 11:33:40.
