data_PCOD9018095
_publ_section_title
;
Structure prediction by ZEFSAII (Michael W. Deem and Ramdas Pophale) SiO2 
 PCOD9018095
Probable space group: P -1
;
_chemical_formula_sum "Si O2"
_cell_formula_units_Z 14
_cell_length_a 8.772542
_cell_length_b 9.376477
_cell_length_c 8.193608
_cell_angle_alpha 109.740372
_cell_angle_beta 72.275210
_cell_angle_gamma 78.604671
_cell_volume 569.319693
_symmetry_space_group_name_H-M "P -1"
_symmetry_group_IT_number 2
_symmetry_cell_setting 'triclinic'
loop_
_space_group_symop_operation_xyz
x,y,z
-x,-y,-z
loop_
_atom_site_type_symbol
_atom_site_label
_atom_site_fract_x
_atom_site_fract_y
_atom_site_fract_z
Si Si1 0.939083 0.956008 0.824568
Si Si2 0.305912 0.724687 0.045206
Si Si3 0.435290 0.185007 0.442627
Si Si4 0.001266 0.321404 0.077112
Si Si5 0.761895 0.944285 0.297146
Si Si6 0.164082 0.468692 0.538791
Si Si7 0.582109 0.415249 0.689552
O O1 0.962982 0.775415 0.797928
O O2 0.087289 0.987043 0.680931
O O3 0.757275 0.080651 0.879198
O O4 0.000000 0.000000 0.000000
O O5 0.144732 0.696280 0.000626
O O6 0.464661 0.596511 0.849899
O O7 0.333191 0.672618 0.205126
O O8 0.339884 0.078917 0.522878
O O9 0.296943 0.290958 0.406032
O O10 0.475275 0.314093 0.601539
O O11 0.620548 0.073259 0.283205
O O12 0.915702 0.500751 0.240425
O O13 0.168919 0.225158 0.885870
O O14 0.279462 0.573505 0.483053
O O15 0.000000 0.500000 0.500000
#
# Coordination Sequence:
#
# PCOD9018095 Si02
#       7
#     2   2   2   2   2   2   2
#     4   8  17  35  65  91 120 162 207 247 311 367
#     4   9  20  38  66  98 120 167 213 257 308 380
#     4  11  23  42  65  95 128 167 210 265 317 362
#     4  10  21  43  68  92 127 175 204 255 327 371
#     4   9  21  39  68  89 126 166 214 253 316 374
#     4  12  28  41  63  96 130 165 210 266 317 373
#     4  11  23  40  66  95 128 165 216 258 318 372
#
# _framework density 24.590754
#
# number of rings (size 3 to 8) (size 9 to 14) (size 15 to 20)
#    0.000    2.286    1.429    1.286   10.000    2.857 
#    5.143    4.286    0.000    0.000    0.000    0.000 
#    0.000    0.000    0.000    0.000    0.000    0.000 
#
# Total GULP energy -77994.892329 kJ/mol
# GULP energy per Si atom -5571.063738 kJ/mol
# Density = 2.453478 g / cm^3
# Si number density = 24.590754 Si / 1000 Ang^3
#
#
#
# Elastic Constant Matrix: (Units=GPa)
#
#
# Indices 1 2 3 4 5 6 
#
# 1 71.2119 48.4467 14.8742 1.1390 0.0437 -34.5186
# 2 48.4467 128.6099 17.9071 6.3509 -19.0795 -40.0948
# 3 14.8742 17.9071 71.5269 21.4228 -13.4925 -20.3972
# 4 1.1390 6.3509 21.4228 26.9488 -10.6116 -7.9485
# 5 0.0437 -19.0795 -13.4925 -10.6116 35.3592 8.1247
# 6 -34.5186 -40.0948 -20.3972 -7.9485 8.1247 49.6338
#
#
#
# Elastic Compliance Matrix: (Units=1/GPa)
#
#
# Indices 1 2 3 4 5 6 
#
# 1 0.024927 -0.006083 -0.002131 0.003549 -0.006073 0.013109
# 2 -0.006083 0.012462 0.000516 0.000795 0.005973 0.005199
# 3 -0.002131 0.000516 0.020226 -0.013632 0.002852 0.004597
# 4 0.003549 0.000795 -0.013632 0.052855 0.010093 0.004321
# 5 -0.006073 0.005973 0.002852 0.010093 0.036212 -0.002538
# 6 0.013109 0.005199 0.004597 0.004321 -0.002538 0.036461
#
#
# Mechanical properties :
#
#
# Convention : Reuss Voigt Hill
#
# Bulk Modulus (GPa) = 23.68533 48.20052 35.94292
# Shear Modulus (GPa) = 23.51694 35.06307 29.29001
#
# Velocity S-wave (km/s) = 3.09582 3.78016 3.45497
# Velocity P-wave (km/s) = 4.73619 6.22064 5.52847
#
# Compressibility (1/GPa) = 0.04222023
#
# Stress axis : x y z
#
# Youngs Moduli (GPa) = 40.11691 80.24077 49.44038
#
# Poissons Ratio (x) = 0.48807 0.10537
# Poissons Ratio (y) = 0.24401 -0.02551
# Poissons Ratio (z) = 0.08550 -0.04140
#
# Static dielectric constant tensor:
#      x y z
#    x 1.947230 0.111800 -0.037780 
#    y 0.111800 2.295090 0.044470 
#    z -0.037780 0.044470 2.030610 
# 
# From -- ./inp_files/172149.got.cif
#   From: 2010.05.17/outbox.cif.g08.bks.cpg/sg2_87_cif.got.tgz:172149.got - 2010.06.03 11:33:40.
