data_PCOD9018918
_publ_section_title
;
Structure prediction by ZEFSAII (Michael W. Deem and Ramdas Pophale) SiO2 
 PCOD9018918
Probable space group: P -1
;
_chemical_formula_sum "Si O2"
_cell_formula_units_Z 16
_cell_length_a 15.044643
_cell_length_b 7.361868
_cell_length_c 11.165382
_cell_angle_alpha 51.508119
_cell_angle_beta 103.125617
_cell_angle_gamma 131.789894
_cell_volume 683.329477
_symmetry_space_group_name_H-M "P -1"
_symmetry_group_IT_number 2
_symmetry_cell_setting 'triclinic'
loop_
_space_group_symop_operation_xyz
x,y,z
-x,-y,-z
loop_
_atom_site_type_symbol
_atom_site_label
_atom_site_fract_x
_atom_site_fract_y
_atom_site_fract_z
Si Si1 0.463065 0.374513 0.902868
Si Si2 0.632486 0.321762 0.358401
Si Si3 0.163265 0.349920 0.506808
Si Si4 0.738445 0.756023 0.772491
Si Si5 0.985240 0.315993 0.904161
Si Si6 0.800030 0.606617 0.085157
Si Si7 0.921751 0.208712 0.463412
Si Si8 0.219124 0.662776 0.151625
O O1 0.397332 0.474100 0.779024
O O2 0.590534 0.537256 0.805088
O O3 0.500000 0.500000 0.000000
O O4 0.356015 0.994200 0.023906
O O5 0.738282 0.501624 0.418463
O O6 0.692551 0.318618 0.256678
O O7 0.500000 0.000000 0.500000
O O8 0.217946 0.619441 0.312009
O O9 0.030368 0.237047 0.541974
O O10 0.134646 0.051976 0.554881
O O11 0.787834 0.604754 0.792653
O O12 0.818499 0.079795 0.586785
O O13 0.756808 0.729908 0.928499
O O14 0.898388 0.374908 0.899608
O O15 0.123406 0.468497 0.922369
O O16 0.018224 0.462496 0.718423
O O17 0.900478 0.937909 0.053616
#
# Coordination Sequence:
#
# PCOD9018918 Si02
#       8
#     2   2   2   2   2   2   2   2
#     4  12  23  43  64  93 133 176 225 266 330 393
#     4  12  26  43  67  94 136 179 220 273 326 394
#     4   9  21  42  68  97 130 170 222 269 327 396
#     4  11  24  40  67  96 131 170 223 270 327 397
#     4  10  22  43  64  95 132 167 220 268 332 388
#     4  11  25  42  61 101 130 169 223 274 328 390
#     4   9  21  42  68  97 130 172 215 273 332 385
#     4  10  21  44  66  92 125 174 217 273 332 385
#
# _framework density 23.414766
#
# number of rings (size 3 to 8) (size 9 to 14) (size 15 to 20)
#    0.000    1.500    2.500    1.875    5.250    3.000 
#    0.000    2.500    0.000    0.000    0.000    0.000 
#    0.000    0.000    0.000    0.000    0.000    0.000 
#
# Total GULP energy -89339.723547 kJ/mol
# GULP energy per Si atom -5583.732722 kJ/mol
# Density = 2.336147 g / cm^3
# Si number density = 23.414766 Si / 1000 Ang^3
#
#
#
# Elastic Constant Matrix: (Units=GPa)
#
#
# Indices 1 2 3 4 5 6 
#
# 1 133.1008 25.5455 33.1037 8.8955 -18.6274 27.2785
# 2 25.5455 64.9382 38.9198 -0.7392 -7.9635 20.9966
# 3 33.1037 38.9198 119.2533 -5.0033 -26.0764 13.2269
# 4 8.8955 -0.7392 -5.0033 27.7417 15.9211 3.9677
# 5 -18.6274 -7.9635 -26.0764 15.9211 54.7260 -5.5101
# 6 27.2785 20.9966 13.2269 3.9677 -5.5101 38.0966
#
#
#
# Elastic Compliance Matrix: (Units=1/GPa)
#
#
# Indices 1 2 3 4 5 6 
#
# 1 0.009868 -0.001139 -0.001252 -0.004685 0.003454 -0.005015
# 2 -0.001139 0.022630 -0.006247 0.002263 -0.001734 -0.009974
# 3 -0.001252 -0.006247 0.011610 -0.000331 0.004392 0.000979
# 4 -0.004685 0.002263 -0.000331 0.047253 -0.015670 -0.004965
# 5 0.003454 -0.001734 0.004392 -0.015670 0.026086 0.002363
# 6 -0.005015 -0.009974 0.000979 -0.004965 0.002363 0.035856
#
#
# Mechanical properties :
#
#
# Convention : Reuss Voigt Hill
#
# Bulk Modulus (GPa) = 37.27258 56.93672 47.10465
# Shear Modulus (GPa) = 27.85162 38.76107 33.30635
#
# Velocity S-wave (km/s) = 3.45264 4.07309 3.77563
# Velocity P-wave (km/s) = 5.64334 6.81832 6.25846
#
# Compressibility (1/GPa) = 0.02682938
#
# Stress axis : x y z
#
# Youngs Moduli (GPa) = 101.34100 44.19000 86.13382
#
# Poissons Ratio (x) = 0.05035 0.10787
# Poissons Ratio (y) = 0.11546 0.53809
# Poissons Ratio (z) = 0.12691 0.27606
#
# Static dielectric constant tensor:
#      x y z
#    x 1.932450 -0.008590 -0.077380 
#    y -0.008590 2.018980 -0.088830 
#    z -0.077380 -0.088830 2.075140 
# 
# From -- ./inp_files/238919.got.cif
#   From: 2010.05.17/outbox.cif.g08.bks.cpg/sg2_120_cif.got.tgz:238919.got - 2010.06.03 11:33:40.
