data_PCOD9018307
_publ_section_title
;
Structure prediction by ZEFSAII (Michael W. Deem and Ramdas Pophale) SiO2 
 PCOD9018307
Probable space group: P -1
;
_chemical_formula_sum "Si O2"
_cell_formula_units_Z 14
_cell_length_a 14.380522
_cell_length_b 19.812540
_cell_length_c 5.416853
_cell_angle_alpha 100.245628
_cell_angle_beta 93.592772
_cell_angle_gamma 24.686020
_cell_volume 615.633375
_symmetry_space_group_name_H-M "P -1"
_symmetry_group_IT_number 2
_symmetry_cell_setting 'triclinic'
loop_
_space_group_symop_operation_xyz
x,y,z
-x,-y,-z
loop_
_atom_site_type_symbol
_atom_site_label
_atom_site_fract_x
_atom_site_fract_y
_atom_site_fract_z
Si Si1 0.180175 0.963043 0.109484
Si Si2 0.248745 0.671462 0.458347
Si Si3 0.094910 0.881828 0.241708
Si Si4 0.363435 0.023532 0.913750
Si Si5 0.083982 0.225288 0.487400
Si Si6 0.046627 0.408165 0.643369
Si Si7 0.622346 0.745624 0.055057
O O1 0.951175 0.150432 0.314228
O O2 0.209574 0.860759 0.068568
O O3 0.405534 0.847638 0.169696
O O4 0.124846 0.008210 0.840489
O O5 0.500000 0.500000 0.500000
O O6 0.260587 0.710462 0.241943
O O7 0.139098 0.670002 0.418992
O O8 0.000000 0.000000 0.500000
O O9 0.188023 0.128908 0.181994
O O10 0.540859 0.841994 0.862081
O O11 0.247001 0.108378 0.681670
O O12 0.500000 0.000000 0.000000
O O13 0.045582 0.331533 0.500168
O O14 0.000000 0.500000 0.500000
O O15 0.280502 0.266735 0.737096
O O16 0.837878 0.553730 0.898565
#
# Coordination Sequence:
#
# PCOD9018307 Si02
#       7
#     2   2   2   2   2   2   2
#     4  10  21  43  69  97 130 181 233 284 351 422
#     4  11  25  43  66 103 138 182 233 296 355 417
#     4   9  21  41  67  95 131 173 230 284 344 415
#     4  12  24  45  75 104 140 189 242 293 353 431
#     4  12  27  46  72 107 145 191 241 295 363 421
#     4  11  27  44  66 102 144 184 232 297 361 425
#     4  11  24  43  69 101 138 186 237 290 357 433
#
# _framework density 22.740808000000001
#
# number of rings (size 3 to 8) (size 9 to 14) (size 15 to 20)
#    0.000    1.143    2.857    2.143    4.000    7.429 
#    0.000    0.000    0.000    0.000    0.000    0.000 
#    0.000    0.000    0.000    0.000    0.000    0.000 
#
# Total GULP energy -78116.162912 kJ/mol
# GULP energy per Si atom -5579.725922 kJ/mol
# Density = 2.268905 g / cm^3
# Si number density = 22.740808 Si / 1000 Ang^3
#
#
#
# Elastic Constant Matrix: (Units=GPa)
#
#
# Indices 1 2 3 4 5 6 
#
# 1 146.0859 78.5681 8.5278 -16.8803 5.3686 -1.4793
# 2 78.5681 130.6592 30.5609 -20.9027 -4.1732 -17.7811
# 3 8.5278 30.5609 56.0868 -8.4813 1.2565 2.7972
# 4 -16.8803 -20.9027 -8.4813 37.8122 9.0931 -2.9894
# 5 5.3686 -4.1732 1.2565 9.0931 31.9320 -9.0834
# 6 -1.4793 -17.7811 2.7972 -2.9894 -9.0834 40.5712
#
#
#
# Elastic Compliance Matrix: (Units=1/GPa)
#
#
# Indices 1 2 3 4 5 6 
#
# 1 0.011327 -0.007950 0.003270 0.002243 -0.004914 -0.004232
# 2 -0.007950 0.016057 -0.007638 0.003015 0.005350 0.008694
# 3 0.003270 -0.007638 0.022335 0.002974 -0.004878 -0.005641
# 4 0.002243 0.003015 0.002974 0.032015 -0.008763 0.001595
# 5 -0.004914 0.005350 -0.004878 -0.008763 0.038510 0.010478
# 6 -0.004232 0.008694 -0.005641 0.001595 0.010478 0.031156
#
#
# Mechanical properties :
#
#
# Convention : Reuss Voigt Hill
#
# Bulk Modulus (GPa) = 39.86901 63.12728 51.49815
# Shear Modulus (GPa) = 27.11547 36.40806 31.76177
#
# Velocity S-wave (km/s) = 3.45682 4.00559 3.74128
# Velocity P-wave (km/s) = 5.78816 7.01518 6.43100
#
# Compressibility (1/GPa) = 0.02508214
#
# Stress axis : x y z
#
# Youngs Moduli (GPa) = 88.28469 62.27874 44.77370
#
# Poissons Ratio (x) = 0.49512 -0.14641
# Poissons Ratio (y) = 0.70187 0.34198
# Poissons Ratio (z) = -0.28868 0.47568
#
# Static dielectric constant tensor:
#      x y z
#    x 1.963130 -0.005640 -0.082890 
#    y -0.005640 1.829950 0.017400 
#    z -0.082890 0.017400 2.056650 
# 
# From -- ./inp_files/45928.got.cif
#   From: 2010.05.17/outbox.cif.g08.bks.cpg/sg2_23_cif.got.tgz:45928.got - 2010.06.03 11:33:40.
