data_PCOD9018142
_publ_section_title
;
Structure prediction by ZEFSAII (Michael W. Deem and Ramdas Pophale) SiO2 
 PCOD9018142
Probable space group: P -1
;
_chemical_formula_sum "Si O2"
_cell_formula_units_Z 14
_cell_length_a 9.891232
_cell_length_b 12.280491
_cell_length_c 9.256333
_cell_angle_alpha 126.901004
_cell_angle_beta 72.432067
_cell_angle_gamma 66.693168
_cell_volume 560.399453
_symmetry_space_group_name_H-M "P -1"
_symmetry_group_IT_number 2
_symmetry_cell_setting 'triclinic'
loop_
_space_group_symop_operation_xyz
x,y,z
-x,-y,-z
loop_
_atom_site_type_symbol
_atom_site_label
_atom_site_fract_x
_atom_site_fract_y
_atom_site_fract_z
Si Si1 0.289193 0.374961 0.512313
Si Si2 0.967334 0.432236 0.813362
Si Si3 0.913684 0.106379 0.331784
Si Si4 0.893137 0.864508 0.940411
Si Si5 0.529148 0.510207 0.331424
Si Si6 0.250339 0.698639 0.176893
Si Si7 0.758395 0.688429 0.806970
O O1 0.425044 0.360054 0.574718
O O2 0.382615 0.280053 0.246259
O O3 0.188009 0.310180 0.558598
O O4 0.095239 0.626824 0.745862
O O5 0.895338 0.332755 0.795176
O O6 0.784776 0.607666 0.892970
O O7 0.000000 0.500000 0.000000
O O8 0.702358 0.349340 0.549758
O O9 0.869187 0.117537 0.523270
O O10 0.890200 0.987044 0.153153
O O11 0.089682 0.074169 0.171784
O O12 0.710992 0.881684 0.000126
O O13 0.500000 0.500000 0.500000
O O14 0.706171 0.307196 0.012565
O O15 0.500000 0.500000 0.000000
O O16 0.000000 0.500000 0.500000
#
# Coordination Sequence:
#
# PCOD9018142 Si02
#       7
#     2   2   2   2   2   2   2
#     4  10  18  34  55  81 104 143 182 226 260 325
#     4  10  17  30  53  79 104 131 180 228 260 307
#     4  10  19  33  55  76 112 144 177 219 274 324
#     4   9  17  33  55  78 106 145 177 217 270 328
#     4  11  21  33  54  80 110 138 185 227 269 315
#     4  10  21  34  53  82 108 142 181 226 270 321
#     4   8  17  29  53  73 102 136 178 210 260 317
#
# _framework density 24.982182000000002
#
# number of rings (size 3 to 8) (size 9 to 14) (size 15 to 20)
#    0.000    2.571    2.857    2.571    2.000    0.000 
#    0.000    1.429    0.000   13.714    0.000    0.000 
#    0.000    0.000    0.000    0.000    0.000    0.000 
#
# Total GULP energy -77959.472018 kJ/mol
# GULP energy per Si atom -5568.533716 kJ/mol
# Density = 2.492532 g / cm^3
# Si number density = 24.982182 Si / 1000 Ang^3
#
#
#
# Elastic Constant Matrix: (Units=GPa)
#
#
# Indices 1 2 3 4 5 6 
#
# 1 69.9658 1.9380 32.2902 6.4858 -6.5065 11.7625
# 2 1.9380 69.9442 31.8748 -22.9057 -10.4738 6.0142
# 3 32.2902 31.8748 146.8473 -36.4920 23.7883 14.9534
# 4 6.4858 -22.9057 -36.4920 39.1777 -1.9677 10.4768
# 5 -6.5065 -10.4738 23.7883 -1.9677 26.9047 -1.6186
# 6 11.7625 6.0142 14.9534 10.4768 -1.6186 47.1430
#
#
#
# Elastic Compliance Matrix: (Units=1/GPa)
#
#
# Indices 1 2 3 4 5 6 
#
# 1 0.021372 0.002682 -0.010520 -0.011204 0.014734 0.000658
# 2 0.002682 0.021970 -0.004918 0.009470 0.014030 -0.003535
# 3 -0.010520 -0.004918 0.018265 0.016741 -0.019802 -0.006942
# 4 -0.011204 0.009470 0.016741 0.052155 -0.010955 -0.015690
# 5 0.014734 0.014030 -0.019802 -0.010955 0.063226 0.005420
# 6 0.000658 -0.003535 -0.006942 -0.015690 0.005420 0.027374
#
#
# Mechanical properties :
#
#
# Convention : Reuss Voigt Hill
#
# Bulk Modulus (GPa) = 27.70385 46.55150 37.12768
# Shear Modulus (GPa) = 20.66922 37.35537 29.01230
#
# Velocity S-wave (km/s) = 2.87950 3.87108 3.41151
# Velocity P-wave (km/s) = 4.70839 6.21729 5.51469
#
# Compressibility (1/GPa) = 0.03609606
#
# Stress axis : x y z
#
# Youngs Moduli (GPa) = 46.79098 45.51605 54.74838
#
# Poissons Ratio (x) = -0.12209 0.57594
# Poissons Ratio (y) = -0.12551 0.26926
# Poissons Ratio (z) = 0.49223 0.22386
#
# Static dielectric constant tensor:
#      x y z
#    x 2.179290 -0.109030 -0.036430 
#    y -0.109030 2.108180 0.012930 
#    z -0.036430 0.012930 2.071250 
# 
# From -- ./inp_files/268847.got.cif
#   From: 2010.05.17/outbox.cif.g08.bks.cpg/sg2_135_cif.got.tgz:268847.got - 2010.06.03 11:33:40.
