data_PCOD9018711
_publ_section_title
;
Structure prediction by ZEFSAII (Michael W. Deem and Ramdas Pophale) SiO2 
 PCOD9018711
Probable space group: P -1
;
_chemical_formula_sum "Si O2"
_cell_formula_units_Z 16
_cell_length_a 21.291047
_cell_length_b 6.133629
_cell_length_c 19.077654
_cell_angle_alpha 116.811319
_cell_angle_beta 160.254099
_cell_angle_gamma 66.109495
_cell_volume 749.644334
_symmetry_space_group_name_H-M "P -1"
_symmetry_group_IT_number 2
_symmetry_cell_setting 'triclinic'
loop_
_space_group_symop_operation_xyz
x,y,z
-x,-y,-z
loop_
_atom_site_type_symbol
_atom_site_label
_atom_site_fract_x
_atom_site_fract_y
_atom_site_fract_z
Si Si1 0.102771 0.255555 0.578947
Si Si2 0.634002 0.915277 0.467064
Si Si3 0.213329 0.595252 0.231358
Si Si4 0.512375 0.885850 0.793664
Si Si5 0.485814 0.717614 0.419987
Si Si6 0.145586 0.237494 0.777283
Si Si7 0.778185 0.453298 0.480257
Si Si8 0.416177 0.370246 0.825698
O O1 0.205424 0.293715 0.767707
O O2 0.234635 0.228684 0.647606
O O3 0.000000 0.500000 0.500000
O O4 0.953342 0.029734 0.380802
O O5 0.511086 0.744708 0.367322
O O6 0.758269 0.728140 0.528607
O O7 0.755151 0.127096 0.666187
O O8 0.507957 0.062916 0.302690
O O9 0.298765 0.599207 0.242748
O O10 0.344618 0.424546 0.389778
O O11 0.000000 0.500000 0.000000
O O12 0.322717 0.736732 0.598687
O O13 0.532578 0.160651 0.885801
O O14 0.685966 0.758800 0.990689
O O15 0.500000 0.000000 0.500000
O O16 0.982803 0.394601 0.660937
O O17 0.649786 0.444449 0.274625
O O18 0.500000 0.500000 0.000000
#
# Coordination Sequence:
#
# PCOD9018711 Si02
#       8
#     2   2   2   2   2   2   2   2
#     4  11  21  38  60  89 122 156 229 290 327 380
#     4  10  23  44  65  94 141 177 210 266 327 400
#     4  10  21  43  76 106 132 167 217 266 317 384
#     4  11  24  42  61  89 131 173 219 267 337 392
#     4   9  20  42  70 100 137 167 210 260 317 385
#     4  11  24  39  63  88 120 172 222 281 330 384
#     4  11  23  43  60  88 131 171 218 273 329 397
#     4  11  22  37  63  88 122 168 219 282 338 389
#
# _framework density 21.343456
#
# number of rings (size 3 to 8) (size 9 to 14) (size 15 to 20)
#    0.000    1.500    2.500    2.250    1.750    4.000 
#    0.000   16.250    0.000    0.000    0.000    0.000 
#    0.000    0.000    0.000    0.000    0.000    0.000 
#
# Total GULP energy -89285.246812 kJ/mol
# GULP energy per Si atom -5580.327926 kJ/mol
# Density = 2.129488 g / cm^3
# Si number density = 21.343456 Si / 1000 Ang^3
#
#
#
# Elastic Constant Matrix: (Units=GPa)
#
#
# Indices 1 2 3 4 5 6 
#
# 1 128.0867 24.9910 50.1387 -11.7097 -5.1883 21.1775
# 2 24.9910 67.5899 22.6318 -6.4846 -1.2575 -5.5626
# 3 50.1387 22.6318 84.4832 -5.9778 9.5376 2.1148
# 4 -11.7097 -6.4846 -5.9778 32.7417 -1.9566 -2.4411
# 5 -5.1883 -1.2575 9.5376 -1.9566 26.4363 -1.9876
# 6 21.1775 -5.5626 2.1148 -2.4411 -1.9876 50.2069
#
#
#
# Elastic Compliance Matrix: (Units=1/GPa)
#
#
# Indices 1 2 3 4 5 6 
#
# 1 0.012118 -0.002267 -0.006798 0.002560 0.004554 -0.004771
# 2 -0.002267 0.017312 -0.003436 0.002352 0.002034 0.003214
# 3 -0.006798 -0.003436 0.017614 -0.000253 -0.007764 0.001425
# 4 0.002560 0.002352 -0.000253 0.032131 0.003150 0.000878
# 5 0.004554 0.002034 -0.007764 0.003150 0.041885 0.000443
# 6 -0.004771 0.003214 0.001425 0.000878 0.000443 0.022286
#
#
# Mechanical properties :
#
#
# Convention : Reuss Voigt Hill
#
# Bulk Modulus (GPa) = 45.36629 52.85365 49.10997
# Shear Modulus (GPa) = 28.45844 34.03686 31.24765
#
# Velocity S-wave (km/s) = 3.65548 3.99773 3.83043
# Velocity P-wave (km/s) = 6.25445 6.79163 6.52857
#
# Compressibility (1/GPa) = 0.02204280
#
# Stress axis : x y z
#
# Youngs Moduli (GPa) = 82.52289 57.76455 56.77163
#
# Poissons Ratio (x) = 0.13093 0.38593
# Poissons Ratio (y) = 0.18705 0.19507
# Poissons Ratio (z) = 0.56099 0.19848
#
# Static dielectric constant tensor:
#      x y z
#    x 1.858770 0.066210 0.004320 
#    y 0.066210 1.784820 0.030810 
#    z 0.004320 0.030810 1.758540 
# 
# From -- ./inp_files/47710.got.cif
#   From: 2010.05.17/outbox.cif.g08.bks.cpg/sg2_24_cif.got.tgz:47710.got - 2010.06.03 11:33:40.
