data_PCOD9018987
_publ_section_title
;
Structure prediction by ZEFSAII (Michael W. Deem and Ramdas Pophale) SiO2 
 PCOD9018987
Probable space group: P -1
;
_chemical_formula_sum "Si O2"
_cell_formula_units_Z 16
_cell_length_a 8.235401
_cell_length_b 11.856611
_cell_length_c 14.616646
_cell_angle_alpha 114.560908
_cell_angle_beta 117.118443
_cell_angle_gamma 115.419806
_cell_volume 745.076713
_symmetry_space_group_name_H-M "P -1"
_symmetry_group_IT_number 2
_symmetry_cell_setting 'triclinic'
loop_
_space_group_symop_operation_xyz
x,y,z
-x,-y,-z
loop_
_atom_site_type_symbol
_atom_site_label
_atom_site_fract_x
_atom_site_fract_y
_atom_site_fract_z
Si Si1 0.649813 0.796022 0.989163
Si Si2 0.413197 0.008710 0.591286
Si Si3 0.264555 0.989348 0.741655
Si Si4 0.068086 0.407423 0.752788
Si Si5 0.137180 0.452783 0.145413
Si Si6 0.957739 0.721537 0.119218
Si Si7 0.764019 0.839726 0.463608
Si Si8 0.356191 0.977758 0.048105
O O1 0.855071 0.789687 0.062986
O O2 0.639447 0.868753 0.106168
O O3 0.332836 0.584712 0.820530
O O4 0.725564 0.925914 0.969067
O O5 0.404415 0.076675 0.708391
O O6 0.162752 0.781715 0.432504
O O7 0.364688 0.090093 0.530695
O O8 0.717093 0.105810 0.708797
O O9 0.389901 0.920290 0.780724
O O10 0.940445 0.857857 0.592176
O O11 0.186264 0.378308 0.853478
O O12 0.948812 0.463467 0.798047
O O13 0.477997 0.613885 0.294642
O O14 0.082851 0.408919 0.008653
O O15 0.922959 0.242063 0.066344
O O16 0.000000 0.000000 0.500000
O O17 0.500000 0.000000 0.000000
#
# Coordination Sequence:
#
# PCOD9018987 Si02
#       8
#     2   2   2   2   2   2   2   2
#     4  11  25  42  70  95 135 175 233 268 326 396
#     4  11  23  41  62  99 142 167 214 273 346 395
#     4  10  21  44  67  90 128 183 217 271 329 391
#     4  12  24  40  66 103 136 174 217 278 336 404
#     4  12  24  43  71  95 137 178 228 264 343 392
#     4  12  25  40  67 104 133 174 219 279 339 403
#     4  10  24  38  66  99 139 168 217 276 333 402
#     4  10  21  47  71  92 128 185 231 276 313 399
#
# _framework density 21.474298000000001
#
# number of rings (size 3 to 8) (size 9 to 14) (size 15 to 20)
#    0.000    1.000    5.000    1.875    8.750    0.500 
#    0.000    4.375    0.000    0.000    0.000    0.000 
#    0.000    0.000    0.000    0.000    0.000    0.000 
#
# Total GULP energy -89074.335697 kJ/mol
# GULP energy per Si atom -5567.145981 kJ/mol
# Density = 2.142542 g / cm^3
# Si number density = 21.474298 Si / 1000 Ang^3
#
#
#
# Elastic Constant Matrix: (Units=GPa)
#
#
# Indices 1 2 3 4 5 6 
#
# 1 66.9429 20.2922 36.7550 -3.2494 11.4992 -20.1274
# 2 20.2922 104.1846 54.6044 3.3702 19.4506 -21.9562
# 3 36.7550 54.6044 160.5729 14.6661 26.6883 -9.8293
# 4 -3.2494 3.3702 14.6661 30.1486 -0.8179 8.5082
# 5 11.4992 19.4506 26.6883 -0.8179 36.6990 -6.5761
# 6 -20.1274 -21.9562 -9.8293 8.5082 -6.5761 39.8390
#
#
#
# Elastic Compliance Matrix: (Units=1/GPa)
#
#
# Indices 1 2 3 4 5 6 
#
# 1 0.020047 0.000328 -0.003985 0.001563 -0.001969 0.008666
# 2 0.000328 0.013461 -0.003509 -0.001691 -0.003560 0.006492
# 3 -0.003985 -0.003509 0.009303 -0.004277 -0.004003 -0.001399
# 4 0.001563 -0.001691 -0.004277 0.038193 0.002774 -0.008896
# 5 -0.001969 -0.003560 -0.004003 0.002774 0.032885 0.000892
# 6 0.008666 0.006492 -0.001399 -0.008896 0.000892 0.034759
#
#
# Mechanical properties :
#
#
# Convention : Reuss Voigt Hill
#
# Bulk Modulus (GPa) = 35.11476 61.66705 48.39090
# Shear Modulus (GPa) = 28.98986 36.00724 32.49855
#
# Velocity S-wave (km/s) = 3.67819 4.09927 3.89443
# Velocity P-wave (km/s) = 5.86739 7.15432 6.54258
#
# Compressibility (1/GPa) = 0.02847805
#
# Stress axis : x y z
#
# Youngs Moduli (GPa) = 49.88381 74.28810 107.48652
#
# Poissons Ratio (x) = -0.02433 0.42834
# Poissons Ratio (y) = -0.01634 0.37718
# Poissons Ratio (z) = 0.19879 0.26068
#
# Static dielectric constant tensor:
#      x y z
#    x 1.942490 -0.012710 0.023120 
#    y -0.012710 1.833210 -0.002870 
#    z 0.023120 -0.002870 1.786450 
# 
# From -- ./inp_files/399279.got.cif
#   From: 2010.05.17/outbox.cif.g08.bks.cpg/sg2_200_cif.got.tgz:399279.got - 2010.06.03 11:33:40.
