data_PCOD9018714
_publ_section_title
;
Structure prediction by ZEFSAII (Michael W. Deem and Ramdas Pophale) SiO2 
 PCOD9018714
Probable space group: P -1
;
_chemical_formula_sum "Si O2"
_cell_formula_units_Z 12
_cell_length_a 11.782932
_cell_length_b 12.704501
_cell_length_c 6.621628
_cell_angle_alpha 116.427008
_cell_angle_beta 125.900266
_cell_angle_gamma 37.536532
_cell_volume 488.804753
_symmetry_space_group_name_H-M "P -1"
_symmetry_group_IT_number 2
_symmetry_cell_setting 'triclinic'
loop_
_space_group_symop_operation_xyz
x,y,z
-x,-y,-z
loop_
_atom_site_type_symbol
_atom_site_label
_atom_site_fract_x
_atom_site_fract_y
_atom_site_fract_z
Si Si1 0.984878 0.802261 0.850868
Si Si2 0.793860 0.625088 0.704925
Si Si3 0.032321 0.097187 0.489591
Si Si4 0.787250 0.700610 0.328861
Si Si5 0.669924 0.966447 0.988980
Si Si6 0.708215 0.445673 0.688113
O O1 0.008333 0.884999 0.774015
O O2 0.900862 0.741496 0.586469
O O3 0.182099 0.642631 0.054780
O O4 0.803652 0.948514 0.940086
O O5 0.728286 0.657859 0.426974
O O6 0.693063 0.587292 0.707753
O O7 0.957923 0.544629 0.218233
O O8 0.738686 0.789353 0.866680
O O9 0.868777 0.289927 0.568305
O O10 0.250705 0.020633 0.713415
O O11 0.000000 0.000000 0.500000
O O12 0.570507 0.869902 0.153463
O O13 0.500000 0.500000 0.500000
#
# Coordination Sequence:
#
# PCOD9018714 Si02
#       6
#     2   2   2   2   2   2
#     4  10  22  45  69 102 145 181 248 295 355 439
#     4  10  21  45  72 109 148 181 250 303 349 434
#     4  11  26  48  68 104 146 192 247 294 355 445
#     4  10  21  43  76 110 145 191 233 307 368 418
#     4  10  24  45  74 108 144 191 237 302 369 422
#     4  11  26  47  70 103 146 198 237 296 371 428
#
# _framework density 24.549681
#
# number of rings (size 3 to 8) (size 9 to 14) (size 15 to 20)
#    0.000    1.667    1.667    2.000    0.000   14.000 
#   15.000    0.000    0.000    0.000    0.000    0.000 
#    0.000    0.000    0.000    0.000    0.000    0.000 
#
# Total GULP energy -67121.697374 kJ/mol
# GULP energy per Si atom -5593.474781 kJ/mol
# Density = 2.449380 g / cm^3
# Si number density = 24.549681 Si / 1000 Ang^3
#
#
#
# Elastic Constant Matrix: (Units=GPa)
#
#
# Indices 1 2 3 4 5 6 
#
# 1 139.6496 69.3453 89.8360 -40.8738 5.8761 35.3685
# 2 69.3453 136.4806 72.5676 -22.9745 6.4524 -0.1615
# 3 89.8360 72.5676 165.1413 -31.2711 5.3516 3.9408
# 4 -40.8738 -22.9745 -31.2711 45.3958 0.4240 1.9460
# 5 5.8761 6.4524 5.3516 0.4240 55.3878 -19.4095
# 6 35.3685 -0.1615 3.9408 1.9460 -19.4095 53.2855
#
#
#
# Elastic Compliance Matrix: (Units=1/GPa)
#
#
# Indices 1 2 3 4 5 6 
#
# 1 0.023771 -0.005526 -0.007031 0.014636 -0.007853 -0.018670
# 2 -0.005526 0.011082 -0.002202 -0.001077 0.001014 0.004273
# 3 -0.007031 -0.002202 0.010630 -0.000328 0.001536 0.004446
# 4 0.014636 -0.001077 -0.000328 0.035064 -0.006316 -0.013275
# 5 -0.007853 0.001014 0.001536 -0.006316 0.023543 0.013909
# 6 -0.018670 0.004273 0.004446 -0.013275 0.013909 0.036394
#
#
# Mechanical properties :
#
#
# Convention : Reuss Voigt Hill
#
# Bulk Modulus (GPa) = 62.64336 100.52991 81.58664
# Shear Modulus (GPa) = 28.51839 44.78200 36.65019
#
# Velocity S-wave (km/s) = 3.41201 4.27563 3.86800
# Velocity P-wave (km/s) = 6.41052 8.08784 7.29753
#
# Compressibility (1/GPa) = 0.01596338
#
# Stress axis : x y z
#
# Youngs Moduli (GPa) = 42.06802 90.23944 94.07193
#
# Poissons Ratio (x) = 0.49870 0.66145
# Poissons Ratio (y) = 0.23248 0.20715
# Poissons Ratio (z) = 0.29579 0.19871
#
# Static dielectric constant tensor:
#      x y z
#    x 2.065420 0.117000 -0.041100 
#    y 0.117000 2.035770 -0.051780 
#    z -0.041100 -0.051780 2.048110 
# 
# From -- ./inp_files/64764.got.cif
#   From: 2010.05.17/outbox.cif.g08.bks.cpg/sg2_33_cif.got.tgz:64764.got - 2010.06.03 11:33:40.
