data_PCOD9018939
_publ_section_title
;
Structure prediction by ZEFSAII (Michael W. Deem and Ramdas Pophale) SiO2 
 PCOD9018939
Probable space group: P -1
;
_chemical_formula_sum "Si O2"
_cell_formula_units_Z 12
_cell_length_a 15.273746
_cell_length_b 5.281599
_cell_length_c 9.615114
_cell_angle_alpha 46.612570
_cell_angle_beta 106.952892
_cell_angle_gamma 117.769967
_cell_volume 498.272835
_symmetry_space_group_name_H-M "P -1"
_symmetry_group_IT_number 2
_symmetry_cell_setting 'triclinic'
loop_
_space_group_symop_operation_xyz
x,y,z
-x,-y,-z
loop_
_atom_site_type_symbol
_atom_site_label
_atom_site_fract_x
_atom_site_fract_y
_atom_site_fract_z
Si Si1 0.274447 0.492872 0.515623
Si Si2 0.235562 0.649884 0.836451
Si Si3 0.112325 0.609404 0.551127
Si Si4 0.405608 0.578889 0.782139
Si Si5 0.742922 0.535691 0.777423
Si Si6 0.516395 0.294817 0.725869
O O1 0.168431 0.388195 0.577137
O O2 0.362751 0.731710 0.569245
O O3 0.265495 0.669136 0.298228
O O4 0.287571 0.095654 0.654792
O O5 0.133293 0.535681 0.748254
O O6 0.305947 0.451346 0.878437
O O7 0.227094 0.604256 0.013920
O O8 0.000000 0.500000 0.500000
O O9 0.177921 0.042787 0.375289
O O10 0.451091 0.317344 0.820144
O O11 0.486009 0.878896 0.803274
O O12 0.628867 0.482780 0.757869
O O13 0.500000 0.500000 0.500000
#
# Coordination Sequence:
#
# PCOD9018939 Si02
#       6
#     2   2   2   2   2   2
#     4  10  21  44  66  95 137 180 228 285 343 404
#     4  10  23  44  65 103 140 177 229 287 339 411
#     4  10  24  47  70  95 134 178 227 292 360 416
#     4  11  22  41  64  96 146 189 224 277 329 401
#     4  11  25  40  68 102 133 183 234 284 341 408
#     4  12  22  38  67 100 141 191 237 270 332 406
#
# _framework density 24.083192
#
# number of rings (size 3 to 8) (size 9 to 14) (size 15 to 20)
#    0.000    1.333    3.333    2.500    2.333    7.333 
#    0.000    1.667    0.000    0.000    0.000    0.000 
#    0.000    0.000    0.000    0.000    0.000    0.000 
#
# Total GULP energy -66970.859633 kJ/mol
# GULP energy per Si atom -5580.904969 kJ/mol
# Density = 2.402838 g / cm^3
# Si number density = 24.083192 Si / 1000 Ang^3
#
#
#
# Elastic Constant Matrix: (Units=GPa)
#
#
# Indices 1 2 3 4 5 6 
#
# 1 111.2774 73.6425 22.3271 15.5228 2.7371 27.5235
# 2 73.6425 137.3797 63.5465 29.5005 1.3178 12.3334
# 3 22.3271 63.5465 170.6088 49.6598 9.2231 11.0732
# 4 15.5228 29.5005 49.6598 54.3679 2.3998 5.1005
# 5 2.7371 1.3178 9.2231 2.3998 12.9477 9.8943
# 6 27.5235 12.3334 11.0732 5.1005 9.8943 61.0923
#
#
#
# Elastic Compliance Matrix: (Units=1/GPa)
#
#
# Indices 1 2 3 4 5 6 
#
# 1 0.015867 -0.008590 0.001724 -0.000940 0.000893 -0.005793
# 2 -0.008590 0.013846 -0.003691 -0.001932 0.002212 0.001547
# 3 0.001724 -0.003691 0.009253 -0.006686 -0.005092 -0.000326
# 4 -0.000940 -0.001932 -0.006686 0.025814 0.000539 -0.000217
# 5 0.000893 0.002212 -0.005092 0.000539 0.091670 -0.014818
# 6 -0.005793 0.001547 -0.000326 -0.000217 -0.014818 0.021143
#
#
# Mechanical properties :
#
#
# Convention : Reuss Voigt Hill
#
# Bulk Modulus (GPa) = 56.01035 82.03312 69.02174
# Shear Modulus (GPa) = 24.43119 42.99822 33.71470
#
# Velocity S-wave (km/s) = 3.18850 4.22999 3.74562
# Velocity P-wave (km/s) = 6.07148 7.61534 6.88681
#
# Compressibility (1/GPa) = 0.01785384
#
# Stress axis : x y z
#
# Youngs Moduli (GPa) = 63.02230 72.22501 108.07463
#
# Poissons Ratio (x) = 0.62041 -0.18637
# Poissons Ratio (y) = 0.54136 0.39885
# Poissons Ratio (z) = -0.10868 0.26655
#
# Static dielectric constant tensor:
#      x y z
#    x 1.953630 -0.073020 0.031750 
#    y -0.073020 1.986670 -0.025120 
#    z 0.031750 -0.025120 1.995080 
# 
# From -- ./inp_files/100636.got.cif
#   From: 2010.05.17/outbox.cif.g08.bks.cpg/sg2_51_cif.got.tgz:100636.got - 2010.06.03 11:33:40.
