data_PCOD9018221
_publ_section_title
;
Structure prediction by ZEFSAII (Michael W. Deem and Ramdas Pophale) SiO2 
 PCOD9018221
Probable space group: P -1
;
_chemical_formula_sum "Si O2"
_cell_formula_units_Z 15
_cell_length_a 12.506338
_cell_length_b 8.165920
_cell_length_c 19.785934
_cell_angle_alpha 48.969608
_cell_angle_beta 143.026688
_cell_angle_gamma 148.706320
_cell_volume 629.032575
_symmetry_space_group_name_H-M "P -1"
_symmetry_group_IT_number 2
_symmetry_cell_setting 'triclinic'
loop_
_space_group_symop_operation_xyz
x,y,z
-x,-y,-z
loop_
_atom_site_type_symbol
_atom_site_label
_atom_site_fract_x
_atom_site_fract_y
_atom_site_fract_z
Si Si1 0.453090 0.468764 0.177574
Si Si2 0.102826 0.615353 0.428399
Si Si3 0.696484 0.228693 0.912601
Si Si4 0.027232 0.145560 0.607413
Si Si5 0.802495 0.206453 0.724386
Si Si6 0.635989 0.444396 0.035293
Si Si7 0.000000 0.000000 0.500000
Si Si8 0.444686 0.044754 0.695996
O O1 0.387205 0.605780 0.156194
O O2 0.764918 0.742596 0.263564
O O3 0.341603 0.148219 0.237354
O O4 0.330355 0.410990 0.058888
O O5 0.158189 0.851847 0.447053
O O6 0.151350 0.414587 0.536669
O O7 0.218208 0.755868 0.375425
O O8 0.790286 0.328341 0.339714
O O9 0.599115 0.094046 0.824699
O O10 0.562457 0.930682 0.972306
O O11 0.000000 0.500000 0.000000
O O12 0.943996 0.886737 0.584087
O O13 0.651279 0.238661 0.687729
O O14 0.100070 0.422839 0.837192
O O15 0.500000 0.500000 0.000000
O O16 0.719738 0.886909 0.388524
#
# Coordination Sequence:
#
# PCOD9018221 Si02
#       8
#     2   2   2   2   2   2   1   2
#     4  12  24  42  67 106 143 187 243 295 363 435
#     4  10  22  44  72 101 143 189 243 304 351 431
#     4  12  25  45  69 105 150 188 239 304 371 436
#     4  10  21  43  69 102 140 189 236 304 362 424
#     4  12  24  44  76 109 142 196 249 297 363 439
#     4  12  25  46  74 105 144 195 243 304 366 436
#     4  10  22  44  72  98 148 192 234 308 372 420
#     4  11  22  45  72 104 143 194 247 300 363 433
#
# _framework density 23.846142
#
# number of rings (size 3 to 8) (size 9 to 14) (size 15 to 20)
#    0.000    0.800    4.000    4.000    0.000    0.533 
#    0.000    5.333    0.000    0.000    0.000    0.000 
#    0.000    0.000    0.000    0.000    0.000    0.000 
#
# Total GULP energy -83621.708898 kJ/mol
# GULP energy per Si atom -5574.780593 kJ/mol
# Density = 2.379187 g / cm^3
# Si number density = 23.846142 Si / 1000 Ang^3
#
#
#
# Elastic Constant Matrix: (Units=GPa)
#
#
# Indices 1 2 3 4 5 6 
#
# 1 114.0062 18.1078 33.3121 -14.6257 -8.1465 22.4921
# 2 18.1078 66.2389 12.9292 -3.7123 5.6695 10.5351
# 3 33.3121 12.9292 113.9398 7.7473 -4.8507 13.7476
# 4 -14.6257 -3.7123 7.7473 40.7815 9.0168 -8.8782
# 5 -8.1465 5.6695 -4.8507 9.0168 47.1051 -3.8586
# 6 22.4921 10.5351 13.7476 -8.8782 -3.8586 26.0967
#
#
#
# Elastic Compliance Matrix: (Units=1/GPa)
#
#
# Indices 1 2 3 4 5 6 
#
# 1 0.011527 -0.001467 -0.002521 0.002788 0.000808 -0.006947
# 2 -0.001467 0.016814 -0.001030 0.000726 -0.002946 -0.005169
# 3 -0.002521 -0.001030 0.010468 -0.004162 0.001222 -0.004161
# 4 0.002788 0.000726 -0.004162 0.029377 -0.004940 0.008760
# 5 0.000808 -0.002946 0.001222 -0.004940 0.022922 0.001558
# 6 -0.006947 -0.005169 -0.004161 0.008760 0.001558 0.051796
#
#
# Mechanical properties :
#
#
# Convention : Reuss Voigt Hill
#
# Bulk Modulus (GPa) = 34.75520 46.98700 40.87110
# Shear Modulus (GPa) = 30.76349 38.11904 34.44127
#
# Velocity S-wave (km/s) = 3.59567 4.00251 3.80453
# Velocity P-wave (km/s) = 5.64312 6.41149 6.03954
#
# Compressibility (1/GPa) = 0.02877267
#
# Stress axis : x y z
#
# Youngs Moduli (GPa) = 86.75340 59.47429 95.53346
#
# Poissons Ratio (x) = 0.08726 0.24081
# Poissons Ratio (y) = 0.12728 0.09841
# Poissons Ratio (z) = 0.21867 0.06126
#
# Static dielectric constant tensor:
#      x y z
#    x 1.440910 0.425170 0.265990 
#    y 0.425170 1.507560 -0.260200 
#    z 0.265990 -0.260200 1.561180 
# 
# From -- ./inp_files/566568.got.cif
#   From: 2010.05.17/outbox.cif.g08.bks.cpg/sg2_284_cif.got.tgz:566568.got - 2010.06.03 11:33:40.
