data_PCOD9018463
_publ_section_title
;
Structure prediction by ZEFSAII (Michael W. Deem and Ramdas Pophale) SiO2 
 PCOD9018463
Probable space group: P -1
;
_chemical_formula_sum "Si O2"
_cell_formula_units_Z 14
_cell_length_a 8.182168
_cell_length_b 12.542693
_cell_length_c 9.904138
_cell_angle_alpha 42.230810
_cell_angle_beta 119.154472
_cell_angle_gamma 101.985134
_cell_volume 575.968071
_symmetry_space_group_name_H-M "P -1"
_symmetry_group_IT_number 2
_symmetry_cell_setting 'triclinic'
loop_
_space_group_symop_operation_xyz
x,y,z
-x,-y,-z
loop_
_atom_site_type_symbol
_atom_site_label
_atom_site_fract_x
_atom_site_fract_y
_atom_site_fract_z
Si Si1 0.796335 0.602478 0.383511
Si Si2 0.363029 0.207638 0.122928
Si Si3 0.861128 0.098545 0.129226
Si Si4 0.699021 0.825837 0.382719
Si Si5 0.727738 0.128971 0.518300
Si Si6 0.695655 0.278139 0.643886
Si Si7 0.062486 0.322223 0.127741
O O1 0.816219 0.710185 0.420046
O O2 0.687622 0.463341 0.506152
O O3 0.000000 0.500000 0.500000
O O4 0.681435 0.720483 0.110257
O O5 0.570933 0.207586 0.268781
O O6 0.194948 0.310201 0.059231
O O7 0.345171 0.020750 0.303094
O O8 0.880757 0.252007 0.081603
O O9 0.689993 0.013832 0.168407
O O10 0.852952 0.157677 0.915574
O O11 0.059548 0.958888 0.367173
O O12 0.500819 0.773593 0.360900
O O13 0.803279 0.791022 0.601125
O O14 0.739668 0.252065 0.527864
O O15 0.000000 0.500000 0.000000
#
# Coordination Sequence:
#
# PCOD9018463 Si02
#       7
#     2   2   2   2   2   2   2
#     4  12  25  44  72 103 140 186 233 282 354 419
#     4  10  22  43  71 101 138 180 229 285 344 414
#     4  11  24  43  72 102 136 190 231 282 347 416
#     4  12  25  46  66 104 140 181 233 288 348 414
#     4  10  21  43  70  99 139 178 233 281 340 417
#     4  12  24  44  70 104 142 176 234 296 347 405
#     4  11  23  45  70 103 145 177 228 291 352 409
#
# _framework density 24.306902999999998
#
# number of rings (size 3 to 8) (size 9 to 14) (size 15 to 20)
#    0.000    0.857    1.429    6.857    0.000    0.571 
#    5.143    0.000    0.000    0.000    0.000    0.000 
#    0.000    0.000    0.000    0.000    0.000    0.000 
#
# Total GULP energy -78491.327278 kJ/mol
# GULP energy per Si atom -5606.523377 kJ/mol
# Density = 2.425158 g / cm^3
# Si number density = 24.306903 Si / 1000 Ang^3
#
#
#
# Elastic Constant Matrix: (Units=GPa)
#
#
# Indices 1 2 3 4 5 6 
#
# 1 92.8182 38.8628 21.8346 0.2783 -2.1101 11.9282
# 2 38.8628 143.3792 -9.2654 -0.8081 2.6920 12.9857
# 3 21.8346 -9.2654 62.7053 9.8109 5.4359 16.5872
# 4 0.2783 -0.8081 9.8109 30.8350 5.2351 3.4521
# 5 -2.1101 2.6920 5.4359 5.2351 21.1647 -3.9537
# 6 11.9282 12.9857 16.5872 3.4521 -3.9537 44.6650
#
#
#
# Elastic Compliance Matrix: (Units=1/GPa)
#
#
# Indices 1 2 3 4 5 6 
#
# 1 0.014020 -0.004225 -0.005923 0.001126 0.003155 -0.000124
# 2 -0.004225 0.008707 0.003859 -0.000092 -0.003077 -0.003102
# 3 -0.005923 0.003859 0.022050 -0.004769 -0.007057 -0.007985
# 4 0.001126 -0.000092 -0.004769 0.035474 -0.007787 -0.001934
# 5 0.003155 -0.003077 -0.007057 -0.007787 0.053184 0.007982
# 6 -0.000124 -0.003102 -0.007985 -0.001934 0.007982 0.027145
#
#
# Mechanical properties :
#
#
# Convention : Reuss Voigt Hill
#
# Bulk Modulus (GPa) = 31.05482 44.64076 37.84779
# Shear Modulus (GPa) = 27.18994 35.83098 31.51046
#
# Velocity S-wave (km/s) = 3.34819 3.84358 3.60440
# Velocity P-wave (km/s) = 5.26793 6.17274 5.73820
#
# Compressibility (1/GPa) = 0.03220112
#
# Stress axis : x y z
#
# Youngs Moduli (GPa) = 71.32582 114.84859 45.35049
#
# Poissons Ratio (x) = 0.48518 0.26861
# Poissons Ratio (y) = 0.30132 -0.17501
# Poissons Ratio (z) = 0.42246 -0.44322
#
# Static dielectric constant tensor:
#      x y z
#    x 1.987450 0.006710 0.002570 
#    y 0.006710 1.892650 -0.008930 
#    z 0.002570 -0.008930 1.912130 
# 
# From -- ./inp_files/157861.got.cif
#   From: 2010.05.17/outbox.cif.g08.bks.cpg/sg2_79_cif.got.tgz:157861.got - 2010.06.03 11:33:40.
