data_PCOD9018782
_publ_section_title
;
Structure prediction by ZEFSAII (Michael W. Deem and Ramdas Pophale) SiO2 
 PCOD9018782
Probable space group: P -1
;
_chemical_formula_sum "Si O2"
_cell_formula_units_Z 12
_cell_length_a 14.451583
_cell_length_b 6.770588
_cell_length_c 7.371318
_cell_angle_alpha 120.734182
_cell_angle_beta 61.123776
_cell_angle_gamma 128.912285
_cell_volume 468.040297
_symmetry_space_group_name_H-M "P -1"
_symmetry_group_IT_number 2
_symmetry_cell_setting 'triclinic'
loop_
_space_group_symop_operation_xyz
x,y,z
-x,-y,-z
loop_
_atom_site_type_symbol
_atom_site_label
_atom_site_fract_x
_atom_site_fract_y
_atom_site_fract_z
Si Si1 0.321525 0.697736 0.385258
Si Si2 0.548438 0.707865 0.327562
Si Si3 0.090717 0.699467 0.723242
Si Si4 0.258845 0.984864 0.011190
Si Si5 0.912180 0.110013 0.574968
Si Si6 0.618670 0.287045 0.064676
O O1 0.410724 0.628937 0.378104
O O2 0.188255 0.604419 0.541955
O O3 0.216243 0.047020 0.269880
O O4 0.314348 0.615199 0.145814
O O5 0.621343 0.797105 0.106451
O O6 0.425644 0.516708 0.731403
O O7 0.610667 0.978941 0.511405
O O8 0.144218 0.880030 0.934143
O O9 0.093662 0.871652 0.628396
O O10 0.034009 0.579308 0.271111
O O11 0.293764 0.758435 0.908705
O O12 0.000000 0.000000 0.500000
O O13 0.500000 0.000000 0.000000
#
# Coordination Sequence:
#
# PCOD9018782 Si02
#       6
#     2   2   2   2   2   2
#     4  10  21  44  63  96 140 170 220 276 324 390
#     4  10  24  41  66 100 136 176 221 276 323 400
#     4  10  24  44  63  94 136 162 222 282 316 400
#     4  11  24  44  65  97 134 173 222 273 333 393
#     4  11  25  42  69  95 122 177 220 273 342 388
#     4  12  24  40  67 101 137 181 219 267 337 397
#
# _framework density 25.638819000000002
#
# number of rings (size 3 to 8) (size 9 to 14) (size 15 to 20)
#    0.000    1.333    3.333    1.000    2.333    4.000 
#    0.000    0.000    0.000    0.000    0.000    0.000 
#    0.000    0.000    0.000    0.000    0.000    0.000 
#
# Total GULP energy -67242.701905 kJ/mol
# GULP energy per Si atom -5603.558492 kJ/mol
# Density = 2.558046 g / cm^3
# Si number density = 25.638819 Si / 1000 Ang^3
#
#
#
# Elastic Constant Matrix: (Units=GPa)
#
#
# Indices 1 2 3 4 5 6 
#
# 1 102.8636 49.0479 22.6833 -6.6400 4.3727 -28.3393
# 2 49.0479 105.9055 41.5109 12.5448 3.8321 -31.6117
# 3 22.6833 41.5109 92.8052 -9.9870 -6.3770 -15.0605
# 4 -6.6400 12.5448 -9.9870 36.7855 -3.9351 -2.8705
# 5 4.3727 3.8321 -6.3770 -3.9351 49.3629 -4.1755
# 6 -28.3393 -31.6117 -15.0605 -2.8705 -4.1755 57.1330
#
#
#
# Elastic Compliance Matrix: (Units=1/GPa)
#
#
# Indices 1 2 3 4 5 6 
#
# 1 0.013906 -0.006054 0.000489 0.005018 0.000034 0.003932
# 2 -0.006054 0.017169 -0.006585 -0.008621 -0.001981 0.004183
# 3 0.000489 -0.006585 0.014697 0.006724 0.002990 0.001030
# 4 0.005018 -0.008621 0.006724 0.033384 0.003878 0.001452
# 5 0.000034 -0.001981 0.002990 0.003878 0.021227 0.001455
# 6 0.003932 0.004183 0.001030 0.001452 0.001455 0.022218
#
#
# Mechanical properties :
#
#
# Convention : Reuss Voigt Hill
#
# Bulk Modulus (GPa) = 46.57031 58.67317 52.62174
# Shear Modulus (GPa) = 32.45534 41.21176 36.83355
#
# Velocity S-wave (km/s) = 3.56176 4.01359 3.79441
# Velocity P-wave (km/s) = 5.92607 6.66428 6.30599
#
# Compressibility (1/GPa) = 0.02147291
#
# Stress axis : x y z
#
# Youngs Moduli (GPa) = 71.91048 58.24615 68.04098
#
# Poissons Ratio (x) = 0.35264 -0.03330
# Poissons Ratio (y) = 0.43537 0.44802
# Poissons Ratio (z) = -0.03520 0.38353
#
# Static dielectric constant tensor:
#      x y z
#    x 1.983890 0.044430 0.005380 
#    y 0.044430 2.057650 -0.028710 
#    z 0.005380 -0.028710 2.037420 
# 
# From -- ./inp_files/113773.got.cif
#   From: 2010.05.17/outbox.cif.g08.bks.cpg/sg2_57_cif.got.tgz:113773.got - 2010.06.03 11:33:40.
