data_PCOD9018826
_publ_section_title
;
Structure prediction by ZEFSAII (Michael W. Deem and Ramdas Pophale) SiO2 
 PCOD9018826
Probable space group: P -1
;
_chemical_formula_sum "Si O2"
_cell_formula_units_Z 16
_cell_length_a 6.882532
_cell_length_b 15.278692
_cell_length_c 17.474359
_cell_angle_alpha 25.740416
_cell_angle_beta 110.609574
_cell_angle_gamma 112.404110
_cell_volume 737.622662
_symmetry_space_group_name_H-M "P -1"
_symmetry_group_IT_number 2
_symmetry_cell_setting 'triclinic'
loop_
_space_group_symop_operation_xyz
x,y,z
-x,-y,-z
loop_
_atom_site_type_symbol
_atom_site_label
_atom_site_fract_x
_atom_site_fract_y
_atom_site_fract_z
Si Si1 0.879690 0.133659 0.283782
Si Si2 0.449281 0.728437 0.156489
Si Si3 0.204050 0.293274 0.330229
Si Si4 0.516448 0.648804 0.459028
Si Si5 0.143531 0.976639 0.966202
Si Si6 0.968507 0.792324 0.470209
Si Si7 0.783768 0.074843 0.734408
Si Si8 0.441882 0.705099 0.997721
O O1 0.025888 0.260538 0.266130
O O2 0.745307 0.933403 0.464511
O O3 0.738969 0.251978 0.118817
O O4 0.016004 0.017974 0.335916
O O5 0.505393 0.505648 0.350893
O O6 0.642908 0.866585 0.116543
O O7 0.429847 0.783110 0.022242
O O8 0.231140 0.763522 0.137778
O O9 0.395586 0.460935 0.197011
O O10 0.089241 0.345793 0.352720
O O11 0.500000 0.500000 0.500000
O O12 0.344538 0.797031 0.327011
O O13 0.749901 0.768732 0.411154
O O14 0.000083 0.029271 0.836175
O O15 0.000000 0.000000 0.000000
O O16 0.154495 0.785953 0.441528
O O17 0.646793 0.851375 0.879334
#
# Coordination Sequence:
#
# PCOD9018826 Si02
#       8
#     2   2   2   2   2   2   2   2
#     4   9  19  41  74  93 138 174 225 276 348 402
#     4  11  24  41  64  92 133 180 229 276 342 402
#     4   9  20  41  71  99 129 183 222 275 346 412
#     4  12  25  43  67  95 138 183 230 283 338 402
#     4  11  23  40  61  95 131 177 229 285 330 401
#     4  10  21  44  64  97 135 176 220 283 339 396
#     4  12  25  41  69  99 138 180 229 284 339 398
#     4  12  21  40  67  97 133 180 220 278 342 408
#
# _framework density 21.691307999999999
#
# number of rings (size 3 to 8) (size 9 to 14) (size 15 to 20)
#    0.750    0.500    3.750    2.625    1.750    3.000 
#    0.000    1.250    0.000    0.000    0.000    0.000 
#    0.000    0.000    0.000    0.000    0.000    0.000 
#
# Total GULP energy -89086.800565 kJ/mol
# GULP energy per Si atom -5567.925035 kJ/mol
# Density = 2.164194 g / cm^3
# Si number density = 21.691308 Si / 1000 Ang^3
#
#
#
# Elastic Constant Matrix: (Units=GPa)
#
#
# Indices 1 2 3 4 5 6 
#
# 1 84.7490 29.9260 27.1119 -7.5270 -2.5917 1.6170
# 2 29.9260 114.3689 22.1569 5.3797 -0.6543 9.2233
# 3 27.1119 22.1569 90.0922 3.8075 -1.5920 15.9490
# 4 -7.5270 5.3797 3.8075 33.8271 2.8757 -4.0444
# 5 -2.5917 -0.6543 -1.5920 2.8757 27.6024 1.7486
# 6 1.6170 9.2233 15.9490 -4.0444 1.7486 13.4633
#
#
#
# Elastic Compliance Matrix: (Units=1/GPa)
#
#
# Indices 1 2 3 4 5 6 
#
# 1 0.015278 -0.003941 -0.005487 0.005746 -0.000151 0.009110
# 2 -0.003941 0.010572 0.000206 -0.003630 0.000790 -0.008206
# 3 -0.005487 0.000206 0.016795 -0.005918 0.002435 -0.021471
# 4 0.005746 -0.003630 -0.005918 0.034870 -0.004782 0.019903
# 5 -0.000151 0.000790 0.002435 -0.004782 0.037487 -0.009713
# 6 0.009110 -0.008206 -0.021471 0.019903 -0.009713 0.111480
#
#
# Mechanical properties :
#
#
# Convention : Reuss Voigt Hill
#
# Bulk Modulus (GPa) = 41.31962 49.73329 45.52645
# Shear Modulus (GPa) = 19.76346 28.97959 24.37153
#
# Velocity S-wave (km/s) = 3.02176 3.65910 3.35559
# Velocity P-wave (km/s) = 5.59151 6.38980 6.00394
#
# Compressibility (1/GPa) = 0.02420158
#
# Stress axis : x y z
#
# Youngs Moduli (GPa) = 65.45278 94.59056 59.54323
#
# Poissons Ratio (x) = 0.37274 0.32671
# Poissons Ratio (y) = 0.25792 -0.01226
# Poissons Ratio (z) = 0.35913 -0.01948
#
# Static dielectric constant tensor:
#      x y z
#    x 1.779350 -0.043710 -0.051450 
#    y -0.043710 1.767800 -0.055890 
#    z -0.051450 -0.055890 1.821500 
# 
# From -- ./inp_files/550047.got.cif
#   From: 2010.05.17/outbox.cif.g08.bks.cpg/sg2_276_cif.got.tgz:550047.got - 2010.06.03 11:33:40.
