data_PCOD9018350
_publ_section_title
;
Structure prediction by ZEFSAII (Michael W. Deem and Ramdas Pophale) SiO2 
 PCOD9018350
Probable space group: P -1
;
_chemical_formula_sum "Si O2"
_cell_formula_units_Z 16
_cell_length_a 14.290217
_cell_length_b 7.616131
_cell_length_c 11.725439
_cell_angle_alpha 80.932468
_cell_angle_beta 64.808658
_cell_angle_gamma 35.684213
_cell_volume 629.366797
_symmetry_space_group_name_H-M "P -1"
_symmetry_group_IT_number 2
_symmetry_cell_setting 'triclinic'
loop_
_space_group_symop_operation_xyz
x,y,z
-x,-y,-z
loop_
_atom_site_type_symbol
_atom_site_label
_atom_site_fract_x
_atom_site_fract_y
_atom_site_fract_z
Si Si1 0.033608 0.271052 0.931908
Si Si2 0.440095 0.623161 0.170468
Si Si3 0.276606 0.144020 0.656416
Si Si4 0.641491 0.690647 0.038600
Si Si5 0.966459 0.163657 0.614792
Si Si6 0.453478 0.191008 0.261613
Si Si7 0.065984 0.108865 0.177187
Si Si8 0.648010 0.189057 0.538836
O O1 0.190844 0.095494 0.775866
O O2 0.070808 0.093117 0.039425
O O3 0.000000 0.500000 0.000000
O O4 0.852279 0.458155 0.941774
O O5 0.588906 0.560105 0.063791
O O6 0.483998 0.347268 0.174535
O O7 0.406461 0.716883 0.311123
O O8 0.254006 0.917744 0.159206
O O9 0.115596 0.519061 0.724753
O O10 0.474290 0.893391 0.639602
O O11 0.319083 0.046924 0.513398
O O12 0.582795 0.854024 0.175170
O O13 0.500000 0.000000 0.000000
O O14 0.762979 0.542031 0.670474
O O15 0.145018 0.027273 0.550599
O O16 0.000000 0.000000 0.500000
O O17 0.955407 0.050598 0.739260
O O18 0.500000 0.500000 0.500000
#
# Coordination Sequence:
#
# PCOD9018350 Si02
#       8
#     2   2   2   2   2   2   2   2
#     4  10  21  43  70 100 138 183 234 293 345 429
#     4  11  26  47  70 108 142 184 239 294 356 412
#     4  11  23  44  73  97 143 189 232 292 362 408
#     4  12  26  45  74 105 145 186 241 289 356 426
#     4  11  23  45  68  98 142 186 239 287 358 410
#     4  11  24  47  69 104 142 187 232 292 356 415
#     4  10  22  43  69  99 137 185 234 292 346 428
#     4  12  25  45  69 101 147 179 238 300 338 432
#
# _framework density 25.422377999999998
#
# number of rings (size 3 to 8) (size 9 to 14) (size 15 to 20)
#    0.000    1.000    6.250    1.500    5.250    2.000 
#    2.250    3.125    0.000    0.000    0.000    0.000 
#    0.000    0.000    0.000    0.000    0.000    0.000 
#
# Total GULP energy -89586.706607 kJ/mol
# GULP energy per Si atom -5599.169163 kJ/mol
# Density = 2.536452 g / cm^3
# Si number density = 25.422378 Si / 1000 Ang^3
#
#
#
# Elastic Constant Matrix: (Units=GPa)
#
#
# Indices 1 2 3 4 5 6 
#
# 1 124.3465 51.5198 26.0225 -1.9754 -16.2598 -28.7058
# 2 51.5198 147.2746 22.0358 2.0927 -13.3380 -29.2178
# 3 26.0225 22.0358 96.3943 -14.0286 8.8090 -6.1035
# 4 -1.9754 2.0927 -14.0286 44.3327 -5.0271 6.4866
# 5 -16.2598 -13.3380 8.8090 -5.0271 56.7336 5.4100
# 6 -28.7058 -29.2178 -6.1035 6.4866 5.4100 43.5461
#
#
#
# Elastic Compliance Matrix: (Units=1/GPa)
#
#
# Indices 1 2 3 4 5 6 
#
# 1 0.010983 -0.002211 -0.002451 -0.000666 0.002453 0.005208
# 2 -0.002211 0.008753 -0.001448 -0.001472 0.001109 0.004294
# 3 -0.002451 -0.001448 0.012054 0.003658 -0.002482 -0.001134
# 4 -0.000666 -0.001472 0.003658 0.024626 0.001532 -0.004773
# 5 0.002453 0.001109 -0.002482 0.001532 0.019168 -0.000596
# 6 0.005208 0.004294 -0.001134 -0.004773 -0.000596 0.029905
#
#
# Mechanical properties :
#
#
# Convention : Reuss Voigt Hill
#
# Bulk Modulus (GPa) = 51.09449 63.01907 57.05678
# Shear Modulus (GPa) = 40.24697 46.81830 43.53263
#
# Velocity S-wave (km/s) = 3.98318 4.29606 4.14257
# Velocity P-wave (km/s) = 6.42621 7.03213 6.73598
#
# Compressibility (1/GPa) = 0.01957158
#
# Stress axis : x y z
#
# Youngs Moduli (GPa) = 91.04695 114.24145 82.95926
#
# Poissons Ratio (x) = 0.25255 0.20333
# Poissons Ratio (y) = 0.20128 0.12012
# Poissons Ratio (z) = 0.22315 0.16542
#
# Static dielectric constant tensor:
#      x y z
#    x 2.182590 0.045600 -0.021490 
#    y 0.045600 2.030720 -0.049410 
#    z -0.021490 -0.049410 2.164770 
# 
# From -- ./inp_files/274842.got.cif
#   From: 2010.05.17/outbox.cif.g08.bks.cpg/sg2_138_cif.got.tgz:274842.got - 2010.06.03 11:33:40.
