data_PCOD9018876
_publ_section_title
;
Structure prediction by ZEFSAII (Michael W. Deem and Ramdas Pophale) SiO2 
 PCOD9018876
Probable space group: P -1
;
_chemical_formula_sum "Si O2"
_cell_formula_units_Z 16
_cell_length_a 14.793371
_cell_length_b 9.306792
_cell_length_c 5.533268
_cell_angle_alpha 79.406901
_cell_angle_beta 105.340041
_cell_angle_gamma 115.799776
_cell_volume 659.367216
_symmetry_space_group_name_H-M "P -1"
_symmetry_group_IT_number 2
_symmetry_cell_setting 'triclinic'
loop_
_space_group_symop_operation_xyz
x,y,z
-x,-y,-z
loop_
_atom_site_type_symbol
_atom_site_label
_atom_site_fract_x
_atom_site_fract_y
_atom_site_fract_z
Si Si1 0.130264 0.748411 0.128213
Si Si2 0.654799 0.721487 0.966411
Si Si3 0.409497 0.548280 0.319383
Si Si4 0.931006 0.717834 0.248464
Si Si5 0.824318 0.557969 0.729113
Si Si6 0.268293 0.025432 0.436550
Si Si7 0.131376 0.029840 0.727253
Si Si8 0.457437 0.123406 0.841392
O O1 0.151604 0.594745 0.132792
O O2 0.233600 0.880508 0.273604
O O3 0.035396 0.699880 0.261643
O O4 0.107161 0.854902 0.872677
O O5 0.619952 0.535877 0.942362
O O6 0.671858 0.803523 0.692005
O O7 0.762536 0.827715 0.138706
O O8 0.571037 0.767602 0.022879
O O9 0.500000 0.500000 0.500000
O O10 0.296640 0.485244 0.379368
O O11 0.458098 0.740327 0.301096
O O12 0.878803 0.624133 0.488182
O O13 0.948795 0.899280 0.273629
O O14 0.866219 0.668449 0.965028
O O15 0.166262 0.025545 0.481439
O O16 0.347710 0.013216 0.684868
O O17 0.500000 0.000000 0.000000
#
# Coordination Sequence:
#
# PCOD9018876 Si02
#       8
#     2   2   2   2   2   2   2   2
#     4  11  27  46  76 107 148 199 238 309 380 439
#     4  10  21  44  65  97 142 187 240 301 354 441
#     4  12  25  45  72 102 139 200 242 299 373 433
#     4  12  27  50  78 110 150 197 250 306 372 444
#     4  12  30  49  75 111 153 192 254 310 366 444
#     4  10  23  43  70 101 149 182 246 298 367 436
#     4  10  23  43  74 104 148 186 248 299 368 440
#     4  11  26  41  69 104 139 185 243 303 366 436
#
# _framework density 24.265685999999999
#
# number of rings (size 3 to 8) (size 9 to 14) (size 15 to 20)
#    0.000    1.000    2.500    2.250   12.250    3.000 
#    0.000    0.000    0.000    0.000    0.000    0.000 
#    0.000    0.000    0.000    0.000    0.000    0.000 
#
# Total GULP energy -89374.511658 kJ/mol
# GULP energy per Si atom -5585.906979 kJ/mol
# Density = 2.421046 g / cm^3
# Si number density = 24.265686 Si / 1000 Ang^3
#
#
#
# Elastic Constant Matrix: (Units=GPa)
#
#
# Indices 1 2 3 4 5 6 
#
# 1 100.5791 4.9656 5.5396 -1.9521 10.1431 26.3591
# 2 4.9656 60.0430 17.6286 -10.9458 5.4816 13.4101
# 3 5.5396 17.6286 42.4986 -3.3645 -7.8782 16.4268
# 4 -1.9521 -10.9458 -3.3645 31.6168 0.7041 2.9559
# 5 10.1431 5.4816 -7.8782 0.7041 39.9602 -1.3507
# 6 26.3591 13.4101 16.4268 2.9559 -1.3507 34.6832
#
#
#
# Elastic Compliance Matrix: (Units=1/GPa)
#
#
# Indices 1 2 3 4 5 6 
#
# 1 0.013364 0.001994 0.001631 0.002905 -0.003804 -0.012096
# 2 0.001994 0.022139 -0.006810 0.007903 -0.005286 -0.007730
# 3 0.001631 -0.006810 0.033034 0.002442 0.006510 -0.014207
# 4 0.002905 0.007903 0.002442 0.035749 -0.002293 -0.009556
# 5 -0.003804 -0.005286 0.006510 -0.002293 0.028146 0.003144
# 6 -0.012096 -0.007730 -0.014207 -0.009556 0.003144 0.048679
#
#
# Mechanical properties :
#
#
# Convention : Reuss Voigt Hill
#
# Bulk Modulus (GPa) = 16.08555 28.82092 22.45323
# Shear Modulus (GPa) = 24.01513 32.91783 28.46648
#
# Velocity S-wave (km/s) = 3.14932 3.68714 3.42879
# Velocity P-wave (km/s) = 4.45731 5.47994 4.99487
#
# Compressibility (1/GPa) = 0.06216760
#
# Stress axis : x y z
#
# Youngs Moduli (GPa) = 74.82668 45.16928 30.27224
#
# Poissons Ratio (x) = -0.09008 -0.04937
# Poissons Ratio (y) = -0.14923 0.20615
# Poissons Ratio (z) = -0.12204 0.30759
#
# Static dielectric constant tensor:
#      x y z
#    x 1.977300 0.038400 0.011670 
#    y 0.038400 1.991890 0.040570 
#    z 0.011670 0.040570 2.039680 
# 
# From -- ./inp_files/81440.got.cif
#   From: 2010.05.17/outbox.cif.g08.bks.cpg/sg2_41_cif.got.tgz:81440.got - 2010.06.03 11:33:40.
