data_PCOD9018577
_publ_section_title
;
Structure prediction by ZEFSAII (Michael W. Deem and Ramdas Pophale) SiO2 
 PCOD9018577
Probable space group: P -1
;
_chemical_formula_sum "Si O2"
_cell_formula_units_Z 14
_cell_length_a 9.232036
_cell_length_b 21.808396
_cell_length_c 21.167981
_cell_angle_alpha 159.499078
_cell_angle_beta 26.296979
_cell_angle_gamma 155.650703
_cell_volume 587.263945
_symmetry_space_group_name_H-M "P -1"
_symmetry_group_IT_number 2
_symmetry_cell_setting 'triclinic'
loop_
_space_group_symop_operation_xyz
x,y,z
-x,-y,-z
loop_
_atom_site_type_symbol
_atom_site_label
_atom_site_fract_x
_atom_site_fract_y
_atom_site_fract_z
Si Si1 0.636397 0.021536 0.395832
Si Si2 0.167000 0.829170 0.001182
Si Si3 0.463017 0.047839 0.768948
Si Si4 0.170246 0.384432 0.362335
Si Si5 0.005411 0.549786 0.379588
Si Si6 0.803588 0.291200 0.987745
Si Si7 0.388621 0.546316 0.927026
O O1 0.907421 0.250945 0.498329
O O2 0.500000 0.000000 0.500000
O O3 0.394671 0.967119 0.371923
O O4 0.841145 0.887890 0.184329
O O5 0.253610 0.814658 0.025843
O O6 0.086791 0.627767 0.803115
O O7 0.500000 0.000000 0.000000
O O8 0.729486 0.134862 0.809019
O O9 0.357300 0.226205 0.970376
O O10 0.130576 0.841005 0.720591
O O11 0.508249 0.376353 0.186743
O O12 0.000000 0.500000 0.500000
O O13 0.277673 0.485090 0.486673
O O14 0.376709 0.569106 0.288463
O O15 0.214242 0.468466 0.989422
O O16 0.000000 0.500000 0.000000
#
# Coordination Sequence:
#
# PCOD9018577 Si02
#       7
#     2   2   2   2   2   2   2
#     4  11  25  45  74 103 135 189 235 286 361 419
#     4  12  27  46  71 102 148 189 231 292 356 417
#     4  10  22  44  70  96 142 182 227 288 354 414
#     4  11  24  42  72 105 138 185 240 290 350 415
#     4  11  25  46  70 101 147 186 231 292 353 421
#     4  11  25  42  71 107 135 187 240 288 353 417
#     4  10  21  43  72 101 137 183 230 290 357 410
#
# _framework density 23.839364
#
# number of rings (size 3 to 8) (size 9 to 14) (size 15 to 20)
#    0.000    1.143    1.429    4.714    4.000    3.429 
#    0.000   24.286    0.000    0.000    0.000    0.000 
#    0.000    0.000    0.000    0.000    0.000    0.000 
#
# Total GULP energy -78113.101056 kJ/mol
# GULP energy per Si atom -5579.507218 kJ/mol
# Density = 2.378510 g / cm^3
# Si number density = 23.839364 Si / 1000 Ang^3
#
#
#
# Elastic Constant Matrix: (Units=GPa)
#
#
# Indices 1 2 3 4 5 6 
#
# 1 148.6727 36.5885 56.7812 -1.6088 30.0794 -28.6401
# 2 36.5885 93.3806 37.9109 0.8278 13.2541 -27.3141
# 3 56.7812 37.9109 120.6561 4.2536 18.6695 -4.0585
# 4 -1.6088 0.8278 4.2536 43.7666 -7.3948 -1.1951
# 5 30.0794 13.2541 18.6695 -7.3948 51.8931 -6.7618
# 6 -28.6401 -27.3141 -4.0585 -1.1951 -6.7618 42.5810
#
#
#
# Elastic Compliance Matrix: (Units=1/GPa)
#
#
# Indices 1 2 3 4 5 6 
#
# 1 0.010127 -0.000158 -0.003975 0.000310 -0.003604 0.005767
# 2 -0.000158 0.015336 -0.004278 0.000190 -0.001066 0.009160
# 3 -0.003975 -0.004278 0.011656 -0.001598 -0.001625 -0.004610
# 4 0.000310 0.000190 -0.001598 0.023713 0.003917 0.001466
# 5 -0.003604 -0.001066 -0.001625 0.003917 0.022836 0.000474
# 6 0.005767 0.009160 -0.004610 0.001466 0.000474 0.032916
#
#
# Mechanical properties :
#
#
# Convention : Reuss Voigt Hill
#
# Bulk Modulus (GPa) = 49.27143 69.47454 59.37299
# Shear Modulus (GPa) = 35.67010 43.07672 39.37341
#
# Velocity S-wave (km/s) = 3.87236 4.25544 4.06841
# Velocity P-wave (km/s) = 6.38017 7.30419 6.85776
#
# Compressibility (1/GPa) = 0.02029574
#
# Stress axis : x y z
#
# Youngs Moduli (GPa) = 98.74719 65.20402 85.79469
#
# Poissons Ratio (x) = 0.01032 0.34106
# Poissons Ratio (y) = 0.01563 0.36703
# Poissons Ratio (z) = 0.39255 0.27894
#
# Static dielectric constant tensor:
#      x y z
#    x 2.084350 0.083120 0.005520 
#    y 0.083120 1.933920 0.033300 
#    z 0.005520 0.033300 1.858410 
# 
# From -- ./inp_files/588166.got.cif
#   From: 2010.05.17/outbox.cif.g08.bks.cpg/sg2_295_cif.got.tgz:588166.got - 2010.06.03 11:33:40.
