data_PCOD9018446
_publ_section_title
;
Structure prediction by ZEFSAII (Michael W. Deem and Ramdas Pophale) SiO2 
 PCOD9018446
Probable space group: P -1
;
_chemical_formula_sum "Si O2"
_cell_formula_units_Z 16
_cell_length_a 9.347638
_cell_length_b 18.726551
_cell_length_c 14.997568
_cell_angle_alpha 142.039445
_cell_angle_beta 27.835792
_cell_angle_gamma 142.357057
_cell_volume 711.951080
_symmetry_space_group_name_H-M "P -1"
_symmetry_group_IT_number 2
_symmetry_cell_setting 'triclinic'
loop_
_space_group_symop_operation_xyz
x,y,z
-x,-y,-z
loop_
_atom_site_type_symbol
_atom_site_label
_atom_site_fract_x
_atom_site_fract_y
_atom_site_fract_z
Si Si1 0.625880 0.338211 0.803613
Si Si2 0.892770 0.715752 0.117115
Si Si3 0.721943 0.004923 0.798864
Si Si4 0.587759 0.334606 0.023317
Si Si5 0.640490 0.589787 0.312278
Si Si6 0.366120 0.059026 0.887148
Si Si7 0.252487 0.569767 0.672613
Si Si8 0.260850 0.905527 0.468606
O O1 0.331664 0.299313 0.859595
O O2 0.484996 0.339164 0.981804
O O3 0.786960 0.231251 0.607327
O O4 0.898609 0.466323 0.756034
O O5 0.669845 0.642267 0.248075
O O6 0.032788 0.856285 0.208398
O O7 0.177759 0.662366 0.876405
O O8 0.502553 0.984775 0.811074
O O9 0.927233 0.922010 0.638341
O O10 0.500000 0.000000 0.000000
O O11 0.434217 0.200520 0.018725
O O12 0.978160 0.366052 0.828023
O O13 0.527108 0.442451 0.219141
O O14 0.415095 0.625914 0.543897
O O15 0.557526 0.073157 0.704199
O O16 0.000000 0.000000 0.000000
O O17 0.500000 0.500000 0.500000
O O18 0.500000 0.000000 0.500000
#
# Coordination Sequence:
#
# PCOD9018446 Si02
#       8
#     2   2   2   2   2   2   2   2
#     4  11  24  45  70  99 145 185 229 300 356 425
#     4  12  26  48  68 104 152 179 233 303 357 420
#     4  12  27  46  72 101 144 193 239 300 360 431
#     4  10  21  43  70  97 148 179 228 298 356 413
#     4  11  22  43  72 105 136 191 232 285 363 422
#     4  11  25  44  73 107 141 188 243 295 358 438
#     4  12  25  42  75 107 134 190 239 285 357 436
#     4  11  24  48  72 102 140 188 240 296 363 417
#
# _framework density 22.473452999999999
#
# number of rings (size 3 to 8) (size 9 to 14) (size 15 to 20)
#    0.000    0.750    5.000    2.250    3.500    1.500 
#    2.250    0.000    0.000    0.000    0.000    0.000 
#    0.000    0.000    0.000    0.000    0.000    0.000 
#
# Total GULP energy -89452.033890 kJ/mol
# GULP energy per Si atom -5590.752118 kJ/mol
# Density = 2.242230 g / cm^3
# Si number density = 22.473453 Si / 1000 Ang^3
#
#
#
# Elastic Constant Matrix: (Units=GPa)
#
#
# Indices 1 2 3 4 5 6 
#
# 1 146.6146 12.4316 7.5457 7.1891 -17.6926 -2.6425
# 2 12.4316 47.0722 17.8909 8.5316 0.4214 -6.0508
# 3 7.5457 17.8909 75.9858 -0.5229 -10.0830 -12.6172
# 4 7.1891 8.5316 -0.5229 26.5331 0.3746 0.7064
# 5 -17.6926 0.4214 -10.0830 0.3746 34.0167 -1.8843
# 6 -2.6425 -6.0508 -12.6172 0.7064 -1.8843 34.2250
#
#
#
# Elastic Compliance Matrix: (Units=1/GPa)
#
#
# Indices 1 2 3 4 5 6 
#
# 1 0.007536 -0.001784 0.000309 -0.001537 0.004085 0.000637
# 2 -0.001784 0.025718 -0.005933 -0.007923 -0.002794 0.002232
# 3 0.000309 -0.005933 0.016096 0.001929 0.005270 0.005159
# 4 -0.001537 -0.007923 0.001929 0.040745 -0.000671 -0.001686
# 5 0.004085 -0.002794 0.005270 -0.000671 0.033326 0.003613
# 6 0.000637 0.002232 0.005159 -0.001686 0.003613 0.031798
#
#
# Mechanical properties :
#
#
# Convention : Reuss Voigt Hill
#
# Bulk Modulus (GPa) = 28.95692 38.37878 33.66785
# Shear Modulus (GPa) = 27.54130 34.40857 30.97493
#
# Velocity S-wave (km/s) = 3.50452 3.91714 3.71656
# Velocity P-wave (km/s) = 5.41188 6.12969 5.78194
#
# Compressibility (1/GPa) = 0.03453406
#
# Stress axis : x y z
#
# Youngs Moduli (GPa) = 132.70016 38.88349 62.12817
#
# Poissons Ratio (x) = 0.06936 -0.01920
# Poissons Ratio (y) = 0.23670 0.36860
# Poissons Ratio (z) = -0.04100 0.23069
#
# Static dielectric constant tensor:
#      x y z
#    x 1.865020 -0.007460 0.022510 
#    y -0.007460 1.924010 0.119980 
#    z 0.022510 0.119980 1.824980 
# 
# From -- ./inp_files/507296.got.cif
#   From: 2010.05.17/outbox.cif.g08.bks.cpg/sg2_254_cif.got.tgz:507296.got - 2010.06.03 11:33:40.
