data_PCOD9018424
_publ_section_title
;
Structure prediction by ZEFSAII (Michael W. Deem and Ramdas Pophale) SiO2 
 PCOD9018424
Probable space group: P -1
;
_chemical_formula_sum "Si O2"
_cell_formula_units_Z 14
_cell_length_a 10.956358
_cell_length_b 5.260625
_cell_length_c 11.495264
_cell_angle_alpha 127.623543
_cell_angle_beta 77.532865
_cell_angle_gamma 87.079842
_cell_volume 497.887062
_symmetry_space_group_name_H-M "P -1"
_symmetry_group_IT_number 2
_symmetry_cell_setting 'triclinic'
loop_
_space_group_symop_operation_xyz
x,y,z
-x,-y,-z
loop_
_atom_site_type_symbol
_atom_site_label
_atom_site_fract_x
_atom_site_fract_y
_atom_site_fract_z
Si Si1 0.197730 0.915553 0.185343
Si Si2 0.420263 0.728431 0.925436
Si Si3 0.671134 0.097928 0.256027
Si Si4 0.561346 0.031569 0.620633
Si Si5 0.191825 0.437953 0.503942
Si Si6 0.981278 0.351528 0.671099
Si Si7 0.120538 0.548949 0.917437
O O1 0.135473 0.706410 0.233627
O O2 0.195876 0.292257 0.330973
O O3 0.342047 0.750366 0.068349
O O4 0.127131 0.904633 0.071479
O O5 0.326435 0.792868 0.847707
O O6 0.520592 0.397390 0.777548
O O7 0.500000 0.000000 0.000000
O O8 0.735968 0.288389 0.391741
O O9 0.520404 0.153112 0.330296
O O10 0.750806 0.722205 0.148065
O O11 0.500000 0.000000 0.500000
O O12 0.712490 0.884033 0.547826
O O13 0.048255 0.538900 0.608370
O O14 0.082623 0.440273 0.769553
O O15 0.000000 0.000000 0.500000
O O16 0.000000 0.500000 0.000000
#
# Coordination Sequence:
#
# PCOD9018424 Si02
#       7
#     2   2   2   2   2   2   2
#     4  10  22  44  68  97 146 179 231 299 350 402
#     4  12  27  44  71 110 138 188 240 286 357 418
#     4  12  25  45  72 105 141 188 238 281 357 428
#     4  12  25  44  72  99 152 180 232 301 342 416
#     4  11  23  41  72 105 136 193 237 281 353 425
#     4   9  20  44  71  96 137 184 231 288 352 407
#     4  10  21  43  70  95 140 181 223 293 349 399
#
# _framework density 28.118825000000001
#
# number of rings (size 3 to 8) (size 9 to 14) (size 15 to 20)
#    0.000    1.143    2.857    3.000    4.000    1.143 
#    0.000   17.857    0.000    0.000    0.000    0.000 
#    0.000    0.000    0.000    0.000    0.000    0.000 
#
# Total GULP energy -78062.421467 kJ/mol
# GULP energy per Si atom -5575.887248 kJ/mol
# Density = 2.805483 g / cm^3
# Si number density = 28.118825 Si / 1000 Ang^3
#
#
#
# Elastic Constant Matrix: (Units=GPa)
#
#
# Indices 1 2 3 4 5 6 
#
# 1 124.0587 17.3545 69.0029 1.3702 7.2877 12.4836
# 2 17.3545 71.2249 45.2387 -9.4306 -11.9769 22.6833
# 3 69.0029 45.2387 235.5235 4.1502 16.6996 20.0547
# 4 1.3702 -9.4306 4.1502 65.2093 9.9444 9.1464
# 5 7.2877 -11.9769 16.6996 9.9444 72.5374 17.5279
# 6 12.4836 22.6833 20.0547 9.1464 17.5279 38.6718
#
#
#
# Elastic Compliance Matrix: (Units=1/GPa)
#
#
# Indices 1 2 3 4 5 6 
#
# 1 0.009744 -0.000065 -0.002697 0.000201 0.000031 -0.001770
# 2 -0.000065 0.023865 -0.003796 0.004805 0.008241 -0.016880
# 3 -0.002697 -0.003796 0.005817 -0.000733 -0.001860 0.001097
# 4 0.000201 0.004805 -0.000733 0.016968 0.000214 -0.006613
# 5 0.000031 0.008241 -0.001860 0.000214 0.018521 -0.012325
# 6 -0.001770 -0.016880 0.001097 -0.006613 -0.012325 0.042913
#
#
# Mechanical properties :
#
#
# Convention : Reuss Voigt Hill
#
# Bulk Modulus (GPa) = 38.01159 77.11103 57.56131
# Shear Modulus (GPa) = 35.78724 55.23110 45.50917
#
# Velocity S-wave (km/s) = 3.57138 4.43674 4.02737
# Velocity P-wave (km/s) = 5.52756 7.33001 6.49165
#
# Compressibility (1/GPa) = 0.02630776
#
# Stress axis : x y z
#
# Youngs Moduli (GPa) = 102.62546 41.90167 171.92015
#
# Poissons Ratio (x) = 0.00274 0.46372
# Poissons Ratio (y) = 0.00672 0.65269
# Poissons Ratio (z) = 0.27681 0.15908
#
# Static dielectric constant tensor:
#      x y z
#    x 1.651990 0.464900 -0.101040 
#    y 0.464900 1.919420 0.134970 
#    z -0.101040 0.134970 2.125370 
# 
# From -- ./inp_files/211822.got.cif
#   From: 2010.05.17/outbox.cif.g08.bks.cpg/sg2_106_cif.got.tgz:211822.got - 2010.06.03 11:33:40.
