data_PCOD9018698
_publ_section_title
;
Structure prediction by ZEFSAII (Michael W. Deem and Ramdas Pophale) SiO2 
 PCOD9018698
Probable space group: P -1
;
_chemical_formula_sum "Si O2"
_cell_formula_units_Z 16
_cell_length_a 7.619365
_cell_length_b 16.868760
_cell_length_c 13.122265
_cell_angle_alpha 153.681594
_cell_angle_beta 75.598252
_cell_angle_gamma 87.927161
_cell_volume 577.570380
_symmetry_space_group_name_H-M "P -1"
_symmetry_group_IT_number 2
_symmetry_cell_setting 'triclinic'
loop_
_space_group_symop_operation_xyz
x,y,z
-x,-y,-z
loop_
_atom_site_type_symbol
_atom_site_label
_atom_site_fract_x
_atom_site_fract_y
_atom_site_fract_z
Si Si1 0.399734 0.356873 0.440810
Si Si2 0.441194 0.893677 0.237045
Si Si3 0.167095 0.676990 0.660782
Si Si4 0.257730 0.996905 0.761159
Si Si5 0.608871 0.437210 0.800396
Si Si6 0.074021 0.326636 0.880025
Si Si7 0.975884 0.655325 0.448895
Si Si8 0.887773 0.175353 0.859490
O O1 0.665275 0.249515 0.284776
O O2 0.287517 0.240521 0.367110
O O3 0.867940 0.961672 0.280856
O O4 0.566529 0.271317 0.560979
O O5 0.617170 0.890320 0.137361
O O6 0.327873 0.112126 0.575307
O O7 0.524479 0.666111 0.019637
O O8 0.231797 0.942828 0.259331
O O9 0.087868 0.636573 0.520069
O O10 0.303488 0.450457 0.448498
O O11 0.941367 0.871394 0.976622
O O12 0.044276 0.441992 0.125264
O O13 0.884461 0.287202 0.574793
O O14 0.281590 0.593710 0.789201
O O15 0.500000 0.500000 0.000000
O O16 0.000000 0.500000 0.000000
O O17 0.922559 0.239455 0.816049
#
# Coordination Sequence:
#
# PCOD9018698 Si02
#       8
#     2   2   2   2   2   2   2   2
#     4   9  20  41  74 115 152 198 257 320 390 469
#     4  12  26  49  79 111 157 208 253 320 397 457
#     4  10  21  43  75 110 157 202 251 323 393 461
#     4  11  27  49  76 122 153 196 264 320 388 481
#     4  12  27  46  78 112 156 206 258 319 391 466
#     4  11  26  45  78 115 153 206 267 317 380 471
#     4  11  24  44  74 111 157 200 257 320 389 462
#     4  10  23  44  73 111 155 198 257 318 388 465
#
# _framework density 27.702251
#
# number of rings (size 3 to 8) (size 9 to 14) (size 15 to 20)
#    0.000    1.250    0.000    5.250    5.250    5.000 
#    0.000    3.125    0.000    1.500    0.000    0.000 
#    0.000    0.000    0.000    0.000    0.000    0.000 
#
# Total GULP energy -89552.620992 kJ/mol
# GULP energy per Si atom -5597.038812 kJ/mol
# Density = 2.763920 g / cm^3
# Si number density = 27.702251 Si / 1000 Ang^3
#
#
#
# Elastic Constant Matrix: (Units=GPa)
#
#
# Indices 1 2 3 4 5 6 
#
# 1 179.9910 80.9301 44.6245 -17.7579 -11.3691 19.9793
# 2 80.9301 156.1589 82.1953 -3.0055 -13.8002 18.1641
# 3 44.6245 82.1953 140.4971 -18.8373 -0.4974 -3.6157
# 4 -17.7579 -3.0055 -18.8373 61.0790 7.8818 -10.1122
# 5 -11.3691 -13.8002 -0.4974 7.8818 41.5240 -6.7694
# 6 19.9793 18.1641 -3.6157 -10.1122 -6.7694 54.4798
#
#
#
# Elastic Compliance Matrix: (Units=1/GPa)
#
#
# Indices 1 2 3 4 5 6 
#
# 1 0.007551 -0.003704 -0.000023 0.001773 0.000309 -0.001168
# 2 -0.003704 0.012438 -0.006648 -0.003497 0.003135 -0.003489
# 3 -0.000023 -0.006648 0.011649 0.004131 -0.002293 0.003480
# 4 0.001773 -0.003497 0.004131 0.019100 -0.003619 0.003886
# 5 0.000309 0.003135 -0.002293 -0.003619 0.026074 0.001257
# 6 -0.001168 -0.003489 0.003480 0.003886 0.001257 0.021056
#
#
# Mechanical properties :
#
#
# Convention : Reuss Voigt Hill
#
# Bulk Modulus (GPa) = 91.83297 99.12744 95.48021
# Shear Modulus (GPa) = 40.90095 49.34303 45.12199
#
# Velocity S-wave (km/s) = 3.84663 4.22500 4.04024
# Velocity P-wave (km/s) = 7.27672 7.72409 7.50374
#
# Compressibility (1/GPa) = 0.01088933
#
# Stress axis : x y z
#
# Youngs Moduli (GPa) = 132.43179 80.39755 85.84237
#
# Poissons Ratio (x) = 0.29781 0.00194
# Poissons Ratio (y) = 0.49055 0.57067
# Poissons Ratio (z) = 0.00299 0.53447
#
# Static dielectric constant tensor:
#      x y z
#    x 2.318750 0.027810 -0.025320 
#    y 0.027810 2.214280 0.040960 
#    z -0.025320 0.040960 2.207950 
# 
# From -- ./inp_files/507086.got.cif
#   From: 2010.05.17/outbox.cif.g08.bks.cpg/sg2_254_cif.got.tgz:507086.got - 2010.06.03 11:33:40.
