data_PCOD9018863
_publ_section_title
;
Structure prediction by ZEFSAII (Michael W. Deem and Ramdas Pophale) SiO2 
 PCOD9018863
Probable space group: P -1
;
_chemical_formula_sum "Si O2"
_cell_formula_units_Z 15
_cell_length_a 7.289564
_cell_length_b 24.843638
_cell_length_c 8.174302
_cell_angle_alpha 138.277600
_cell_angle_beta 121.385115
_cell_angle_gamma 43.550151
_cell_volume 678.144149
_symmetry_space_group_name_H-M "P -1"
_symmetry_group_IT_number 2
_symmetry_cell_setting 'triclinic'
loop_
_space_group_symop_operation_xyz
x,y,z
-x,-y,-z
loop_
_atom_site_type_symbol
_atom_site_label
_atom_site_fract_x
_atom_site_fract_y
_atom_site_fract_z
Si Si1 0.709876 0.890496 0.571705
Si Si2 0.641394 0.881654 0.133919
Si Si3 0.931589 0.416464 0.610961
Si Si4 0.000000 0.500000 0.500000
Si Si5 0.433794 0.531577 0.856530
Si Si6 0.791243 0.296119 0.064735
Si Si7 0.461776 0.235151 0.624579
Si Si8 0.197999 0.878608 0.795063
O O1 0.703141 0.884916 0.359012
O O2 0.607665 0.832501 0.473034
O O3 0.004498 0.847366 0.673516
O O4 0.512352 0.010380 0.778672
O O5 0.921343 0.806100 0.008155
O O6 0.453418 0.844684 0.945475
O O7 0.014984 0.459531 0.605124
O O8 0.703141 0.497607 0.811258
O O9 0.197610 0.328874 0.628822
O O10 0.785188 0.370372 0.358344
O O11 0.717623 0.514165 0.379413
O O12 0.500000 0.500000 0.000000
O O13 0.228743 0.650914 0.997529
O O14 0.576762 0.273417 0.896253
O O15 0.682829 0.165043 0.429070
O O16 0.000000 0.000000 0.000000
#
# Coordination Sequence:
#
# PCOD9018863 Si02
#       8
#     2   2   2   1   2   2   2   2
#     4  10  24  42  66  97 138 179 223 273 345 399
#     4  10  21  44  65  95 137 179 221 280 331 403
#     4  11  26  47  67 104 136 179 233 282 350 411
#     4  10  22  46  74  92 136 178 218 286 340 404
#     4  11  26  46  72 101 138 179 227 290 348 412
#     4  11  23  44  66  98 139 171 232 280 338 408
#     4  12  25  42  70 102 136 177 229 281 334 416
#     4  10  22  44  65  94 138 179 226 278 333 399
#
# _framework density 22.119188999999999
#
# number of rings (size 3 to 8) (size 9 to 14) (size 15 to 20)
#    0.000    1.333    2.667    2.400    1.867    8.000 
#    4.800    0.000    0.000    0.000    0.000    0.000 
#    0.000    0.000    0.000    0.000    0.000    0.000 
#
# Total GULP energy -83522.292941 kJ/mol
# GULP energy per Si atom -5568.152863 kJ/mol
# Density = 2.206884 g / cm^3
# Si number density = 22.119189 Si / 1000 Ang^3
#
#
#
# Elastic Constant Matrix: (Units=GPa)
#
#
# Indices 1 2 3 4 5 6 
#
# 1 135.0646 49.6133 33.2832 17.3448 32.4273 -7.4486
# 2 49.6133 94.7564 17.4898 -11.8680 18.9769 -10.2544
# 3 33.2832 17.4898 68.5826 -4.4211 26.2917 -10.5837
# 4 17.3448 -11.8680 -4.4211 23.8212 -10.7443 11.1846
# 5 32.4273 18.9769 26.2917 -10.7443 26.4519 -8.8336
# 6 -7.4486 -10.2544 -10.5837 11.1846 -8.8336 27.9661
#
#
#
# Elastic Compliance Matrix: (Units=1/GPa)
#
#
# Indices 1 2 3 4 5 6 
#
# 1 0.034811 -0.013863 0.008977 -0.065822 -0.063794 0.013760
# 2 -0.013863 0.018019 -0.003425 0.028317 0.017587 -0.004151
# 3 0.008977 -0.003425 0.027557 -0.026966 -0.044078 0.008426
# 4 -0.065822 0.028317 -0.026966 0.187094 0.148002 -0.045430
# 5 -0.063794 0.017587 -0.044078 0.148002 0.199505 -0.023397
# 6 0.013760 -0.004151 0.008426 -0.045430 -0.023397 0.051868
#
#
# Mechanical properties :
#
#
# Convention : Reuss Voigt Hill
#
# Bulk Modulus (GPa) = 15.68200 55.46403 35.57301
# Shear Modulus (GPa) = 8.98098 28.84900 18.91499
#
# Velocity S-wave (km/s) = 2.01720 3.61536 2.92745
# Velocity P-wave (km/s) = 3.53986 6.52359 5.24823
#
# Compressibility (1/GPa) = 0.06376740
#
# Stress axis : x y z
#
# Youngs Moduli (GPa) = 28.72618 55.49645 36.28805
#
# Poissons Ratio (x) = 0.76934 -0.32577
# Poissons Ratio (y) = 0.39823 0.12428
# Poissons Ratio (z) = -0.25789 0.19007
#
# Static dielectric constant tensor:
#      x y z
#    x 1.795920 -0.013110 -0.030690 
#    y -0.013110 1.801180 0.000420 
#    z -0.030690 0.000420 1.897820 
# 
# From -- ./inp_files/142740.got.cif
#   From: 2010.05.17/outbox.cif.g08.bks.cpg/sg2_72_cif.got.tgz:142740.got - 2010.06.03 11:33:40.
