data_PCOD9018034
_publ_section_title
;
Structure prediction by ZEFSAII (Michael W. Deem and Ramdas Pophale) SiO2 
 PCOD9018034
Probable space group: P -1
;
_chemical_formula_sum "Si O2"
_cell_formula_units_Z 14
_cell_length_a 10.080630
_cell_length_b 5.016644
_cell_length_c 11.584538
_cell_angle_alpha 98.581771
_cell_angle_beta 93.530231
_cell_angle_gamma 85.063735
_cell_volume 576.426569
_symmetry_space_group_name_H-M "P -1"
_symmetry_group_IT_number 2
_symmetry_cell_setting 'triclinic'
loop_
_space_group_symop_operation_xyz
x,y,z
-x,-y,-z
loop_
_atom_site_type_symbol
_atom_site_label
_atom_site_fract_x
_atom_site_fract_y
_atom_site_fract_z
Si Si1 0.389741 0.340588 0.046029
Si Si2 0.723077 0.578170 0.568307
Si Si3 0.093329 0.942254 0.389576
Si Si4 0.140449 0.030538 0.803097
Si Si5 0.576308 0.032139 0.191553
Si Si6 0.526066 0.738143 0.397689
Si Si7 0.867155 0.420117 0.046886
O O1 0.452200 0.235716 0.161971
O O2 0.500000 0.500000 0.000000
O O3 0.380014 0.093165 0.939747
O O4 0.253411 0.528274 0.047231
O O5 0.834264 0.350500 0.599557
O O6 0.672176 0.611628 0.435290
O O7 0.585586 0.473429 0.604801
O O8 0.789423 0.857891 0.612562
O O9 0.000000 0.000000 0.500000
O O10 0.990569 0.975401 0.280755
O O11 0.119560 0.868536 0.910249
O O12 0.279632 0.890878 0.751305
O O13 0.160928 0.347623 0.842717
O O14 0.526936 0.836959 0.273257
O O15 0.500000 0.000000 0.500000
O O16 0.000000 0.500000 0.000000
#
# Coordination Sequence:
#
# PCOD9018034 Si02
#       7
#     2   2   2   2   2   2   2
#     4  10  21  43  68 100 133 177 242 282 349 419
#     4  11  25  45  66 102 141 180 240 282 353 420
#     4  12  25  45  69  99 142 184 232 287 345 427
#     4  11  24  44  69 100 133 187 227 279 351 417
#     4  10  23  43  70  99 134 184 234 288 343 419
#     4  11  24  46  71 101 143 183 233 296 353 416
#     4  11  24  45  69 100 140 175 229 291 354 412
#
# _framework density 24.287566999999999
#
# number of rings (size 3 to 8) (size 9 to 14) (size 15 to 20)
#    0.000    1.143    2.857    2.571    0.000    5.714 
#    7.714    0.000    0.000    0.000    0.000    0.000 
#    0.000    0.000    0.000    0.000    0.000    0.000 
#
# Total GULP energy -78189.918683 kJ/mol
# GULP energy per Si atom -5584.994192 kJ/mol
# Density = 2.423229 g / cm^3
# Si number density = 24.287567 Si / 1000 Ang^3
#
#
#
# Elastic Constant Matrix: (Units=GPa)
#
#
# Indices 1 2 3 4 5 6 
#
# 1 122.3439 7.3631 41.3138 -23.7409 44.2721 4.1546
# 2 7.3631 101.2418 39.3830 -21.2862 9.6295 3.8449
# 3 41.3138 39.3830 100.1360 -39.7667 25.8726 -16.6143
# 4 -23.7409 -21.2862 -39.7667 56.3257 -10.7321 1.4459
# 5 44.2721 9.6295 25.8726 -10.7321 44.8145 -17.2769
# 6 4.1546 3.8449 -16.6143 1.4459 -17.2769 41.3477
#
#
#
# Elastic Compliance Matrix: (Units=1/GPa)
#
#
# Indices 1 2 3 4 5 6 
#
# 1 0.017318 0.003253 -0.004711 0.001835 -0.019299 -0.012064
# 2 0.003253 0.012763 -0.005486 0.001590 -0.004604 -0.005697
# 3 -0.004711 -0.005486 0.019093 0.009258 0.000285 0.008450
# 4 0.001835 0.001590 0.009258 0.025509 -0.000511 0.002282
# 5 -0.019299 -0.004604 0.000285 -0.000511 0.051312 0.023940
# 6 -0.012064 -0.005697 0.008450 0.002282 0.023940 0.039246
#
#
# Mechanical properties :
#
#
# Convention : Reuss Voigt Hill
#
# Bulk Modulus (GPa) = 28.33934 55.53792 41.93863
# Shear Modulus (GPa) = 26.19297 44.20838 35.20068
#
# Velocity S-wave (km/s) = 3.28754 4.27102 3.81114
# Velocity P-wave (km/s) = 5.10922 6.87303 6.05569
#
# Compressibility (1/GPa) = 0.03528663
#
# Stress axis : x y z
#
# Youngs Moduli (GPa) = 57.74295 78.34869 52.37593
#
# Poissons Ratio (x) = -0.25483 0.24672
# Poissons Ratio (y) = -0.18781 0.28733
# Poissons Ratio (z) = 0.27200 0.42981
#
# Static dielectric constant tensor:
#      x y z
#    x 1.813380 -0.089770 0.168120 
#    y -0.089770 2.128220 0.251760 
#    z 0.168120 0.251760 2.103630 
# 
# From -- ./inp_files/229742.got.cif
#   From: 2010.05.17/outbox.cif.g08.bks.cpg/sg2_115_cif.got.tgz:229742.got - 2010.06.03 11:33:40.
