data_PCOD9018599
_publ_section_title
;
Structure prediction by ZEFSAII (Michael W. Deem and Ramdas Pophale) SiO2 
 PCOD9018599
Probable space group: P -1
;
_chemical_formula_sum "Si O2"
_cell_formula_units_Z 10
_cell_length_a 6.993001
_cell_length_b 14.543598
_cell_length_c 13.828265
_cell_angle_alpha 161.181384
_cell_angle_beta 96.231391
_cell_angle_gamma 90.035985
_cell_volume 426.906294
_symmetry_space_group_name_H-M "P -1"
_symmetry_group_IT_number 2
_symmetry_cell_setting 'triclinic'
loop_
_space_group_symop_operation_xyz
x,y,z
-x,-y,-z
loop_
_atom_site_type_symbol
_atom_site_label
_atom_site_fract_x
_atom_site_fract_y
_atom_site_fract_z
Si Si1 0.768987 0.157055 0.474519
Si Si2 0.624906 0.379319 0.493872
Si Si3 0.766770 0.950423 0.956112
Si Si4 0.565204 0.270813 0.844473
Si Si5 0.000509 0.212722 0.808095
O O1 0.711559 0.297111 0.514956
O O2 0.580363 0.868201 0.211151
O O3 0.947323 0.005682 0.327687
O O4 0.836706 0.447836 0.841241
O O5 0.683934 0.730536 0.824650
O O6 0.384935 0.208977 0.297626
O O7 0.728625 0.256752 0.288808
O O8 0.000000 0.000000 0.000000
O O9 0.500000 0.000000 0.500000
O O10 0.500000 0.500000 0.000000
O O11 0.797436 0.295301 0.902286
O O12 0.000000 0.000000 0.500000
#
# Coordination Sequence:
#
# PCOD9018599 Si02
#       5
#     2   2   2   2   2
#     4  12  26  42  67  98 142 173 234 294 322 406
#     4  10  23  41  65 105 131 172 220 272 340 395
#     4  10  21  43  72  94 137 175 210 269 341 419
#     4  12  26  43  67  95 128 185 235 277 342 396
#     4  12  26  44  68  95 132 187 233 284 343 390
#
# _framework density 23.424343
#
# number of rings (size 3 to 8) (size 9 to 14) (size 15 to 20)
#    0.000    0.800    2.000    4.800    0.000    3.200 
#    0.000    0.000    0.000    0.000    0.000    0.000 
#    0.000    0.000    0.000    0.000    0.000    0.000 
#
# Total GULP energy -55742.946808 kJ/mol
# GULP energy per Si atom -5574.294681 kJ/mol
# Density = 2.337103 g / cm^3
# Si number density = 23.424343 Si / 1000 Ang^3
#
#
#
# Elastic Constant Matrix: (Units=GPa)
#
#
# Indices 1 2 3 4 5 6 
#
# 1 174.9240 29.5606 44.2265 3.6299 10.2472 -25.1021
# 2 29.5606 97.2215 20.9772 20.9998 1.0332 -39.4693
# 3 44.2265 20.9772 122.1008 16.2671 -12.9578 -11.2589
# 4 3.6299 20.9998 16.2671 30.0294 -13.1818 -10.1966
# 5 10.2472 1.0332 -12.9578 -13.1818 42.0116 10.4209
# 6 -25.1021 -39.4693 -11.2589 -10.1966 10.4209 35.6863
#
#
#
# Elastic Compliance Matrix: (Units=1/GPa)
#
#
# Indices 1 2 3 4 5 6 
#
# 1 0.007475 0.001169 -0.002756 0.000240 -0.004370 0.007026
# 2 0.001169 0.023841 -0.001712 -0.012004 -0.011779 0.026660
# 3 -0.002756 -0.001712 0.010044 -0.003291 0.003426 -0.002604
# 4 0.000240 -0.012004 -0.003291 0.048706 0.015698 -0.004814
# 5 -0.004370 -0.011779 0.003426 0.015698 0.036390 -0.021162
# 6 0.007026 0.026660 -0.002604 -0.004814 -0.021162 0.066433
#
#
# Mechanical properties :
#
#
# Convention : Reuss Voigt Hill
#
# Bulk Modulus (GPa) = 28.76669 64.86386 46.81528
# Shear Modulus (GPa) = 23.68828 41.51095 32.59961
#
# Velocity S-wave (km/s) = 3.18349 4.21423 3.73459
# Velocity P-wave (km/s) = 5.08136 7.17151 6.21493
#
# Compressibility (1/GPa) = 0.03476243
#
# Stress axis : x y z
#
# Youngs Moduli (GPa) = 133.77250 41.94421 99.55871
#
# Poissons Ratio (x) = -0.04902 0.27441
# Poissons Ratio (y) = -0.15635 0.17042
# Poissons Ratio (z) = 0.36872 0.07180
#
# Static dielectric constant tensor:
#      x y z
#    x 0.994310 -0.608340 -0.502340 
#    y -0.608340 1.499180 -0.395980 
#    z -0.502340 -0.395980 1.553770 
# 
# From -- ./inp_files/504820.got.cif
#   From: 2010.05.17/outbox.cif.g08.bks.cpg/sg2_253_cif.got.tgz:504820.got - 2010.06.03 11:33:40.
