data_PCOD9018207
_publ_section_title
;
Structure prediction by ZEFSAII (Michael W. Deem and Ramdas Pophale) SiO2 
 PCOD9018207
Probable space group: P -1
;
_chemical_formula_sum "Si O2"
_cell_formula_units_Z 14
_cell_length_a 5.413748
_cell_length_b 6.447442
_cell_length_c 17.248521
_cell_angle_alpha 90.297963
_cell_angle_beta 69.726385
_cell_angle_gamma 87.328265
_cell_volume 563.997995
_symmetry_space_group_name_H-M "P -1"
_symmetry_group_IT_number 2
_symmetry_cell_setting 'triclinic'
loop_
_space_group_symop_operation_xyz
x,y,z
-x,-y,-z
loop_
_atom_site_type_symbol
_atom_site_label
_atom_site_fract_x
_atom_site_fract_y
_atom_site_fract_z
Si Si1 0.327652 0.704187 0.298699
Si Si2 0.555891 0.001543 0.840002
Si Si3 0.648626 0.675976 0.027135
Si Si4 0.075795 0.086435 0.408221
Si Si5 0.989190 0.673051 0.729782
Si Si6 0.146229 0.656818 0.877920
Si Si7 0.319831 0.455002 0.446164
O O1 0.505544 0.841651 0.225356
O O2 0.188887 0.523394 0.266680
O O3 0.425986 0.602265 0.367789
O O4 0.116167 0.877773 0.354300
O O5 0.549206 0.148588 0.915669
O O6 0.813007 0.866223 0.785288
O O7 0.343321 0.832956 0.876027
O O8 0.792500 0.556437 0.083210
O O9 0.500000 0.500000 0.000000
O O10 0.865448 0.741441 0.942501
O O11 0.923033 0.243907 0.363859
O O12 0.319225 0.226126 0.406971
O O13 0.000000 0.000000 0.500000
O O14 0.171879 0.617534 0.783055
O O15 0.500000 0.500000 0.500000
O O16 0.000000 0.500000 0.500000
#
# Coordination Sequence:
#
# PCOD9018207 Si02
#       7
#     2   2   2   2   2   2   2
#     4  10  22  45  65  97 136 180 225 289 350 417
#     4  11  23  43  65  97 133 173 229 277 348 413
#     4  11  25  44  68  94 136 173 221 283 350 420
#     4  10  21  43  69 101 133 183 232 288 357 418
#     4  10  24  43  66  95 137 175 228 284 341 412
#     4  11  24  42  67 101 127 176 225 279 350 412
#     4  11  24  45  70 102 143 187 242 299 361 433
#
# _framework density 24.822780000000002
#
# number of rings (size 3 to 8) (size 9 to 14) (size 15 to 20)
#    0.000    1.429    1.429    3.000    0.000    8.571 
#   20.571    0.000    0.000    0.000    0.000    0.000 
#    0.000    0.000    0.000    0.000    0.000    0.000 
#
# Total GULP energy -78158.643431 kJ/mol
# GULP energy per Si atom -5582.760245 kJ/mol
# Density = 2.476628 g / cm^3
# Si number density = 24.822780 Si / 1000 Ang^3
#
#
#
# Elastic Constant Matrix: (Units=GPa)
#
#
# Indices 1 2 3 4 5 6 
#
# 1 55.7896 3.5170 27.8866 8.4456 10.9355 -0.9014
# 2 3.5170 100.9701 43.8537 1.3033 9.5397 -13.0320
# 3 27.8866 43.8537 157.8358 -7.0343 7.5115 -10.8852
# 4 8.4456 1.3033 -7.0343 71.4887 0.8462 -3.5533
# 5 10.9355 9.5397 7.5115 0.8462 51.0294 5.0294
# 6 -0.9014 -13.0320 -10.8852 -3.5533 5.0294 16.4612
#
#
#
# Elastic Compliance Matrix: (Units=1/GPa)
#
#
# Indices 1 2 3 4 5 6 
#
# 1 0.021115 0.001500 -0.004052 -0.002855 -0.004194 0.000329
# 2 0.001500 0.012617 -0.003012 -0.000220 -0.003119 0.008984
# 3 -0.004052 -0.003012 0.008178 0.001497 -0.000108 0.003157
# 4 -0.002855 -0.000220 0.001497 0.014672 -0.000194 0.003885
# 5 -0.004194 -0.003119 -0.000108 -0.000194 0.022038 -0.009545
# 6 0.000329 0.008984 0.003157 0.003885 -0.009545 0.073722
#
#
# Mechanical properties :
#
#
# Convention : Reuss Voigt Hill
#
# Bulk Modulus (GPa) = 32.48743 51.67889 42.08316
# Shear Modulus (GPa) = 28.77986 43.75175 36.26580
#
# Velocity S-wave (km/s) = 3.40871 4.20285 3.82644
# Velocity P-wave (km/s) = 5.34870 6.66455 6.04255
#
# Compressibility (1/GPa) = 0.03078113
#
# Stress axis : x y z
#
# Youngs Moduli (GPa) = 47.35963 79.25761 122.27544
#
# Poissons Ratio (x) = -0.11890 0.49550
# Poissons Ratio (y) = -0.07105 0.36835
# Poissons Ratio (z) = 0.19192 0.23876
#
# Static dielectric constant tensor:
#      x y z
#    x 2.075790 -0.137700 -0.019200 
#    y -0.137700 1.993680 -0.002720 
#    z -0.019200 -0.002720 2.010280 
# 
# From -- ./inp_files/13002.got.cif
#   From: 2010.05.17/outbox.cif.g08.bks.cpg/sg2_7_cif.got.tgz:13002.got - 2010.06.03 11:33:40.
