data_PCOD9018607
_publ_section_title
;
Structure prediction by ZEFSAII (Michael W. Deem and Ramdas Pophale) SiO2 
 PCOD9018607
Probable space group: P -1
;
_chemical_formula_sum "Si O2"
_cell_formula_units_Z 14
_cell_length_a 22.820098
_cell_length_b 5.708458
_cell_length_c 9.073367
_cell_angle_alpha 55.230475
_cell_angle_beta 37.152452
_cell_angle_gamma 71.331581
_cell_volume 564.440276
_symmetry_space_group_name_H-M "P -1"
_symmetry_group_IT_number 2
_symmetry_cell_setting 'triclinic'
loop_
_space_group_symop_operation_xyz
x,y,z
-x,-y,-z
loop_
_atom_site_type_symbol
_atom_site_label
_atom_site_fract_x
_atom_site_fract_y
_atom_site_fract_z
Si Si1 0.579522 0.395240 0.249467
Si Si2 0.238807 0.558758 0.712678
Si Si3 0.730127 0.441504 0.684674
Si Si4 0.445684 0.826755 0.318132
Si Si5 0.105485 0.978018 0.861661
Si Si6 0.993754 0.835527 0.414028
Si Si7 0.775401 0.844059 0.848665
O O1 0.450289 0.867480 0.474912
O O2 0.629931 0.342700 0.015444
O O3 0.673843 0.650056 0.042791
O O4 0.488634 0.536100 0.341800
O O5 0.283055 0.545749 0.467679
O O6 0.328762 0.795052 0.532138
O O7 0.139771 0.680230 0.869112
O O8 0.228890 0.270659 0.934284
O O9 0.801548 0.758018 0.470244
O O10 0.784518 0.187575 0.696536
O O11 0.500000 0.000000 0.000000
O O12 0.000000 0.000000 0.000000
O O13 0.084180 0.013628 0.064675
O O14 0.881479 0.811457 0.589574
O O15 0.000000 0.500000 0.500000
O O16 0.000000 0.000000 0.500000
#
# Coordination Sequence:
#
# PCOD9018607 Si02
#       7
#     2   2   2   2   2   2   2
#     4  10  24  44  67 103 139 184 234 303 363 448
#     4  11  25  46  68 103 140 189 237 303 367 453
#     4  12  25  43  70 103 139 187 243 302 369 442
#     4  10  21  43  72  97 139 183 234 294 373 444
#     4  12  27  46  70 102 147 191 248 306 374 442
#     4  12  27  46  74 108 149 199 259 309 374 449
#     4  11  25  45  71  99 146 189 245 297 374 438
#
# _framework density 24.803335000000001
#
# number of rings (size 3 to 8) (size 9 to 14) (size 15 to 20)
#    0.000    0.857    1.429    5.143    4.000    5.143 
#    0.000   11.429    0.000    0.000    0.000    0.000 
#    0.000    0.000    0.000    0.000    0.000    0.000 
#
# Total GULP energy -78166.855659 kJ/mol
# GULP energy per Si atom -5583.346833 kJ/mol
# Density = 2.474688 g / cm^3
# Si number density = 24.803335 Si / 1000 Ang^3
#
#
#
# Elastic Constant Matrix: (Units=GPa)
#
#
# Indices 1 2 3 4 5 6 
#
# 1 103.5821 34.9882 41.2033 2.1903 13.5909 -5.4845
# 2 34.9882 63.0246 1.3968 3.4170 2.6944 -6.9442
# 3 41.2033 1.3968 167.8267 12.8238 40.8299 6.9196
# 4 2.1903 3.4170 12.8238 55.6419 -1.3149 1.0222
# 5 13.5909 2.6944 40.8299 -1.3149 60.7689 13.7880
# 6 -5.4845 -6.9442 6.9196 1.0222 13.7880 37.5541
#
#
#
# Elastic Compliance Matrix: (Units=1/GPa)
#
#
# Indices 1 2 3 4 5 6 
#
# 1 0.013557 -0.007279 -0.003150 0.000589 -0.000929 0.001540
# 2 -0.007279 0.020311 0.001915 -0.001483 -0.001234 0.002833
# 3 -0.003150 0.001915 0.008045 -0.001968 -0.004887 0.000260
# 4 0.000589 -0.001483 -0.001968 0.018557 0.001890 -0.001025
# 5 -0.000929 -0.001234 -0.004887 0.001890 0.021744 -0.007498
# 6 0.001540 0.002833 0.000260 -0.001025 -0.007498 0.030110
#
#
# Mechanical properties :
#
#
# Convention : Reuss Voigt Hill
#
# Bulk Modulus (GPa) = 40.18745 54.40114 47.29430
# Shear Modulus (GPa) = 36.32493 47.91598 42.12046
#
# Velocity S-wave (km/s) = 3.83105 4.40003 4.12537
# Velocity P-wave (km/s) = 5.98389 6.91335 6.46534
#
# Compressibility (1/GPa) = 0.02488339
#
# Stress axis : x y z
#
# Youngs Moduli (GPa) = 73.76284 49.23524 124.30726
#
# Poissons Ratio (x) = 0.35838 0.39160
# Poissons Ratio (y) = 0.53692 -0.23802
# Poissons Ratio (z) = 0.23237 -0.09427
#
# Static dielectric constant tensor:
#      x y z
#    x 2.043470 -0.023930 0.044960 
#    y -0.023930 2.431910 -0.025050 
#    z 0.044960 -0.025050 2.030150 
# 
# From -- ./inp_files/124568.got.cif
#   From: 2010.05.17/outbox.cif.g08.bks.cpg/sg2_63_cif.got.tgz:124568.got - 2010.06.03 11:33:40.
