data_PCOD9018965
_publ_section_title
;
Structure prediction by ZEFSAII (Michael W. Deem and Ramdas Pophale) SiO2 
 PCOD9018965
Probable space group: P -1
;
_chemical_formula_sum "Si O2"
_cell_formula_units_Z 13
_cell_length_a 25.568642
_cell_length_b 5.443701
_cell_length_c 27.132650
_cell_angle_alpha 134.896492
_cell_angle_beta 10.494293
_cell_angle_gamma 134.185512
_cell_volume 487.132842
_symmetry_space_group_name_H-M "P -1"
_symmetry_group_IT_number 2
_symmetry_cell_setting 'triclinic'
loop_
_space_group_symop_operation_xyz
x,y,z
-x,-y,-z
loop_
_atom_site_type_symbol
_atom_site_label
_atom_site_fract_x
_atom_site_fract_y
_atom_site_fract_z
Si Si1 0.019797 0.522298 0.791774
Si Si2 0.821422 0.371501 0.693895
Si Si3 0.242398 0.148159 0.093817
Si Si4 0.604593 0.250078 0.608407
Si Si5 0.000000 0.500000 0.000000
Si Si6 0.613671 0.650664 0.751413
Si Si7 0.648138 0.466879 0.422280
O O1 0.256200 0.501910 0.527017
O O2 0.172270 0.692870 0.721589
O O3 0.741657 0.743520 0.067774
O O4 0.892616 0.133046 0.858407
O O5 0.000000 0.500000 0.500000
O O6 0.779683 0.955428 0.670784
O O7 0.500000 0.500000 0.000000
O O8 0.922680 0.600957 0.679731
O O9 0.437826 0.414704 0.919364
O O10 0.407595 0.888826 0.941228
O O11 0.725303 0.397857 0.568959
O O12 0.677433 0.874041 0.467793
O O13 0.307989 0.398067 0.728511
O O14 0.194026 0.591359 0.783557
#
# Coordination Sequence:
#
# PCOD9018965 Si02
#       7
#     2   2   2   2   1   2   2
#     4  11  25  43  70 106 139 191 243 298 364 437
#     4  10  21  44  66  98 144 194 244 304 362 425
#     4  10  23  42  69 103 145 192 249 302 366 427
#     4  11  25  43  70 106 139 191 243 298 364 437
#     4  10  24  46  72 110 132 198 218 304 356 464
#     4  10  23  42  69 103 145 192 249 302 366 427
#     4  11  24  46  74  97 154 174 242 287 378 424
#
# _framework density 26.686765999999999
#
# number of rings (size 3 to 8) (size 9 to 14) (size 15 to 20)
#    0.000    1.538    0.000    3.231   10.769    0.000 
#    0.000   21.538    0.000    0.000    0.000    0.000 
#    0.000    0.000    0.000    0.000    0.000    0.000 
#
# Total GULP energy -72521.747211 kJ/mol
# GULP energy per Si atom -5578.595939 kJ/mol
# Density = 2.662603 g / cm^3
# Si number density = 26.686766 Si / 1000 Ang^3
#
#
#
# Elastic Constant Matrix: (Units=GPa)
#
#
# Indices 1 2 3 4 5 6 
#
# 1 145.9932 -2.5188 35.5378 -27.1251 -4.8635 22.2294
# 2 -2.5188 147.6214 10.9926 -14.3850 10.4758 16.1430
# 3 35.5378 10.9926 149.1074 -28.8136 14.5189 15.6465
# 4 -27.1251 -14.3850 -28.8136 51.0272 0.0718 3.0625
# 5 -4.8635 10.4758 14.5189 0.0718 64.3119 -13.3105
# 6 22.2294 16.1430 15.6465 3.0625 -13.3105 22.7233
#
#
#
# Elastic Compliance Matrix: (Units=1/GPa)
#
#
# Indices 1 2 3 4 5 6 
#
# 1 0.010391 0.002769 0.000707 0.007633 -0.003025 -0.015419
# 2 0.002769 0.009083 0.001670 0.005806 -0.004495 -0.013727
# 3 0.000707 0.001670 0.009526 0.006968 -0.004913 -0.012255
# 4 0.007633 0.005806 0.006968 0.030718 -0.007084 -0.024679
# 5 -0.003025 -0.004495 -0.004913 -0.007084 0.022009 0.023382
# 6 -0.015419 -0.013727 -0.012255 -0.024679 0.023382 0.094305
#
#
# Mechanical properties :
#
#
# Convention : Reuss Voigt Hill
#
# Bulk Modulus (GPa) = 25.45013 58.97170 42.21091
# Shear Modulus (GPa) = 27.95877 54.19318 41.07597
#
# Velocity S-wave (km/s) = 3.24028 4.51123 3.92751
# Velocity P-wave (km/s) = 4.85350 7.02002 6.03478
#
# Compressibility (1/GPa) = 0.03929253
#
# Stress axis : x y z
#
# Youngs Moduli (GPa) = 96.24122 110.09796 104.97828
#
# Poissons Ratio (x) = -0.30489 -0.07421
# Poissons Ratio (y) = -0.26652 -0.17536
# Poissons Ratio (z) = -0.06804 -0.18392
#
# Static dielectric constant tensor:
#      x y z
#    x 2.274170 -0.086730 -0.224970 
#    y -0.086730 2.091970 0.138550 
#    z -0.224970 0.138550 2.141040 
# 
# From -- ./inp_files/621043.got.cif
#   From: 2010.05.17/outbox.cif.g08.bks.cpg/sg2_311_cif.got.tgz:621043.got - 2010.06.03 11:33:40.
