data_PCOD9018487
_publ_section_title
;
Structure prediction by ZEFSAII (Michael W. Deem and Ramdas Pophale) SiO2 
 PCOD9018487
Probable space group: P -1
;
_chemical_formula_sum "Si O2"
_cell_formula_units_Z 16
_cell_length_a 8.121037
_cell_length_b 17.748102
_cell_length_c 14.078995
_cell_angle_alpha 146.178591
_cell_angle_beta 42.162470
_cell_angle_gamma 134.831212
_cell_volume 736.223559
_symmetry_space_group_name_H-M "P -1"
_symmetry_group_IT_number 2
_symmetry_cell_setting 'triclinic'
loop_
_space_group_symop_operation_xyz
x,y,z
-x,-y,-z
loop_
_atom_site_type_symbol
_atom_site_label
_atom_site_fract_x
_atom_site_fract_y
_atom_site_fract_z
Si Si1 0.059580 0.229659 0.043887
Si Si2 0.691206 0.024729 0.355004
Si Si3 0.711224 0.923741 0.556752
Si Si4 0.573994 0.606426 0.230089
Si Si5 0.502397 0.870167 0.795465
Si Si6 0.247714 0.437642 0.338327
Si Si7 0.880757 0.515743 0.850605
Si Si8 0.849446 0.696894 0.555015
O O1 0.240473 0.318464 0.137977
O O2 0.042386 0.331137 0.069334
O O3 0.788223 0.191766 0.169624
O O4 0.155000 0.095038 0.834091
O O5 0.501602 0.010811 0.332348
O O6 0.899990 0.172866 0.415997
O O7 0.500000 0.000000 0.500000
O O8 0.670084 0.771272 0.367928
O O9 0.658875 0.914974 0.681258
O O10 0.000000 0.000000 0.500000
O O11 0.479956 0.555648 0.322461
O O12 0.339426 0.566365 0.213653
O O13 0.773881 0.532745 0.018126
O O14 0.622983 0.758366 0.678850
O O15 0.500000 0.000000 0.000000
O O16 0.228116 0.371103 0.380269
O O17 0.000000 0.500000 0.500000
O O18 0.088175 0.426689 0.663915
#
# Coordination Sequence:
#
# PCOD9018487 Si02
#       8
#     2   2   2   2   2   2   2   2
#     4  11  24  42  74 103 137 182 238 302 357 412
#     4  12  25  44  77 105 140 188 245 288 359 431
#     4  12  27  48  72 103 152 188 233 298 357 427
#     4  10  21  43  71 102 141 177 236 297 350 411
#     4  12  28  46  66 105 151 186 237 296 357 419
#     4  11  21  42  69 104 132 181 241 301 346 421
#     4  10  22  42  76 103 134 184 238 294 347 427
#     4  12  24  45  73 102 138 193 239 286 363 417
#
# _framework density 21.732529
#
# number of rings (size 3 to 8) (size 9 to 14) (size 15 to 20)
#    0.000    0.750    5.000    3.000    7.000    1.500 
#    0.000    0.625    0.000    0.000    0.000    0.000 
#    0.000    0.000    0.000    0.000    0.000    0.000 
#
# Total GULP energy -89496.898225 kJ/mol
# GULP energy per Si atom -5593.556139 kJ/mol
# Density = 2.168306 g / cm^3
# Si number density = 21.732529 Si / 1000 Ang^3
#
#
#
# Elastic Constant Matrix: (Units=GPa)
#
#
# Indices 1 2 3 4 5 6 
#
# 1 66.0450 27.3119 35.6132 -0.2697 -20.8440 -19.8040
# 2 27.3119 138.6758 54.6653 -10.3430 -9.6555 -8.3352
# 3 35.6132 54.6653 159.2521 -4.4091 -28.7772 -26.4454
# 4 -0.2697 -10.3430 -4.4091 40.8169 -4.9451 6.0969
# 5 -20.8440 -9.6555 -28.7772 -4.9451 36.4117 1.8197
# 6 -19.8040 -8.3352 -26.4454 6.0969 1.8197 36.7338
#
#
#
# Elastic Compliance Matrix: (Units=1/GPa)
#
#
# Indices 1 2 3 4 5 6 
#
# 1 0.023757 -0.003152 -0.000192 -0.000941 0.011909 0.011521
# 2 -0.003152 0.008903 -0.002870 0.002066 -0.001330 -0.002022
# 3 -0.000192 -0.002870 0.009391 0.000203 0.006296 0.005660
# 4 -0.000941 0.002066 0.000203 0.026179 0.003947 -0.004433
# 5 0.011909 -0.001330 0.006296 0.003947 0.039037 0.008062
# 6 0.011521 -0.002022 0.005660 -0.004433 0.008062 0.037387
#
#
# Mechanical properties :
#
#
# Convention : Reuss Voigt Hill
#
# Bulk Modulus (GPa) = 33.75701 66.57264 50.16482
# Shear Modulus (GPa) = 29.94793 39.21797 34.58295
#
# Velocity S-wave (km/s) = 3.71620 4.25264 3.99344
# Velocity P-wave (km/s) = 5.82925 7.40354 6.66306
#
# Compressibility (1/GPa) = 0.02962348
#
# Stress axis : x y z
#
# Youngs Moduli (GPa) = 42.09217 112.31922 106.48855
#
# Poissons Ratio (x) = 0.35401 0.02042
# Poissons Ratio (y) = 0.13267 0.30565
# Poissons Ratio (z) = 0.00807 0.32239
#
# Static dielectric constant tensor:
#      x y z
#    x 1.829300 0.033750 0.026960 
#    y 0.033750 1.852150 0.035230 
#    z 0.026960 0.035230 1.800570 
# 
# From -- ./inp_files/507323.got.cif
#   From: 2010.05.17/outbox.cif.g08.bks.cpg/sg2_254_cif.got.tgz:507323.got - 2010.06.03 11:33:40.
