data_PCOD9018548
_publ_section_title
;
Structure prediction by ZEFSAII (Michael W. Deem and Ramdas Pophale) SiO2 
 PCOD9018548
Probable space group: P -1
;
_chemical_formula_sum "Si O2"
_cell_formula_units_Z 16
_cell_length_a 13.388705
_cell_length_b 14.657074
_cell_length_c 8.742138
_cell_angle_alpha 91.415154
_cell_angle_beta 52.311114
_cell_angle_gamma 134.882505
_cell_volume 662.149786
_symmetry_space_group_name_H-M "P -1"
_symmetry_group_IT_number 2
_symmetry_cell_setting 'triclinic'
loop_
_space_group_symop_operation_xyz
x,y,z
-x,-y,-z
loop_
_atom_site_type_symbol
_atom_site_label
_atom_site_fract_x
_atom_site_fract_y
_atom_site_fract_z
Si Si1 0.426638 0.398829 0.275229
Si Si2 0.721665 0.447108 0.183153
Si Si3 0.259194 0.227759 0.113740
Si Si4 0.044776 0.247731 0.833333
Si Si5 0.826586 0.353176 0.890270
Si Si6 0.639852 0.303550 0.738990
Si Si7 0.587019 0.023582 0.086948
Si Si8 0.847929 0.981346 0.235762
O O1 0.654915 0.474564 0.108783
O O2 0.251669 0.241601 0.302684
O O3 0.270390 0.323016 0.571552
O O4 0.545350 0.569441 0.117796
O O5 0.847411 0.589024 0.199492
O O6 0.448908 0.233129 0.482305
O O7 0.880614 0.463956 0.968296
O O8 0.992449 0.073988 0.267801
O O9 0.400098 0.221033 0.943039
O O10 0.864928 0.150684 0.850725
O O11 0.889736 0.101067 0.108558
O O12 0.681771 0.309670 0.880173
O O13 0.095802 0.489723 0.569234
O O14 0.643632 0.156831 0.117867
O O15 0.598109 0.176157 0.700277
O O16 0.500000 0.000000 0.000000
O O17 0.000000 0.000000 0.000000
#
# Coordination Sequence:
#
# PCOD9018548 Si02
#       8
#     2   2   2   2   2   2   2   2
#     4  11  23  43  70 107 148 187 236 289 357 424
#     4  12  25  45  71 103 148 189 236 291 358 423
#     4  11  23  41  72 111 142 188 238 291 355 427
#     4  12  25  47  72 100 148 189 229 299 359 423
#     4  10  23  44  69 100 136 186 235 293 345 416
#     4  10  21  43  71  97 140 182 235 291 351 410
#     4  10  24  45  71 101 131 181 241 288 344 414
#     4  12  25  42  69 105 146 189 233 285 362 425
#
# _framework density 24.163716999999998
#
# number of rings (size 3 to 8) (size 9 to 14) (size 15 to 20)
#    0.000    1.000    3.750    2.625    0.000    5.000 
#    0.000    1.250    0.000    0.000    0.000    0.000 
#    0.000    0.000    0.000    0.000    0.000    0.000 
#
# Total GULP energy -89489.461871 kJ/mol
# GULP energy per Si atom -5593.091367 kJ/mol
# Density = 2.410872 g / cm^3
# Si number density = 24.163717 Si / 1000 Ang^3
#
#
#
# Elastic Constant Matrix: (Units=GPa)
#
#
# Indices 1 2 3 4 5 6 
#
# 1 118.3905 44.7016 13.6494 -10.9166 7.2976 0.9291
# 2 44.7016 133.8530 27.7661 -10.6882 9.9372 -3.6851
# 3 13.6494 27.7661 57.9599 -12.3542 9.1209 -10.1661
# 4 -10.9166 -10.6882 -12.3542 34.4291 -6.3080 -0.8246
# 5 7.2976 9.9372 9.1209 -6.3080 25.0631 -10.2272
# 6 0.9291 -3.6851 -10.1661 -0.8246 -10.2272 49.7453
#
#
#
# Elastic Compliance Matrix: (Units=1/GPa)
#
#
# Indices 1 2 3 4 5 6 
#
# 1 0.009879 -0.002985 -0.000430 0.001778 -0.001396 -0.000751
# 2 -0.002985 0.009332 -0.003482 0.000405 -0.001577 -0.000282
# 3 -0.000430 -0.003482 0.021439 0.005946 -0.003355 0.003540
# 4 0.001778 0.000405 0.005946 0.033190 0.006801 0.003160
# 5 -0.001396 -0.001577 -0.003355 0.006801 0.047585 0.009119
# 6 -0.000751 -0.000282 0.003540 0.003160 0.009119 0.022746
#
#
# Mechanical properties :
#
#
# Convention : Reuss Voigt Hill
#
# Bulk Modulus (GPa) = 37.23635 53.60418 45.42027
# Shear Modulus (GPa) = 29.95497 36.78659 33.37078
#
# Velocity S-wave (km/s) = 3.52471 3.90601 3.72025
# Velocity P-wave (km/s) = 5.65758 6.52491 6.10667
#
# Compressibility (1/GPa) = 0.02685548
#
# Stress axis : x y z
#
# Youngs Moduli (GPa) = 101.22323 107.15972 46.64394
#
# Poissons Ratio (x) = 0.31990 0.02004
# Poissons Ratio (y) = 0.30218 0.16244
# Poissons Ratio (z) = 0.04348 0.37318
#
# Static dielectric constant tensor:
#      x y z
#    x 1.970200 0.023010 0.036510 
#    y 0.023010 1.929050 -0.012770 
#    z 0.036510 -0.012770 1.863010 
# 
# From -- ./inp_files/315388.got.cif
#   From: 2010.05.17/outbox.cif.g08.bks.cpg/sg2_158_cif.got.tgz:315388.got - 2010.06.03 11:33:40.
