data_PCOD9018915
_publ_section_title
;
Structure prediction by ZEFSAII (Michael W. Deem and Ramdas Pophale) SiO2 
 PCOD9018915
Probable space group: P -1
;
_chemical_formula_sum "Si O2"
_cell_formula_units_Z 14
_cell_length_a 16.169497
_cell_length_b 9.260702
_cell_length_c 15.516024
_cell_angle_alpha 69.115523
_cell_angle_beta 27.292739
_cell_angle_gamma 50.726557
_cell_volume 671.532572
_symmetry_space_group_name_H-M "P -1"
_symmetry_group_IT_number 2
_symmetry_cell_setting 'triclinic'
loop_
_space_group_symop_operation_xyz
x,y,z
-x,-y,-z
loop_
_atom_site_type_symbol
_atom_site_label
_atom_site_fract_x
_atom_site_fract_y
_atom_site_fract_z
Si Si1 0.833825 0.525126 0.072822
Si Si2 0.778304 0.201175 0.229560
Si Si3 0.657277 0.747836 0.444193
Si Si4 0.684742 0.615502 0.797177
Si Si5 0.823413 0.675702 0.490162
Si Si6 0.123524 0.852018 0.329822
Si Si7 0.222003 0.947260 0.556034
O O1 0.784264 0.378968 0.173246
O O2 0.536518 0.775692 0.285550
O O3 0.000000 0.500000 0.000000
O O4 0.033945 0.421973 0.830238
O O5 0.496901 0.297480 0.446698
O O6 0.831986 0.120924 0.295550
O O7 0.000000 0.000000 0.000000
O O8 0.664815 0.713956 0.546593
O O9 0.500000 0.000000 0.500000
O O10 0.650831 0.753054 0.719250
O O11 0.814061 0.373278 0.689299
O O12 0.886908 0.559985 0.692204
O O13 0.408547 0.748032 0.068662
O O14 0.881766 0.815257 0.380934
O O15 0.000000 0.000000 0.500000
O O16 0.922409 0.019835 0.402495
#
# Coordination Sequence:
#
# PCOD9018915 Si02
#       7
#     2   2   2   2   2   2   2
#     4  12  25  43  64  97 142 173 222 278 334 406
#     4  12  25  43  68  98 135 182 229 267 342 417
#     4  12  23  42  67  99 132 180 223 269 337 412
#     4   9  22  44  68  92 129 179 220 285 343 393
#     4  10  21  44  66  91 132 174 223 276 338 405
#     4  10  23  43  66  97 130 167 236 281 340 407
#     4  11  24  41  64  96 135 175 217 290 340 395
#
# _framework density 20.847835
#
# number of rings (size 3 to 8) (size 9 to 14) (size 15 to 20)
#    0.000    1.143    4.286    0.429    4.000    1.143 
#    2.571    2.143    0.000    0.000    0.000    0.000 
#    0.000    0.000    0.000    0.000    0.000    0.000 
#
# Total GULP energy -78119.800384 kJ/mol
# GULP energy per Si atom -5579.985742 kJ/mol
# Density = 2.080038 g / cm^3
# Si number density = 20.847835 Si / 1000 Ang^3
#
#
#
# Elastic Constant Matrix: (Units=GPa)
#
#
# Indices 1 2 3 4 5 6 
#
# 1 147.1380 35.0775 39.4499 3.4319 -4.6839 -19.3244
# 2 35.0775 48.6052 17.3087 -19.2047 -8.4509 -8.3267
# 3 39.4499 17.3087 130.2490 -5.5069 -1.0601 -8.6505
# 4 3.4319 -19.2047 -5.5069 32.3709 7.4821 -4.7624
# 5 -4.6839 -8.4509 -1.0601 7.4821 29.0741 -6.9928
# 6 -19.3244 -8.3267 -8.6505 -4.7624 -6.9928 32.7018
#
#
#
# Elastic Compliance Matrix: (Units=1/GPa)
#
#
# Indices 1 2 3 4 5 6 
#
# 1 0.009776 -0.008086 -0.001961 -0.006096 0.001347 0.002600
# 2 -0.008086 0.038874 -0.001024 0.023737 0.006166 0.009624
# 3 -0.001961 -0.001024 0.008520 0.001282 -0.000408 0.000934
# 4 -0.006096 0.023737 0.001282 0.048135 -0.004289 0.008873
# 5 0.001347 0.006166 -0.000408 -0.004289 0.039940 0.010174
# 6 0.002600 0.009624 0.000934 0.008873 0.010174 0.038281
#
#
# Mechanical properties :
#
#
# Convention : Reuss Voigt Hill
#
# Bulk Modulus (GPa) = 28.54775 56.62939 42.58857
# Shear Modulus (GPa) = 23.00495 34.43976 28.72235
#
# Velocity S-wave (km/s) = 3.32545 4.06884 3.71578
# Velocity P-wave (km/s) = 5.33554 7.02112 6.23555
#
# Compressibility (1/GPa) = 0.03502903
#
# Stress axis : x y z
#
# Youngs Moduli (GPa) = 102.28832 25.72430 117.36569
#
# Poissons Ratio (x) = 0.20802 0.23011
# Poissons Ratio (y) = 0.82714 0.12016
# Poissons Ratio (z) = 0.20054 0.02634
#
# Static dielectric constant tensor:
#      x y z
#    x 1.811630 0.012330 0.043330 
#    y 0.012330 1.778470 0.043670 
#    z 0.043330 0.043670 1.792870 
# 
# From -- ./inp_files/503658.got.cif
#   From: 2010.05.17/outbox.cif.g08.bks.cpg/sg2_252_cif.got.tgz:503658.got - 2010.06.03 11:33:40.
