data_PCOD9018391
_publ_section_title
;
Structure prediction by ZEFSAII (Michael W. Deem and Ramdas Pophale) SiO2 
 PCOD9018391
Probable space group: P -1
;
_chemical_formula_sum "Si O2"
_cell_formula_units_Z 16
_cell_length_a 7.276235
_cell_length_b 17.043997
_cell_length_c 13.050894
_cell_angle_alpha 28.034696
_cell_angle_beta 66.117406
_cell_angle_gamma 64.153253
_cell_volume 683.845841
_symmetry_space_group_name_H-M "P -1"
_symmetry_group_IT_number 2
_symmetry_cell_setting 'triclinic'
loop_
_space_group_symop_operation_xyz
x,y,z
-x,-y,-z
loop_
_atom_site_type_symbol
_atom_site_label
_atom_site_fract_x
_atom_site_fract_y
_atom_site_fract_z
Si Si1 0.638962 0.818646 0.901869
Si Si2 0.206808 0.962347 0.743883
Si Si3 0.079048 0.763503 0.173930
Si Si4 0.321625 0.311439 0.358735
Si Si5 0.564289 0.158019 0.863428
Si Si6 0.317589 0.386273 0.504434
Si Si7 0.263033 0.879012 0.592904
Si Si8 0.985361 0.403571 0.010988
O O1 0.425593 0.847711 0.856161
O O2 0.797439 0.653662 0.025199
O O3 0.727694 0.983555 0.655571
O O4 0.582786 0.817455 0.033429
O O5 0.212656 0.959956 0.622829
O O6 0.204326 0.152013 0.565980
O O7 0.052432 0.875312 0.946596
O O8 0.209498 0.849998 0.129080
O O9 0.220802 0.581719 0.322882
O O10 0.866687 0.718821 0.312510
O O11 0.387307 0.347365 0.417160
O O12 0.516530 0.246327 0.317627
O O13 0.175806 0.479652 0.159362
O O14 0.502387 0.317130 0.618666
O O15 0.500000 0.000000 0.000000
O O16 0.097863 0.763602 0.746409
O O17 0.000000 0.500000 0.000000
#
# Coordination Sequence:
#
# PCOD9018391 Si02
#       8
#     2   2   2   2   2   2   2   2
#     4  10  23  41  66  97 129 172 218 271 337 390
#     4  10  21  43  70  90 130 171 220 268 333 402
#     4  10  24  43  69  99 129 182 216 282 335 398
#     4  11  24  42  68  98 125 176 220 269 333 396
#     4  11  24  44  69  98 138 176 229 278 333 401
#     4  11  24  44  68  97 138 170 232 270 337 398
#     4  11  22  42  67  91 132 176 214 268 333 398
#     4  12  25  41  61 100 136 165 219 273 330 396
#
# _framework density 23.397086000000002
#
# number of rings (size 3 to 8) (size 9 to 14) (size 15 to 20)
#    0.000    1.250    0.000    7.125    5.250    4.000 
#    4.500    0.000    0.000    0.000    0.000    0.000 
#    0.000    0.000    0.000    0.000    0.000    0.000 
#
# Total GULP energy -89580.652378 kJ/mol
# GULP energy per Si atom -5598.790774 kJ/mol
# Density = 2.334383 g / cm^3
# Si number density = 23.397086 Si / 1000 Ang^3
#
#
#
# Elastic Constant Matrix: (Units=GPa)
#
#
# Indices 1 2 3 4 5 6 
#
# 1 61.0598 25.7869 27.2981 1.5273 2.0679 -2.7898
# 2 25.7869 116.9724 20.9244 9.2204 12.8941 16.3575
# 3 27.2981 20.9244 64.7324 18.1913 7.7504 4.3040
# 4 1.5273 9.2204 18.1913 36.4895 6.5955 7.5523
# 5 2.0679 12.8941 7.7504 6.5955 41.6536 -3.0120
# 6 -2.7898 16.3575 4.3040 7.5523 -3.0120 35.4099
#
#
#
# Elastic Compliance Matrix: (Units=1/GPa)
#
#
# Indices 1 2 3 4 5 6 
#
# 1 0.022576 -0.004337 -0.009672 0.003769 0.001736 0.004301
# 2 -0.004337 0.010803 -0.000784 -0.000437 -0.003306 -0.005425
# 3 -0.009672 -0.000784 0.022979 -0.010244 -0.002016 -0.001180
# 4 0.003769 -0.000437 -0.010244 0.034422 -0.004026 -0.005940
# 5 0.001736 -0.003306 -0.002016 -0.004026 0.026319 0.005006
# 6 0.004301 -0.005425 -0.001180 -0.005940 0.005006 0.032922
#
#
# Mechanical properties :
#
#
# Convention : Reuss Voigt Hill
#
# Bulk Modulus (GPa) = 37.35011 43.42039 40.38525
# Shear Modulus (GPa) = 26.52102 33.96095 30.24098
#
# Velocity S-wave (km/s) = 3.37043 3.81399 3.59905
# Velocity P-wave (km/s) = 5.58074 6.16390 5.87955
#
# Compressibility (1/GPa) = 0.02677368
#
# Stress axis : x y z
#
# Youngs Moduli (GPa) = 44.29418 92.56890 43.51828
#
# Poissons Ratio (x) = 0.40146 0.42089
# Poissons Ratio (y) = 0.19210 0.03411
# Poissons Ratio (z) = 0.42840 0.07255
#
# Static dielectric constant tensor:
#      x y z
#    x 1.959000 -0.057490 0.020050 
#    y -0.057490 1.887750 -0.030270 
#    z 0.020050 -0.030270 1.912620 
# 
# From -- ./inp_files/398076.got.cif
#   From: 2010.05.17/outbox.cif.g08.bks.cpg/sg2_200_cif.got.tgz:398076.got - 2010.06.03 11:33:40.
