data_PCOD9018064
_publ_section_title
;
Structure prediction by ZEFSAII (Michael W. Deem and Ramdas Pophale) SiO2 
 PCOD9018064
Probable space group: P -1
;
_chemical_formula_sum "Si O2"
_cell_formula_units_Z 12
_cell_length_a 15.749325
_cell_length_b 19.531604
_cell_length_c 8.855260
_cell_angle_alpha 142.832833
_cell_angle_beta 133.270834
_cell_angle_gamma 20.022369
_cell_volume 536.453045
_symmetry_space_group_name_H-M "P -1"
_symmetry_group_IT_number 2
_symmetry_cell_setting 'triclinic'
loop_
_space_group_symop_operation_xyz
x,y,z
-x,-y,-z
loop_
_atom_site_type_symbol
_atom_site_label
_atom_site_fract_x
_atom_site_fract_y
_atom_site_fract_z
Si Si1 0.674365 0.751095 0.700128
Si Si2 0.722296 0.089091 0.586826
Si Si3 0.149630 0.794733 0.192751
Si Si4 0.821749 0.063334 0.983411
Si Si5 0.265731 0.535177 0.139703
Si Si6 0.253711 0.279483 0.621501
O O1 0.715564 0.749007 0.572009
O O2 0.959838 0.489062 0.661907
O O3 0.496402 0.794639 0.555747
O O4 0.500000 0.000000 0.000000
O O5 0.737888 0.056760 0.729925
O O6 0.010488 0.801837 0.380174
O O7 0.688282 0.248030 0.769553
O O8 0.259113 0.595128 0.069630
O O9 0.000000 0.000000 0.500000
O O10 0.978806 0.890391 0.017404
O O11 0.540513 0.342230 0.197203
O O12 0.000000 0.000000 0.000000
O O13 0.253341 0.410439 0.905126
O O14 0.500000 0.000000 0.500000
#
# Coordination Sequence:
#
# PCOD9018064 Si02
#       6
#     2   2   2   2   2   2
#     4  11  23  47  72  97 136 180 232 282 334 403
#     4  10  21  43  68 104 132 175 227 276 335 403
#     4   9  22  41  68  98 133 175 216 271 339 397
#     4  10  22  40  64  98 137 174 219 271 335 404
#     4  11  22  45  67  96 141 171 226 278 337 401
#     4  11  26  46  68  99 137 179 230 286 337 399
#
# _framework density 22.369153000000001
#
# number of rings (size 3 to 8) (size 9 to 14) (size 15 to 20)
#    0.000    1.667    3.333    0.000    0.000   12.000 
#    3.000    1.667    0.000    0.000    0.000    0.000 
#    0.000    0.000    0.000    0.000    0.000    0.000 
#
# Total GULP energy -66956.649647 kJ/mol
# GULP energy per Si atom -5579.720804 kJ/mol
# Density = 2.231824 g / cm^3
# Si number density = 22.369153 Si / 1000 Ang^3
#
#
#
# Elastic Constant Matrix: (Units=GPa)
#
#
# Indices 1 2 3 4 5 6 
#
# 1 56.0128 41.8719 18.1365 8.7094 5.2484 -12.2135
# 2 41.8719 148.9183 31.1287 18.2877 25.2582 -19.2902
# 3 18.1365 31.1287 107.8107 14.1292 12.1822 -4.5603
# 4 8.7094 18.2877 14.1292 35.0093 -1.1855 -3.2516
# 5 5.2484 25.2582 12.1822 -1.1855 37.7662 6.7416
# 6 -12.2135 -19.2902 -4.5603 -3.2516 6.7416 54.3546
#
#
#
# Elastic Compliance Matrix: (Units=1/GPa)
#
#
# Indices 1 2 3 4 5 6 
#
# 1 0.023655 -0.005735 -0.002038 -0.001773 0.000628 0.002925
# 2 -0.005735 0.010426 -0.000692 -0.003690 -0.006595 0.002951
# 3 -0.002038 -0.000692 0.010610 -0.003479 -0.002845 0.000331
# 4 -0.001773 -0.003690 -0.003479 0.032442 0.004975 -0.000676
# 5 0.000628 -0.006595 -0.002845 0.004975 0.032989 -0.006232
# 6 0.002925 0.002951 0.000331 -0.000676 -0.006232 0.020863
#
#
# Mechanical properties :
#
#
# Convention : Reuss Voigt Hill
#
# Bulk Modulus (GPa) = 36.02271 55.00177 45.51224
# Shear Modulus (GPa) = 31.81315 40.19968 36.00641
#
# Velocity S-wave (km/s) = 3.77528 4.24382 4.01639
# Velocity P-wave (km/s) = 5.92810 6.97531 6.47292
#
# Compressibility (1/GPa) = 0.02776027
#
# Stress axis : x y z
#
# Youngs Moduli (GPa) = 42.27473 95.91179 94.25445
#
# Poissons Ratio (x) = 0.55004 0.19212
# Poissons Ratio (y) = 0.24244 0.06523
# Poissons Ratio (z) = 0.08617 0.06638
#
# Static dielectric constant tensor:
#      x y z
#    x 1.905880 -0.142760 -0.113310 
#    y -0.142760 1.955670 0.118740 
#    z -0.113310 0.118740 1.973790 
# 
# From -- ./inp_files/78158.got.cif
#   From: 2010.05.17/outbox.cif.g08.bks.cpg/sg2_40_cif.got.tgz:78158.got - 2010.06.03 11:33:40.
