data_PCOD9018922
_publ_section_title
;
Structure prediction by ZEFSAII (Michael W. Deem and Ramdas Pophale) SiO2 
 PCOD9018922
Probable space group: P -1
;
_chemical_formula_sum "Si O2"
_cell_formula_units_Z 12
_cell_length_a 14.748176
_cell_length_b 9.333143
_cell_length_c 9.608979
_cell_angle_alpha 114.400092
_cell_angle_beta 27.437211
_cell_angle_gamma 112.804255
_cell_volume 554.318151
_symmetry_space_group_name_H-M "P -1"
_symmetry_group_IT_number 2
_symmetry_cell_setting 'triclinic'
loop_
_space_group_symop_operation_xyz
x,y,z
-x,-y,-z
loop_
_atom_site_type_symbol
_atom_site_label
_atom_site_fract_x
_atom_site_fract_y
_atom_site_fract_z
Si Si1 0.913022 0.168670 0.854889
Si Si2 0.585300 0.359966 0.238915
Si Si3 0.681379 0.491837 0.853222
Si Si4 0.864263 0.837245 0.726990
Si Si5 0.092866 0.796547 0.648577
Si Si6 0.205187 0.137318 0.696917
O O1 0.085586 0.159409 0.501581
O O2 0.028974 0.180632 0.847026
O O3 0.784655 0.002671 0.950645
O O4 0.772696 0.301359 0.046024
O O5 0.500000 0.500000 0.500000
O O6 0.410856 0.224161 0.414816
O O7 0.635636 0.418663 0.037837
O O8 0.758764 0.671356 0.838441
O O9 0.827598 0.376358 0.528752
O O10 0.500000 0.500000 0.000000
O O11 0.067003 0.836259 0.537595
O O12 0.216888 0.947224 0.602356
O O13 0.881930 0.806641 0.015184
#
# Coordination Sequence:
#
# PCOD9018922 Si02
#       6
#     2   2   2   2   2   2
#     4  10  23  43  70  93 128 174 214 267 323 378
#     4  12  27  43  66 101 131 168 216 271 321 380
#     4  12  26  40  66 100 130 171 215 267 322 383
#     4  10  21  44  66  93 127 173 218 261 323 384
#     4  10  22  44  67  92 131 174 211 267 324 376
#     4  10  24  44  67  96 131 171 216 265 324 384
#
# _framework density 21.648216000000001
#
# number of rings (size 3 to 8) (size 9 to 14) (size 15 to 20)
#    0.000    1.333    1.667    2.500    7.000    1.333 
#    0.000    3.333    0.000    0.000    0.000    0.000 
#    0.000    0.000    0.000    0.000    0.000    0.000 
#
# Total GULP energy -66965.332867 kJ/mol
# GULP energy per Si atom -5580.444406 kJ/mol
# Density = 2.159894 g / cm^3
# Si number density = 21.648216 Si / 1000 Ang^3
#
#
#
# Elastic Constant Matrix: (Units=GPa)
#
#
# Indices 1 2 3 4 5 6 
#
# 1 90.6112 15.8797 13.8438 9.2404 5.3704 -10.3474
# 2 15.8797 85.5851 10.6864 -17.3487 5.1490 2.2236
# 3 13.8438 10.6864 33.0122 -8.1639 17.7652 1.2594
# 4 9.2404 -17.3487 -8.1639 42.0106 -3.5944 -1.5540
# 5 5.3704 5.1490 17.7652 -3.5944 28.7331 1.5101
# 6 -10.3474 2.2236 1.2594 -1.5540 1.5101 34.5571
#
#
#
# Elastic Compliance Matrix: (Units=1/GPa)
#
#
# Indices 1 2 3 4 5 6 
#
# 1 0.013539 -0.002902 -0.006958 -0.005252 0.001414 0.004196
# 2 -0.002902 0.013667 -0.001656 0.005902 -0.000070 -0.001420
# 3 -0.006958 -0.001656 0.051553 0.008292 -0.029124 -0.002210
# 4 -0.005252 0.005902 0.008292 0.028842 -0.001548 -0.000890
# 5 0.001414 -0.000070 -0.029124 -0.001548 0.052410 -0.000871
# 6 0.004196 -0.001420 -0.002210 -0.000890 -0.000871 0.030364
#
#
# Mechanical properties :
#
#
# Convention : Reuss Voigt Hill
#
# Bulk Modulus (GPa) = 17.94447 32.22535 25.08491
# Shear Modulus (GPa) = 21.55332 32.31340 26.93336
#
# Velocity S-wave (km/s) = 3.15876 3.86769 3.53106
# Velocity P-wave (km/s) = 4.64874 5.90454 5.31387
#
# Compressibility (1/GPa) = 0.05572747
#
# Stress axis : x y z
#
# Youngs Moduli (GPa) = 73.86167 73.16931 19.39739
#
# Poissons Ratio (x) = 0.21234 0.13497
# Poissons Ratio (y) = 0.21435 0.03212
# Poissons Ratio (z) = 0.51394 0.12115
#
# Static dielectric constant tensor:
#      x y z
#    x 1.787180 0.017040 -0.012040 
#    y 0.017040 1.895940 0.032580 
#    z -0.012040 0.032580 1.797950 
# 
# From -- ./inp_files/145139.got.cif
#   From: 2010.05.17/outbox.cif.g08.bks.cpg/sg2_73_cif.got.tgz:145139.got - 2010.06.03 11:33:40.
