data_PCOD9018508
_publ_section_title
;
Structure prediction by ZEFSAII (Michael W. Deem and Ramdas Pophale) SiO2 
 PCOD9018508
Probable space group: P -1
;
_chemical_formula_sum "Si O2"
_cell_formula_units_Z 14
_cell_length_a 16.111221
_cell_length_b 22.182927
_cell_length_c 11.956719
_cell_angle_alpha 29.468832
_cell_angle_beta 28.356161
_cell_angle_gamma 16.644407
_cell_volume 569.350957
_symmetry_space_group_name_H-M "P -1"
_symmetry_group_IT_number 2
_symmetry_cell_setting 'triclinic'
loop_
_space_group_symop_operation_xyz
x,y,z
-x,-y,-z
loop_
_atom_site_type_symbol
_atom_site_label
_atom_site_fract_x
_atom_site_fract_y
_atom_site_fract_z
Si Si1 0.267319 0.683514 0.886090
Si Si2 0.880301 0.821924 0.579403
Si Si3 0.781046 0.686481 0.719707
Si Si4 0.346978 0.762997 0.442553
Si Si5 0.266235 0.232133 0.953171
Si Si6 0.774854 0.158321 0.787349
Si Si7 0.193921 0.265747 0.635172
O O1 0.428941 0.629357 0.666010
O O2 0.500000 0.500000 0.000000
O O3 0.078807 0.905789 0.802195
O O4 0.010662 0.729417 0.089757
O O5 0.871727 0.727717 0.643682
O O6 0.115931 0.797241 0.332153
O O7 0.532045 0.072947 0.596948
O O8 0.940365 0.716922 0.793315
O O9 0.753528 0.775281 0.494168
O O10 0.048643 0.430025 0.806884
O O11 0.474338 0.789467 0.949328
O O12 0.543853 0.772829 0.200004
O O13 0.345290 0.720702 0.385097
O O14 0.000000 0.000000 0.500000
O O15 0.500000 0.000000 0.000000
O O16 0.000000 0.500000 0.500000
#
# Coordination Sequence:
#
# PCOD9018508 Si02
#       7
#     2   2   2   2   2   2   2
#     4  11  22  44  73 109 147 189 244 300 352 435
#     4  12  25  47  73 107 146 191 242 299 370 432
#     4  12  27  50  71 107 150 185 245 311 361 433
#     4  10  21  43  71 106 148 184 241 301 356 435
#     4  12  24  46  75 105 145 190 241 300 365 434
#     4  11  25  46  73 106 146 191 241 297 369 428
#     4  12  26  48  74 104 148 197 243 298 368 436
#
# _framework density 24.589403000000001
#
# number of rings (size 3 to 8) (size 9 to 14) (size 15 to 20)
#    0.000    0.571    2.857    6.000    0.000    2.286 
#    7.714    0.000    0.000    0.000    0.000    0.000 
#    0.000    0.000    0.000    0.000    0.000    0.000 
#
# Total GULP energy -78498.575577 kJ/mol
# GULP energy per Si atom -5607.041113 kJ/mol
# Density = 2.453344 g / cm^3
# Si number density = 24.589403 Si / 1000 Ang^3
#
#
#
# Elastic Constant Matrix: (Units=GPa)
#
#
# Indices 1 2 3 4 5 6 
#
# 1 96.3299 26.3130 57.1806 -1.2946 -20.5222 0.3116
# 2 26.3130 132.1473 22.6379 -9.8585 -10.4377 -1.8578
# 3 57.1806 22.6379 125.4498 6.0440 -28.7468 5.5295
# 4 -1.2946 -9.8585 6.0440 38.4487 -16.2001 4.4916
# 5 -20.5222 -10.4377 -28.7468 -16.2001 52.0086 -1.9739
# 6 0.3116 -1.8578 5.5295 4.4916 -1.9739 36.0295
#
#
#
# Elastic Compliance Matrix: (Units=1/GPa)
#
#
# Indices 1 2 3 4 5 6 
#
# 1 0.015053 -0.001549 -0.006023 0.002262 0.003027 0.000598
# 2 -0.001549 0.008317 -0.000568 0.002827 0.001635 0.000267
# 3 -0.006023 -0.000568 0.011786 -0.000405 0.003840 -0.001525
# 4 0.002262 0.002827 -0.000405 0.031902 0.011052 -0.003183
# 5 0.003027 0.001635 0.003840 0.011052 0.026297 -0.000468
# 6 0.000598 0.000267 -0.001525 -0.003183 -0.000468 0.028369
#
#
# Mechanical properties :
#
#
# Convention : Reuss Voigt Hill
#
# Bulk Modulus (GPa) = 52.98201 62.91000 57.94601
# Shear Modulus (GPa) = 34.65088 41.81707 38.23397
#
# Velocity S-wave (km/s) = 3.75798 4.12832 3.94750
# Velocity P-wave (km/s) = 6.35793 6.95441 6.66285
#
# Compressibility (1/GPa) = 0.01887433
#
# Stress axis : x y z
#
# Youngs Moduli (GPa) = 66.43245 120.23738 84.84731
#
# Poissons Ratio (x) = 0.18628 0.51107
# Poissons Ratio (y) = 0.10292 0.04820
# Poissons Ratio (z) = 0.40015 0.06830
#
# Static dielectric constant tensor:
#      x y z
#    x 1.926100 0.021150 0.020490 
#    y 0.021150 1.952420 -0.038610 
#    z 0.020490 -0.038610 1.897460 
# 
# From -- ./inp_files/457592.got.cif
#   From: 2010.05.17/outbox.cif.g08.bks.cpg/sg2_229_cif.got.tgz:457592.got - 2010.06.03 11:33:40.
