data_PCOD9018749
_publ_section_title
;
Structure prediction by ZEFSAII (Michael W. Deem and Ramdas Pophale) SiO2 
 PCOD9018749
Probable space group: P -1
;
_chemical_formula_sum "Si O2"
_cell_formula_units_Z 16
_cell_length_a 6.776273
_cell_length_b 10.974500
_cell_length_c 11.676356
_cell_angle_alpha 83.010186
_cell_angle_beta 79.479362
_cell_angle_gamma 127.860646
_cell_volume 642.735540
_symmetry_space_group_name_H-M "P -1"
_symmetry_group_IT_number 2
_symmetry_cell_setting 'triclinic'
loop_
_space_group_symop_operation_xyz
x,y,z
-x,-y,-z
loop_
_atom_site_type_symbol
_atom_site_label
_atom_site_fract_x
_atom_site_fract_y
_atom_site_fract_z
Si Si1 0.186263 0.693442 0.361140
Si Si2 0.212737 0.203306 0.360354
Si Si3 0.326765 0.490436 0.417002
Si Si4 0.961939 0.551066 0.156053
Si Si5 0.192630 0.894552 0.026235
Si Si6 0.943135 0.938426 0.853299
Si Si7 0.409032 0.601150 0.982231
Si Si8 0.682024 0.016793 0.578119
O O1 0.384343 0.655471 0.358333
O O2 0.007271 0.599500 0.278172
O O3 0.320562 0.881568 0.332884
O O4 0.977330 0.616140 0.496689
O O5 0.337525 0.389500 0.330592
O O6 0.065651 0.112022 0.268481
O O7 0.985268 0.122477 0.491046
O O8 0.393735 0.155366 0.370463
O O9 0.500000 0.500000 0.500000
O O10 0.055560 0.708979 0.059233
O O11 0.695132 0.412010 0.133544
O O12 0.175788 0.534221 0.102867
O O13 0.050294 0.914866 0.140361
O O14 0.150846 0.951373 0.907335
O O15 0.500000 0.000000 0.000000
O O16 0.658777 0.787125 0.954430
O O17 0.500000 0.500000 0.000000
O O18 0.500000 0.000000 0.500000
#
# Coordination Sequence:
#
# PCOD9018749 Si02
#       8
#     2   2   2   2   2   2   2   2
#     4  10  23  39  62  92 123 159 208 252 312 369
#     4  10  23  38  65  92 121 161 210 249 312 372
#     4  10  22  41  60  93 123 155 203 259 305 372
#     4  11  24  41  65  91 129 170 210 258 316 373
#     4  11  23  44  62  92 130 163 212 261 308 374
#     4  11  24  41  65  94 128 167 209 261 315 373
#     4  11  24  42  60  94 131 165 211 260 307 380
#     4  10  21  44  61  92 125 161 208 259 304 378
#
# _framework density 24.893597
#
# number of rings (size 3 to 8) (size 9 to 14) (size 15 to 20)
#    0.000    1.500    2.500    1.500    3.500    2.000 
#    0.000    0.000    0.000    0.000    0.000    0.000 
#    0.000    0.000    0.000    0.000    0.000    0.000 
#
# Total GULP energy -89453.711024 kJ/mol
# GULP energy per Si atom -5590.856939 kJ/mol
# Density = 2.483694 g / cm^3
# Si number density = 24.893597 Si / 1000 Ang^3
#
#
#
# Elastic Constant Matrix: (Units=GPa)
#
#
# Indices 1 2 3 4 5 6 
#
# 1 162.8939 57.5413 34.5565 17.2105 21.5113 -35.4537
# 2 57.5413 68.9589 16.9184 28.3916 3.1397 -34.0185
# 3 34.5565 16.9184 89.8622 34.1277 4.2555 -17.7988
# 4 17.2105 28.3916 34.1277 41.4306 1.2066 -5.9224
# 5 21.5113 3.1397 4.2555 1.2066 44.7085 8.2977
# 6 -35.4537 -34.0185 -17.7988 -5.9224 8.2977 57.4654
#
#
#
# Elastic Compliance Matrix: (Units=1/GPa)
#
#
# Indices 1 2 3 4 5 6 
#
# 1 0.010512 -0.009587 -0.004087 0.005804 -0.004294 0.000763
# 2 -0.009587 0.043037 0.012050 -0.032462 -0.002449 0.020303
# 3 -0.004087 0.012050 0.020797 -0.022344 -0.001932 0.009029
# 4 0.005804 -0.032462 -0.022344 0.059879 0.003123 -0.016837
# 5 -0.004294 -0.002449 -0.001932 0.003123 0.026219 -0.008161
# 6 0.000763 0.020303 0.009029 -0.016837 -0.008161 0.032131
#
#
# Mechanical properties :
#
#
# Convention : Reuss Voigt Hill
#
# Bulk Modulus (GPa) = 14.06516 59.97192 37.01854
# Shear Modulus (GPa) = 22.77656 42.90084 32.83870
#
# Velocity S-wave (km/s) = 3.02811 4.15585 3.63597
# Velocity P-wave (km/s) = 4.22945 6.86817 5.70351
#
# Compressibility (1/GPa) = 0.07109765
#
# Stress axis : x y z
#
# Youngs Moduli (GPa) = 95.12596 23.23573 48.08423
#
# Poissons Ratio (x) = 0.22276 0.19654
# Poissons Ratio (y) = 0.91196 -0.57941
# Poissons Ratio (z) = 0.38881 -0.27999
#
# Static dielectric constant tensor:
#      x y z
#    x 1.960850 -0.026650 -0.011410 
#    y -0.026650 2.323520 -0.013480 
#    z -0.011410 -0.013480 1.971180 
# 
# From -- ./inp_files/313435.got.cif
#   From: 2010.05.17/outbox.cif.g08.bks.cpg/sg2_157_cif.got.tgz:313435.got - 2010.06.03 11:33:40.
