data_PCOD9018859
_publ_section_title
;
Structure prediction by ZEFSAII (Michael W. Deem and Ramdas Pophale) SiO2 
 PCOD9018859
Probable space group: P -1
;
_chemical_formula_sum "Si O2"
_cell_formula_units_Z 16
_cell_length_a 5.812806
_cell_length_b 7.494722
_cell_length_c 23.492418
_cell_angle_alpha 45.852806
_cell_angle_beta 94.094772
_cell_angle_gamma 112.733480
_cell_volume 646.385857
_symmetry_space_group_name_H-M "P -1"
_symmetry_group_IT_number 2
_symmetry_cell_setting 'triclinic'
loop_
_space_group_symop_operation_xyz
x,y,z
-x,-y,-z
loop_
_atom_site_type_symbol
_atom_site_label
_atom_site_fract_x
_atom_site_fract_y
_atom_site_fract_z
Si Si1 0.123848 0.467285 0.855503
Si Si2 0.413522 0.357339 0.104544
Si Si3 0.914496 0.405374 0.455226
Si Si4 0.620665 0.933598 0.944002
Si Si5 0.995631 0.195678 0.732609
Si Si6 0.567475 0.662757 0.208445
Si Si7 0.977831 0.685086 0.700464
Si Si8 0.346500 0.235036 0.514272
O O1 0.294528 0.588262 0.887622
O O2 0.297772 0.407164 0.825906
O O3 0.052945 0.669207 0.770956
O O4 0.873462 0.167435 0.927429
O O5 0.306623 0.218502 0.072224
O O6 0.435066 0.666315 0.038186
O O7 0.230109 0.120240 0.197198
O O8 0.976576 0.671608 0.357694
O O9 0.595832 0.232594 0.487609
O O10 0.000000 0.500000 0.500000
O O11 0.116481 0.283177 0.468424
O O12 0.503433 0.107691 0.870317
O O13 0.254689 0.212549 0.760871
O O14 0.950020 0.408366 0.727383
O O15 0.319143 0.374546 0.288272
O O16 0.185450 0.954946 0.611104
O O17 0.500000 0.500000 0.500000
#
# Coordination Sequence:
#
# PCOD9018859 Si02
#       8
#     2   2   2   2   2   2   2   2
#     4  10  22  41  66  98 135 179 227 286 343 417
#     4  11  22  41  70  95 138 183 224 283 347 423
#     4  10  25  44  66  99 138 173 234 296 346 424
#     4  10  22  45  61 101 140 175 228 284 345 409
#     4  11  24  43  67  96 130 182 229 280 357 417
#     4  10  21  44  65  94 141 171 229 290 342 419
#     4  10  23  43  67  93 135 176 225 291 346 417
#     4  10  24  43  67  97 133 180 224 296 350 418
#
# _framework density 24.753018000000001
#
# number of rings (size 3 to 8) (size 9 to 14) (size 15 to 20)
#    0.000    1.750    3.750    0.375    8.750    3.000 
#    6.750    0.000    0.000    0.000    0.000    0.000 
#    0.000    0.000    0.000    0.000    0.000    0.000 
#
# Total GULP energy -89398.758687 kJ/mol
# GULP energy per Si atom -5587.422418 kJ/mol
# Density = 2.469668 g / cm^3
# Si number density = 24.753018 Si / 1000 Ang^3
#
#
#
# Elastic Constant Matrix: (Units=GPa)
#
#
# Indices 1 2 3 4 5 6 
#
# 1 148.2145 -140.8268 224.9068 32.0320 -114.4684 160.3838
# 2 -140.8268 1371.0917-1183.2642 -361.9133 769.3306 -964.3018
# 3 224.9068-1183.2642 1417.3332 322.1614 -771.7036 989.6050
# 4 32.0320 -361.9133 322.1614 145.7121 -204.2834 272.4658
# 5 -114.4684 769.3306 -771.7036 -204.2834 509.0593 -595.7492
# 6 160.3838 -964.3018 989.6050 272.4658 -595.7492 795.0623
#
#
#
# Elastic Compliance Matrix: (Units=1/GPa)
#
#
# Indices 1 2 3 4 5 6 
#
# 1 0.010467 -0.002353 -0.000884 0.002886 0.000382 -0.004567
# 2 -0.002353 0.007540 -0.001043 0.003148 -0.005910 0.005410
# 3 -0.000884 -0.001043 0.006337 0.001050 0.003914 -0.006402
# 4 0.002886 0.003148 0.001050 0.022598 -0.002063 -0.007361
# 5 0.000382 -0.005910 0.003914 -0.002063 0.022217 0.005239
# 6 -0.004567 0.005410 -0.006402 -0.007361 0.005239 0.023157
#
#
# Mechanical properties :
#
#
# Convention : Reuss Voigt Hill
#
# Bulk Modulus (GPa) = 63.35695 82.03009 72.69352
# Shear Modulus (GPa) = 47.10932 559.02164 303.06548
#
# Velocity S-wave (km/s) = 4.36727 15.04427 11.07707
# Velocity P-wave (km/s) = 7.14716 18.30259 13.89365
#
# Compressibility (1/GPa) = 0.01578359
#
# Stress axis : x y z
#
# Youngs Moduli (GPa) = 95.54128 132.63290 157.80704
#
# Poissons Ratio (x) = 0.31202 0.13953
# Poissons Ratio (y) = 0.22476 0.16460
# Poissons Ratio (z) = 0.08448 0.13834
#
# Static dielectric constant tensor:
#      x y z
#    x 2.036310 0.011880 0.006200 
#    y 0.011880 1.915750 0.005850 
#    z 0.006200 0.005850 1.933560 
# 
# From -- ./inp_files/123001.got.cif
#   From: 2010.05.17/outbox.cif.g08.bks.cpg/sg2_62_cif.got.tgz:123001.got - 2010.06.03 11:33:40.
