data_PCOD9018896
_publ_section_title
;
Structure prediction by ZEFSAII (Michael W. Deem and Ramdas Pophale) SiO2 
 PCOD9018896
Probable space group: P -1
;
_chemical_formula_sum "Si O2"
_cell_formula_units_Z 16
_cell_length_a 14.985089
_cell_length_b 20.726446
_cell_length_c 8.961377
_cell_angle_alpha 50.496418
_cell_angle_beta 52.695721
_cell_angle_gamma 19.415976
_cell_volume 713.694500
_symmetry_space_group_name_H-M "P -1"
_symmetry_group_IT_number 2
_symmetry_cell_setting 'triclinic'
loop_
_space_group_symop_operation_xyz
x,y,z
-x,-y,-z
loop_
_atom_site_type_symbol
_atom_site_label
_atom_site_fract_x
_atom_site_fract_y
_atom_site_fract_z
Si Si1 0.465518 0.388232 0.137190
Si Si2 0.491889 0.378339 0.789885
Si Si3 0.272618 0.237622 0.263225
Si Si4 0.929842 0.193955 0.470654
Si Si5 0.483398 0.803738 0.136143
Si Si6 0.570106 0.056174 0.522693
Si Si7 0.117043 0.792443 0.843237
Si Si8 0.253618 0.380981 0.559678
O O1 0.733300 0.234931 0.179670
O O2 0.311629 0.422412 0.337613
O O3 0.516067 0.324946 0.009845
O O4 0.294257 0.589344 0.990194
O O5 0.747769 0.262209 0.664544
O O6 0.231158 0.611860 0.688277
O O7 0.467222 0.323571 0.774883
O O8 0.330249 0.107187 0.326673
O O9 0.004619 0.427422 0.355544
O O10 0.503035 0.106168 0.342571
O O11 0.304876 0.280726 0.034722
O O12 0.920303 0.159908 0.364468
O O13 0.200216 0.037365 0.511969
O O14 0.515875 0.788550 0.301033
O O15 0.180101 0.027726 0.065654
O O16 0.299093 0.268170 0.575077
#
# Coordination Sequence:
#
# PCOD9018896 Si02
#       8
#     2   2   2   2   2   2   2   2
#     4  10  24  42  68 104 139 179 220 286 347 407
#     4  10  23  40  71 102 142 175 222 287 343 416
#     4  11  28  46  67 103 138 182 236 287 338 401
#     4  10  21  44  66 103 138 179 224 280 353 403
#     4  12  25  44  70 102 135 181 228 283 341 417
#     4  11  25  45  72 100 134 187 229 288 340 408
#     4  10  23  42  67 102 140 177 222 278 351 413
#     4  12  25  47  72 100 139 184 230 289 341 404
#
# _framework density 22.418555999999999
#
# number of rings (size 3 to 8) (size 9 to 14) (size 15 to 20)
#    0.000    1.250    1.250    3.000    7.000    5.000 
#    2.250    0.000    0.000    0.000    0.000    0.000 
#    0.000    0.000    0.000    0.000    0.000    0.000 
#
# Total GULP energy -89372.404192 kJ/mol
# GULP energy per Si atom -5585.775262 kJ/mol
# Density = 2.236753 g / cm^3
# Si number density = 22.418556 Si / 1000 Ang^3
#
#
#
# Elastic Constant Matrix: (Units=GPa)
#
#
# Indices 1 2 3 4 5 6 
#
# 1 70.6017 -14.4538 -10.0836 -12.5251 26.0603 -3.3086
# 2 -14.4538 47.1641 -4.9640 -2.8766 13.5438 -5.5092
# 3 -10.0836 -4.9640 119.1953 27.1035 -3.8564 3.4322
# 4 -12.5251 -2.8766 27.1035 23.2010 7.1284 9.9476
# 5 26.0603 13.5438 -3.8564 7.1284 14.1806 -15.6310
# 6 -3.3086 -5.5092 3.4322 9.9476 -15.6310 52.2318
#
#
#
# Elastic Compliance Matrix: (Units=1/GPa)
#
#
# Indices 1 2 3 4 5 6 
#
# 1 0.000974 -0.006694 0.004471 -0.018090 0.026376 0.010401
# 2 -0.006694 0.013886 0.004389 -0.017645 0.020348 0.010202
# 3 0.004471 0.004389 0.009938 -0.005383 -0.008605 -0.001457
# 4 -0.018090 -0.017645 -0.005383 0.019477 0.047498 0.007852
# 5 0.026376 0.020348 -0.008605 0.047498 -0.042895 -0.017500
# 6 0.010401 0.010202 -0.001457 0.007852 -0.017500 0.014244
#
#
# Mechanical properties :
#
#
# Convention : Reuss Voigt Hill
#
# Bulk Modulus (GPa) = 34.32774 19.77315 27.05044
# Shear Modulus (GPa) = 238.07924 35.68685 136.88304
#
# Velocity S-wave (km/s) = 10.31639 3.99412 7.82243
# Velocity P-wave (km/s) = 12.53991 5.48724 9.67882
#
# Compressibility (1/GPa) = 0.02913096
#
# Stress axis : x y z
#
# Youngs Moduli (GPa) = 1026.19595 72.01743 100.62139
#
# Poissons Ratio (x) = 0.48205 -0.44988
# Poissons Ratio (y) = 6.86884 -0.44161
# Poissons Ratio (z) = -4.58815 -0.31607
#
# Static dielectric constant tensor:
#      x y z
#    x 1.814240 0.002620 0.015230 
#    y 0.002620 1.909880 -0.019530 
#    z 0.015230 -0.019530 1.783180 
# 
# From -- ./inp_files/319244.got.cif
#   From: 2010.05.17/outbox.cif.g08.bks.cpg/sg2_160_cif.got.tgz:319244.got - 2010.06.03 11:33:40.
