data_PCOD9018344
_publ_section_title
;
Structure prediction by ZEFSAII (Michael W. Deem and Ramdas Pophale) SiO2 
 PCOD9018344
Probable space group: P -1
;
_chemical_formula_sum "Si O2"
_cell_formula_units_Z 13
_cell_length_a 10.159462
_cell_length_b 8.962425
_cell_length_c 14.222195
_cell_angle_alpha 108.981398
_cell_angle_beta 143.200814
_cell_angle_gamma 49.873795
_cell_volume 539.216293
_symmetry_space_group_name_H-M "P -1"
_symmetry_group_IT_number 2
_symmetry_cell_setting 'triclinic'
loop_
_space_group_symop_operation_xyz
x,y,z
-x,-y,-z
loop_
_atom_site_type_symbol
_atom_site_label
_atom_site_fract_x
_atom_site_fract_y
_atom_site_fract_z
Si Si1 0.963727 0.867233 0.081833
Si Si2 0.500045 0.448387 0.380264
Si Si3 0.297182 0.996129 0.223957
Si Si4 0.000000 0.000000 0.500000
Si Si5 0.842408 0.585107 0.527023
Si Si6 0.353999 0.904029 0.871435
Si Si7 0.769549 0.464778 0.099723
O O1 0.162467 0.626658 0.184223
O O2 0.187486 0.869359 0.150872
O O3 0.860724 0.015144 0.144257
O O4 0.693236 0.972623 0.875701
O O5 0.500000 0.500000 0.500000
O O6 0.693845 0.490185 0.447376
O O7 0.671341 0.205797 0.404263
O O8 0.038178 0.232041 0.164189
O O9 0.602245 0.843458 0.426431
O O10 0.170081 0.982729 0.687871
O O11 0.000000 0.500000 0.500000
O O12 0.078762 0.505925 0.726457
O O13 0.611646 0.648056 0.968795
O O14 0.500000 0.000000 0.000000
O O15 0.500000 0.500000 0.000000
#
# Coordination Sequence:
#
# PCOD9018344 Si02
#       7
#     2   2   2   1   2   2   2
#     4  10  21  43  69  99 145 186 236 313 370 432
#     4  11  24  47  72 105 151 197 251 306 382 452
#     4  10  22  43  71 103 138 191 239 305 377 447
#     4  12  26  46  76 100 144 210 246 296 388 456
#     4  11  26  45  73 107 147 189 248 320 377 444
#     4  12  26  47  70 108 150 194 250 308 376 454
#     4  12  25  44  72 107 145 187 253 308 373 458
#
# _framework density 24.109062999999999
#
# number of rings (size 3 to 8) (size 9 to 14) (size 15 to 20)
#    0.000    0.923    3.077    3.231    6.462    0.000 
#    5.538    1.538    0.000    0.000    0.000    0.000 
#    0.000    0.000    0.000    0.000    0.000    0.000 
#
# Total GULP energy -72448.054793 kJ/mol
# GULP energy per Si atom -5572.927292 kJ/mol
# Density = 2.405419 g / cm^3
# Si number density = 24.109063 Si / 1000 Ang^3
#
#
#
# Elastic Constant Matrix: (Units=GPa)
#
#
# Indices 1 2 3 4 5 6 
#
# 1 77.6888 4.2444 15.0791 11.5520 -13.1738 -14.8091
# 2 4.2444 63.4852 2.3740 -20.5402 -0.7756 -22.4277
# 3 15.0791 2.3740 141.0430 -0.1409 -14.1015 8.9650
# 4 11.5520 -20.5402 -0.1409 51.6678 -11.8315 -2.5055
# 5 -13.1738 -0.7756 -14.1015 -11.8315 30.7181 7.4794
# 6 -14.8091 -22.4277 8.9650 -2.5055 7.4794 38.4835
#
#
#
# Elastic Compliance Matrix: (Units=1/GPa)
#
#
# Indices 1 2 3 4 5 6 
#
# 1 0.015160 0.000369 -0.001628 -0.002159 0.003570 0.005593
# 2 0.000369 0.024655 -0.001378 0.010569 0.000462 0.015430
# 3 -0.001628 -0.001378 0.007958 0.000588 0.004133 -0.004049
# 4 -0.002159 0.010569 0.000588 0.026226 0.008431 0.005261
# 5 0.003570 0.000462 0.004133 0.008431 0.040877 -0.006715
# 6 0.005593 0.015430 -0.004049 0.005261 -0.006715 0.039721
#
#
# Mechanical properties :
#
#
# Convention : Reuss Voigt Hill
#
# Bulk Modulus (GPa) = 23.53039 36.17909 29.85474
# Shear Modulus (GPa) = 28.72930 41.54183 35.13557
#
# Velocity S-wave (km/s) = 3.45576 4.15550 3.82168
# Velocity P-wave (km/s) = 5.06993 6.16954 5.64657
#
# Compressibility (1/GPa) = 0.04249823
#
# Stress axis : x y z
#
# Youngs Moduli (GPa) = 65.96161 40.56008 125.65406
#
# Poissons Ratio (x) = -0.01495 0.20453
# Poissons Ratio (y) = -0.02431 0.17320
# Poissons Ratio (z) = 0.10737 0.05591
#
# Static dielectric constant tensor:
#      x y z
#    x 2.031590 -0.008890 0.007370 
#    y -0.008890 1.975560 -0.036870 
#    z 0.007370 -0.036870 1.930520 
# 
# From -- ./inp_files/380630.got.cif
#   From: 2010.05.17/outbox.cif.g08.bks.cpg/sg2_191_cif.got.tgz:380630.got - 2010.06.03 11:33:40.
