data_PCOD9018954
_publ_section_title
;
Structure prediction by ZEFSAII (Michael W. Deem and Ramdas Pophale) SiO2 
 PCOD9018954
Probable space group: P -1
;
_chemical_formula_sum "Si O2"
_cell_formula_units_Z 16
_cell_length_a 6.110846
_cell_length_b 5.726433
_cell_length_c 21.671602
_cell_angle_alpha 118.821029
_cell_angle_beta 88.096401
_cell_angle_gamma 100.727286
_cell_volume 651.403914
_symmetry_space_group_name_H-M "P -1"
_symmetry_group_IT_number 2
_symmetry_cell_setting 'triclinic'
loop_
_space_group_symop_operation_xyz
x,y,z
-x,-y,-z
loop_
_atom_site_type_symbol
_atom_site_label
_atom_site_fract_x
_atom_site_fract_y
_atom_site_fract_z
Si Si1 0.206989 0.274565 0.839118
Si Si2 0.599330 0.527109 0.780740
Si Si3 0.148788 0.905589 0.264001
Si Si4 0.725104 0.220385 0.520607
Si Si5 0.834675 0.213784 0.030032
Si Si6 0.535313 0.067634 0.904810
Si Si7 0.917255 0.863263 0.391879
Si Si8 0.474312 0.426012 0.351032
O O1 0.357039 0.406423 0.796525
O O2 0.090571 0.489779 0.903765
O O3 0.388380 0.200297 0.875350
O O4 0.020351 0.038441 0.780862
O O5 0.783573 0.379059 0.788671
O O6 0.607193 0.470755 0.700519
O O7 0.634425 0.840954 0.838136
O O8 0.009806 0.884464 0.325416
O O9 0.385298 0.107309 0.300577
O O10 0.651827 0.497690 0.576823
O O11 0.890223 0.161644 0.564866
O O12 0.500000 0.000000 0.500000
O O13 0.827958 0.140017 0.445511
O O14 0.638745 0.082661 0.062198
O O15 0.726153 0.242178 0.967548
O O16 0.000000 0.000000 0.000000
O O17 0.726568 0.592918 0.371161
#
# Coordination Sequence:
#
# PCOD9018954 Si02
#       8
#     2   2   2   2   2   2   2   2
#     4  11  24  42  67 100 139 182 233 285 347 416
#     4  11  23  43  62  97 142 176 231 289 339 413
#     4  12  25  40  71 102 135 189 233 282 355 415
#     4   9  20  41  70  95 136 182 226 294 345 402
#     4  10  22  42  68  97 138 180 228 291 343 409
#     4  10  23  41  66  99 134 183 229 286 348 410
#     4  10  21  44  66  97 141 177 233 290 342 415
#     4  11  23  41  67  99 136 183 230 284 349 410
#
# _framework density 24.562336999999999
#
# number of rings (size 3 to 8) (size 9 to 14) (size 15 to 20)
#    0.000    1.500    2.500    1.875    0.000    7.000 
#    0.000    5.625    0.000    0.000    0.000    0.000 
#    0.000    0.000    0.000    0.000    0.000    0.000 
#
# Total GULP energy -89373.926934 kJ/mol
# GULP energy per Si atom -5585.870433 kJ/mol
# Density = 2.450643 g / cm^3
# Si number density = 24.562337 Si / 1000 Ang^3
#
#
#
# Elastic Constant Matrix: (Units=GPa)
#
#
# Indices 1 2 3 4 5 6 
#
# 1 97.9733 25.9823 81.7207 -3.7233 7.5082 3.5160
# 2 25.9823 51.5493 35.7891 0.1544 -2.7154 3.5340
# 3 81.7207 35.7891 153.2754 17.0269 5.5763 -1.1661
# 4 -3.7233 0.1544 17.0269 28.0372 0.6498 -12.4234
# 5 7.5082 -2.7154 5.5763 0.6498 56.4913 -5.2532
# 6 3.5160 3.5340 -1.1661 -12.4234 -5.2532 39.6703
#
#
#
# Elastic Compliance Matrix: (Units=1/GPa)
#
#
# Indices 1 2 3 4 5 6 
#
# 1 0.021274 -0.002731 -0.011799 0.010520 -0.001816 0.001065
# 2 -0.002731 0.024009 -0.004399 0.001560 0.001813 -0.001298
# 3 -0.011799 -0.004399 0.015111 -0.011485 -0.000164 -0.001737
# 4 0.010520 0.001560 -0.011485 0.050423 0.000575 0.014458
# 5 -0.001816 0.001813 -0.000164 0.000575 0.018281 0.002596
# 6 0.001065 -0.001298 -0.001737 0.014458 0.002596 0.030050
#
#
# Mechanical properties :
#
#
# Convention : Reuss Voigt Hill
#
# Bulk Modulus (GPa) = 44.37444 65.53136 54.95290
# Shear Modulus (GPa) = 24.44776 35.46014 29.95395
#
# Velocity S-wave (km/s) = 3.15832 3.80370 3.49593
# Velocity P-wave (km/s) = 5.60404 6.78442 6.22228
#
# Compressibility (1/GPa) = 0.02253550
#
# Stress axis : x y z
#
# Youngs Moduli (GPa) = 47.00681 41.65057 66.17794
#
# Poissons Ratio (x) = 0.11374 0.78083
# Poissons Ratio (y) = 0.12837 0.29112
# Poissons Ratio (z) = 0.55463 0.18323
#
# Static dielectric constant tensor:
#      x y z
#    x 1.947050 -0.004280 -0.006520 
#    y -0.004280 1.975500 0.027470 
#    z -0.006520 0.027470 1.969520 
# 
# From -- ./inp_files/603441.got.cif
#   From: 2010.05.17/outbox.cif.g08.bks.cpg/sg2_302_cif.got.tgz:603441.got - 2010.06.03 11:33:40.
