data_PCOD9018528
_publ_section_title
;
Structure prediction by ZEFSAII (Michael W. Deem and Ramdas Pophale) SiO2 
 PCOD9018528
Probable space group: P -1
;
_chemical_formula_sum "Si O2"
_cell_formula_units_Z 14
_cell_length_a 12.222125
_cell_length_b 6.995289
_cell_length_c 12.749447
_cell_angle_alpha 71.526528
_cell_angle_beta 145.747815
_cell_angle_gamma 98.666829
_cell_volume 569.132060
_symmetry_space_group_name_H-M "P -1"
_symmetry_group_IT_number 2
_symmetry_cell_setting 'triclinic'
loop_
_space_group_symop_operation_xyz
x,y,z
-x,-y,-z
loop_
_atom_site_type_symbol
_atom_site_label
_atom_site_fract_x
_atom_site_fract_y
_atom_site_fract_z
Si Si1 0.664645 0.242459 0.110618
Si Si2 0.800123 0.915297 0.831516
Si Si3 0.974450 0.617625 0.590673
Si Si4 0.377340 0.425304 0.158584
Si Si5 0.948997 0.627853 0.806147
Si Si6 0.762138 0.791204 0.193077
Si Si7 0.343161 0.645511 0.421634
O O1 0.610799 0.444096 0.959086
O O2 0.464619 0.214646 0.012828
O O3 0.838385 0.286096 0.315142
O O4 0.755356 0.034355 0.153167
O O5 0.698657 0.791285 0.859828
O O6 0.839871 0.774641 0.783282
O O7 0.653662 0.124760 0.646841
O O8 0.000000 0.000000 0.000000
O O9 0.068020 0.370492 0.706587
O O10 0.927934 0.702876 0.655921
O O11 0.801601 0.699366 0.358470
O O12 0.576991 0.397857 0.389265
O O13 0.181145 0.572331 0.029127
O O14 0.861268 0.422417 0.757047
O O15 0.500000 0.500000 0.500000
#
# Coordination Sequence:
#
# PCOD9018528 Si02
#       7
#     2   2   2   2   2   2   2
#     4  10  22  41  66  99 132 169 224 267 335 392
#     4  12  24  44  70  93 138 184 219 273 333 390
#     4  10  22  41  68  99 132 170 223 267 332 396
#     4  11  23  43  64 101 135 173 221 275 324 403
#     4  11  24  43  64 103 135 172 223 275 324 406
#     4  10  21  43  71  94 131 176 212 282 334 389
#     4  12  24  42  68  93 135 175 222 277 329 393
#
# _framework density 24.598860999999999
#
# number of rings (size 3 to 8) (size 9 to 14) (size 15 to 20)
#    0.000    1.143    2.857    3.429    0.000    2.286 
#    5.143    7.143    0.000    0.000    0.000    0.000 
#    0.000    0.000    0.000    0.000    0.000    0.000 
#
# Total GULP energy -78171.891873 kJ/mol
# GULP energy per Si atom -5583.706562 kJ/mol
# Density = 2.454287 g / cm^3
# Si number density = 24.598861 Si / 1000 Ang^3
#
#
#
# Elastic Constant Matrix: (Units=GPa)
#
#
# Indices 1 2 3 4 5 6 
#
# 1 54.0807 32.8556 -1.2031 -2.0957 -9.4697 0.9119
# 2 32.8556 160.5217 25.3389 -9.7964 -0.9133 0.6274
# 3 -1.2031 25.3389 58.9649 3.4262 -3.0582 -5.3171
# 4 -2.0957 -9.7964 3.4262 46.4662 4.5313 1.9990
# 5 -9.4697 -0.9133 -3.0582 4.5313 30.9825 1.1591
# 6 0.9119 0.6274 -5.3171 1.9990 1.1591 26.1984
#
#
#
# Elastic Compliance Matrix: (Units=1/GPa)
#
#
# Indices 1 2 3 4 5 6 
#
# 1 0.022978 -0.005214 0.003122 -0.000996 0.007334 -0.000290
# 2 -0.005214 0.008016 -0.003846 0.001970 -0.001993 -0.000853
# 3 0.003122 -0.003846 0.019337 -0.002557 0.002975 0.003971
# 4 -0.000996 0.001970 -0.002557 0.022532 -0.003716 -0.002086
# 5 0.007334 -0.001993 0.002975 -0.003716 0.035329 -0.000883
# 6 -0.000290 -0.000853 0.003971 -0.002086 -0.000883 0.039205
#
#
# Mechanical properties :
#
#
# Convention : Reuss Voigt Hill
#
# Bulk Modulus (GPa) = 26.00466 43.06114 34.53290
# Shear Modulus (GPa) = 29.05417 35.16781 32.11099
#
# Velocity S-wave (km/s) = 3.44047 3.78518 3.61693
# Velocity P-wave (km/s) = 5.13584 6.05366 5.61354
#
# Compressibility (1/GPa) = 0.03845464
#
# Stress axis : x y z
#
# Youngs Moduli (GPa) = 43.51900 124.74822 51.71546
#
# Poissons Ratio (x) = 0.65042 -0.16143
# Poissons Ratio (y) = 0.22690 0.19889
# Poissons Ratio (z) = -0.13584 0.47977
#
# Static dielectric constant tensor:
#      x y z
#    x 2.014230 0.020290 0.003100 
#    y 0.020290 1.971360 0.025910 
#    z 0.003100 0.025910 1.984280 
# 
# From -- ./inp_files/78520.got.cif
#   From: 2010.05.17/outbox.cif.g08.bks.cpg/sg2_40_cif.got.tgz:78520.got - 2010.06.03 11:33:40.
