data_PCOD9018815
_publ_section_title
;
Structure prediction by ZEFSAII (Michael W. Deem and Ramdas Pophale) SiO2 
 PCOD9018815
Probable space group: P -1
;
_chemical_formula_sum "Si O2"
_cell_formula_units_Z 15
_cell_length_a 15.709979
_cell_length_b 9.131596
_cell_length_c 13.671783
_cell_angle_alpha 106.887614
_cell_angle_beta 27.965178
_cell_angle_gamma 87.441847
_cell_volume 652.315381
_symmetry_space_group_name_H-M "P -1"
_symmetry_group_IT_number 2
_symmetry_cell_setting 'triclinic'
loop_
_space_group_symop_operation_xyz
x,y,z
-x,-y,-z
loop_
_atom_site_type_symbol
_atom_site_label
_atom_site_fract_x
_atom_site_fract_y
_atom_site_fract_z
Si Si1 0.440779 0.633050 0.806339
Si Si2 0.215064 0.312236 0.593971
Si Si3 0.000000 0.500000 0.500000
Si Si4 0.489675 0.669604 0.989839
Si Si5 0.866403 0.713068 0.895710
Si Si6 0.652538 0.963990 0.431616
Si Si7 0.176679 0.830786 0.652391
Si Si8 0.860289 0.963224 0.465024
O O1 0.550582 0.709556 0.647544
O O2 0.511584 0.632118 0.845700
O O3 0.591235 0.394566 0.586187
O O4 0.151615 0.780782 0.124532
O O5 0.994985 0.531016 0.810884
O O6 0.190201 0.254516 0.715572
O O7 0.245451 0.146706 0.461461
O O8 0.708717 0.644250 0.806667
O O9 0.050503 0.385475 0.316207
O O10 0.500000 0.500000 0.000000
O O11 0.237936 0.900582 0.312261
O O12 0.963897 0.827074 0.849422
O O13 0.575653 0.867954 0.232198
O O14 0.829164 0.009954 0.247892
O O15 0.500000 0.000000 0.500000
O O16 0.217037 0.878692 0.512534
#
# Coordination Sequence:
#
# PCOD9018815 Si02
#       8
#     2   2   1   2   2   2   2   2
#     4  11  22  41  61  91 132 174 220 273 323 388
#     4  10  23  42  63  97 128 169 226 274 334 394
#     4  12  22  40  68  92 138 184 216 258 328 394
#     4  12  24  37  59  93 129 185 227 260 322 387
#     4  11  23  43  67  94 137 177 217 274 325 401
#     4  11  25  45  71  97 128 171 223 285 343 393
#     4  10  21  44  64  93 132 172 215 274 338 393
#     4  11  22  37  61  90 130 174 222 270 318 391
#
# _framework density 22.995013
#
# number of rings (size 3 to 8) (size 9 to 14) (size 15 to 20)
#    0.000    1.067    4.000    3.600    1.867    2.667 
#    4.800    2.667    0.000    0.000    0.000    0.000 
#    0.000    0.000    0.000    0.000    0.000    0.000 
#
# Total GULP energy -83543.419040 kJ/mol
# GULP energy per Si atom -5569.561269 kJ/mol
# Density = 2.294268 g / cm^3
# Si number density = 22.995013 Si / 1000 Ang^3
#
#
#
# Elastic Constant Matrix: (Units=GPa)
#
#
# Indices 1 2 3 4 5 6 
#
# 1 105.5607 38.6689 -2.0803 -3.6671 -20.7870 9.7579
# 2 38.6689 133.5033 13.3946 -0.3707 -12.0555 0.1707
# 3 -2.0803 13.3946 81.0890 -5.6472 -23.5653 -1.9422
# 4 -3.6671 -0.3707 -5.6472 20.9247 1.3123 -6.3596
# 5 -20.7870 -12.0555 -23.5653 1.3123 25.2571 -3.3788
# 6 9.7579 0.1707 -1.9422 -6.3596 -3.3788 12.6043
#
#
#
# Elastic Compliance Matrix: (Units=1/GPa)
#
#
# Indices 1 2 3 4 5 6 
#
# 1 0.014041 -0.003309 0.004790 0.001044 0.013601 -0.005914
# 2 -0.003309 0.008621 -0.001325 -0.000112 0.000471 0.002310
# 3 0.004790 -0.001325 0.020094 0.007663 0.022920 0.009416
# 4 0.001044 -0.000112 0.007663 0.059442 0.009262 0.032849
# 5 0.013601 0.000471 0.022920 0.009262 0.074265 0.017578
# 6 -0.005914 0.002310 0.009416 0.032849 0.017578 0.106623
#
#
# Mechanical properties :
#
#
# Convention : Reuss Voigt Hill
#
# Bulk Modulus (GPa) = 23.21849 46.67994 34.94922
# Shear Modulus (GPa) = 16.82770 29.76852 23.29811
#
# Velocity S-wave (km/s) = 2.70811 3.60191 3.18650
# Velocity P-wave (km/s) = 4.46067 6.13534 5.36377
#
# Compressibility (1/GPa) = 0.04306912
#
# Stress axis : x y z
#
# Youngs Moduli (GPa) = 71.22015 115.99560 49.76684
#
# Poissons Ratio (x) = 0.38382 -0.23840
# Poissons Ratio (y) = 0.23566 0.06592
# Poissons Ratio (z) = -0.34117 0.15365
#
# Static dielectric constant tensor:
#      x y z
#    x 1.864050 0.020350 0.035550 
#    y 0.020350 1.770540 0.012180 
#    z 0.035550 0.012180 1.854350 
# 
# From -- ./inp_files/529951.got.cif
#   From: 2010.05.17/outbox.cif.g08.bks.cpg/sg2_265_cif.got.tgz:529951.got - 2010.06.03 11:33:40.
