data_PCOD9018335
_publ_section_title
;
Structure prediction by ZEFSAII (Michael W. Deem and Ramdas Pophale) SiO2 
 PCOD9018335
Probable space group: P -1
;
_chemical_formula_sum "Si O2"
_cell_formula_units_Z 16
_cell_length_a 19.202784
_cell_length_b 9.684995
_cell_length_c 18.422210
_cell_angle_alpha 143.565867
_cell_angle_beta 151.509631
_cell_angle_gamma 26.068391
_cell_volume 716.331901
_symmetry_space_group_name_H-M "P -1"
_symmetry_group_IT_number 2
_symmetry_cell_setting 'triclinic'
loop_
_space_group_symop_operation_xyz
x,y,z
-x,-y,-z
loop_
_atom_site_type_symbol
_atom_site_label
_atom_site_fract_x
_atom_site_fract_y
_atom_site_fract_z
Si Si1 0.543478 0.280774 0.880419
Si Si2 0.341098 0.282168 0.573283
Si Si3 0.693031 0.553467 0.070317
Si Si4 0.764426 0.637091 0.646292
Si Si5 0.421913 0.163257 0.168370
Si Si6 0.320484 0.713496 0.482076
Si Si7 0.104743 0.648966 0.976622
Si Si8 0.948242 0.725060 0.614134
O O1 0.358104 0.434184 0.722049
O O2 0.608932 0.963350 0.840823
O O3 0.500000 0.500000 0.000000
O O4 0.686012 0.282952 0.962417
O O5 0.225557 0.460429 0.469283
O O6 0.236150 0.170506 0.463878
O O7 0.564667 0.999384 0.631739
O O8 0.738887 0.562683 0.034114
O O9 0.870457 0.444529 0.238230
O O10 0.499429 0.891756 0.065851
O O11 0.729055 0.451984 0.584745
O O12 0.947533 0.608410 0.817719
O O13 0.601052 0.151075 0.341915
O O14 0.233011 0.503256 0.106818
O O15 0.500000 0.500000 0.500000
O O16 0.125987 0.967316 0.363795
O O17 0.000000 0.000000 0.000000
O O18 0.000000 0.500000 0.500000
#
# Coordination Sequence:
#
# PCOD9018335 Si02
#       8
#     2   2   2   2   2   2   2   2
#     4  10  21  43  69  99 135 187 227 282 345 407
#     4  11  22  46  70  98 144 178 235 289 348 415
#     4  11  24  45  69  99 141 188 224 290 348 412
#     4  11  26  44  69 104 139 185 230 286 357 416
#     4  11  25  46  68 102 141 181 234 287 350 410
#     4  12  25  44  72 102 139 183 231 290 344 418
#     4  12  28  46  69 102 139 183 235 286 351 421
#     4  12  22  44  71 101 138 179 236 282 345 413
#
# _framework density 22.336013999999999
#
# number of rings (size 3 to 8) (size 9 to 14) (size 15 to 20)
#    0.000    0.750    5.000    1.875    8.750    0.000 
#    0.000    3.125    0.000    0.000    0.000    0.000 
#    0.000    0.000    0.000    0.000    0.000    0.000 
#
# Total GULP energy -89317.309350 kJ/mol
# GULP energy per Si atom -5582.331834 kJ/mol
# Density = 2.228518 g / cm^3
# Si number density = 22.336014 Si / 1000 Ang^3
#
#
#
# Elastic Constant Matrix: (Units=GPa)
#
#
# Indices 1 2 3 4 5 6 
#
# 1 118.4479 19.9845 42.0746 9.4149 10.2604 23.1686
# 2 19.9845 50.4528 14.3403 0.1969 -8.9819 9.2637
# 3 42.0746 14.3403 105.9864 2.0916 3.3945 24.5582
# 4 9.4149 0.1969 2.0916 30.9980 5.3685 2.6786
# 5 10.2604 -8.9819 3.3945 5.3685 44.9742 -1.9957
# 6 23.1686 9.2637 24.5582 2.6786 -1.9957 22.0945
#
#
#
# Elastic Compliance Matrix: (Units=1/GPa)
#
#
# Indices 1 2 3 4 5 6 
#
# 1 0.011902 -0.003064 -0.002099 -0.002111 -0.003312 -0.008906
# 2 -0.003064 0.023131 -0.000914 0.000396 0.005116 -0.005056
# 3 -0.002099 -0.000914 0.013301 0.001062 -0.001387 -0.012455
# 4 -0.002111 0.000396 0.001062 0.033777 -0.003710 -0.003564
# 5 -0.003312 0.005116 -0.001387 -0.003710 0.024807 0.005560
# 6 -0.008906 -0.005056 -0.012455 -0.003564 0.005560 0.071497
#
#
# Mechanical properties :
#
#
# Convention : Reuss Voigt Hill
#
# Bulk Modulus (GPa) = 27.63814 47.52066 37.57940
# Shear Modulus (GPa) = 24.67570 32.84583 28.76076
#
# Velocity S-wave (km/s) = 3.32738 3.83891 3.59226
# Velocity P-wave (km/s) = 5.21178 6.40088 5.83669
#
# Compressibility (1/GPa) = 0.03618189
#
# Stress axis : x y z
#
# Youngs Moduli (GPa) = 84.02153 43.23130 75.18055
#
# Poissons Ratio (x) = 0.13246 0.15779
# Poissons Ratio (y) = 0.25743 0.06868
# Poissons Ratio (z) = 0.17635 0.03949
#
# Static dielectric constant tensor:
#      x y z
#    x 1.871120 -0.046170 -0.020520 
#    y -0.046170 1.911850 0.021600 
#    z -0.020520 0.021600 1.886800 
# 
# From -- ./inp_files/298826.got.cif
#   From: 2010.05.17/outbox.cif.g08.bks.cpg/sg2_150_cif.got.tgz:298826.got - 2010.06.03 11:33:40.
