data_PCOD9018926
_publ_section_title
;
Structure prediction by ZEFSAII (Michael W. Deem and Ramdas Pophale) SiO2 
 PCOD9018926
Probable space group: P -1
;
_chemical_formula_sum "Si O2"
_cell_formula_units_Z 16
_cell_length_a 7.781637
_cell_length_b 19.663434
_cell_length_c 8.017932
_cell_angle_alpha 147.183595
_cell_angle_beta 82.889660
_cell_angle_gamma 96.382025
_cell_volume 659.720575
_symmetry_space_group_name_H-M "P -1"
_symmetry_group_IT_number 2
_symmetry_cell_setting 'triclinic'
loop_
_space_group_symop_operation_xyz
x,y,z
-x,-y,-z
loop_
_atom_site_type_symbol
_atom_site_label
_atom_site_fract_x
_atom_site_fract_y
_atom_site_fract_z
Si Si1 0.202875 0.053480 0.246946
Si Si2 0.316723 0.605336 0.759607
Si Si3 0.510146 0.621788 0.134703
Si Si4 0.215225 0.793563 0.558525
Si Si5 0.869195 0.150018 0.670091
Si Si6 0.320892 0.335799 0.284633
Si Si7 0.836149 0.715080 0.447218
Si Si8 0.334372 0.061077 0.565053
O O1 0.203836 0.136047 0.251758
O O2 0.365342 0.066805 0.374931
O O3 0.056625 0.118455 0.511726
O O4 0.168665 0.909314 0.918883
O O5 0.258557 0.460736 0.452906
O O6 0.470570 0.643337 0.693313
O O7 0.416987 0.610923 0.941603
O O8 0.168669 0.708723 0.973833
O O9 0.387314 0.724370 0.447857
O O10 0.712499 0.661082 0.203674
O O11 0.500000 0.500000 0.000000
O O12 0.240901 0.852125 0.492554
O O13 0.043658 0.703510 0.382446
O O14 0.809521 0.044095 0.586657
O O15 0.231587 0.336534 0.476525
O O16 0.294972 0.199101 0.924375
O O17 0.500000 0.000000 0.500000
#
# Coordination Sequence:
#
# PCOD9018926 Si02
#       8
#     2   2   2   2   2   2   2   2
#     4  11  24  43  66  98 135 169 218 282 334 397
#     4  10  22  41  65  95 135 175 219 281 331 387
#     4  11  23  42  67  98 132 175 224 272 326 399
#     4  10  24  43  68 100 137 168 218 284 334 391
#     4  10  21  44  66  93 134 169 215 284 334 386
#     4  11  22  41  64  94 134 177 221 272 330 398
#     4  11  23  42  71  98 130 174 223 269 340 397
#     4  12  24  38  66  96 128 174 225 263 330 399
#
# _framework density 24.252692
#
# number of rings (size 3 to 8) (size 9 to 14) (size 15 to 20)
#    0.000    1.250    2.500    4.125    3.500    1.000 
#    2.250    0.625    0.000    0.000    0.000    0.000 
#    0.000    0.000    0.000    0.000    0.000    0.000 
#
# Total GULP energy -89350.364666 kJ/mol
# GULP energy per Si atom -5584.397792 kJ/mol
# Density = 2.419749 g / cm^3
# Si number density = 24.252692 Si / 1000 Ang^3
#
#
#
# Elastic Constant Matrix: (Units=GPa)
#
#
# Indices 1 2 3 4 5 6 
#
# 1 76.6941 13.4639 14.3531 14.5214 -5.5336 2.1603
# 2 13.4639 104.3019 15.6631 21.4908 -2.8866 9.5533
# 3 14.3531 15.6631 114.6170 34.1385 -14.1086 -5.3486
# 4 14.5214 21.4908 34.1385 34.8081 -7.8666 1.3190
# 5 -5.5336 -2.8866 -14.1086 -7.8666 31.9107 -0.0673
# 6 2.1603 9.5533 -5.3486 1.3190 -0.0673 30.1075
#
#
#
# Elastic Compliance Matrix: (Units=1/GPa)
#
#
# Indices 1 2 3 4 5 6 
#
# 1 0.014249 -0.000674 -0.000025 -0.005232 0.001108 -0.000581
# 2 -0.000674 0.011363 0.000447 -0.007206 -0.000674 -0.003164
# 3 -0.000025 0.000447 0.012784 -0.012304 0.002661 0.002676
# 4 -0.005232 -0.007206 -0.012304 0.048615 0.004982 -0.001643
# 5 0.001108 -0.000674 0.002661 0.004982 0.033874 0.000465
# 6 -0.000581 -0.003164 0.002676 -0.001643 0.000465 0.034808
#
#
# Mechanical properties :
#
#
# Convention : Reuss Voigt Hill
#
# Bulk Modulus (GPa) = 26.39033 42.50813 34.44923
# Shear Modulus (GPa) = 29.61611 36.17412 32.89511
#
# Velocity S-wave (km/s) = 3.49828 3.86625 3.68686
# Velocity P-wave (km/s) = 5.21750 6.12338 5.68850
#
# Compressibility (1/GPa) = 0.03789267
#
# Stress axis : x y z
#
# Youngs Moduli (GPa) = 70.18237 88.00362 78.22469
#
# Poissons Ratio (x) = 0.05929 0.00194
# Poissons Ratio (y) = 0.04728 -0.03497
# Poissons Ratio (z) = 0.00174 -0.03934
#
# Static dielectric constant tensor:
#      x y z
#    x 1.994400 0.003010 0.020530 
#    y 0.003010 1.940210 0.001820 
#    z 0.020530 0.001820 1.987390 
# 
# From -- ./inp_files/222745.got.cif
#   From: 2010.05.17/outbox.cif.g08.bks.cpg/sg2_112_cif.got.tgz:222745.got - 2010.06.03 11:33:40.
