data_PCOD9018509
_publ_section_title
;
Structure prediction by ZEFSAII (Michael W. Deem and Ramdas Pophale) SiO2 
 PCOD9018509
Probable space group: P -1
;
_chemical_formula_sum "Si O2"
_cell_formula_units_Z 14
_cell_length_a 7.554534
_cell_length_b 10.421338
_cell_length_c 15.901639
_cell_angle_alpha 30.808679
_cell_angle_beta 87.969494
_cell_angle_gamma 76.204918
_cell_volume 585.487231
_symmetry_space_group_name_H-M "P -1"
_symmetry_group_IT_number 2
_symmetry_cell_setting 'triclinic'
loop_
_space_group_symop_operation_xyz
x,y,z
-x,-y,-z
loop_
_atom_site_type_symbol
_atom_site_label
_atom_site_fract_x
_atom_site_fract_y
_atom_site_fract_z
Si Si1 0.388398 0.286245 0.392591
Si Si2 0.209135 0.678691 0.453061
Si Si3 0.298677 0.758682 0.867140
Si Si4 0.063132 0.122933 0.509181
Si Si5 0.514563 0.839605 0.341744
Si Si6 0.991247 0.984956 0.143147
Si Si7 0.325183 0.898802 0.053687
O O1 0.433621 0.242744 0.515404
O O2 0.185813 0.960689 0.104391
O O3 0.500000 0.000000 0.500000
O O4 0.169122 0.315515 0.371209
O O5 0.286758 0.918416 0.302896
O O6 0.388911 0.398183 0.593507
O O7 0.059978 0.732056 0.349835
O O8 0.121393 0.702458 0.531242
O O9 0.198112 0.889191 0.705719
O O10 0.407858 0.570415 0.214033
O O11 0.500000 0.500000 0.000000
O O12 0.135890 0.760818 0.935361
O O13 0.000000 0.000000 0.500000
O O14 0.613112 0.040985 0.207714
O O15 0.840032 0.963016 0.091310
O O16 0.500000 0.000000 0.000000
#
# Coordination Sequence:
#
# PCOD9018509 Si02
#       7
#     2   2   2   2   2   2   2
#     4  11  24  44  68 103 146 189 246 301 369 440
#     4  10  21  43  71 107 134 188 247 301 357 449
#     4  10  24  44  70 103 150 194 239 304 371 451
#     4  10  23  45  71 107 146 191 241 308 372 443
#     4  10  22  40  74  99 141 189 241 296 373 434
#     4  10  24  46  68 106 144 192 251 303 366 452
#     4  11  26  48  73 104 151 199 248 311 371 438
#
# _framework density 23.911711
#
# number of rings (size 3 to 8) (size 9 to 14) (size 15 to 20)
#    0.000    1.714    1.429    0.857    8.000    1.714 
#   10.286    1.429    0.000    0.000    0.000    0.000 
#    0.000    0.000    0.000    0.000    0.000    0.000 
#
# Total GULP energy -78088.983654 kJ/mol
# GULP energy per Si atom -5577.784547 kJ/mol
# Density = 2.385729 g / cm^3
# Si number density = 23.911711 Si / 1000 Ang^3
#
#
#
# Elastic Constant Matrix: (Units=GPa)
#
#
# Indices 1 2 3 4 5 6 
#
# 1 185.3969 88.5408 46.6370 -14.9387 -4.9786 -4.4987
# 2 88.5408 159.0527 39.8617 -8.2304 -9.0427 -16.9822
# 3 46.6370 39.8617 36.1511 -10.1710 -2.3827 0.8432
# 4 -14.9387 -8.2304 -10.1710 31.4110 -6.7157 11.8625
# 5 -4.9786 -9.0427 -2.3827 -6.7157 22.7165 -2.5914
# 6 -4.4987 -16.9822 0.8432 11.8625 -2.5914 46.0141
#
#
#
# Elastic Compliance Matrix: (Units=1/GPa)
#
#
# Indices 1 2 3 4 5 6 
#
# 1 0.008855 -0.002922 -0.007878 0.001069 0.000229 -0.000331
# 2 -0.002922 0.010543 -0.008535 -0.002600 0.002414 0.004568
# 3 -0.007878 -0.008535 0.051843 0.014801 0.003722 -0.008476
# 4 0.001069 -0.002600 0.014801 0.043478 0.012277 -0.011643
# 5 0.000229 0.002414 0.003722 0.012277 0.049103 0.000445
# 6 -0.000331 0.004568 -0.008476 -0.011643 0.000445 0.026568
#
#
# Mechanical properties :
#
#
# Convention : Reuss Voigt Hill
#
# Bulk Modulus (GPa) = 30.70167 81.18662 55.94415
# Shear Modulus (GPa) = 20.84043 33.73239 27.28641
#
# Velocity S-wave (km/s) = 2.95542 3.76001 3.38173
# Velocity P-wave (km/s) = 4.95111 7.27163 6.22053
#
# Compressibility (1/GPa) = 0.03257151
#
# Stress axis : x y z
#
# Youngs Moduli (GPa) = 112.92465 94.84704 19.28890
#
# Poissons Ratio (x) = 0.27715 0.15197
# Poissons Ratio (y) = 0.32998 0.16462
# Poissons Ratio (z) = 0.88968 0.80949
#
# Static dielectric constant tensor:
#      x y z
#    x 2.017840 0.035970 -0.021510 
#    y 0.035970 2.015090 -0.091050 
#    z -0.021510 -0.091050 2.156420 
# 
# From -- ./inp_files/494393.got.cif
#   From: 2010.05.17/outbox.cif.g08.bks.cpg/sg2_248_cif.got.tgz:494393.got - 2010.06.03 11:33:40.
