data_PCOD9018499
_publ_section_title
;
Structure prediction by ZEFSAII (Michael W. Deem and Ramdas Pophale) SiO2 
 PCOD9018499
Probable space group: P -1
;
_chemical_formula_sum "Si O2"
_cell_formula_units_Z 14
_cell_length_a 11.693735
_cell_length_b 11.567667
_cell_length_c 9.145628
_cell_angle_alpha 37.956131
_cell_angle_beta 57.770989
_cell_angle_gamma 48.354342
_cell_volume 568.480692
_symmetry_space_group_name_H-M "P -1"
_symmetry_group_IT_number 2
_symmetry_cell_setting 'triclinic'
loop_
_space_group_symop_operation_xyz
x,y,z
-x,-y,-z
loop_
_atom_site_type_symbol
_atom_site_label
_atom_site_fract_x
_atom_site_fract_y
_atom_site_fract_z
Si Si1 0.744030 0.471557 0.081621
Si Si2 0.094260 0.853434 0.213445
Si Si3 0.452858 0.245045 0.818399
Si Si4 0.645143 0.142219 0.398056
Si Si5 0.776782 0.137197 0.600043
Si Si6 0.699473 0.589003 0.533159
Si Si7 0.843088 0.718756 0.548491
O O1 0.608126 0.664809 0.069837
O O2 0.683769 0.337412 0.157402
O O3 0.829343 0.295321 0.326292
O O4 0.829350 0.563356 0.831913
O O5 0.122957 0.965311 0.223471
O O6 0.250199 0.660430 0.240186
O O7 0.994188 0.741025 0.443592
O O8 0.000000 0.000000 0.000000
O O9 0.602995 0.267552 0.649952
O O10 0.320109 0.364161 0.671863
O O11 0.500000 0.000000 0.000000
O O12 0.745663 0.024630 0.594085
O O13 0.466256 0.255386 0.441364
O O14 0.704810 0.959154 0.422028
O O15 0.819245 0.640518 0.485076
#
# Coordination Sequence:
#
# PCOD9018499 Si02
#       7
#     2   2   2   2   2   2   2
#     4  10  21  43  71 104 138 177 237 301 348 406
#     4  12  28  47  70  99 149 198 236 280 360 439
#     4  11  21  41  78 109 134 185 247 299 350 412
#     4   9  22  46  75 105 134 180 238 302 356 399
#     4   9  21  45  70 101 135 187 242 286 345 418
#     4  11  23  49  69 104 148 181 242 295 348 430
#     4  12  27  44  68 114 146 186 231 287 377 421
#
# _framework density 24.627044999999999
#
# number of rings (size 3 to 8) (size 9 to 14) (size 15 to 20)
#    0.857    0.571    1.429    3.857    4.000    1.714 
#    2.571    0.000    0.000    0.000    0.000    0.000 
#    0.000    0.000    0.000    0.000    0.000    0.000 
#
# Total GULP energy -78195.854937 kJ/mol
# GULP energy per Si atom -5585.418210 kJ/mol
# Density = 2.457099 g / cm^3
# Si number density = 24.627045 Si / 1000 Ang^3
#
#
#
# Elastic Constant Matrix: (Units=GPa)
#
#
# Indices 1 2 3 4 5 6 
#
# 1 110.6253 8.4245 37.9624 10.3071 16.9736 9.1896
# 2 8.4245 77.7843 4.2204 -11.5720 10.7245 15.0605
# 3 37.9624 4.2204 95.6246 2.4182 3.9313 3.3283
# 4 10.3071 -11.5720 2.4182 36.4246 -10.5222 -4.1122
# 5 16.9736 10.7245 3.9313 -10.5222 30.3461 -5.0772
# 6 9.1896 15.0605 3.3283 -4.1122 -5.0772 30.0226
#
#
#
# Elastic Compliance Matrix: (Units=1/GPa)
#
#
# Indices 1 2 3 4 5 6 
#
# 1 0.013403 0.000482 -0.004490 -0.007177 -0.010685 -0.006637
# 2 0.000482 0.015738 -0.000358 0.001990 -0.006575 -0.008842
# 3 -0.004490 -0.000358 0.012156 0.000831 0.001446 0.000565
# 4 -0.007177 0.001990 0.000831 0.036041 0.017198 0.008952
# 5 -0.010685 -0.006575 0.001446 0.017198 0.049907 0.017204
# 6 -0.006637 -0.008842 0.000565 0.008952 0.017204 0.043848
#
#
# Mechanical properties :
#
#
# Convention : Reuss Voigt Hill
#
# Bulk Modulus (GPa) = 30.70896 42.80542 36.75719
# Shear Modulus (GPa) = 26.22196 34.92045 30.57120
#
# Velocity S-wave (km/s) = 3.26661 3.76968 3.52713
# Velocity P-wave (km/s) = 5.16956 6.03047 5.61653
#
# Compressibility (1/GPa) = 0.03256379
#
# Stress axis : x y z
#
# Youngs Moduli (GPa) = 74.60947 63.54176 82.26448
#
# Poissons Ratio (x) = -0.03065 0.36941
# Poissons Ratio (y) = -0.03599 0.02948
# Poissons Ratio (z) = 0.33503 0.02277
#
# Static dielectric constant tensor:
#      x y z
#    x 1.929420 -0.043180 0.014960 
#    y -0.043180 1.985960 -0.026750 
#    z 0.014960 -0.026750 1.992520 
# 
# From -- ./inp_files/261284.got.cif
#   From: 2010.05.17/outbox.cif.g08.bks.cpg/sg2_131_cif.got.tgz:261284.got - 2010.06.03 11:33:40.
