data_PCOD9018352
_publ_section_title
;
Structure prediction by ZEFSAII (Michael W. Deem and Ramdas Pophale) SiO2 
 PCOD9018352
Probable space group: P -1
;
_chemical_formula_sum "Si O2"
_cell_formula_units_Z 16
_cell_length_a 22.542178
_cell_length_b 5.370434
_cell_length_c 24.830829
_cell_angle_alpha 124.478063
_cell_angle_beta 161.346593
_cell_angle_gamma 46.392563
_cell_volume 644.709144
_symmetry_space_group_name_H-M "P -1"
_symmetry_group_IT_number 2
_symmetry_cell_setting 'triclinic'
loop_
_space_group_symop_operation_xyz
x,y,z
-x,-y,-z
loop_
_atom_site_type_symbol
_atom_site_label
_atom_site_fract_x
_atom_site_fract_y
_atom_site_fract_z
Si Si1 0.790273 0.443657 0.676325
Si Si2 0.921015 0.526417 0.995632
Si Si3 0.584214 0.375279 0.820337
Si Si4 0.067733 0.270568 0.380205
Si Si5 0.020707 0.589439 0.797737
Si Si6 0.232988 0.621844 0.637807
Si Si7 0.436367 0.420789 0.993067
Si Si8 0.471803 0.540485 0.339971
O O1 0.917203 0.443485 0.731216
O O2 0.535899 0.651939 0.462839
O O3 0.875888 0.041717 0.725342
O O4 0.853980 0.634370 0.797050
O O5 0.775130 0.367616 0.855838
O O6 0.746649 0.940259 0.921686
O O7 0.000000 0.500000 0.000000
O O8 0.358893 0.612519 0.690726
O O9 0.526675 0.344853 0.705667
O O10 0.737484 0.525414 0.983704
O O11 0.987110 0.507919 0.283496
O O12 0.141179 0.382863 0.510545
O O13 0.836327 0.306509 0.198728
O O14 0.310377 0.893015 0.527386
O O15 0.419909 0.522701 0.832256
O O16 0.000000 0.000000 0.500000
O O17 0.500000 0.500000 0.000000
O O18 0.500000 0.000000 0.000000
#
# Coordination Sequence:
#
# PCOD9018352 Si02
#       8
#     2   2   2   2   2   2   2   2
#     4  10  23  42  69 104 139 183 234 287 354 424
#     4  11  25  47  70 104 144 186 238 300 361 431
#     4  11  23  45  73 101 142 188 239 294 363 425
#     4  11  24  45  72 103 143 190 241 292 360 428
#     4  10  21  43  70 100 139 184 232 291 351 419
#     4  12  25  45  74 106 142 192 241 295 355 429
#     4  12  29  49  68 106 147 188 241 303 357 422
#     4  11  24  42  75 102 140 190 239 294 360 434
#
# _framework density 24.817392000000002
#
# number of rings (size 3 to 8) (size 9 to 14) (size 15 to 20)
#    0.000    1.000    5.000    0.750    3.500    4.500 
#    0.000    0.625    0.000    0.000    0.000    0.000 
#    0.000    0.000    0.000    0.000    0.000    0.000 
#
# Total GULP energy -89326.629355 kJ/mol
# GULP energy per Si atom -5582.914335 kJ/mol
# Density = 2.476091 g / cm^3
# Si number density = 24.817392 Si / 1000 Ang^3
#
#
#
# Elastic Constant Matrix: (Units=GPa)
#
#
# Indices 1 2 3 4 5 6 
#
# 1 113.1659 18.4197 7.3020 7.4013 -23.1783 1.4593
# 2 18.4197 89.7745 44.8520 -0.6111 -4.4625 -9.7919
# 3 7.3020 44.8520 129.8974 13.7956 -49.6438 -26.6905
# 4 7.4013 -0.6111 13.7956 47.1477 -23.6282 -8.3818
# 5 -23.1783 -4.4625 -49.6438 -23.6282 47.2509 8.5021
# 6 1.4593 -9.7919 -26.6905 -8.3818 8.5021 26.2988
#
#
#
# Elastic Compliance Matrix: (Units=1/GPa)
#
#
# Indices 1 2 3 4 5 6 
#
# 1 0.011471 -0.004294 0.005081 0.002590 0.011871 -0.000091
# 2 -0.004294 0.016242 -0.009783 -0.002318 -0.011915 -0.000530
# 3 0.005081 -0.009783 0.023342 0.008677 0.028006 0.013476
# 4 0.002590 -0.002318 0.008677 0.032322 0.024499 0.010181
# 5 0.011871 -0.011915 0.028006 0.024499 0.065760 0.009877
# 6 -0.000091 -0.000530 0.013476 0.010181 0.009877 0.051561
#
#
# Mechanical properties :
#
#
# Convention : Reuss Voigt Hill
#
# Bulk Modulus (GPa) = 30.24625 52.66502 41.45564
# Shear Modulus (GPa) = 21.76650 41.62373 31.69512
#
# Velocity S-wave (km/s) = 2.96474 4.09981 3.57758
# Velocity P-wave (km/s) = 4.89220 6.60896 5.81429
#
# Compressibility (1/GPa) = 0.03306195
#
# Stress axis : x y z
#
# Youngs Moduli (GPa) = 87.17673 61.56876 42.84186
#
# Poissons Ratio (x) = 0.26440 -0.21769
# Poissons Ratio (y) = 0.37437 0.41913
# Poissons Ratio (z) = -0.44296 0.60234
#
# Static dielectric constant tensor:
#      x y z
#    x 1.940090 -0.005430 -0.067730 
#    y -0.005430 2.078530 0.084530 
#    z -0.067730 0.084530 2.009480 
# 
# From -- ./inp_files/53993.got.cif
#   From: 2010.05.17/outbox.cif.g08.bks.cpg/sg2_27_cif.got.tgz:53993.got - 2010.06.03 11:33:40.
