data_PCOD9018588
_publ_section_title
;
Structure prediction by ZEFSAII (Michael W. Deem and Ramdas Pophale) SiO2 
 PCOD9018588
Probable space group: P -1
;
_chemical_formula_sum "Si O2"
_cell_formula_units_Z 14
_cell_length_a 7.262473
_cell_length_b 5.646978
_cell_length_c 16.530413
_cell_angle_alpha 86.465523
_cell_angle_beta 104.770770
_cell_angle_gamma 68.638858
_cell_volume 601.439684
_symmetry_space_group_name_H-M "P -1"
_symmetry_group_IT_number 2
_symmetry_cell_setting 'triclinic'
loop_
_space_group_symop_operation_xyz
x,y,z
-x,-y,-z
loop_
_atom_site_type_symbol
_atom_site_label
_atom_site_fract_x
_atom_site_fract_y
_atom_site_fract_z
Si Si1 0.422976 0.884393 0.691241
Si Si2 0.819784 0.914137 0.653554
Si Si3 0.700373 0.349053 0.741228
Si Si4 0.880998 0.807947 0.484131
Si Si5 0.082682 0.202039 0.045323
Si Si6 0.514455 0.894274 0.150208
Si Si7 0.054818 0.548341 0.811801
O O1 0.633676 0.907867 0.686701
O O2 0.487708 0.585052 0.685671
O O3 0.250868 0.088337 0.613278
O O4 0.402115 0.944066 0.782410
O O5 0.771216 0.868113 0.558077
O O6 0.024956 0.691419 0.718059
O O7 0.808370 0.190409 0.675713
O O8 0.614284 0.228199 0.806105
O O9 0.878128 0.431319 0.796226
O O10 0.000000 0.500000 0.500000
O O11 0.000000 0.000000 0.500000
O O12 0.007812 0.238065 0.129808
O O13 0.333138 0.082145 0.069453
O O14 0.000000 0.500000 0.000000
O O15 0.000000 0.000000 0.000000
O O16 0.718047 0.667120 0.144568
#
# Coordination Sequence:
#
# PCOD9018588 Si02
#       7
#     2   2   2   2   2   2   2
#     4  10  23  43  70  97 144 194 243 295 362 424
#     4  10  23  43  70  97 144 194 243 295 362 424
#     4  10  21  43  72 105 140 190 247 306 348 436
#     4  12  29  43  64 108 150 187 248 307 350 424
#     4  12  27  50  74 110 152 183 241 310 370 445
#     4  11  24  45  75 105 144 194 244 294 369 440
#     4  11  24  45  75 105 144 194 244 294 369 440
#
# _framework density 23.277481000000002
#
# number of rings (size 3 to 8) (size 9 to 14) (size 15 to 20)
#    0.000    1.143    4.286    2.143   12.000    1.714 
#    0.000    0.000    0.000    0.000    0.000    0.000 
#    0.000    0.000    0.000    0.000    0.000    0.000 
#
# Total GULP energy -78098.869948 kJ/mol
# GULP energy per Si atom -5578.490711 kJ/mol
# Density = 2.322450 g / cm^3
# Si number density = 23.277481 Si / 1000 Ang^3
#
#
#
# Elastic Constant Matrix: (Units=GPa)
#
#
# Indices 1 2 3 4 5 6 
#
# 1 49.0985 35.0986 7.5084 -6.5931 15.7051 -12.4433
# 2 35.0986 146.8987 45.6171 -18.3039 24.7483 -7.1943
# 3 7.5084 45.6171 83.5780 -18.5219 27.1497 1.7168
# 4 -6.5931 -18.3039 -18.5219 62.2028 -8.6306 4.8618
# 5 15.7051 24.7483 27.1497 -8.6306 30.8448 -5.3759
# 6 -12.4433 -7.1943 1.7168 4.8618 -5.3759 34.1768
#
#
#
# Elastic Compliance Matrix: (Units=1/GPa)
#
#
# Indices 1 2 3 4 5 6 
#
# 1 0.030138 -0.006052 0.004900 0.000443 -0.013410 0.007280
# 2 -0.006052 0.009841 -0.004398 0.000855 -0.000730 -0.000147
# 3 0.004900 -0.004398 0.019949 0.003165 -0.016187 -0.003140
# 4 0.000443 0.000855 0.003165 0.017606 0.000847 -0.002189
# 5 -0.013410 -0.000730 -0.016187 0.000847 0.055072 0.004319
# 6 0.007280 -0.000147 -0.003140 -0.002189 0.004319 0.033028
#
#
# Mechanical properties :
#
#
# Convention : Reuss Voigt Hill
#
# Bulk Modulus (GPa) = 20.47923 50.66926 35.57424
# Shear Modulus (GPa) = 25.90533 38.20164 32.05348
#
# Velocity S-wave (km/s) = 3.33962 4.05550 3.71484
# Velocity P-wave (km/s) = 4.86701 6.61394 5.80654
#
# Compressibility (1/GPa) = 0.04882997
#
# Stress axis : x y z
#
# Youngs Moduli (GPa) = 33.18073 101.61115 50.12685
#
# Poissons Ratio (x) = 0.61491 -0.24564
# Poissons Ratio (y) = 0.20080 0.22046
# Poissons Ratio (z) = -0.16260 0.44690
#
# Static dielectric constant tensor:
#      x y z
#    x 1.979930 0.138800 -0.096040 
#    y 0.138800 2.044010 -0.211660 
#    z -0.096040 -0.211660 1.850370 
# 
# From -- ./inp_files/43518.got.cif
#   From: 2010.05.17/outbox.cif.g08.bks.cpg/sg2_22_cif.got.tgz:43518.got - 2010.06.03 11:33:40.
