data_PCOD9018534
_publ_section_title
;
Structure prediction by ZEFSAII (Michael W. Deem and Ramdas Pophale) SiO2 
 PCOD9018534
Probable space group: P -1
;
_chemical_formula_sum "Si O2"
_cell_formula_units_Z 16
_cell_length_a 8.084144
_cell_length_b 18.846526
_cell_length_c 22.089016
_cell_angle_alpha 22.682464
_cell_angle_beta 34.586603
_cell_angle_gamma 47.164915
_cell_volume 686.123815
_symmetry_space_group_name_H-M "P -1"
_symmetry_group_IT_number 2
_symmetry_cell_setting 'triclinic'
loop_
_space_group_symop_operation_xyz
x,y,z
-x,-y,-z
loop_
_atom_site_type_symbol
_atom_site_label
_atom_site_fract_x
_atom_site_fract_y
_atom_site_fract_z
Si Si1 0.838192 0.775771 0.990637
Si Si2 0.656525 0.216807 0.257016
Si Si3 0.185564 0.224372 0.285006
Si Si4 0.369107 0.295365 0.661774
Si Si5 0.537441 0.491182 0.858204
Si Si6 0.278475 0.862747 0.226001
Si Si7 0.129866 0.589322 0.675728
Si Si8 0.813417 0.412405 0.715171
O O1 0.935142 0.643253 0.114173
O O2 0.462403 0.673083 0.182433
O O3 0.010102 0.752731 0.895751
O O4 0.922816 0.006304 0.795718
O O5 0.446470 0.244784 0.242068
O O6 0.648005 0.360772 0.200558
O O7 0.500000 0.000000 0.500000
O O8 0.950367 0.322129 0.307988
O O9 0.359813 0.333077 0.087038
O O10 0.000000 0.000000 0.500000
O O11 0.500000 0.500000 0.500000
O O12 0.488008 0.155389 0.777382
O O13 0.534183 0.313317 0.532702
O O14 0.014154 0.274153 0.774041
O O15 0.616993 0.411717 0.835126
O O16 0.885754 0.612968 0.682580
O O17 0.049036 0.639116 0.454609
O O18 0.500000 0.000000 0.000000
#
# Coordination Sequence:
#
# PCOD9018534 Si02
#       8
#     2   2   2   2   2   2   2   2
#     4  12  25  43  68 103 139 179 229 290 343 407
#     4  11  24  41  66  97 137 178 223 287 345 403
#     4  11  25  42  68 102 134 185 234 281 347 423
#     4  10  21  43  71  95 133 180 225 284 344 409
#     4  11  21  46  67  94 136 179 230 274 346 417
#     4  11  25  43  70 101 139 178 233 289 348 408
#     4  11  21  44  70  91 136 184 222 277 351 408
#     4  11  26  44  71 102 136 187 232 280 353 418
#
# _framework density 23.319407000000002
#
# number of rings (size 3 to 8) (size 9 to 14) (size 15 to 20)
#    0.000    1.000    5.000    3.000    3.500    5.000 
#    0.000    0.000    0.000    0.000    0.000    0.000 
#    0.000    0.000    0.000    0.000    0.000    0.000 
#
# Total GULP energy -89421.345812 kJ/mol
# GULP energy per Si atom -5588.834113 kJ/mol
# Density = 2.326633 g / cm^3
# Si number density = 23.319407 Si / 1000 Ang^3
#
#
#
# Elastic Constant Matrix: (Units=GPa)
#
#
# Indices 1 2 3 4 5 6 
#
# 1 24.8884 19.2968 28.9874 10.4868 -2.9607 -5.0454
# 2 19.2968 144.7214 47.3338 20.0085 10.1492 -1.9306
# 3 28.9874 47.3338 112.9634 11.3069 16.9753 -4.3057
# 4 10.4868 20.0085 11.3069 45.4496 1.6914 7.1285
# 5 -2.9607 10.1492 16.9753 1.6914 47.3937 2.1919
# 6 -5.0454 -1.9306 -4.3057 7.1285 2.1919 29.8179
#
#
#
# Elastic Compliance Matrix: (Units=1/GPa)
#
#
# Indices 1 2 3 4 5 6 
#
# 1 0.071542 -0.002725 -0.017101 -0.013322 0.011106 0.011828
# 2 -0.002725 0.008499 -0.002435 -0.002534 -0.001047 0.000420
# 3 -0.017101 -0.002435 0.014953 0.001652 -0.005922 -0.000852
# 4 -0.013322 -0.002534 0.001652 0.027179 -0.001455 -0.008570
# 5 0.011106 -0.001047 -0.005922 -0.001455 0.024213 -0.000476
# 6 0.011828 0.000420 -0.000852 -0.008570 -0.000476 0.037526
#
#
# Mechanical properties :
#
#
# Convention : Reuss Voigt Hill
#
# Bulk Modulus (GPa) = 19.81319 52.64548 36.22934
# Shear Modulus (GPa) = 20.38664 36.99594 28.69129
#
# Velocity S-wave (km/s) = 2.95995 3.98739 3.51146
# Velocity P-wave (km/s) = 4.49407 6.61996 5.65776
#
# Compressibility (1/GPa) = 0.05047142
#
# Stress axis : x y z
#
# Youngs Moduli (GPa) = 13.97784 117.66152 66.87565
#
# Poissons Ratio (x) = 0.32067 1.14364
# Poissons Ratio (y) = 0.03809 0.16283
# Poissons Ratio (z) = 0.23904 0.28649
#
# Static dielectric constant tensor:
#      x y z
#    x 1.846590 0.035270 0.047650 
#    y 0.035270 1.896690 -0.041670 
#    z 0.047650 -0.041670 1.793180 
# 
# From -- ./inp_files/271321.got.cif
#   From: 2010.05.17/outbox.cif.g08.bks.cpg/sg2_136_cif.got.tgz:271321.got - 2010.06.03 11:33:40.
