data_PCOD9018188
_publ_section_title
;
Structure prediction by ZEFSAII (Michael W. Deem and Ramdas Pophale) SiO2 
 PCOD9018188
Probable space group: P -1
;
_chemical_formula_sum "Si O2"
_cell_formula_units_Z 16
_cell_length_a 19.777547
_cell_length_b 8.495711
_cell_length_c 6.073045
_cell_angle_alpha 93.562672
_cell_angle_beta 133.124571
_cell_angle_gamma 85.917603
_cell_volume 742.755619
_symmetry_space_group_name_H-M "P -1"
_symmetry_group_IT_number 2
_symmetry_cell_setting 'triclinic'
loop_
_space_group_symop_operation_xyz
x,y,z
-x,-y,-z
loop_
_atom_site_type_symbol
_atom_site_label
_atom_site_fract_x
_atom_site_fract_y
_atom_site_fract_z
Si Si1 0.762879 0.845267 0.832653
Si Si2 0.779223 0.339778 0.837746
Si Si3 0.367465 0.427642 0.632961
Si Si4 0.940788 0.896578 0.525529
Si Si5 0.184384 0.959012 0.409554
Si Si6 0.692346 0.138558 0.949560
Si Si7 0.970614 0.438086 0.180765
Si Si8 0.552651 0.404933 0.799112
O O1 0.698913 0.703524 0.618104
O O2 0.813969 0.890383 0.727400
O O3 0.696911 0.997858 0.770027
O O4 0.846150 0.834763 0.195296
O O5 0.677771 0.414403 0.566410
O O6 0.806615 0.194537 0.730161
O O7 0.769729 0.262216 0.050987
O O8 0.859242 0.456959 0.964920
O O9 0.471189 0.374427 0.788866
O O10 0.374741 0.481790 0.908407
O O11 0.994885 0.745641 0.736242
O O12 0.904713 0.021445 0.636964
O O13 0.000000 0.000000 0.500000
O O14 0.274023 0.945997 0.761968
O O15 0.601703 0.245420 0.805200
O O16 0.000000 0.500000 0.500000
O O17 0.000000 0.500000 0.000000
O O18 0.500000 0.500000 0.500000
#
# Coordination Sequence:
#
# PCOD9018188 Si02
#       8
#     2   2   2   2   2   2   2   2
#     4  10  24  42  67 103 138 179 234 293 357 419
#     4  11  23  43  70  94 138 183 234 284 363 434
#     4  11  24  41  67 101 134 178 226 289 359 427
#     4  11  25  46  72 101 143 191 250 294 365 439
#     4  10  22  42  70  94 132 184 229 288 353 429
#     4  10  21  43  68  99 129 179 235 284 357 430
#     4  12  30  46  69 109 150 190 245 312 373 435
#     4  11  23  42  69  97 134 177 231 283 360 443
#
# _framework density 21.541405999999998
#
# number of rings (size 3 to 8) (size 9 to 14) (size 15 to 20)
#    0.000    1.250    2.500    3.000    7.000    3.500 
#    0.000    1.250    0.000    0.000    0.000    0.000 
#    0.000    0.000    0.000    0.000    0.000    0.000 
#
# Total GULP energy -89103.848088 kJ/mol
# GULP energy per Si atom -5568.990505 kJ/mol
# Density = 2.149238 g / cm^3
# Si number density = 21.541406 Si / 1000 Ang^3
#
#
#
# Elastic Constant Matrix: (Units=GPa)
#
#
# Indices 1 2 3 4 5 6 
#
# 1 101.5965 42.0327 16.0290 -3.6637 4.6906 -20.7952
# 2 42.0327 89.5835 35.0856 -5.5162 6.6465 -18.0978
# 3 16.0290 35.0856 94.9112 0.9038 -1.6283 -2.7434
# 4 -3.6637 -5.5162 0.9038 40.7203 2.2866 8.4342
# 5 4.6906 6.6465 -1.6283 2.2866 32.1026 -10.7121
# 6 -20.7952 -18.0978 -2.7434 8.4342 -10.7121 32.6936
#
#
#
# Elastic Compliance Matrix: (Units=1/GPa)
#
#
# Indices 1 2 3 4 5 6 
#
# 1 0.013108 -0.004979 -0.000165 -0.000842 0.001232 0.006189
# 2 -0.004979 0.016707 -0.005227 0.000992 -0.001426 0.004920
# 3 -0.000165 -0.005227 0.012490 -0.000809 0.001366 -0.001294
# 4 -0.000842 0.000992 -0.000809 0.026675 -0.004870 -0.008532
# 5 0.001232 -0.001426 0.001366 -0.004870 0.036082 0.013188
# 6 0.006189 0.004920 -0.001294 -0.008532 0.013188 0.043660
#
#
# Mechanical properties :
#
#
# Convention : Reuss Voigt Hill
#
# Bulk Modulus (GPa) = 46.37498 52.48730 49.43114
# Shear Modulus (GPa) = 28.30434 33.96621 31.13528
#
# Velocity S-wave (km/s) = 3.62878 3.97519 3.80593
# Velocity P-wave (km/s) = 6.25559 6.74449 6.50463
#
# Compressibility (1/GPa) = 0.02156335
#
# Stress axis : x y z
#
# Youngs Moduli (GPa) = 76.28799 59.85667 80.06436
#
# Poissons Ratio (x) = 0.29801 0.01323
# Poissons Ratio (y) = 0.37981 0.41848
# Poissons Ratio (z) = 0.01261 0.31286
#
# Static dielectric constant tensor:
#      x y z
#    x 2.182400 0.504620 -0.129880 
#    y 0.504620 2.489170 -0.130610 
#    z -0.129880 -0.130610 1.866910 
# 
# From -- ./inp_files/99624.got.cif
#   From: 2010.05.17/outbox.cif.g08.bks.cpg/sg2_50_cif.got.tgz:99624.got - 2010.06.03 11:33:40.
