data_PCOD9018225
_publ_section_title
;
Structure prediction by ZEFSAII (Michael W. Deem and Ramdas Pophale) SiO2 
 PCOD9018225
Probable space group: P -1
;
_chemical_formula_sum "Si O2"
_cell_formula_units_Z 14
_cell_length_a 6.679855
_cell_length_b 12.649474
_cell_length_c 13.549100
_cell_angle_alpha 31.843446
_cell_angle_beta 81.392666
_cell_angle_gamma 69.788105
_cell_volume 542.384517
_symmetry_space_group_name_H-M "P -1"
_symmetry_group_IT_number 2
_symmetry_cell_setting 'triclinic'
loop_
_space_group_symop_operation_xyz
x,y,z
-x,-y,-z
loop_
_atom_site_type_symbol
_atom_site_label
_atom_site_fract_x
_atom_site_fract_y
_atom_site_fract_z
Si Si1 0.688228 0.689181 0.409834
Si Si2 0.311471 0.540397 0.587868
Si Si3 0.885974 0.813727 0.479087
Si Si4 0.417142 0.508557 0.111201
Si Si5 0.249107 0.981323 0.476462
Si Si6 0.931917 0.821613 0.871459
Si Si7 0.512112 0.830261 0.999071
O O1 0.447945 0.684552 0.448459
O O2 0.796882 0.489576 0.482630
O O3 0.779700 0.701075 0.501047
O O4 0.664124 0.918652 0.183560
O O5 0.135611 0.627443 0.620108
O O6 0.481675 0.298288 0.799661
O O7 0.728888 0.910241 0.507554
O O8 0.954254 0.003132 0.277215
O O9 0.574321 0.271871 0.334355
O O10 0.500000 0.500000 0.000000
O O11 0.149298 0.590847 0.053583
O O12 0.458649 0.691416 0.027541
O O13 0.000000 0.000000 0.500000
O O14 0.208874 0.121738 0.267169
O O15 0.749291 0.836774 0.953247
#
# Coordination Sequence:
#
# PCOD9018225 Si02
#       7
#     2   2   2   2   2   2   2
#     4  11  24  47  74  98 136 185 234 303 357 418
#     4  11  26  45  72 103 133 183 243 293 366 417
#     4  11  21  47  68 101 140 183 235 290 353 422
#     4  12  23  43  68 104 144 188 243 280 345 435
#     4  10  21  43  69 102 148 186 234 285 346 428
#     4  11  24  44  68 104 149 187 229 292 354 423
#     4  12  25  46  69 103 146 181 235 298 353 430
#
# _framework density 25.811945000000001
#
# number of rings (size 3 to 8) (size 9 to 14) (size 15 to 20)
#    0.000    0.857    5.714    2.571    0.000    1.714 
#    2.571    2.143    0.000    0.000    0.000    0.000 
#    0.000    0.000    0.000    0.000    0.000    0.000 
#
# Total GULP energy -78258.250963 kJ/mol
# GULP energy per Si atom -5589.875069 kJ/mol
# Density = 2.575320 g / cm^3
# Si number density = 25.811945 Si / 1000 Ang^3
#
#
#
# Elastic Constant Matrix: (Units=GPa)
#
#
# Indices 1 2 3 4 5 6 
#
# 1 96.7762 47.2816 42.2806 -5.2767 2.2463 29.1823
# 2 47.2816 127.1844 13.9476 -7.6132 -0.4037 25.2125
# 3 42.2806 13.9476 121.2126 -12.3042 11.7239 0.7728
# 4 -5.2767 -7.6132 -12.3042 36.7709 -2.2996 5.0887
# 5 2.2463 -0.4037 11.7239 -2.2996 44.4539 -0.9671
# 6 29.1823 25.2125 0.7728 5.0887 -0.9671 54.2627
#
#
#
# Elastic Compliance Matrix: (Units=1/GPa)
#
#
# Indices 1 2 3 4 5 6 
#
# 1 0.016911 -0.004245 -0.005325 0.000775 0.000397 -0.007112
# 2 -0.004245 0.010011 0.000528 0.002008 0.000214 -0.002561
# 3 -0.005325 0.000528 0.010502 0.002409 -0.002323 0.002201
# 4 0.000775 0.002008 0.002409 0.029144 0.000762 -0.004104
# 5 0.000397 0.000214 -0.002323 0.000762 0.023131 0.000061
# 6 -0.007112 -0.002561 0.002201 -0.004104 0.000061 0.023798
#
#
# Mechanical properties :
#
#
# Convention : Reuss Voigt Hill
#
# Bulk Modulus (GPa) = 51.70419 61.35477 56.52948
# Shear Modulus (GPa) = 36.22461 43.20840 39.71650
#
# Velocity S-wave (km/s) = 3.75027 4.09586 3.92687
# Velocity P-wave (km/s) = 6.23115 6.79629 6.51985
#
# Compressibility (1/GPa) = 0.01934079
#
# Stress axis : x y z
#
# Youngs Moduli (GPa) = 59.13227 99.88618 95.22217
#
# Poissons Ratio (x) = 0.42406 0.50703
# Poissons Ratio (y) = 0.25104 -0.05031
# Poissons Ratio (z) = 0.31486 -0.05277
#
# Static dielectric constant tensor:
#      x y z
#    x 2.113300 0.079950 0.086050 
#    y 0.079950 2.155220 -0.024350 
#    z 0.086050 -0.024350 2.074080 
# 
# From -- ./inp_files/484080.got.cif
#   From: 2010.05.17/outbox.cif.g08.bks.cpg/sg2_243_cif.got.tgz:484080.got - 2010.06.03 11:33:40.
