data_PCOD9018026
_publ_section_title
;
Structure prediction by ZEFSAII (Michael W. Deem and Ramdas Pophale) SiO2 
 PCOD9018026
Probable space group: P -1
;
_chemical_formula_sum "Si O2"
_cell_formula_units_Z 16
_cell_length_a 9.420514
_cell_length_b 13.893290
_cell_length_c 9.752098
_cell_angle_alpha 97.881311
_cell_angle_beta 133.985727
_cell_angle_gamma 107.746249
_cell_volume 752.888142
_symmetry_space_group_name_H-M "P -1"
_symmetry_group_IT_number 2
_symmetry_cell_setting 'triclinic'
loop_
_space_group_symop_operation_xyz
x,y,z
-x,-y,-z
loop_
_atom_site_type_symbol
_atom_site_label
_atom_site_fract_x
_atom_site_fract_y
_atom_site_fract_z
Si Si1 0.005034 0.166411 0.653162
Si Si2 0.429744 0.833619 0.545168
Si Si3 0.686472 0.535490 0.508376
Si Si4 0.363789 0.411307 0.014747
Si Si5 0.905368 0.790800 0.583557
Si Si6 0.618997 0.017881 0.933695
Si Si7 0.071960 0.565129 0.207615
Si Si8 0.326151 0.081509 0.558442
O O1 0.973519 0.192760 0.480202
O O2 0.805072 0.163533 0.610638
O O3 0.260114 0.276556 0.886664
O O4 0.932300 0.035324 0.599270
O O5 0.318050 0.695921 0.414910
O O6 0.599287 0.907956 0.547468
O O7 0.555574 0.900919 0.785591
O O8 0.500000 0.500000 0.500000
O O9 0.533988 0.451977 0.265446
O O10 0.799338 0.666585 0.557005
O O11 0.889442 0.516427 0.685184
O O12 0.500000 0.500000 0.000000
O O13 0.139662 0.420117 0.893947
O O14 0.698587 0.810893 0.413960
O O15 0.100622 0.890855 0.835381
O O16 0.511812 0.074415 0.776450
O O17 0.500000 0.000000 0.000000
O O18 0.000000 0.500000 0.000000
#
# Coordination Sequence:
#
# PCOD9018026 Si02
#       8
#     2   2   2   2   2   2   2   2
#     4  10  21  43  67  99 137 172 222 277 334 405
#     4  10  23  44  68 101 134 173 225 276 340 400
#     4  12  26  44  68 102 134 181 234 276 339 410
#     4  11  24  45  69  99 139 175 225 289 334 395
#     4  12  25  42  69 101 134 176 230 269 335 411
#     4  11  23  42  69  98 139 174 217 279 339 396
#     4  11  25  46  72  99 136 182 229 281 343 401
#     4  11  24  42  70  98 134 176 220 278 339 395
#
# _framework density 21.251495999999999
#
# number of rings (size 3 to 8) (size 9 to 14) (size 15 to 20)
#    0.000    1.000    5.000    2.625    1.750    3.000 
#    0.000    0.000    0.000    0.000    0.000    0.000 
#    0.000    0.000    0.000    0.000    0.000    0.000 
#
# Total GULP energy -89302.426150 kJ/mol
# GULP energy per Si atom -5581.401634 kJ/mol
# Density = 2.120313 g / cm^3
# Si number density = 21.251496 Si / 1000 Ang^3
#
#
#
# Elastic Constant Matrix: (Units=GPa)
#
#
# Indices 1 2 3 4 5 6 
#
# 1 81.2638 30.7501 19.5117 0.0296 -19.4415 19.2578
# 2 30.7501 144.7432 44.8760 5.2388 -11.7319 8.2667
# 3 19.5117 44.8760 142.2869 11.9013 -24.5004 5.2148
# 4 0.0296 5.2388 11.9013 41.3690 -4.3919 6.1277
# 5 -19.4415 -11.7319 -24.5004 -4.3919 31.9213 -7.8809
# 6 19.2578 8.2667 5.2148 6.1277 -7.8809 38.1679
#
#
#
# Elastic Compliance Matrix: (Units=1/GPa)
#
#
# Indices 1 2 3 4 5 6 
#
# 1 0.016750 -0.002603 -0.000059 0.002147 0.007865 -0.006600
# 2 -0.002603 0.008148 -0.002244 -0.000404 -0.000409 -0.000164
# 3 -0.000059 -0.002244 0.008879 -0.001762 0.005911 0.000806
# 4 0.002147 -0.000404 -0.001762 0.025620 0.002244 -0.004405
# 5 0.007865 -0.000409 0.005911 0.002244 0.041692 0.003561
# 6 -0.006600 -0.000164 0.000806 -0.004405 0.003561 0.030898
#
#
# Mechanical properties :
#
#
# Convention : Reuss Voigt Hill
#
# Bulk Modulus (GPa) = 41.72692 62.06330 51.89511
# Shear Modulus (GPa) = 33.38048 40.50206 36.94127
#
# Velocity S-wave (km/s) = 3.96755 4.37033 4.17380
# Velocity P-wave (km/s) = 6.37699 7.39825 6.90652
#
# Compressibility (1/GPa) = 0.02396534
#
# Stress axis : x y z
#
# Youngs Moduli (GPa) = 59.70198 122.72511 112.61943
#
# Poissons Ratio (x) = 0.31950 0.00667
# Poissons Ratio (y) = 0.15543 0.25267
# Poissons Ratio (z) = 0.00354 0.27534
#
# Static dielectric constant tensor:
#      x y z
#    x 1.775670 -0.014590 0.008500 
#    y -0.014590 1.779870 0.042800 
#    z 0.008500 0.042800 1.773680 
# 
# From -- ./inp_files/208062.got.cif
#   From: 2010.05.17/outbox.cif.g08.bks.cpg/sg2_105_cif.got.tgz:208062.got - 2010.06.03 11:33:40.
