data_PCOD9018916
_publ_section_title
;
Structure prediction by ZEFSAII (Michael W. Deem and Ramdas Pophale) SiO2 
 PCOD9018916
Probable space group: P -1
;
_chemical_formula_sum "Si O2"
_cell_formula_units_Z 16
_cell_length_a 14.272904
_cell_length_b 10.362863
_cell_length_c 7.523414
_cell_angle_alpha 135.919756
_cell_angle_beta 76.392023
_cell_angle_gamma 121.721199
_cell_volume 639.119173
_symmetry_space_group_name_H-M "P -1"
_symmetry_group_IT_number 2
_symmetry_cell_setting 'triclinic'
loop_
_space_group_symop_operation_xyz
x,y,z
-x,-y,-z
loop_
_atom_site_type_symbol
_atom_site_label
_atom_site_fract_x
_atom_site_fract_y
_atom_site_fract_z
Si Si1 0.399439 0.820567 0.742709
Si Si2 0.440081 0.453344 0.289860
Si Si3 0.178840 0.069803 0.001158
Si Si4 0.216983 0.000178 0.523505
Si Si5 0.928383 0.472019 0.765859
Si Si6 0.934911 0.029273 0.716414
Si Si7 0.156247 0.611521 0.654511
Si Si8 0.559840 0.875147 0.276751
O O1 0.436818 0.671690 0.476516
O O2 0.275704 0.666033 0.734975
O O3 0.375104 0.959139 0.751835
O O4 0.500000 0.000000 0.000000
O O5 0.500000 0.500000 0.500000
O O6 0.306955 0.266073 0.171129
O O7 0.493681 0.360237 0.031940
O O8 0.092570 0.083042 0.188799
O O9 0.168003 0.054438 0.776173
O O10 0.159338 0.838425 0.848601
O O11 0.157899 0.738062 0.291951
O O12 0.187810 0.060086 0.409244
O O13 0.348724 0.107931 0.609300
O O14 0.861436 0.475129 0.624573
O O15 0.037290 0.454766 0.649486
O O16 0.988789 0.709426 0.051594
O O17 0.000000 0.000000 0.500000
O O18 0.500000 0.000000 0.500000
#
# Coordination Sequence:
#
# PCOD9018916 Si02
#       8
#     2   2   2   2   2   2   2   2
#     4  12  22  40  73  97 132 183 231 279 345 418
#     4  11  22  42  68  98 130 179 236 279 339 424
#     4   9  20  42  63  89 136 174 220 279 339 406
#     4  10  21  44  66  91 137 177 225 286 337 416
#     4   9  18  36  64  88 128 169 221 269 336 405
#     4  11  24  38  62 100 135 175 221 279 342 409
#     4   9  17  36  65  94 121 177 223 273 335 404
#     4  11  25  46  65 101 142 177 228 295 355 404
#
# _framework density 25.034452999999999
#
# number of rings (size 3 to 8) (size 9 to 14) (size 15 to 20)
#    0.000    1.750    5.000    1.125    0.000    7.000 
#    2.250    0.000    0.000    0.000    0.000    0.000 
#    0.000    0.000    0.000    0.000    0.000    0.000 
#
# Total GULP energy -89282.954218 kJ/mol
# GULP energy per Si atom -5580.184639 kJ/mol
# Density = 2.497747 g / cm^3
# Si number density = 25.034453 Si / 1000 Ang^3
#
#
#
# Elastic Constant Matrix: (Units=GPa)
#
#
# Indices 1 2 3 4 5 6 
#
# 1 89.7049 9.3475 61.4301 -2.4840 12.7409 11.2886
# 2 9.3475 62.3951 23.1847 -3.2720 -0.4512 5.3480
# 3 61.4301 23.1847 181.6685 -3.3977 2.9596 2.8427
# 4 -2.4840 -3.2720 -3.3977 29.4286 1.0299 -4.4796
# 5 12.7409 -0.4512 2.9596 1.0299 57.9022 -1.7593
# 6 11.2886 5.3480 2.8427 -4.4796 -1.7593 35.4213
#
#
#
# Elastic Compliance Matrix: (Units=1/GPa)
#
#
# Indices 1 2 3 4 5 6 
#
# 1 0.015795 -0.000042 -0.005204 0.000120 -0.003357 -0.004761
# 2 -0.000042 0.017077 -0.002108 0.001308 0.000159 -0.002222
# 3 -0.005204 -0.002108 0.007505 0.000388 0.000783 0.001463
# 4 0.000120 0.001308 0.000388 0.034825 -0.000531 0.004111
# 5 -0.003357 0.000159 0.000783 -0.000531 0.018035 0.001812
# 6 -0.004761 -0.002222 0.001463 0.004111 0.001812 0.030577
#
#
# Mechanical properties :
#
#
# Convention : Reuss Voigt Hill
#
# Bulk Modulus (GPa) = 38.96038 57.96590 48.46314
# Shear Modulus (GPa) = 33.99514 40.53750 37.26632
#
# Velocity S-wave (km/s) = 3.68901 4.02838 3.86243
# Velocity P-wave (km/s) = 5.80875 6.69640 6.26831
#
# Compressibility (1/GPa) = 0.02566710
#
# Stress axis : x y z
#
# Youngs Moduli (GPa) = 63.31045 58.55868 133.24457
#
# Poissons Ratio (x) = 0.00248 0.69343
# Poissons Ratio (y) = 0.00268 0.28093
# Poissons Ratio (z) = 0.32948 0.12346
#
# Static dielectric constant tensor:
#      x y z
#    x 2.077560 0.052350 -0.102680 
#    y 0.052350 2.074290 -0.065770 
#    z -0.102680 -0.065770 2.069950 
# 
# From -- ./inp_files/305995.got.cif
#   From: 2010.05.17/outbox.cif.g08.bks.cpg/sg2_153_cif.got.tgz:305995.got - 2010.06.03 11:33:40.
