data_PCOD9018498
_publ_section_title
;
Structure prediction by ZEFSAII (Michael W. Deem and Ramdas Pophale) SiO2 
 PCOD9018498
Probable space group: P -1
;
_chemical_formula_sum "Si O2"
_cell_formula_units_Z 13
_cell_length_a 9.652510
_cell_length_b 10.596278
_cell_length_c 6.802172
_cell_angle_alpha 88.702184
_cell_angle_beta 56.387360
_cell_angle_gamma 74.630654
_cell_volume 551.974242
_symmetry_space_group_name_H-M "P -1"
_symmetry_group_IT_number 2
_symmetry_cell_setting 'triclinic'
loop_
_space_group_symop_operation_xyz
x,y,z
-x,-y,-z
loop_
_atom_site_type_symbol
_atom_site_label
_atom_site_fract_x
_atom_site_fract_y
_atom_site_fract_z
Si Si1 0.628161 0.480430 0.216356
Si Si2 0.173105 0.903668 0.465312
Si Si3 0.171157 0.049470 0.829615
Si Si4 0.000000 0.500000 0.500000
Si Si5 0.386726 0.376398 0.137497
Si Si6 0.037362 0.691130 0.815019
Si Si7 0.558733 0.107406 0.064519
O O1 0.500000 0.500000 0.500000
O O2 0.552036 0.401844 0.116157
O O3 0.821313 0.403515 0.144061
O O4 0.608549 0.613267 0.102862
O O5 0.130252 0.785111 0.619728
O O6 0.227588 0.003749 0.566548
O O7 0.312109 0.849746 0.188345
O O8 0.000000 0.000000 0.500000
O O9 0.326767 0.960528 0.841189
O O10 0.110406 0.202228 0.941791
O O11 0.000000 0.000000 0.000000
O O12 0.791340 0.518039 0.657611
O O13 0.029653 0.394438 0.288677
O O14 0.393796 0.234051 0.221163
O O15 0.500000 0.000000 0.000000
#
# Coordination Sequence:
#
# PCOD9018498 Si02
#       7
#     2   2   2   1   2   2   2
#     4  11  23  47  70 100 135 190 235 278 345 424
#     4  11  23  42  75 104 134 187 231 282 350 416
#     4  10  21  43  71 104 131 182 230 281 342 416
#     4  12  26  46  66 108 144 186 234 288 352 410
#     4  11  26  43  72 100 143 185 231 287 348 419
#     4  11  23  44  73 104 142 178 238 281 345 424
#     4  12  25  45  68 107 142 174 230 297 348 402
#
# _framework density 23.551822999999999
#
# number of rings (size 3 to 8) (size 9 to 14) (size 15 to 20)
#    0.000    0.923    4.615    3.692    2.154    1.231 
#    0.000    1.538    0.000    0.000    0.000    0.000 
#    0.000    0.000    0.000    0.000    0.000    0.000 
#
# Total GULP energy -72406.999237 kJ/mol
# GULP energy per Si atom -5569.769172 kJ/mol
# Density = 2.349822 g / cm^3
# Si number density = 23.551823 Si / 1000 Ang^3
#
#
#
# Elastic Constant Matrix: (Units=GPa)
#
#
# Indices 1 2 3 4 5 6 
#
# 1 112.0949 58.1803 37.8030 -8.7930 34.0594 -12.3894
# 2 58.1803 101.6105 25.9286 4.1725 29.0788 -22.7838
# 3 37.8030 25.9286 88.9228 21.3781 28.3053 -14.9291
# 4 -8.7930 4.1725 21.3781 28.4818 2.4839 13.8149
# 5 34.0594 29.0788 28.3053 2.4839 44.6819 0.8984
# 6 -12.3894 -22.7838 -14.9291 13.8149 0.8984 47.4841
#
#
#
# Elastic Compliance Matrix: (Units=1/GPa)
#
#
# Indices 1 2 3 4 5 6 
#
# 1 0.019329 -0.010772 -0.011173 0.020750 -0.001605 -0.009645
# 2 -0.010772 0.021277 0.009684 -0.020867 -0.010947 0.016721
# 3 -0.011173 0.009684 0.031230 -0.038037 -0.015915 0.022918
# 4 0.020750 -0.020867 -0.038037 0.092892 0.017578 -0.043916
# 5 -0.001605 -0.010947 -0.015915 0.017578 0.040166 -0.016549
# 6 -0.009645 0.016721 0.022918 -0.043916 -0.016549 0.046862
#
#
# Mechanical properties :
#
#
# Convention : Reuss Voigt Hill
#
# Bulk Modulus (GPa) = 21.13516 60.71688 40.92602
# Shear Modulus (GPa) = 17.12030 36.17730 26.64880
#
# Velocity S-wave (km/s) = 2.69907 3.92353 3.36742
# Velocity P-wave (km/s) = 4.32512 6.80893 5.70387
#
# Compressibility (1/GPa) = 0.04731451
#
# Stress axis : x y z
#
# Youngs Moduli (GPa) = 51.73453 46.99868 32.02003
#
# Poissons Ratio (x) = 0.50626 0.35777
# Poissons Ratio (y) = 0.55727 -0.31007
# Poissons Ratio (z) = 0.57804 -0.45512
#
# Static dielectric constant tensor:
#      x y z
#    x 1.890480 0.001090 -0.074630 
#    y 0.001090 2.020560 0.040130 
#    z -0.074630 0.040130 1.977190 
# 
# From -- ./inp_files/24495.got.cif
#   From: 2010.05.17/outbox.cif.g08.bks.cpg/sg2_13_cif.got.tgz:24495.got - 2010.06.03 11:33:40.
