data_PCOD9018879
_publ_section_title
;
Structure prediction by ZEFSAII (Michael W. Deem and Ramdas Pophale) SiO2 
 PCOD9018879
Probable space group: P -1
;
_chemical_formula_sum "Si O2"
_cell_formula_units_Z 16
_cell_length_a 9.743735
_cell_length_b 4.908264
_cell_length_c 18.811539
_cell_angle_alpha 70.791638
_cell_angle_beta 132.200266
_cell_angle_gamma 104.625986
_cell_volume 628.726306
_symmetry_space_group_name_H-M "P -1"
_symmetry_group_IT_number 2
_symmetry_cell_setting 'triclinic'
loop_
_space_group_symop_operation_xyz
x,y,z
-x,-y,-z
loop_
_atom_site_type_symbol
_atom_site_label
_atom_site_fract_x
_atom_site_fract_y
_atom_site_fract_z
Si Si1 0.250763 0.275059 0.916687
Si Si2 0.635916 0.437416 0.775005
Si Si3 0.842893 0.991240 0.804807
Si Si4 0.305712 0.646422 0.721788
Si Si5 0.388900 0.897495 0.874280
Si Si6 0.360296 0.175654 0.386865
Si Si7 0.896228 0.595115 0.603167
Si Si8 0.149302 0.757351 0.511067
O O1 0.271224 0.621110 0.891376
O O2 0.045798 0.138808 0.866865
O O3 0.335607 0.162350 0.881644
O O4 0.395780 0.164413 0.034218
O O5 0.707391 0.135096 0.801401
O O6 0.483694 0.461571 0.781346
O O7 0.561590 0.584522 0.663414
O O8 0.815110 0.648626 0.837193
O O9 0.760754 0.024589 0.693374
O O10 0.341635 0.874147 0.777242
O O11 0.273630 0.791687 0.621447
O O12 0.106729 0.493591 0.687288
O O13 0.781203 0.655267 0.628091
O O14 0.500000 0.000000 0.500000
O O15 0.918805 0.925037 0.553659
O O16 0.789062 0.377033 0.531023
O O17 0.000000 0.500000 0.500000
#
# Coordination Sequence:
#
# PCOD9018879 Si02
#       8
#     2   2   2   2   2   2   2   2
#     4  10  21  44  65  99 126 154 211 264 317 368
#     4  10  25  39  60  89 128 171 201 260 307 374
#     4  10  23  40  63  84 129 169 202 256 317 366
#     4  11  23  42  62  92 129 160 215 248 325 368
#     4  10  23  38  71  98 124 159 203 271 313 373
#     4  10  24  40  62  89 124 165 221 253 306 362
#     4  11  24  38  63  89 117 173 211 259 303 366
#     4  10  23  37  57  86 126 158 202 258 309 359
#
# _framework density 25.448274000000001
#
# number of rings (size 3 to 8) (size 9 to 14) (size 15 to 20)
#    0.750    1.000    0.000    3.750    5.250    7.500 
#    0.000    1.250    0.000    0.000    0.000    0.000 
#    0.000    0.000    0.000    0.000    0.000    0.000 
#
# Total GULP energy -89403.756761 kJ/mol
# GULP energy per Si atom -5587.734798 kJ/mol
# Density = 2.539035 g / cm^3
# Si number density = 25.448274 Si / 1000 Ang^3
#
#
#
# Elastic Constant Matrix: (Units=GPa)
#
#
# Indices 1 2 3 4 5 6 
#
# 1 136.7473 8.4111 19.0845 10.6546 9.7364 -28.1445
# 2 8.4111 101.0044 17.6344 17.3040 -5.3846 -8.4402
# 3 19.0845 17.6344 109.8381 27.8981 9.0795 1.9902
# 4 10.6546 17.3040 27.8981 29.5391 -0.5357 -6.9204
# 5 9.7364 -5.3846 9.0795 -0.5357 33.1884 9.9398
# 6 -28.1445 -8.4402 1.9902 -6.9204 9.9398 39.5503
#
#
#
# Elastic Compliance Matrix: (Units=1/GPa)
#
#
# Indices 1 2 3 4 5 6 
#
# 1 0.009512 -0.000095 -0.001283 -0.000386 -0.004846 0.007963
# 2 -0.000095 0.011146 -0.000438 -0.005839 0.001589 0.000912
# 3 -0.001283 -0.000438 0.012723 -0.012079 -0.002427 -0.003151
# 4 -0.000386 -0.005839 -0.012079 0.050644 0.000981 0.007702
# 5 -0.004846 0.001589 -0.002427 0.000981 0.036047 -0.011875
# 6 0.007963 0.000912 -0.003151 0.007702 -0.011875 0.035637
#
#
# Mechanical properties :
#
#
# Convention : Reuss Voigt Hill
#
# Bulk Modulus (GPa) = 33.61397 48.64998 41.13198
# Shear Modulus (GPa) = 29.54099 40.61954 35.08027
#
# Velocity S-wave (km/s) = 3.41078 3.99953 3.71683
# Velocity P-wave (km/s) = 5.36178 6.36294 5.88370
#
# Compressibility (1/GPa) = 0.02974954
#
# Stress axis : x y z
#
# Youngs Moduli (GPa) = 105.13319 89.71690 78.59597
#
# Poissons Ratio (x) = 0.00851 0.10086
# Poissons Ratio (y) = 0.00998 0.03440
# Poissons Ratio (z) = 0.13491 0.03927
#
# Static dielectric constant tensor:
#      x y z
#    x 2.106780 0.061570 -0.008330 
#    y 0.061570 1.988490 -0.052770 
#    z -0.008330 -0.052770 2.047780 
# 
# From -- ./inp_files/585354.got.cif
#   From: 2010.05.17/outbox.cif.g08.bks.cpg/sg2_293_cif.got.tgz:585354.got - 2010.06.03 11:33:40.
