data_PCOD9018084
_publ_section_title
;
Structure prediction by ZEFSAII (Michael W. Deem and Ramdas Pophale) SiO2 
 PCOD9018084
Probable space group: P -1
;
_chemical_formula_sum "Si O2"
_cell_formula_units_Z 14
_cell_length_a 5.447533
_cell_length_b 11.337486
_cell_length_c 11.395605
_cell_angle_alpha 76.984688
_cell_angle_beta 98.790045
_cell_angle_gamma 125.786819
_cell_volume 556.061902
_symmetry_space_group_name_H-M "P -1"
_symmetry_group_IT_number 2
_symmetry_cell_setting 'triclinic'
loop_
_space_group_symop_operation_xyz
x,y,z
-x,-y,-z
loop_
_atom_site_type_symbol
_atom_site_label
_atom_site_fract_x
_atom_site_fract_y
_atom_site_fract_z
Si Si1 0.235979 0.944644 0.113387
Si Si2 0.303458 0.571604 0.205991
Si Si3 0.393708 0.378781 0.421401
Si Si4 0.348256 0.679385 0.739813
Si Si5 0.683288 0.757635 0.975389
Si Si6 0.769730 0.095761 0.407913
Si Si7 0.290762 0.112761 0.739886
O O1 0.509619 0.937098 0.173037
O O2 0.000154 0.914221 0.207725
O O3 0.337249 0.103171 0.038322
O O4 0.018555 0.818621 0.030510
O O5 0.364286 0.456898 0.288298
O O6 0.465734 0.710132 0.276992
O O7 0.942320 0.475954 0.202587
O O8 0.447914 0.631350 0.075699
O O9 0.500000 0.500000 0.500000
O O10 0.610740 0.338356 0.391420
O O11 0.077692 0.227576 0.461260
O O12 0.612722 0.722681 0.841658
O O13 0.306809 0.813103 0.705451
O O14 0.500000 0.000000 0.500000
O O15 0.814226 0.984897 0.362942
#
# Coordination Sequence:
#
# PCOD9018084 Si02
#       7
#     2   2   2   2   2   2   2
#     4  10  23  42  71 108 152 191 234 312 363 446
#     4  10  26  42  72 106 142 197 236 303 371 452
#     4  11  28  50  70 102 146 196 249 310 371 440
#     4  11  24  48  69 102 150 186 245 305 373 440
#     4  10  21  43  68 109 142 194 236 301 371 442
#     4  11  27  45  75 105 138 195 253 314 363 442
#     4  11  24  47  72 110 147 191 253 298 376 430
#
# _framework density 25.177053000000001
#
# number of rings (size 3 to 8) (size 9 to 14) (size 15 to 20)
#    0.000    1.429    1.429    1.286    8.000    7.429 
#   10.286    0.000    0.000    0.000    0.000    0.000 
#    0.000    0.000    0.000    0.000    0.000    0.000 
#
# Total GULP energy -78334.707710 kJ/mol
# GULP energy per Si atom -5595.336265 kJ/mol
# Density = 2.511975 g / cm^3
# Si number density = 25.177053 Si / 1000 Ang^3
#
#
#
# Elastic Constant Matrix: (Units=GPa)
#
#
# Indices 1 2 3 4 5 6 
#
# 1 65.7791 31.1908 31.3188 6.9552 -18.4174 0.6599
# 2 31.1908 166.9427 74.7021 11.6689 -18.9968 -1.7548
# 3 31.3188 74.7021 98.4536 6.6042 -19.8046 6.2199
# 4 6.9552 11.6689 6.6042 66.6712 -3.5968 -6.4995
# 5 -18.4174 -18.9968 -19.8046 -3.5968 33.7852 1.2560
# 6 0.6599 -1.7548 6.2199 -6.4995 1.2560 35.8092
#
#
#
# Elastic Compliance Matrix: (Units=1/GPa)
#
#
# Indices 1 2 3 4 5 6 
#
# 1 0.019849 -0.001000 -0.003884 -0.001107 0.007872 -0.000217
# 2 -0.001000 0.009288 -0.006646 -0.000683 0.000654 0.001481
# 3 -0.003884 -0.006646 0.017593 -0.000271 0.004561 -0.003519
# 4 -0.001107 -0.000683 -0.000271 0.015560 0.000404 0.002844
# 5 0.007872 0.000654 0.004561 0.000404 0.037053 -0.002132
# 6 -0.000217 0.001481 -0.003519 0.002844 -0.002132 0.029205
#
#
# Mechanical properties :
#
#
# Convention : Reuss Voigt Hill
#
# Bulk Modulus (GPa) = 42.24518 67.28876 54.76697
# Shear Modulus (GPa) = 31.34836 40.18403 35.76619
#
# Velocity S-wave (km/s) = 3.53245 3.99940 3.77316
# Velocity P-wave (km/s) = 5.78388 6.93622 6.38610
#
# Compressibility (1/GPa) = 0.02367134
#
# Stress axis : x y z
#
# Youngs Moduli (GPa) = 50.38048 107.66118 56.84042
#
# Poissons Ratio (x) = 0.10761 0.22078
# Poissons Ratio (y) = 0.05036 0.37775
# Poissons Ratio (z) = 0.19569 0.71549
#
# Static dielectric constant tensor:
#      x y z
#    x 2.059770 -0.001450 0.002760 
#    y -0.001450 1.948370 0.044800 
#    z 0.002760 0.044800 2.076720 
# 
# From -- ./inp_files/81454.got.cif
#   From: 2010.05.17/outbox.cif.g08.bks.cpg/sg2_41_cif.got.tgz:81454.got - 2010.06.03 11:33:40.
