data_PCOD9018037
_publ_section_title
;
Structure prediction by ZEFSAII (Michael W. Deem and Ramdas Pophale) SiO2 
 PCOD9018037
Probable space group: P -1
;
_chemical_formula_sum "Si O2"
_cell_formula_units_Z 16
_cell_length_a 6.615527
_cell_length_b 11.315416
_cell_length_c 11.871081
_cell_angle_alpha 57.152101
_cell_angle_beta 107.569413
_cell_angle_gamma 116.095512
_cell_volume 668.093072
_symmetry_space_group_name_H-M "P -1"
_symmetry_group_IT_number 2
_symmetry_cell_setting 'triclinic'
loop_
_space_group_symop_operation_xyz
x,y,z
-x,-y,-z
loop_
_atom_site_type_symbol
_atom_site_label
_atom_site_fract_x
_atom_site_fract_y
_atom_site_fract_z
Si Si1 0.430153 0.669193 0.310042
Si Si2 0.758802 0.604324 0.002465
Si Si3 0.698459 0.032486 0.607110
Si Si4 0.156234 0.212085 0.307243
Si Si5 0.014327 0.566156 0.736284
Si Si6 0.307979 0.968501 0.151082
Si Si7 0.354391 0.663650 0.554643
Si Si8 0.782968 0.801884 0.126150
O O1 0.235244 0.544680 0.274442
O O2 0.390235 0.829021 0.218249
O O3 0.409225 0.620449 0.462121
O O4 0.659198 0.702299 0.262012
O O5 0.790995 0.707674 0.065076
O O6 0.896223 0.494732 0.108616
O O7 0.500000 0.500000 0.000000
O O8 0.834981 0.706595 0.852714
O O9 0.605131 0.957336 0.751236
O O10 0.756288 0.207054 0.550061
O O11 0.500000 0.000000 0.500000
O O12 0.882491 0.962218 0.631703
O O13 0.992526 0.268102 0.327988
O O14 0.407047 0.275093 0.371564
O O15 0.172797 0.557121 0.663647
O O16 0.035847 0.900555 0.151402
O O17 0.348552 0.088868 0.996591
#
# Coordination Sequence:
#
# PCOD9018037 Si02
#       8
#     2   2   2   2   2   2   2   2
#     4  11  24  42  67 100 134 174 232 273 339 413
#     4  12  23  44  68  97 142 176 225 287 341 408
#     4   9  20  42  70  97 133 176 223 281 333 398
#     4  11  23  43  66  97 134 176 228 279 343 406
#     4  12  25  42  66 101 134 183 228 277 344 404
#     4  10  21  43  68 100 138 168 228 281 336 404
#     4  10  24  44  66  96 137 179 226 282 335 398
#     4  11  23  41  70  99 133 182 220 283 343 390
#
# _framework density 23.948758999999999
#
# number of rings (size 3 to 8) (size 9 to 14) (size 15 to 20)
#    0.000    1.250    3.750    1.875    0.000    3.000 
#    0.000    6.250    0.000    0.000    0.000    0.000 
#    0.000    0.000    0.000    0.000    0.000    0.000 
#
# Total GULP energy -89483.110141 kJ/mol
# GULP energy per Si atom -5592.694384 kJ/mol
# Density = 2.389425 g / cm^3
# Si number density = 23.948759 Si / 1000 Ang^3
#
#
#
# Elastic Constant Matrix: (Units=GPa)
#
#
# Indices 1 2 3 4 5 6 
#
# 1 67.4429 28.0572 51.6651 11.3840 -12.3909 -22.4567
# 2 28.0572 78.0290 27.4645 5.7691 11.2885 -31.3606
# 3 51.6651 27.4645 147.3041 9.3163 -8.0452 -13.4538
# 4 11.3840 5.7691 9.3163 32.7932 -10.3119 10.4598
# 5 -12.3909 11.2885 -8.0452 -10.3119 39.8998 -5.5000
# 6 -22.4567 -31.3606 -13.4538 10.4598 -5.5000 48.7188
#
#
#
# Elastic Compliance Matrix: (Units=1/GPa)
#
#
# Indices 1 2 3 4 5 6 
#
# 1 0.028694 -0.003570 -0.007375 -0.008470 0.007843 0.011596
# 2 -0.003570 0.021571 -0.001485 -0.008733 -0.008003 0.012801
# 3 -0.007375 -0.001485 0.009428 0.000741 -0.000042 -0.001916
# 4 -0.008470 -0.008733 0.000741 0.043110 0.008706 -0.017594
# 5 0.007843 -0.008003 -0.000042 0.008706 0.032032 0.000199
# 6 0.011596 0.012801 -0.001916 -0.017594 0.000199 0.037382
#
#
# Mechanical properties :
#
#
# Convention : Reuss Voigt Hill
#
# Bulk Modulus (GPa) = 28.70915 56.34996 42.52955
# Shear Modulus (GPa) = 23.95919 36.65498 30.30708
#
# Velocity S-wave (km/s) = 3.16640 3.91648 3.56124
# Velocity P-wave (km/s) = 5.03804 6.63568 5.89127
#
# Compressibility (1/GPa) = 0.03483210
#
# Stress axis : x y z
#
# Youngs Moduli (GPa) = 34.85026 46.35958 106.06340
#
# Poissons Ratio (x) = 0.16549 0.78227
# Poissons Ratio (y) = 0.12440 0.15754
# Poissons Ratio (z) = 0.25704 0.06886
#
# Static dielectric constant tensor:
#      x y z
#    x 1.872600 -0.065670 0.005680 
#    y -0.065670 1.939100 -0.013810 
#    z 0.005680 -0.013810 1.942780 
# 
# From -- ./inp_files/363931.got.cif
#   From: 2010.05.17/outbox.cif.g08.bks.cpg/sg2_182_cif.got.tgz:363931.got - 2010.06.03 11:33:40.
