data_PCOD9018657
_publ_section_title
;
Structure prediction by ZEFSAII (Michael W. Deem and Ramdas Pophale) SiO2 
 PCOD9018657
Probable space group: P -1
;
_chemical_formula_sum "Si O2"
_cell_formula_units_Z 12
_cell_length_a 9.506696
_cell_length_b 8.056562
_cell_length_c 7.352748
_cell_angle_alpha 78.515628
_cell_angle_beta 81.678975
_cell_angle_gamma 60.855805
_cell_volume 481.260695
_symmetry_space_group_name_H-M "P -1"
_symmetry_group_IT_number 2
_symmetry_cell_setting 'triclinic'
loop_
_space_group_symop_operation_xyz
x,y,z
-x,-y,-z
loop_
_atom_site_type_symbol
_atom_site_label
_atom_site_fract_x
_atom_site_fract_y
_atom_site_fract_z
Si Si1 0.422012 0.295154 0.137039
Si Si2 0.093736 0.330919 0.164620
Si Si3 0.988334 0.007694 0.784588
Si Si4 0.216687 0.155882 0.530361
Si Si5 0.483720 0.219608 0.569867
Si Si6 0.640538 0.306275 0.827311
O O1 0.282246 0.254052 0.096606
O O2 0.463579 0.267846 0.348986
O O3 0.352774 0.526076 0.093848
O O4 0.581682 0.199408 0.006741
O O5 0.115543 0.340402 0.378752
O O6 0.015533 0.188699 0.215115
O O7 0.000000 0.500000 0.000000
O O8 0.813166 0.181071 0.735339
O O9 0.115512 0.060972 0.656728
O O10 0.000000 0.000000 0.000000
O O11 0.321266 0.205218 0.643470
O O12 0.356267 0.987261 0.417375
O O13 0.512794 0.352923 0.677385
#
# Coordination Sequence:
#
# PCOD9018657 Si02
#       6
#     2   2   2   2   2   2
#     4  10  24  44  65 103 139 177 236 288 338 413
#     4  11  24  45  68  97 144 182 222 291 346 400
#     4  12  25  42  71 105 137 184 231 282 348 417
#     4  10  23  45  70 106 138 175 235 287 340 419
#     4  10  21  43  73  99 136 182 227 287 347 409
#     4  11  23  43  70 100 138 184 229 282 349 408
#
# _framework density 24.934512999999999
#
# number of rings (size 3 to 8) (size 9 to 14) (size 15 to 20)
#    0.000    1.333    1.667    3.000    2.333    2.000 
#    3.000    2.500    0.000    0.000    0.000    0.000 
#    0.000    0.000    0.000    0.000    0.000    0.000 
#
# Total GULP energy -66915.042153 kJ/mol
# GULP energy per Si atom -5576.253513 kJ/mol
# Density = 2.487776 g / cm^3
# Si number density = 24.934513 Si / 1000 Ang^3
#
#
#
# Elastic Constant Matrix: (Units=GPa)
#
#
# Indices 1 2 3 4 5 6 
#
# 1 194.4081 35.0060 72.8992 -9.8694 -15.4835 12.1170
# 2 35.0060 36.9851 18.1271 -4.4433 -6.1536 0.4709
# 3 72.8992 18.1271 126.6768 -12.7088 -6.3946 4.6959
# 4 -9.8694 -4.4433 -12.7088 35.8236 11.1735 6.9767
# 5 -15.4835 -6.1536 -6.3946 11.1735 44.3396 -1.1911
# 6 12.1170 0.4709 4.6959 6.9767 -1.1911 17.8853
#
#
#
# Elastic Compliance Matrix: (Units=1/GPa)
#
#
# Indices 1 2 3 4 5 6 
#
# 1 0.007804 -0.005365 -0.003420 0.000777 0.001171 -0.004473
# 2 -0.005365 0.033354 -0.001602 0.000742 0.002419 0.003049
# 3 -0.003420 -0.001602 0.010427 0.003108 -0.000740 -0.001640
# 4 0.000777 0.000742 0.003108 0.034978 -0.008410 -0.015566
# 5 0.001171 0.002419 -0.000740 -0.008410 0.025426 0.004311
# 6 -0.004473 0.003049 -0.001640 -0.015566 0.004311 0.065652
#
#
# Mechanical properties :
#
#
# Convention : Reuss Voigt Hill
#
# Bulk Modulus (GPa) = 32.45666 67.79273 50.12470
# Shear Modulus (GPa) = 23.95956 35.07887 29.51922
#
# Velocity S-wave (km/s) = 3.10320 3.75486 3.44447
# Velocity P-wave (km/s) = 5.08771 6.78571 5.99711
#
# Compressibility (1/GPa) = 0.03081031
#
# Stress axis : x y z
#
# Youngs Moduli (GPa) = 128.14097 29.98175 95.90523
#
# Poissons Ratio (x) = 0.16084 0.32803
# Poissons Ratio (y) = 0.68744 0.15364
# Poissons Ratio (z) = 0.43829 0.04803
#
# Static dielectric constant tensor:
#      x y z
#    x 2.029990 0.031770 -0.003930 
#    y 0.031770 2.080300 -0.062490 
#    z -0.003930 -0.062490 2.035820 
# 
# From -- ./inp_files/157381.got.cif
#   From: 2010.05.17/outbox.cif.g08.bks.cpg/sg2_79_cif.got.tgz:157381.got - 2010.06.03 11:33:40.
