data_PCOD9018349
_publ_section_title
;
Structure prediction by ZEFSAII (Michael W. Deem and Ramdas Pophale) SiO2 
 PCOD9018349
Probable space group: P -1
;
_chemical_formula_sum "Si O2"
_cell_formula_units_Z 16
_cell_length_a 21.953421
_cell_length_b 11.992163
_cell_length_c 12.073122
_cell_angle_alpha 25.344091
_cell_angle_beta 142.703106
_cell_angle_gamma 149.537019
_cell_volume 687.779229
_symmetry_space_group_name_H-M "P -1"
_symmetry_group_IT_number 2
_symmetry_cell_setting 'triclinic'
loop_
_space_group_symop_operation_xyz
x,y,z
-x,-y,-z
loop_
_atom_site_type_symbol
_atom_site_label
_atom_site_fract_x
_atom_site_fract_y
_atom_site_fract_z
Si Si1 0.434270 0.337443 0.407324
Si Si2 0.893632 0.635327 0.189146
Si Si3 0.008973 0.720505 0.485269
Si Si4 0.450050 0.274890 0.237376
Si Si5 0.053666 0.357059 0.286568
Si Si6 0.761734 0.630283 0.808170
Si Si7 0.667227 0.196483 0.683763
Si Si8 0.413856 0.962001 0.055105
O O1 0.402659 0.307073 0.257753
O O2 0.323772 0.243662 0.411721
O O3 0.494805 0.148494 0.693100
O O4 0.525669 0.712913 0.212872
O O5 0.932825 0.428871 0.367999
O O6 0.889964 0.609272 0.339577
O O7 0.778962 0.558000 0.023859
O O8 0.000000 0.000000 0.000000
O O9 0.981679 0.612917 0.667088
O O10 0.107608 0.093589 0.293384
O O11 0.565445 0.268082 0.448682
O O12 0.339861 0.972151 0.288883
O O13 0.500000 0.500000 0.000000
O O14 0.197819 0.529507 0.339911
O O15 0.000000 0.000000 0.500000
O O16 0.000000 0.500000 0.000000
O O17 0.698270 0.326356 0.912698
O O18 0.624238 0.995274 0.915798
#
# Coordination Sequence:
#
# PCOD9018349 Si02
#       8
#     2   2   2   2   2   2   2   2
#     4  11  25  41  66 103 135 176 232 281 349 421
#     4   9  22  42  69  96 132 182 233 289 349 405
#     4  10  24  46  68 101 141 179 246 290 348 420
#     4  10  21  43  70 100 137 183 237 295 354 415
#     4  12  30  48  74 110 147 195 244 292 364 435
#     4  11  24  40  71  95 140 184 226 286 359 409
#     4  10  24  43  69 100 138 186 234 295 354 418
#     4  11  24  42  65  99 141 174 227 284 349 420
#
# _framework density 23.263279000000001
#
# number of rings (size 3 to 8) (size 9 to 14) (size 15 to 20)
#    0.000    1.500    1.250    1.500   10.500    4.000 
#    0.000    0.000    0.000    0.000    0.000    0.000 
#    0.000    0.000    0.000    0.000    0.000    0.000 
#
# Total GULP energy -89350.888578 kJ/mol
# GULP energy per Si atom -5584.430536 kJ/mol
# Density = 2.321033 g / cm^3
# Si number density = 23.263279 Si / 1000 Ang^3
#
#
#
# Elastic Constant Matrix: (Units=GPa)
#
#
# Indices 1 2 3 4 5 6 
#
# 1 79.5799 26.6755 7.7287 14.7636 -25.4725 -32.4340
# 2 26.6755 115.3870 35.4294 21.9069 -3.2464 -18.0438
# 3 7.7287 35.4294 77.7964 14.8948 -10.2511 -13.5957
# 4 14.7636 21.9069 14.8948 38.2180 -15.7653 -10.7394
# 5 -25.4725 -3.2464 -10.2511 -15.7653 34.1723 0.6975
# 6 -32.4340 -18.0438 -13.5957 -10.7394 0.6975 37.6942
#
#
#
# Elastic Compliance Matrix: (Units=1/GPa)
#
#
# Indices 1 2 3 4 5 6 
#
# 1 0.035543 -0.006283 0.007394 0.009114 0.031661 0.032253
# 2 -0.006283 0.012317 -0.005319 -0.006852 -0.008204 -0.003229
# 3 0.007394 -0.005319 0.017578 0.000408 0.010262 0.010083
# 4 0.009114 -0.006852 0.000408 0.041195 0.024944 0.015984
# 5 0.031661 -0.008204 0.010262 0.024944 0.065999 0.032903
# 6 0.032253 -0.003229 0.010083 0.015984 0.032903 0.060317
#
#
# Mechanical properties :
#
#
# Convention : Reuss Voigt Hill
#
# Bulk Modulus (GPa) = 17.53705 45.82560 31.68133
# Shear Modulus (GPa) = 19.20326 35.54556 27.37441
#
# Velocity S-wave (km/s) = 2.87623 3.91316 3.43406
# Velocity P-wave (km/s) = 4.31104 6.33708 5.41958
#
# Compressibility (1/GPa) = 0.05702213
#
# Stress axis : x y z
#
# Youngs Moduli (GPa) = 28.13513 81.18680 56.89006
#
# Poissons Ratio (x) = 0.51011 -0.42064
# Poissons Ratio (y) = 0.17678 0.30258
# Poissons Ratio (z) = -0.20803 0.43181
#
# Static dielectric constant tensor:
#      x y z
#    x 1.918860 0.047220 -0.011940 
#    y 0.047220 1.967490 -0.023190 
#    z -0.011940 -0.023190 1.951670 
# 
# From -- ./inp_files/471122.got.cif
#   From: 2010.05.17/outbox.cif.g08.bks.cpg/sg2_236_cif.got.tgz:471122.got - 2010.06.03 11:33:40.
