data_PCOD9018593
_publ_section_title
;
Structure prediction by ZEFSAII (Michael W. Deem and Ramdas Pophale) SiO2 
 PCOD9018593
Probable space group: P -1
;
_chemical_formula_sum "Si O2"
_cell_formula_units_Z 16
_cell_length_a 11.519323
_cell_length_b 10.717192
_cell_length_c 15.028095
_cell_angle_alpha 156.838057
_cell_angle_beta 70.735736
_cell_angle_gamma 110.176136
_cell_volume 684.551355
_symmetry_space_group_name_H-M "P -1"
_symmetry_group_IT_number 2
_symmetry_cell_setting 'triclinic'
loop_
_space_group_symop_operation_xyz
x,y,z
-x,-y,-z
loop_
_atom_site_type_symbol
_atom_site_label
_atom_site_fract_x
_atom_site_fract_y
_atom_site_fract_z
Si Si1 0.534825 0.356198 0.191100
Si Si2 0.014539 0.324905 0.148798
Si Si3 0.642941 0.468800 0.053595
Si Si4 0.938781 0.235231 0.406492
Si Si5 0.201987 0.288516 0.587286
Si Si6 0.108214 0.771490 0.121342
Si Si7 0.661664 0.192911 0.489605
Si Si8 0.752564 0.333050 0.750548
O O1 0.550820 0.326673 0.060305
O O2 0.660858 0.528116 0.316621
O O3 0.430488 0.589337 0.390087
O O4 0.500000 0.000000 0.000000
O O5 0.048858 0.609002 0.397344
O O6 0.136095 0.380805 0.092110
O O7 0.892435 0.443400 0.212645
O O8 0.000000 0.000000 0.000000
O O9 0.612992 0.827445 0.280762
O O10 0.773938 0.427639 0.042833
O O11 0.664154 0.343175 0.865807
O O12 0.791115 0.177952 0.395604
O O13 0.000000 0.500000 0.500000
O O14 0.031506 0.966176 0.200127
O O15 0.167160 0.064791 0.362764
O O16 0.189639 0.004346 0.476958
O O17 0.000000 0.500000 0.000000
O O18 0.685988 0.338603 0.677341
#
# Coordination Sequence:
#
# PCOD9018593 Si02
#       8
#     2   2   2   2   2   2   2   2
#     4  12  29  48  71  99 147 200 247 299 355 426
#     4  10  23  39  67 105 145 179 229 301 367 424
#     4  11  24  44  76 103 138 192 243 300 358 433
#     4  10  23  39  68 102 143 178 226 301 363 425
#     4  10  23  44  68 100 147 190 236 300 356 432
#     4  10  21  43  72 110 135 178 239 293 371 428
#     4  11  24  48  70 103 144 192 245 292 357 433
#     4  10  23  44  72 109 138 186 241 299 362 434
#
# _framework density 23.372973000000002
#
# number of rings (size 3 to 8) (size 9 to 14) (size 15 to 20)
#    0.000    1.500    2.500    0.750    7.000    3.500 
#    2.250    2.500    0.000    0.000    0.000    0.000 
#    0.000    0.000    0.000    0.000    0.000    0.000 
#
# Total GULP energy -89205.058959 kJ/mol
# GULP energy per Si atom -5575.316185 kJ/mol
# Density = 2.331978 g / cm^3
# Si number density = 23.372973 Si / 1000 Ang^3
#
#
#
# Elastic Constant Matrix: (Units=GPa)
#
#
# Indices 1 2 3 4 5 6 
#
# 1 137.0755 43.8091 76.0860 13.9756 -30.7025 6.2477
# 2 43.8091 122.7474 55.6270 33.0913 -9.3091 15.5033
# 3 76.0860 55.6270 156.0543 17.4401 -23.5935 0.4049
# 4 13.9756 33.0913 17.4401 64.2628 -11.1789 -3.3629
# 5 -30.7025 -9.3091 -23.5935 -11.1789 51.0960 0.6522
# 6 6.2477 15.5033 0.4049 -3.3629 0.6522 14.2865
#
#
#
# Elastic Compliance Matrix: (Units=1/GPa)
#
#
# Indices 1 2 3 4 5 6 
#
# 1 0.011317 -0.001233 -0.004370 -0.000035 0.004598 -0.003706
# 2 -0.001233 0.014198 -0.003816 -0.007082 -0.001257 -0.016369
# 3 -0.004370 -0.003816 0.010010 0.000748 0.001390 0.005881
# 4 -0.000035 -0.007082 0.000748 0.020230 0.003303 0.012291
# 5 0.004598 -0.001257 0.001390 0.003303 0.023482 -0.000981
# 6 -0.003706 -0.016369 0.005881 0.012291 -0.000981 0.092151
#
#
# Mechanical properties :
#
#
# Convention : Reuss Voigt Hill
#
# Bulk Modulus (GPa) = 59.92369 85.21346 72.56858
# Shear Modulus (GPa) = 25.53796 41.95274 33.74535
#
# Velocity S-wave (km/s) = 3.30908 4.24125 3.80383
# Velocity P-wave (km/s) = 6.34773 7.77956 7.09983
#
# Compressibility (1/GPa) = 0.01668789
#
# Stress axis : x y z
#
# Youngs Moduli (GPa) = 88.36357 70.43466 99.90061
#
# Poissons Ratio (x) = 0.08683 0.43653
# Poissons Ratio (y) = 0.10893 0.38120
# Poissons Ratio (z) = 0.38612 0.26877
#
# Static dielectric constant tensor:
#      x y z
#    x 1.882520 -0.067800 0.195920 
#    y -0.067800 1.902910 -0.034200 
#    z 0.195920 -0.034200 1.590440 
# 
# From -- ./inp_files/569260.got.cif
#   From: 2010.05.17/outbox.cif.g08.bks.cpg/sg2_285_cif.got.tgz:569260.got - 2010.06.03 11:33:40.
