data_PCOD9018332
_publ_section_title
;
Structure prediction by ZEFSAII (Michael W. Deem and Ramdas Pophale) SiO2 
 PCOD9018332
Probable space group: P -1
;
_chemical_formula_sum "Si O2"
_cell_formula_units_Z 14
_cell_length_a 8.418250
_cell_length_b 10.165690
_cell_length_c 17.034640
_cell_angle_alpha 147.683196
_cell_angle_beta 74.817994
_cell_angle_gamma 124.822004
_cell_volume 552.997539
_symmetry_space_group_name_H-M "P -1"
_symmetry_group_IT_number 2
_symmetry_cell_setting 'triclinic'
loop_
_space_group_symop_operation_xyz
x,y,z
-x,-y,-z
loop_
_atom_site_type_symbol
_atom_site_label
_atom_site_fract_x
_atom_site_fract_y
_atom_site_fract_z
Si Si1 0.566232 0.483697 0.134613
Si Si2 0.298954 0.688059 0.259275
Si Si3 0.377319 0.318613 0.605699
Si Si4 0.721707 0.230215 0.873619
Si Si5 0.776638 0.517842 0.432517
Si Si6 0.130274 0.094443 0.227429
Si Si7 0.915699 0.174742 0.167103
O O1 0.501580 0.698660 0.230026
O O2 0.681878 0.615565 0.270776
O O3 0.692240 0.455916 0.038347
O O4 0.327614 0.101073 0.979089
O O5 0.218029 0.676333 0.177446
O O6 0.108937 0.368997 0.175724
O O7 0.358348 0.006177 0.452558
O O8 0.242186 0.298862 0.541196
O O9 0.636543 0.636468 0.713813
O O10 0.472778 0.848182 0.708455
O O11 0.862339 0.174274 0.876414
O O12 0.858738 0.720558 0.604345
O O13 0.926153 0.446786 0.346777
O O14 0.945984 0.003792 0.145080
#
# Coordination Sequence:
#
# PCOD9018332 Si02
#       7
#     2   2   2   2   2   2   2
#     4  11  25  44  66 102 133 179 215 273 335 399
#     4  12  22  44  69 102 129 175 222 282 316 393
#     4  11  22  41  76  93 130 174 235 264 319 395
#     4  10  22  42  72  92 135 173 231 263 324 398
#     4  10  21  43  69  99 130 180 223 267 327 406
#     4  11  20  43  70  99 129 179 221 269 330 399
#     4  11  26  40  70  97 144 165 218 276 347 379
#
# _framework density 25.316566999999999
#
# number of rings (size 3 to 8) (size 9 to 14) (size 15 to 20)
#    0.000    1.143    4.286    2.571    0.000    5.714 
#    0.000    2.143    0.000    0.000    0.000    0.000 
#    0.000    0.000    0.000    0.000    0.000    0.000 
#
# Total GULP energy -78554.448925 kJ/mol
# GULP energy per Si atom -5611.032066 kJ/mol
# Density = 2.525895 g / cm^3
# Si number density = 25.316567 Si / 1000 Ang^3
#
#
#
# Elastic Constant Matrix: (Units=GPa)
#
#
# Indices 1 2 3 4 5 6 
#
# 1 89.7792 52.3435 37.7883 -10.2179 -17.1027 -4.2853
# 2 52.3435 129.1974 61.1348 -16.6161 -1.8993 -24.6616
# 3 37.7883 61.1348 143.1482 -28.4638 -21.7670 -14.1389
# 4 -10.2179 -16.6161 -28.4638 55.3116 -6.6448 -2.0183
# 5 -17.1027 -1.8993 -21.7670 -6.6448 45.2173 -0.1676
# 6 -4.2853 -24.6616 -14.1389 -2.0183 -0.1676 33.1244
#
#
#
# Elastic Compliance Matrix: (Units=1/GPa)
#
#
# Indices 1 2 3 4 5 6 
#
# 1 0.016400 -0.006663 -0.000646 0.001282 0.005790 -0.003007
# 2 -0.006663 0.013746 -0.003716 0.000841 -0.003579 0.007819
# 3 -0.000646 -0.003716 0.010802 0.005067 0.005552 0.002097
# 4 0.001282 0.000841 0.005067 0.022082 0.006220 0.004332
# 5 0.005790 -0.003579 0.005552 0.006220 0.027745 0.000974
# 6 -0.003007 0.007819 0.002097 0.004332 0.000974 0.036786
#
#
# Mechanical properties :
#
#
# Convention : Reuss Voigt Hill
#
# Bulk Modulus (GPa) = 52.91355 73.85089 63.38222
# Shear Modulus (GPa) = 32.06967 40.78789 36.42878
#
# Velocity S-wave (km/s) = 3.56300 4.01822 3.79744
# Velocity P-wave (km/s) = 6.15408 7.12478 6.65715
#
# Compressibility (1/GPa) = 0.01889875
#
# Stress axis : x y z
#
# Youngs Moduli (GPa) = 60.97542 72.74704 92.57356
#
# Poissons Ratio (x) = 0.48471 0.05976
# Poissons Ratio (y) = 0.40628 0.34404
# Poissons Ratio (z) = 0.03936 0.27036
#
# Static dielectric constant tensor:
#      x y z
#    x 1.961700 0.041500 0.025770 
#    y 0.041500 1.970840 0.078160 
#    z 0.025770 0.078160 2.010980 
# 
# From -- ./inp_files/380955.got.cif
#   From: 2010.05.17/outbox.cif.g08.bks.cpg/sg2_191_cif.got.tgz:380955.got - 2010.06.03 11:33:40.
