data_PCOD9018667
_publ_section_title
;
Structure prediction by ZEFSAII (Michael W. Deem and Ramdas Pophale) SiO2 
 PCOD9018667
Probable space group: P -1
;
_chemical_formula_sum "Si O2"
_cell_formula_units_Z 11
_cell_length_a 22.273420
_cell_length_b 8.675885
_cell_length_c 15.591918
_cell_angle_alpha 31.815830
_cell_angle_beta 159.739959
_cell_angle_gamma 150.554526
_cell_volume 503.293789
_symmetry_space_group_name_H-M "P -1"
_symmetry_group_IT_number 2
_symmetry_cell_setting 'triclinic'
loop_
_space_group_symop_operation_xyz
x,y,z
-x,-y,-z
loop_
_atom_site_type_symbol
_atom_site_label
_atom_site_fract_x
_atom_site_fract_y
_atom_site_fract_z
Si Si1 0.510746 0.166947 0.654529
Si Si2 0.421322 0.268111 0.921267
Si Si3 0.902420 0.300327 0.047073
Si Si4 0.130626 0.559096 0.394053
Si Si5 0.948628 0.254738 0.469863
Si Si6 0.500000 0.000000 0.000000
O O1 0.500000 0.500000 0.500000
O O2 0.307343 0.901147 0.478973
O O3 0.677311 0.202211 0.794583
O O4 0.576993 0.057280 0.883883
O O5 0.227200 0.306887 0.627941
O O6 0.500000 0.500000 0.000000
O O7 0.544680 0.310719 0.981528
O O8 0.994715 0.520659 0.149880
O O9 0.949630 0.989497 0.266053
O O10 0.000000 0.500000 0.000000
O O11 0.018910 0.454146 0.382291
O O12 0.722177 0.074482 0.252533
O O13 0.000000 0.500000 0.500000
#
# Coordination Sequence:
#
# PCOD9018667 Si02
#       6
#     2   2   2   2   2   1
#     4  11  26  45  73 104 145 189 240 301 370 431
#     4  10  21  43  74 102 137 187 243 296 357 435
#     4  12  28  47  69 108 149 188 237 303 370 431
#     4  11  24  51  75  99 145 198 239 301 367 426
#     4  12  26  45  78 110 139 188 251 300 357 451
#     4  12  24  40  76 108 138 180 248 296 364 422
#
# _framework density 21.856020999999998
#
# number of rings (size 3 to 8) (size 9 to 14) (size 15 to 20)
#    0.000    0.727    3.636    3.818    7.636    1.455 
#    3.273    0.000    0.000    0.000    0.000    0.000 
#    0.000    0.000    0.000    0.000    0.000    0.000 
#
# Total GULP energy -61234.627598 kJ/mol
# GULP energy per Si atom -5566.784327 kJ/mol
# Density = 2.180628 g / cm^3
# Si number density = 21.856021 Si / 1000 Ang^3
#
#
#
# Elastic Constant Matrix: (Units=GPa)
#
#
# Indices 1 2 3 4 5 6 
#
# 1 130.8875 49.4143 42.9393 10.7921 12.7098 -15.0366
# 2 49.4143 144.6404 66.7614 12.0268 7.8154 -5.4144
# 3 42.9393 66.7614 74.0153 4.6074 24.6767 2.1109
# 4 10.7921 12.0268 4.6074 40.0734 5.2305 5.5808
# 5 12.7098 7.8154 24.6767 5.2305 49.9067 -1.1571
# 6 -15.0366 -5.4144 2.1109 5.5808 -1.1571 35.4968
#
#
#
# Elastic Compliance Matrix: (Units=1/GPa)
#
#
# Indices 1 2 3 4 5 6 
#
# 1 0.010510 -0.000494 -0.005863 -0.002825 0.000716 0.005193
# 2 -0.000494 0.013390 -0.013363 -0.003477 0.005078 0.003340
# 3 -0.005863 -0.013363 0.033435 0.004590 -0.013605 -0.007675
# 4 -0.002825 -0.003477 0.004590 0.027663 -0.004055 -0.006481
# 5 0.000716 0.005078 -0.013605 -0.004055 0.026290 0.003381
# 6 0.005193 0.003340 -0.007675 -0.006481 0.003381 0.032466
#
#
# Mechanical properties :
#
#
# Convention : Reuss Voigt Hill
#
# Bulk Modulus (GPa) = 55.88161 74.19703 65.03932
# Shear Modulus (GPa) = 26.43280 37.79061 32.11170
#
# Velocity S-wave (km/s) = 3.48142 4.16272 3.83722
# Velocity P-wave (km/s) = 6.46405 7.55818 7.03243
#
# Compressibility (1/GPa) = 0.01789497
#
# Stress axis : x y z
#
# Youngs Moduli (GPa) = 95.14852 74.68089 29.90911
#
# Poissons Ratio (x) = 0.03689 0.17535
# Poissons Ratio (y) = 0.04700 0.39968
# Poissons Ratio (z) = 0.55782 0.99798
#
# Static dielectric constant tensor:
#      x y z
#    x 1.895660 -0.068440 -0.040650 
#    y -0.068440 1.920920 0.045380 
#    z -0.040650 0.045380 1.808110 
# 
# From -- ./inp_files/148797.got.cif
#   From: 2010.05.17/outbox.cif.g08.bks.cpg/sg2_75_cif.got.tgz:148797.got - 2010.06.03 11:33:40.
