data_PCOD9018392
_publ_section_title
;
Structure prediction by ZEFSAII (Michael W. Deem and Ramdas Pophale) SiO2 
 PCOD9018392
Probable space group: P -1
;
_chemical_formula_sum "Si O2"
_cell_formula_units_Z 12
_cell_length_a 15.085508
_cell_length_b 8.862204
_cell_length_c 9.977049
_cell_angle_alpha 72.430569
_cell_angle_beta 62.839351
_cell_angle_gamma 30.057471
_cell_volume 581.253630
_symmetry_space_group_name_H-M "P -1"
_symmetry_group_IT_number 2
_symmetry_cell_setting 'triclinic'
loop_
_space_group_symop_operation_xyz
x,y,z
-x,-y,-z
loop_
_atom_site_type_symbol
_atom_site_label
_atom_site_fract_x
_atom_site_fract_y
_atom_site_fract_z
Si Si1 0.148433 0.867344 0.045251
Si Si2 0.599134 0.723104 0.087038
Si Si3 0.095514 0.392338 0.607148
Si Si4 0.916552 0.228998 0.382995
Si Si5 0.014902 0.623084 0.056044
Si Si6 0.499339 0.693104 0.438304
O O1 0.330057 0.505350 0.006864
O O2 0.051529 0.015430 0.216862
O O3 0.000000 0.000000 0.000000
O O4 0.172518 0.011681 0.936359
O O5 0.498501 0.764787 0.266898
O O6 0.790163 0.546519 0.064877
O O7 0.500000 0.000000 0.000000
O O8 0.084220 0.588581 0.613726
O O9 0.000000 0.500000 0.500000
O O10 0.979265 0.443792 0.779188
O O11 0.313130 0.026502 0.547294
O O12 0.698828 0.478035 0.425962
O O13 0.000000 0.000000 0.500000
O O14 0.000000 0.500000 0.000000
O O15 0.500000 0.500000 0.500000
#
# Coordination Sequence:
#
# PCOD9018392 Si02
#       6
#     2   2   2   2   2   2
#     4  10  21  43  70  90 135 178 226 272 348 396
#     4  11  24  42  73  99 134 181 231 282 346 413
#     4  12  26  43  73 103 142 180 229 288 350 413
#     4  12  26  44  69 106 139 185 232 285 351 412
#     4  11  21  44  70  96 131 179 228 277 345 409
#     4  12  25  46  70 105 143 183 231 288 349 415
#
# _framework density 20.645033000000002
#
# number of rings (size 3 to 8) (size 9 to 14) (size 15 to 20)
#    0.000    0.667    5.000    3.500    9.333    0.000 
#    0.000    0.833    0.000    0.000    0.000    0.000 
#    0.000    0.000    0.000    0.000    0.000    0.000 
#
# Total GULP energy -66998.973044 kJ/mol
# GULP energy per Si atom -5583.247754 kJ/mol
# Density = 2.059804 g / cm^3
# Si number density = 20.645033 Si / 1000 Ang^3
#
#
#
# Elastic Constant Matrix: (Units=GPa)
#
#
# Indices 1 2 3 4 5 6 
#
# 1 88.8435 31.2487 37.0412 0.5666 8.9217 33.6254
# 2 31.2487 131.8213 39.8117 -20.4550 7.8030 39.8805
# 3 37.0412 39.8117 147.6165 -21.7948 10.1414 17.5737
# 4 0.5666 -20.4550 -21.7948 41.1777 3.2901 1.1025
# 5 8.9217 7.8030 10.1414 3.2901 36.5284 -1.5862
# 6 33.6254 39.8805 17.5737 1.1025 -1.5862 46.4666
#
#
#
# Elastic Compliance Matrix: (Units=1/GPa)
#
#
# Indices 1 2 3 4 5 6 
#
# 1 0.017184 0.000485 -0.002891 -0.000894 -0.003933 -0.011871
# 2 0.000485 0.012139 -0.000997 0.006056 -0.003443 -0.010654
# 3 -0.002891 -0.000997 0.008579 0.004247 -0.001865 -0.000461
# 4 -0.000894 0.006056 0.004247 0.030164 -0.005278 -0.007053
# 5 -0.003933 -0.003443 -0.001865 -0.005278 0.030398 0.007669
# 6 -0.011871 -0.010654 -0.000461 -0.007053 0.007669 0.039859
#
#
# Mechanical properties :
#
#
# Convention : Reuss Voigt Hill
#
# Bulk Modulus (GPa) = 32.15818 64.94271 48.55044
# Shear Modulus (GPa) = 32.15581 42.17985 37.16783
#
# Velocity S-wave (km/s) = 3.95087 4.52497 4.24763
# Velocity P-wave (km/s) = 6.03515 7.66978 6.90104
#
# Compressibility (1/GPa) = 0.03109629
#
# Stress axis : x y z
#
# Youngs Moduli (GPa) = 58.19273 82.38223 116.56842
#
# Poissons Ratio (x) = -0.03998 0.33704
# Poissons Ratio (y) = -0.02824 0.11616
# Poissons Ratio (z) = 0.16826 0.08210
#
# Static dielectric constant tensor:
#      x y z
#    x 1.719380 -0.001970 -0.006370 
#    y -0.001970 1.828480 -0.056520 
#    z -0.006370 -0.056520 1.836520 
# 
# From -- ./inp_files/146305.got.cif
#   From: 2010.05.17/outbox.cif.g08.bks.cpg/sg2_74_cif.got.tgz:146305.got - 2010.06.03 11:33:40.
