data_PCOD9018036
_publ_section_title
;
Structure prediction by ZEFSAII (Michael W. Deem and Ramdas Pophale) SiO2 
 PCOD9018036
Probable space group: P -1
;
_chemical_formula_sum "Si O2"
_cell_formula_units_Z 16
_cell_length_a 13.904777
_cell_length_b 12.072151
_cell_length_c 8.247066
_cell_angle_alpha 78.993627
_cell_angle_beta 32.016301
_cell_angle_gamma 71.005847
_cell_volume 683.909829
_symmetry_space_group_name_H-M "P -1"
_symmetry_group_IT_number 2
_symmetry_cell_setting 'triclinic'
loop_
_space_group_symop_operation_xyz
x,y,z
-x,-y,-z
loop_
_atom_site_type_symbol
_atom_site_label
_atom_site_fract_x
_atom_site_fract_y
_atom_site_fract_z
Si Si1 0.538427 0.342606 0.641618
Si Si2 0.059728 0.152162 0.151103
Si Si3 0.474163 0.403721 0.347404
Si Si4 0.724529 0.081299 0.577454
Si Si5 0.714573 0.765733 0.437689
Si Si6 0.842599 0.369688 0.634889
Si Si7 0.430061 0.988416 0.845732
Si Si8 0.187271 0.368063 0.353093
O O1 0.555500 0.356484 0.421602
O O2 0.589439 0.454513 0.608352
O O3 0.656719 0.219366 0.585034
O O4 0.321045 0.360194 0.006775
O O5 0.948764 0.058178 0.293921
O O6 0.940691 0.262687 0.402574
O O7 0.110684 0.202550 0.896160
O O8 0.258559 0.086893 0.977258
O O9 0.301981 0.352489 0.585037
O O10 0.639735 0.361303 0.987597
O O11 0.618314 0.024819 0.612101
O O12 0.649620 0.048241 0.863991
O O13 0.725839 0.740540 0.619462
O O14 0.518303 0.869335 0.649596
O O15 0.820489 0.507414 0.583980
O O16 0.984793 0.360086 0.587622
#
# Coordination Sequence:
#
# PCOD9018036 Si02
#       8
#     2   2   2   2   2   2   2   2
#     4  10  21  43  68 100 136 178 223 274 345 402
#     4  12  27  44  69 103 137 179 229 282 334 402
#     4  10  23  40  71  98 139 177 218 281 340 407
#     4  11  24  43  73  99 129 183 225 282 339 400
#     4  12  25  43  68 102 132 182 223 276 337 410
#     4  10  23  41  64 100 138 176 219 283 334 402
#     4  11  25  48  69  97 137 179 230 285 335 394
#     4  10  22  41  66  97 139 177 221 274 344 398
#
# _framework density 23.394897
#
# number of rings (size 3 to 8) (size 9 to 14) (size 15 to 20)
#    0.000    1.250    1.250    3.750    5.250    3.000 
#    0.000    0.000    0.000    0.000    0.000    0.000 
#    0.000    0.000    0.000    0.000    0.000    0.000 
#
# Total GULP energy -89424.911531 kJ/mol
# GULP energy per Si atom -5589.056971 kJ/mol
# Density = 2.334165 g / cm^3
# Si number density = 23.394897 Si / 1000 Ang^3
#
#
#
# Elastic Constant Matrix: (Units=GPa)
#
#
# Indices 1 2 3 4 5 6 
#
# 1 53.8073 30.7891 14.3818 -10.0155 -9.8609 1.2552
# 2 30.7891 89.4954 35.5917 -13.5880 5.4284 -10.7103
# 3 14.3818 35.5917 60.3551 -20.0341 2.2576 0.7204
# 4 -10.0155 -13.5880 -20.0341 36.1982 4.6887 -17.3117
# 5 -9.8609 5.4284 2.2576 4.6887 25.2866 -12.5173
# 6 1.2552 -10.7103 0.7204 -17.3117 -12.5173 27.1103
#
#
#
# Elastic Compliance Matrix: (Units=1/GPa)
#
#
# Indices 1 2 3 4 5 6 
#
# 1 0.026930 -0.008773 -0.000404 0.004240 0.013802 0.004378
# 2 -0.008773 0.019646 -0.007304 0.006724 -0.002552 0.011477
# 3 -0.000404 -0.007304 0.025474 0.013606 -0.001089 0.004641
# 4 0.004240 0.006724 0.013606 0.058693 0.009987 0.044189
# 5 0.013802 -0.002552 -0.001089 0.009987 0.059730 0.032337
# 6 0.004378 0.011477 0.004641 0.044189 0.032337 0.084243
#
#
# Mechanical properties :
#
#
# Convention : Reuss Voigt Hill
#
# Bulk Modulus (GPa) = 25.58483 40.57587 33.08035
# Shear Modulus (GPa) = 15.59049 25.91203 20.75126
#
# Velocity S-wave (km/s) = 2.58428 3.33166 2.98148
# Velocity P-wave (km/s) = 4.45696 5.67288 5.10128
#
# Compressibility (1/GPa) = 0.03908567
#
# Stress axis : x y z
#
# Youngs Moduli (GPa) = 37.13398 50.90042 39.25559
#
# Poissons Ratio (x) = 0.44656 0.01588
# Poissons Ratio (y) = 0.32578 0.28674
# Poissons Ratio (z) = 0.01502 0.37180
#
# Static dielectric constant tensor:
#      x y z
#    x 1.913010 0.011160 -0.038140 
#    y 0.011160 1.880020 0.034660 
#    z -0.038140 0.034660 1.866330 
# 
# From -- ./inp_files/307242.got.cif
#   From: 2010.05.17/outbox.cif.g08.bks.cpg/sg2_154_cif.got.tgz:307242.got - 2010.06.03 11:33:40.
