data_PCOD9018280
_publ_section_title
;
Structure prediction by ZEFSAII (Michael W. Deem and Ramdas Pophale) SiO2 
 PCOD9018280
Probable space group: P -1
;
_chemical_formula_sum "Si O2"
_cell_formula_units_Z 12
_cell_length_a 8.856101
_cell_length_b 7.502783
_cell_length_c 9.540458
_cell_angle_alpha 69.212144
_cell_angle_beta 106.643634
_cell_angle_gamma 127.465718
_cell_volume 468.268491
_symmetry_space_group_name_H-M "P -1"
_symmetry_group_IT_number 2
_symmetry_cell_setting 'triclinic'
loop_
_space_group_symop_operation_xyz
x,y,z
-x,-y,-z
loop_
_atom_site_type_symbol
_atom_site_label
_atom_site_fract_x
_atom_site_fract_y
_atom_site_fract_z
Si Si1 0.571341 0.570191 0.731708
Si Si2 0.667360 0.295057 0.220324
Si Si3 0.529537 0.221377 0.597911
Si Si4 0.093420 0.678341 0.296107
Si Si5 0.805758 0.243768 0.010949
Si Si6 0.975181 0.952266 0.839790
O O1 0.419672 0.561512 0.799248
O O2 0.526790 0.342606 0.706315
O O3 0.575265 0.724206 0.561246
O O4 0.776957 0.712182 0.819731
O O5 0.651070 0.244431 0.063502
O O6 0.892163 0.444306 0.274830
O O7 0.562573 0.048701 0.336195
O O8 0.752598 0.344777 0.577338
O O9 0.040933 0.851857 0.289444
O O10 0.210534 0.795636 0.148409
O O11 0.854807 0.075076 0.143750
O O12 0.000000 0.500000 0.000000
O O13 0.000000 0.000000 0.000000
#
# Coordination Sequence:
#
# PCOD9018280 Si02
#       6
#     2   2   2   2   2   2
#     4  11  24  45  68 100 134 176 229 274 330 397
#     4  11  23  41  71  99 129 184 222 271 335 399
#     4  11  25  46  67  98 140 174 221 283 326 398
#     4  10  22  43  65  97 138 173 217 279 334 391
#     4   9  20  40  62  95 133 168 216 272 324 385
#     4  10  21  43  69  94 136 179 214 279 337 384
#
# _framework density 25.626324
#
# number of rings (size 3 to 8) (size 9 to 14) (size 15 to 20)
#    0.000    1.667    1.667    2.500    2.333    1.333 
#    0.000   10.833    0.000    0.000    0.000    0.000 
#    0.000    0.000    0.000    0.000    0.000    0.000 
#
# Total GULP energy -67164.765494 kJ/mol
# GULP energy per Si atom -5597.063791 kJ/mol
# Density = 2.556800 g / cm^3
# Si number density = 25.626324 Si / 1000 Ang^3
#
#
#
# Elastic Constant Matrix: (Units=GPa)
#
#
# Indices 1 2 3 4 5 6 
#
# 1 141.1243 40.1443 41.0104 8.3322 1.7354 -28.5479
# 2 40.1443 106.0963 24.5552 14.7698 11.3365 -6.0160
# 3 41.0104 24.5552 83.1041 19.6732 10.7379 3.1033
# 4 8.3322 14.7698 19.6732 38.3234 -3.5496 6.6547
# 5 1.7354 11.3365 10.7379 -3.5496 45.2653 1.8520
# 6 -28.5479 -6.0160 3.1033 6.6547 1.8520 50.7937
#
#
#
# Elastic Compliance Matrix: (Units=1/GPa)
#
#
# Indices 1 2 3 4 5 6 
#
# 1 0.010348 -0.002664 -0.004769 0.000345 0.001195 0.005703
# 2 -0.002664 0.011491 -0.000830 -0.003781 -0.002896 0.000515
# 3 -0.004769 -0.000830 0.016983 -0.007270 -0.004097 -0.002714
# 4 0.000345 -0.003781 -0.007270 0.032445 0.005376 -0.004256
# 5 0.001195 -0.002896 -0.004097 0.005376 0.024206 -0.001008
# 6 0.005703 0.000515 -0.002714 -0.004256 -0.001008 0.023714
#
#
# Mechanical properties :
#
#
# Convention : Reuss Voigt Hill
#
# Bulk Modulus (GPa) = 44.85198 60.19385 52.52291
# Shear Modulus (GPa) = 34.92947 41.85078 38.39013
#
# Velocity S-wave (km/s) = 3.69593 4.04557 3.87469
# Velocity P-wave (km/s) = 5.97942 6.73515 6.36851
#
# Compressibility (1/GPa) = 0.02229556
#
# Stress axis : x y z
#
# Youngs Moduli (GPa) = 96.63579 87.02704 58.88112
#
# Poissons Ratio (x) = 0.23186 0.28078
# Poissons Ratio (y) = 0.25746 0.04890
# Poissons Ratio (z) = 0.46081 0.07227
#
# Static dielectric constant tensor:
#      x y z
#    x 2.040140 -0.023210 -0.013650 
#    y -0.023210 1.987950 -0.008510 
#    z -0.013650 -0.008510 2.127710 
# 
# From -- ./inp_files/303693.got.cif
#   From: 2010.05.17/outbox.cif.g08.bks.cpg/sg2_152_cif.got.tgz:303693.got - 2010.06.03 11:33:40.
