data_PCOD9018852
_publ_section_title
;
Structure prediction by ZEFSAII (Michael W. Deem and Ramdas Pophale) SiO2 
 PCOD9018852
Probable space group: P -1
;
_chemical_formula_sum "Si O2"
_cell_formula_units_Z 16
_cell_length_a 9.739348
_cell_length_b 13.660745
_cell_length_c 9.283019
_cell_angle_alpha 95.111759
_cell_angle_beta 92.335215
_cell_angle_gamma 149.747115
_cell_volume 602.485566
_symmetry_space_group_name_H-M "P -1"
_symmetry_group_IT_number 2
_symmetry_cell_setting 'triclinic'
loop_
_space_group_symop_operation_xyz
x,y,z
-x,-y,-z
loop_
_atom_site_type_symbol
_atom_site_label
_atom_site_fract_x
_atom_site_fract_y
_atom_site_fract_z
Si Si1 0.748881 0.557462 0.469068
Si Si2 0.995754 0.804057 0.798200
Si Si3 0.995796 0.656494 0.021567
Si Si4 0.557757 0.802783 0.704641
Si Si5 0.395831 0.752534 0.192321
Si Si6 0.684605 0.761116 0.961681
Si Si7 0.181512 0.278125 0.776932
Si Si8 0.297225 0.780520 0.485444
O O1 0.481992 0.320329 0.409907
O O2 0.739958 0.644057 0.371565
O O3 0.863237 0.666445 0.639121
O O4 0.990871 0.633457 0.436227
O O5 0.103814 0.793868 0.918384
O O6 0.744008 0.705312 0.852157
O O7 0.271621 0.038721 0.798474
O O8 0.787421 0.448036 0.911894
O O9 0.246970 0.757756 0.124857
O O10 0.837604 0.630911 0.122996
O O11 0.521277 0.742948 0.859907
O O12 0.354709 0.762988 0.636927
O O13 0.866497 0.038870 0.728634
O O14 0.359343 0.739053 0.360193
O O15 0.652965 0.695795 0.111915
O O16 0.000000 0.000000 0.000000
O O17 0.500000 0.000000 0.500000
#
# Coordination Sequence:
#
# PCOD9018852 Si02
#       8
#     2   2   2   2   2   2   2   2
#     4  12  24  39  69 102 123 172 214 257 330 380
#     4  11  23  41  65  94 126 169 214 259 318 377
#     4  10  22  38  60  93 132 166 210 259 318 378
#     4  11  23  41  66  93 130 169 214 262 314 378
#     4  11  21  39  62  94 131 168 209 264 317 377
#     4   9  23  46  66  90 128 173 216 263 314 376
#     4  10  21  44  65  93 131 166 212 265 314 378
#     4  12  21  42  66  95 138 165 203 272 324 377
#
# _framework density 26.556650999999999
#
# number of rings (size 3 to 8) (size 9 to 14) (size 15 to 20)
#    0.000    1.250    3.750    1.500    0.000    4.000 
#    2.250    9.375    0.000    0.000    0.000    0.000 
#    0.000    0.000    0.000    0.000    0.000    0.000 
#
# Total GULP energy -89662.839618 kJ/mol
# GULP energy per Si atom -5603.927476 kJ/mol
# Density = 2.649621 g / cm^3
# Si number density = 26.556651 Si / 1000 Ang^3
#
#
#
# Elastic Constant Matrix: (Units=GPa)
#
#
# Indices 1 2 3 4 5 6 
#
# 1 107.9837 7.2475 28.3287 -18.5901 28.9322 0.1570
# 2 7.2475 78.0655 -5.5727 7.5789 11.1350 -18.1622
# 3 28.3287 -5.5727 110.2309 -7.5471 25.7349 -14.1651
# 4 -18.5901 7.5789 -7.5471 44.7512 -13.8570 4.8744
# 5 28.9322 11.1350 25.7349 -13.8570 62.8832 -5.0543
# 6 0.1570 -18.1622 -14.1651 4.8744 -5.0543 45.3589
#
#
#
# Elastic Compliance Matrix: (Units=1/GPa)
#
#
# Indices 1 2 3 4 5 6 
#
# 1 0.011552 -0.001635 -0.002271 0.003874 -0.003420 -0.002201
# 2 -0.001635 0.015835 0.002674 -0.004827 -0.003623 0.007296
# 3 -0.002271 0.002674 0.011172 -0.001190 -0.003921 0.004258
# 4 0.003874 -0.004827 -0.001190 0.026641 0.005059 -0.004617
# 5 -0.003420 -0.003623 -0.003921 0.005059 0.020765 -0.000893
# 6 -0.002201 0.007296 0.004258 -0.004617 -0.000893 0.026702
#
#
# Mechanical properties :
#
#
# Convention : Reuss Voigt Hill
#
# Bulk Modulus (GPa) = 27.70455 39.58747 33.64601
# Shear Modulus (GPa) = 39.31948 48.35042 43.83495
#
# Velocity S-wave (km/s) = 3.85202 4.27154 4.06719
# Velocity P-wave (km/s) = 5.49899 6.26636 5.89517
#
# Compressibility (1/GPa) = 0.03609515
#
# Stress axis : x y z
#
# Youngs Moduli (GPa) = 86.56161 63.15000 89.51211
#
# Poissons Ratio (x) = 0.10325 0.20327
# Poissons Ratio (y) = 0.14153 -0.23933
# Poissons Ratio (z) = 0.19657 -0.16885
#
# Static dielectric constant tensor:
#      x y z
#    x 2.097470 0.012940 -0.033870 
#    y 0.012940 2.158140 0.076410 
#    z -0.033870 0.076410 2.069530 
# 
# From -- ./inp_files/273206.got.cif
#   From: 2010.05.17/outbox.cif.g08.bks.cpg/sg2_137_cif.got.tgz:273206.got - 2010.06.03 11:33:40.
