data_PCOD9018258
_publ_section_title
;
Structure prediction by ZEFSAII (Michael W. Deem and Ramdas Pophale) SiO2 
 PCOD9018258
Probable space group: P -1
;
_chemical_formula_sum "Si O2"
_cell_formula_units_Z 15
_cell_length_a 11.645468
_cell_length_b 11.729909
_cell_length_c 9.171515
_cell_angle_alpha 69.782769
_cell_angle_beta 94.348328
_cell_angle_gamma 42.075158
_cell_volume 668.792099
_symmetry_space_group_name_H-M "P -1"
_symmetry_group_IT_number 2
_symmetry_cell_setting 'triclinic'
loop_
_space_group_symop_operation_xyz
x,y,z
-x,-y,-z
loop_
_atom_site_type_symbol
_atom_site_label
_atom_site_fract_x
_atom_site_fract_y
_atom_site_fract_z
Si Si1 0.851385 0.254992 0.764399
Si Si2 0.699840 0.976052 0.684585
Si Si3 0.262092 0.383416 0.487728
Si Si4 0.172843 0.330008 0.790320
Si Si5 0.540238 0.423049 0.874719
Si Si6 0.700916 0.036859 0.997568
Si Si7 0.000000 0.500000 0.000000
Si Si8 0.189016 0.861518 0.476522
O O1 0.729635 0.479921 0.600209
O O2 0.748758 0.293195 0.883711
O O3 0.846831 0.158966 0.679988
O O4 0.076224 0.106972 0.879068
O O5 0.467071 0.146460 0.552432
O O6 0.766421 0.033770 0.569818
O O7 0.862755 0.728723 0.811448
O O8 0.688252 0.035533 0.823456
O O9 0.234193 0.375994 0.658267
O O10 0.059951 0.509019 0.335259
O O11 0.168602 0.366188 0.942804
O O12 0.306853 0.092606 0.883391
O O13 0.372715 0.626269 0.665130
O O14 0.500000 0.500000 0.000000
O O15 0.548824 0.270029 0.936242
O O16 0.000000 0.000000 0.500000
#
# Coordination Sequence:
#
# PCOD9018258 Si02
#       8
#     2   2   2   2   2   2   1   2
#     4  11  22  43  69  94 138 172 216 274 331 394
#     4  11  23  44  66  95 135 173 220 268 329 382
#     4  10  21  43  69  92 126 176 218 265 328 401
#     4   9  22  44  68  96 125 173 219 266 338 378
#     4  12  24  41  64 100 128 172 219 269 332 391
#     4  10  22  41  66  96 132 173 211 273 325 386
#     4  10  24  42  64 100 132 166 220 282 310 384
#     4  12  26  42  66  98 133 181 218 267 331 398
#
# _framework density 22.428495000000002
#
# number of rings (size 3 to 8) (size 9 to 14) (size 15 to 20)
#    0.000    1.333    2.667    2.400    3.733    2.667 
#    4.800    0.000    0.000    0.000    0.000    0.000 
#    0.000    0.000    0.000    0.000    0.000    0.000 
#
# Total GULP energy -83650.803978 kJ/mol
# GULP energy per Si atom -5576.720265 kJ/mol
# Density = 2.237745 g / cm^3
# Si number density = 22.428495 Si / 1000 Ang^3
#
#
#
# Elastic Constant Matrix: (Units=GPa)
#
#
# Indices 1 2 3 4 5 6 
#
# 1 74.0805 40.0504 30.8503 -10.4283 -9.8070 -10.5630
# 2 40.0504 123.3539 35.8340 -19.0935 -22.4869 13.5436
# 3 30.8503 35.8340 82.2857 -18.3291 -16.8453 7.7942
# 4 -10.4283 -19.0935 -18.3291 60.0213 0.3061 -7.8251
# 5 -9.8070 -22.4869 -16.8453 0.3061 31.5377 -6.7275
# 6 -10.5630 13.5436 7.7942 -7.8251 -6.7275 26.2745
#
#
#
# Elastic Compliance Matrix: (Units=1/GPa)
#
#
# Indices 1 2 3 4 5 6 
#
# 1 0.022246 -0.006401 -0.006085 0.001944 0.002333 0.015224
# 2 -0.006401 0.012354 -0.000987 0.001586 0.004793 -0.006949
# 3 -0.006085 -0.000987 0.017160 0.003235 0.005548 -0.004644
# 4 0.001944 0.001586 0.003235 0.019236 0.004534 0.005894
# 5 0.002333 0.004793 0.005548 0.004534 0.040597 0.008566
# 6 0.015224 -0.006949 -0.004644 0.005894 0.008566 0.053088
#
#
# Mechanical properties :
#
#
# Convention : Reuss Voigt Hill
#
# Bulk Modulus (GPa) = 40.29859 54.79882 47.54871
# Shear Modulus (GPa) = 25.01245 35.09907 30.05576
#
# Velocity S-wave (km/s) = 3.34310 3.96021 3.66467
# Velocity P-wave (km/s) = 5.73658 6.73771 6.25720
#
# Compressibility (1/GPa) = 0.02481476
#
# Stress axis : x y z
#
# Youngs Moduli (GPa) = 44.95103 80.94538 58.27404
#
# Poissons Ratio (x) = 0.51812 0.35458
# Poissons Ratio (y) = 0.28772 0.05754
# Poissons Ratio (z) = 0.27351 0.07993
#
# Static dielectric constant tensor:
#      x y z
#    x 1.842750 -0.002250 0.043830 
#    y -0.002250 1.767580 -0.030640 
#    z 0.043830 -0.030640 1.864380 
# 
# From -- ./inp_files/257553.got.cif
#   From: 2010.05.17/outbox.cif.g08.bks.cpg/sg2_129_cif.got.tgz:257553.got - 2010.06.03 11:33:40.
