data_PCOD9018143
_publ_section_title
;
Structure prediction by ZEFSAII (Michael W. Deem and Ramdas Pophale) SiO2 
 PCOD9018143
Probable space group: P -1
;
_chemical_formula_sum "Si O2"
_cell_formula_units_Z 16
_cell_length_a 8.100051
_cell_length_b 12.775833
_cell_length_c 11.280820
_cell_angle_alpha 138.303634
_cell_angle_beta 123.247308
_cell_angle_gamma 74.925455
_cell_volume 625.598478
_symmetry_space_group_name_H-M "P -1"
_symmetry_group_IT_number 2
_symmetry_cell_setting 'triclinic'
loop_
_space_group_symop_operation_xyz
x,y,z
-x,-y,-z
loop_
_atom_site_type_symbol
_atom_site_label
_atom_site_fract_x
_atom_site_fract_y
_atom_site_fract_z
Si Si1 0.651653 0.362113 0.101571
Si Si2 0.552903 0.044555 0.922345
Si Si3 0.479233 0.807957 0.345063
Si Si4 0.654868 0.725125 0.679404
Si Si5 0.681096 0.560831 0.792629
Si Si6 0.133937 0.296881 0.482641
Si Si7 0.946911 0.243871 0.768421
Si Si8 0.088059 0.932687 0.626526
O O1 0.579505 0.283489 0.880412
O O2 0.680414 0.220875 0.080323
O O3 0.470785 0.418985 0.144874
O O4 0.840943 0.521905 0.304307
O O5 0.657118 0.908142 0.805239
O O6 0.323322 0.014040 0.752298
O O7 0.500000 0.000000 0.000000
O O8 0.678070 0.766147 0.441101
O O9 0.282853 0.746061 0.299663
O O10 0.500000 0.000000 0.500000
O O11 0.689750 0.694076 0.804143
O O12 0.430716 0.607117 0.458941
O O13 0.820542 0.683273 0.622230
O O14 0.902283 0.607328 0.977585
O O15 0.939676 0.160029 0.337734
O O16 0.999180 0.208901 0.624548
O O17 0.974803 0.075960 0.697821
#
# Coordination Sequence:
#
# PCOD9018143 Si02
#       8
#     2   2   2   2   2   2   2   2
#     4  11  23  42  65  96 133 173 217 267 332 388
#     4  12  23  44  71  96 126 181 224 264 329 399
#     4  12  23  40  66  98 131 174 220 273 327 394
#     4  10  22  42  68  96 133 171 223 265 331 391
#     4  10  21  43  68  96 131 176 214 275 327 394
#     4  11  24  42  65  99 135 173 212 277 334 381
#     4  11  22  40  68  96 131 173 222 272 328 395
#     4  11  23  41  67  97 134 170 220 274 333 387
#
# _framework density 25.575507000000002
#
# number of rings (size 3 to 8) (size 9 to 14) (size 15 to 20)
#    0.000    1.000    3.750    3.375    0.000    2.000 
#    2.250    5.625    0.000    0.000    0.000    0.000 
#    0.000    0.000    0.000    0.000    0.000    0.000 
#
# Total GULP energy -89655.322561 kJ/mol
# GULP energy per Si atom -5603.457660 kJ/mol
# Density = 2.551730 g / cm^3
# Si number density = 25.575507 Si / 1000 Ang^3
#
#
#
# Elastic Constant Matrix: (Units=GPa)
#
#
# Indices 1 2 3 4 5 6 
#
# 1 58.5555 17.2035 30.2048 -3.5556 7.2981 12.2927
# 2 17.2035 108.7932 17.9390 13.7843 7.0443 3.0570
# 3 30.2048 17.9390 75.2382 5.1372 -10.0139 -9.3664
# 4 -3.5556 13.7843 5.1372 45.7674 8.7653 2.9300
# 5 7.2981 7.0443 -10.0139 8.7653 42.7056 -3.1340
# 6 12.2927 3.0570 -9.3664 2.9300 -3.1340 36.8260
#
#
#
# Elastic Compliance Matrix: (Units=1/GPa)
#
#
# Indices 1 2 3 4 5 6 
#
# 1 0.031377 -0.002117 -0.016200 0.008156 -0.011664 -0.016060
# 2 -0.002117 0.010235 -0.001605 -0.002818 -0.001155 -0.000425
# 3 -0.016200 -0.001605 0.023670 -0.006339 0.010838 0.012988
# 4 0.008156 -0.002818 -0.006339 0.026068 -0.008271 -0.006879
# 5 -0.011664 -0.001155 0.010838 -0.008271 0.030573 0.010006
# 6 -0.016060 -0.000425 0.012988 -0.006879 0.010006 0.037253
#
#
# Mechanical properties :
#
#
# Convention : Reuss Voigt Hill
#
# Bulk Modulus (GPa) = 39.31238 41.47573 40.39406
# Shear Modulus (GPa) = 24.09651 36.87577 30.48614
#
# Velocity S-wave (km/s) = 3.07281 3.80128 3.45629
# Velocity P-wave (km/s) = 5.29094 5.95973 5.63527
#
# Compressibility (1/GPa) = 0.02543728
#
# Stress axis : x y z
#
# Youngs Moduli (GPa) = 31.87054 97.70399 42.24844
#
# Poissons Ratio (x) = 0.20686 0.68444
# Poissons Ratio (y) = 0.06748 0.06779
# Poissons Ratio (z) = 0.51631 0.15678
#
# Static dielectric constant tensor:
#      x y z
#    x 1.957120 0.000310 0.001510 
#    y 0.000310 2.028470 0.018600 
#    z 0.001510 0.018600 2.033230 
# 
# From -- ./inp_files/397920.got.cif
#   From: 2010.05.17/outbox.cif.g08.bks.cpg/sg2_199_cif.got.tgz:397920.got - 2010.06.03 11:33:40.
