data_PCOD9018432
_publ_section_title
;
Structure prediction by ZEFSAII (Michael W. Deem and Ramdas Pophale) SiO2 
 PCOD9018432
Probable space group: P -1
;
_chemical_formula_sum "Si O2"
_cell_formula_units_Z 15
_cell_length_a 25.267468
_cell_length_b 9.929152
_cell_length_c 6.942809
_cell_angle_alpha 128.669542
_cell_angle_beta 129.475172
_cell_angle_gamma 33.120465
_cell_volume 716.814465
_symmetry_space_group_name_H-M "P -1"
_symmetry_group_IT_number 2
_symmetry_cell_setting 'triclinic'
loop_
_space_group_symop_operation_xyz
x,y,z
-x,-y,-z
loop_
_atom_site_type_symbol
_atom_site_label
_atom_site_fract_x
_atom_site_fract_y
_atom_site_fract_z
Si Si1 0.598771 0.523261 0.366616
Si Si2 0.589508 0.136901 0.028633
Si Si3 0.538312 0.100165 0.279843
Si Si4 0.997593 0.614949 0.790455
Si Si5 0.153570 0.139795 0.012840
Si Si6 0.000000 0.000000 0.000000
Si Si7 0.184542 0.742864 0.482526
Si Si8 0.280010 0.227499 0.314099
O O1 0.610019 0.297627 0.169513
O O2 0.548522 0.656165 0.574447
O O3 0.705931 0.415675 0.495067
O O4 0.515108 0.726845 0.194246
O O5 0.578774 0.140295 0.234074
O O6 0.678569 0.865803 0.891870
O O7 0.627348 0.892600 0.445486
O O8 0.500000 0.000000 0.000000
O O9 0.077607 0.381741 0.912029
O O10 0.000000 0.500000 0.500000
O O11 0.020139 0.771146 0.934520
O O12 0.893179 0.792492 0.823425
O O13 0.168569 0.923014 0.763876
O O14 0.246912 0.098174 0.190055
O O15 0.094620 0.906845 0.267815
O O16 0.197338 0.528240 0.410174
#
# Coordination Sequence:
#
# PCOD9018432 Si02
#       8
#     2   2   2   2   2   1   2   2
#     4  10  22  41  67  98 139 178 228 284 337 407
#     4  10  21  43  70  96 137 183 226 278 345 409
#     4  11  23  41  62 101 138 183 225 279 344 415
#     4  11  25  49  71  98 138 180 228 291 344 412
#     4  11  25  46  73  98 137 182 229 285 353 407
#     4  12  26  44  74 104 138 182 234 286 350 414
#     4  12  24  45  69 103 138 180 234 288 345 408
#     4  11  24  44  70 101 138 180 227 284 343 409
#
# _framework density 20.925916999999998
#
# number of rings (size 3 to 8) (size 9 to 14) (size 15 to 20)
#    0.000    1.067    4.000    2.000    0.000    5.867 
#   12.000    0.000    0.000    0.000    0.000    0.000 
#    0.000    0.000    0.000    0.000    0.000    0.000 
#
# Total GULP energy -83553.910663 kJ/mol
# GULP energy per Si atom -5570.260711 kJ/mol
# Density = 2.087829 g / cm^3
# Si number density = 20.925917 Si / 1000 Ang^3
#
#
#
# Elastic Constant Matrix: (Units=GPa)
#
#
# Indices 1 2 3 4 5 6 
#
# 1 74.8605 20.2687 57.0227 21.0136 0.3900 6.2818
# 2 20.2687 69.3553 42.9913 27.7408 1.0329 7.1545
# 3 57.0227 42.9913 127.0820 14.4162 5.3489 -10.5115
# 4 21.0136 27.7408 14.4162 31.7790 -4.3472 5.6946
# 5 0.3900 1.0329 5.3489 -4.3472 41.0739 -1.4755
# 6 6.2818 7.1545 -10.5115 5.6946 -1.4755 26.1179
#
#
#
# Elastic Compliance Matrix: (Units=1/GPa)
#
#
# Indices 1 2 3 4 5 6 
#
# 1 0.027889 0.009192 -0.014464 -0.018029 -0.000922 -0.011168
# 2 0.009192 0.030823 -0.012352 -0.025892 -0.002357 -0.010114
# 3 -0.014464 -0.012352 0.018459 0.009730 -0.000490 0.012142
# 4 -0.018029 -0.025892 0.009730 0.062036 0.006199 0.002169
# 5 -0.000922 -0.002357 -0.000490 0.006199 0.025161 0.000740
# 6 -0.011168 -0.010114 0.012142 0.002169 0.000740 0.048200
#
#
# Mechanical properties :
#
#
# Convention : Reuss Voigt Hill
#
# Bulk Modulus (GPa) = 23.85241 56.87369 40.36305
# Shear Modulus (GPa) = 19.09923 29.86184 24.48054
#
# Velocity S-wave (km/s) = 3.02438 3.78170 3.42404
# Velocity P-wave (km/s) = 4.85995 6.80485 5.91291
#
# Compressibility (1/GPa) = 0.04192449
#
# Stress axis : x y z
#
# Youngs Moduli (GPa) = 35.85584 32.44278 54.17489
#
# Poissons Ratio (x) = -0.29822 0.78356
# Poissons Ratio (y) = -0.32960 0.66918
# Poissons Ratio (z) = 0.51860 0.40074
#
# Static dielectric constant tensor:
#      x y z
#    x 1.836330 0.001710 -0.003000 
#    y 0.001710 1.769890 0.002710 
#    z -0.003000 0.002710 1.729310 
# 
# From -- ./inp_files/89671.got.cif
#   From: 2010.05.17/outbox.cif.g08.bks.cpg/sg2_45_cif.got.tgz:89671.got - 2010.06.03 11:33:40.
