data_PCOD9018147
_publ_section_title
;
Structure prediction by ZEFSAII (Michael W. Deem and Ramdas Pophale) SiO2 
 PCOD9018147
Probable space group: P -1
;
_chemical_formula_sum "Si O2"
_cell_formula_units_Z 16
_cell_length_a 8.831254
_cell_length_b 13.579981
_cell_length_c 5.163908
_cell_angle_alpha 81.244564
_cell_angle_beta 68.172936
_cell_angle_gamma 78.025798
_cell_volume 560.466670
_symmetry_space_group_name_H-M "P -1"
_symmetry_group_IT_number 2
_symmetry_cell_setting 'triclinic'
loop_
_space_group_symop_operation_xyz
x,y,z
-x,-y,-z
loop_
_atom_site_type_symbol
_atom_site_label
_atom_site_fract_x
_atom_site_fract_y
_atom_site_fract_z
Si Si1 0.651822 0.698520 0.549613
Si Si2 0.296996 0.723891 0.941223
Si Si3 0.328320 0.061619 0.812830
Si Si4 0.944000 0.440818 0.301799
Si Si5 0.648675 0.126208 0.758077
Si Si6 0.814793 0.751111 0.896253
Si Si7 0.876087 0.064004 0.249794
Si Si8 0.313845 0.516803 0.211100
O O1 0.739579 0.697670 0.215606
O O2 0.713719 0.598916 0.728973
O O3 0.456119 0.703633 0.663393
O O4 0.709044 0.775871 0.688700
O O5 0.367577 0.763879 0.147126
O O6 0.230826 0.619956 0.077317
O O7 0.179312 0.824194 0.883134
O O8 0.487241 0.118501 0.683438
O O9 0.186641 0.138831 0.021548
O O10 0.257611 0.016218 0.623223
O O11 0.371312 0.957487 0.983412
O O12 0.746328 0.455675 0.467834
O O13 0.000000 0.500000 0.500000
O O14 0.000000 0.500000 0.000000
O O15 0.019853 0.323134 0.265969
O O16 0.841131 0.097851 0.554554
O O17 0.000000 0.000000 0.000000
O O18 0.500000 0.500000 0.000000
#
# Coordination Sequence:
#
# PCOD9018147 Si02
#       8
#     2   2   2   2   2   2   2   2
#     4  11  23  44  69 109 140 185 242 303 354 436
#     4  10  23  44  69  98 140 188 240 299 370 438
#     4  10  23  39  70  99 128 184 236 294 358 426
#     4  12  24  47  69 103 146 189 241 301 355 430
#     4  10  21  43  68  96 133 176 241 299 353 432
#     4  12  23  41  74 102 143 183 243 301 362 423
#     4  11  25  43  64 100 143 183 235 304 364 442
#     4  10  23  46  70 103 145 193 239 295 367 437
#
# _framework density 28.547637999999999
#
# number of rings (size 3 to 8) (size 9 to 14) (size 15 to 20)
#    0.000    1.250    3.750    1.125    1.750    4.000 
#    6.750    3.750    0.000    0.000    0.000    0.000 
#    0.000    0.000    0.000    0.000    0.000    0.000 
#
# Total GULP energy -89180.193978 kJ/mol
# GULP energy per Si atom -5573.762124 kJ/mol
# Density = 2.848266 g / cm^3
# Si number density = 28.547638 Si / 1000 Ang^3
#
#
#
# Elastic Constant Matrix: (Units=GPa)
#
#
# Indices 1 2 3 4 5 6 
#
# 1 51.8379 23.2612 28.3926 14.1423 -1.8001 -4.6000
# 2 23.2612 174.7038 30.0597 -1.6609 -10.4583 -2.2412
# 3 28.3926 30.0597 167.8688 17.8899 -6.8553 -0.6920
# 4 14.1423 -1.6609 17.8899 71.5500 -16.2692 -17.5552
# 5 -1.8001 -10.4583 -6.8553 -16.2692 48.4097 12.4527
# 6 -4.6000 -2.2412 -0.6920 -17.5552 12.4527 32.4308
#
#
#
# Elastic Compliance Matrix: (Units=1/GPa)
#
#
# Indices 1 2 3 4 5 6 
#
# 1 0.023366 -0.002704 -0.003120 -0.003925 -0.001905 0.001668
# 2 -0.002704 0.006318 -0.000743 0.001248 0.001548 0.000118
# 3 -0.003120 -0.000743 0.006772 -0.001271 0.000579 -0.001260
# 4 -0.003925 0.001248 -0.001271 0.017882 0.003985 0.007652
# 5 -0.001905 0.001548 0.000579 0.003985 0.024218 -0.007293
# 6 0.001668 0.000118 -0.001260 0.007652 -0.007293 0.037995
#
#
# Mechanical properties :
#
#
# Convention : Reuss Voigt Hill
#
# Bulk Modulus (GPa) = 42.88139 61.98193 52.43166
# Shear Modulus (GPa) = 36.37398 51.32457 43.84928
#
# Velocity S-wave (km/s) = 3.57340 4.24471 3.92344
# Velocity P-wave (km/s) = 5.66385 6.76627 6.23945
#
# Compressibility (1/GPa) = 0.02332014
#
# Stress axis : x y z
#
# Youngs Moduli (GPa) = 42.79694 158.27862 147.67065
#
# Poissons Ratio (x) = 0.42802 0.46080
# Poissons Ratio (y) = 0.11573 0.10976
# Poissons Ratio (z) = 0.13355 0.11764
#
# Static dielectric constant tensor:
#      x y z
#    x 2.760930 -0.030070 -0.075140 
#    y -0.030070 2.267080 -0.010860 
#    z -0.075140 -0.010860 2.242380 
# 
# From -- ./inp_files/77559.got.cif
#   From: 2010.05.17/outbox.cif.g08.bks.cpg/sg2_39_cif.got.tgz:77559.got - 2010.06.03 11:33:40.
