data_PCOD9018094
_publ_section_title
;
Structure prediction by ZEFSAII (Michael W. Deem and Ramdas Pophale) SiO2 
 PCOD9018094
Probable space group: P -1
;
_chemical_formula_sum "Si O2"
_cell_formula_units_Z 16
_cell_length_a 11.812107
_cell_length_b 12.040188
_cell_length_c 12.348297
_cell_angle_alpha 36.774099
_cell_angle_beta 98.782916
_cell_angle_gamma 71.846187
_cell_volume 706.393448
_symmetry_space_group_name_H-M "P -1"
_symmetry_group_IT_number 2
_symmetry_cell_setting 'triclinic'
loop_
_space_group_symop_operation_xyz
x,y,z
-x,-y,-z
loop_
_atom_site_type_symbol
_atom_site_label
_atom_site_fract_x
_atom_site_fract_y
_atom_site_fract_z
Si Si1 0.417587 0.022574 0.127887
Si Si2 0.056630 0.404093 0.707051
Si Si3 0.562094 0.907017 0.457823
Si Si4 0.996530 0.888757 0.409999
Si Si5 0.659927 0.436554 0.555897
Si Si6 0.861462 0.309751 0.876497
Si Si7 0.373245 0.745834 0.871752
Si Si8 0.646548 0.471671 0.284820
O O1 0.421890 0.003575 0.274772
O O2 0.587688 0.730705 0.335227
O O3 0.406809 0.251834 0.925021
O O4 0.254819 0.128307 0.965783
O O5 0.959961 0.357977 0.792838
O O6 0.000000 0.500000 0.500000
O O7 0.024332 0.642055 0.572285
O O8 0.715222 0.584371 0.711157
O O9 0.500000 0.000000 0.500000
O O10 0.619332 0.043048 0.318270
O O11 0.817998 0.097461 0.283464
O O12 0.956975 0.065645 0.164083
O O13 0.181174 0.735453 0.599679
O O14 0.500000 0.500000 0.500000
O O15 0.793806 0.260438 0.807719
O O16 0.703113 0.344858 0.510831
O O17 0.500000 0.500000 0.000000
O O18 0.475965 0.585449 0.124247
#
# Coordination Sequence:
#
# PCOD9018094 Si02
#       8
#     2   2   2   2   2   2   2   2
#     4   9  22  40  62  89 130 166 219 264 325 393
#     4  11  24  40  66  96 133 179 211 269 333 388
#     4  10  21  43  68  92 127 172 222 275 333 387
#     4  11  24  43  66  97 134 170 223 270 331 395
#     4  11  23  37  61  96 129 168 215 267 327 393
#     4  11  23  41  64  96 134 169 217 270 326 394
#     4  11  23  43  70  94 129 173 224 277 331 392
#     4  10  23  41  64  91 128 175 214 269 332 389
#
# _framework density 22.650265999999998
#
# number of rings (size 3 to 8) (size 9 to 14) (size 15 to 20)
#    0.000    1.500    1.250    3.375    5.250    2.500 
#    0.000    1.875    0.000    0.000    0.000    0.000 
#    0.000    0.000    0.000    0.000    0.000    0.000 
#
# Total GULP energy -89331.329344 kJ/mol
# GULP energy per Si atom -5583.208084 kJ/mol
# Density = 2.259871 g / cm^3
# Si number density = 22.650266 Si / 1000 Ang^3
#
#
#
# Elastic Constant Matrix: (Units=GPa)
#
#
# Indices 1 2 3 4 5 6 
#
# 1 76.6469 10.5946 16.1312 -3.9446 -6.4972 -12.9485
# 2 10.5946 85.9489 8.4728 12.3175 9.9582 -14.1700
# 3 16.1312 8.4728 66.3189 -4.2790 -4.4959 -2.7170
# 4 -3.9446 12.3175 -4.2790 35.4502 -7.5872 0.9234
# 5 -6.4972 9.9582 -4.4959 -7.5872 32.8694 -4.0710
# 6 -12.9485 -14.1700 -2.7170 0.9234 -4.0710 28.2163
#
#
#
# Elastic Compliance Matrix: (Units=1/GPa)
#
#
# Indices 1 2 3 4 5 6 
#
# 1 0.015496 -0.001443 -0.002828 0.002686 0.004561 0.006684
# 2 -0.001443 0.014666 -0.002128 -0.006927 -0.005891 0.005875
# 3 -0.002828 -0.002128 0.016419 0.003057 0.002981 -0.000456
# 4 0.002686 -0.006927 0.003057 0.033595 0.010614 -0.001520
# 5 0.004561 -0.005891 0.002981 0.010614 0.036505 0.004341
# 6 0.006684 0.005875 -0.000456 -0.001520 0.004341 0.042091
#
#
# Mechanical properties :
#
#
# Convention : Reuss Voigt Hill
#
# Bulk Modulus (GPa) = 29.60149 33.25685 31.42917
# Shear Modulus (GPa) = 27.34759 32.22160 29.78460
#
# Velocity S-wave (km/s) = 3.47851 3.77579 3.63020
# Velocity P-wave (km/s) = 5.40654 5.80719 5.61044
#
# Compressibility (1/GPa) = 0.03378208
#
# Stress axis : x y z
#
# Youngs Moduli (GPa) = 64.53428 68.18303 60.90443
#
# Poissons Ratio (x) = 0.09837 0.17226
# Poissons Ratio (y) = 0.09310 0.12963
# Poissons Ratio (z) = 0.18253 0.14513
#
# Static dielectric constant tensor:
#      x y z
#    x 1.909450 0.134530 -0.076990 
#    y 0.134530 3.060540 -0.641560 
#    z -0.076990 -0.641560 2.258660 
# 
# From -- ./inp_files/282949.got.cif
#   From: 2010.05.17/outbox.cif.g08.bks.cpg/sg2_142_cif.got.tgz:282949.got - 2010.06.03 11:33:40.
