data_PCOD9018428
_publ_section_title
;
Structure prediction by ZEFSAII (Michael W. Deem and Ramdas Pophale) SiO2 
 PCOD9018428
Probable space group: P -1
;
_chemical_formula_sum "Si O2"
_cell_formula_units_Z 14
_cell_length_a 6.117631
_cell_length_b 8.617238
_cell_length_c 14.166886
_cell_angle_alpha 61.472663
_cell_angle_beta 110.815306
_cell_angle_gamma 83.969583
_cell_volume 577.988873
_symmetry_space_group_name_H-M "P -1"
_symmetry_group_IT_number 2
_symmetry_cell_setting 'triclinic'
loop_
_space_group_symop_operation_xyz
x,y,z
-x,-y,-z
loop_
_atom_site_type_symbol
_atom_site_label
_atom_site_fract_x
_atom_site_fract_y
_atom_site_fract_z
Si Si1 0.167560 0.137887 0.346202
Si Si2 0.656121 0.055808 0.738561
Si Si3 0.394013 0.423199 0.205707
Si Si4 0.079921 0.661902 0.583843
Si Si5 0.105799 0.841939 0.982827
Si Si6 0.213581 0.621964 0.404181
Si Si7 0.340302 0.867001 0.823889
O O1 0.243718 0.314975 0.273532
O O2 0.101984 0.162119 0.438179
O O3 0.918282 0.126658 0.263541
O O4 0.371813 0.972081 0.369922
O O5 0.764746 0.224201 0.711505
O O6 0.411226 0.049897 0.753735
O O7 0.862022 0.878967 0.870171
O O8 0.650595 0.403486 0.305496
O O9 0.474953 0.314867 0.149250
O O10 0.222977 0.635614 0.102067
O O11 0.114617 0.701422 0.469011
O O12 0.953429 0.500902 0.615674
O O13 0.310435 0.861133 0.933488
O O14 0.000000 0.000000 0.000000
O O15 0.500000 0.500000 0.500000
#
# Coordination Sequence:
#
# PCOD9018428 Si02
#       7
#     2   2   2   2   2   2   2
#     4   9  20  42  69  96 127 170 227 269 315 391
#     4  10  24  44  64  96 135 170 220 272 325 390
#     4  10  21  43  70  96 134 175 221 268 324 401
#     4  10  23  42  71  96 124 178 218 267 335 388
#     4  11  25  40  63 103 136 172 217 276 327 392
#     4  11  25  44  66  96 134 173 215 276 332 395
#     4   9  21  43  66  94 133 181 217 267 327 389
#
# _framework density 24.221920999999998
#
# number of rings (size 3 to 8) (size 9 to 14) (size 15 to 20)
#    0.000    2.000    0.000    1.286    4.000   13.143 
#    0.000   10.000    0.000    0.000    0.000    0.000 
#    0.000    0.000    0.000    0.000    0.000    0.000 
#
# Total GULP energy -78182.959278 kJ/mol
# GULP energy per Si atom -5584.497091 kJ/mol
# Density = 2.416679 g / cm^3
# Si number density = 24.221921 Si / 1000 Ang^3
#
#
#
# Elastic Constant Matrix: (Units=GPa)
#
#
# Indices 1 2 3 4 5 6 
#
# 1 150.8378 60.0717 59.4325 -4.8825 -25.2750 33.0139
# 2 60.0717 98.9350 50.5897 10.5778 -26.2197 6.8333
# 3 59.4325 50.5897 70.1542 -9.0295 6.5239 12.6871
# 4 -4.8825 10.5778 -9.0295 39.7380 -8.7854 -17.3921
# 5 -25.2750 -26.2197 6.5239 -8.7854 50.8315 1.8006
# 6 33.0139 6.8333 12.6871 -17.3921 1.8006 65.7540
#
#
#
# Elastic Compliance Matrix: (Units=1/GPa)
#
#
# Indices 1 2 3 4 5 6 
#
# 1 0.013695 0.000796 -0.012247 -0.001705 0.008685 -0.005284
# 2 0.000796 0.025525 -0.021305 -0.009025 0.014798 -0.001734
# 3 -0.012247 -0.021305 0.042678 0.010821 -0.020813 0.003561
# 4 -0.001705 -0.009025 0.010821 0.033232 -0.001451 0.008536
# 5 0.008685 0.014798 -0.020813 -0.001451 0.034158 -0.003201
# 6 -0.005284 -0.001734 0.003561 0.008536 -0.003201 0.019700
#
#
# Mechanical properties :
#
#
# Convention : Reuss Voigt Hill
#
# Bulk Modulus (GPa) = 61.03243 73.34609 67.18926
# Shear Modulus (GPa) = 20.83671 41.25357 31.04514
#
# Velocity S-wave (km/s) = 2.93617 4.13140 3.58396
# Velocity P-wave (km/s) = 6.06190 7.28729 6.70266
#
# Compressibility (1/GPa) = 0.01638473
#
# Stress axis : x y z
#
# Youngs Moduli (GPa) = 73.02018 39.17750 23.43142
#
# Poissons Ratio (x) = -0.03119 0.28697
# Poissons Ratio (y) = -0.05814 0.49921
# Poissons Ratio (z) = 0.89431 0.83468
#
# Static dielectric constant tensor:
#      x y z
#    x 1.977300 -0.033740 -0.012910 
#    y -0.033740 2.041660 0.023760 
#    z -0.012910 0.023760 1.941980 
# 
# From -- ./inp_files/288809.got.cif
#   From: 2010.05.17/outbox.cif.g08.bks.cpg/sg2_145_cif.got.tgz:288809.got - 2010.06.03 11:33:40.
