data_PCOD9018019
_publ_section_title
;
Structure prediction by ZEFSAII (Michael W. Deem and Ramdas Pophale) SiO2 
 PCOD9018019
Probable space group: P -1
;
_chemical_formula_sum "Si O2"
_cell_formula_units_Z 16
_cell_length_a 5.461691
_cell_length_b 14.096468
_cell_length_c 9.553599
_cell_angle_alpha 118.207542
_cell_angle_beta 87.312068
_cell_angle_gamma 86.740061
_cell_volume 644.857439
_symmetry_space_group_name_H-M "P -1"
_symmetry_group_IT_number 2
_symmetry_cell_setting 'triclinic'
loop_
_space_group_symop_operation_xyz
x,y,z
-x,-y,-z
loop_
_atom_site_type_symbol
_atom_site_label
_atom_site_fract_x
_atom_site_fract_y
_atom_site_fract_z
Si Si1 0.252094 0.773007 0.908237
Si Si2 0.463084 0.247509 0.631213
Si Si3 0.858982 0.206758 0.378646
Si Si4 0.803679 0.600538 0.473403
Si Si5 0.766989 0.948039 0.403470
Si Si6 0.526917 0.614069 0.007094
Si Si7 0.957433 0.014886 0.845990
Si Si8 0.105876 0.387389 0.225182
O O1 0.310641 0.794034 0.758261
O O2 0.979725 0.732839 0.863317
O O3 0.384736 0.673328 0.920478
O O4 0.244107 0.882138 0.076056
O O5 0.690308 0.186208 0.501090
O O6 0.380537 0.343367 0.593347
O O7 0.246372 0.174105 0.626026
O O8 0.531058 0.299919 0.809977
O O9 0.972707 0.320848 0.472228
O O10 0.071177 0.107372 0.288474
O O11 0.717517 0.600531 0.636646
O O12 0.896689 0.481865 0.336673
O O13 0.821857 0.952096 0.237873
O O14 0.500000 0.000000 0.500000
O O15 0.000000 0.000000 0.500000
O O16 0.500000 0.500000 0.000000
O O17 0.796181 0.594405 0.918146
O O18 0.000000 0.000000 0.000000
#
# Coordination Sequence:
#
# PCOD9018019 Si02
#       8
#     2   2   2   2   2   2   2   2
#     4  10  23  42  68  94 136 181 233 289 357 434
#     4  12  25  40  69 100 140 183 233 293 369 430
#     4  10  21  43  67  99 130 178 235 291 353 431
#     4  10  22  41  68  93 127 181 233 295 351 434
#     4  12  27  47  73 107 149 191 243 307 367 439
#     4  12  26  41  64 101 140 180 227 293 364 439
#     4  10  22  44  70 100 139 188 238 295 359 434
#     4  10  22  43  64  92 131 174 237 293 358 420
#
# _framework density 24.811686000000002
#
# number of rings (size 3 to 8) (size 9 to 14) (size 15 to 20)
#    0.000    1.250    1.250    3.750    1.750    4.000 
#    0.000    6.875    0.000    0.000    0.000    0.000 
#    0.000    0.000    0.000    0.000    0.000    0.000 
#
# Total GULP energy -89280.561038 kJ/mol
# GULP energy per Si atom -5580.035065 kJ/mol
# Density = 2.475521 g / cm^3
# Si number density = 24.811686 Si / 1000 Ang^3
#
#
#
# Elastic Constant Matrix: (Units=GPa)
#
#
# Indices 1 2 3 4 5 6 
#
# 1 45.0947 22.2723 43.4655 -0.4076 -8.6296 2.5221
# 2 22.2723 135.6651 51.2425 3.4875 -4.7741 0.2161
# 3 43.4655 51.2425 179.4257 -13.4186 -18.7522 10.2604
# 4 -0.4076 3.4875 -13.4186 48.0635 8.6100 -1.9045
# 5 -8.6296 -4.7741 -18.7522 8.6100 29.5745 -9.9165
# 6 2.5221 0.2161 10.2604 -1.9045 -9.9165 43.2637
#
#
#
# Elastic Compliance Matrix: (Units=1/GPa)
#
#
# Indices 1 2 3 4 5 6 
#
# 1 0.030430 -0.002347 -0.006355 -0.002284 0.005434 0.000890
# 2 -0.002347 0.008535 -0.001991 -0.001164 -0.000063 0.000501
# 3 -0.006355 -0.001991 0.008099 0.001943 0.002065 -0.000982
# 4 -0.002284 -0.001164 0.001943 0.022538 -0.006455 -0.000809
# 5 0.005434 -0.000063 0.002065 -0.006455 0.041392 0.008397
# 6 0.000890 0.000501 -0.000982 -0.000809 0.008397 0.025182
#
#
# Mechanical properties :
#
#
# Convention : Reuss Voigt Hill
#
# Bulk Modulus (GPa) = 38.94486 66.01625 52.48055
# Shear Modulus (GPa) = 30.09855 40.39404 35.24630
#
# Velocity S-wave (km/s) = 3.48671 4.03926 3.77311
# Velocity P-wave (km/s) = 5.65153 6.95836 6.33871
#
# Compressibility (1/GPa) = 0.02567733
#
# Stress axis : x y z
#
# Youngs Moduli (GPa) = 32.86281 117.15821 123.47548
#
# Poissons Ratio (x) = 0.27494 0.78469
# Poissons Ratio (y) = 0.07712 0.24589
# Poissons Ratio (z) = 0.20884 0.23331
#
# Static dielectric constant tensor:
#      x y z
#    x 2.050470 -0.066680 -0.002340 
#    y -0.066680 2.053200 -0.017260 
#    z -0.002340 -0.017260 1.969040 
# 
# From -- ./inp_files/135637.got.cif
#   From: 2010.05.17/outbox.cif.g08.bks.cpg/sg2_68_cif.got.tgz:135637.got - 2010.06.03 11:33:40.
