data_PCOD9018903
_publ_section_title
;
Structure prediction by ZEFSAII (Michael W. Deem and Ramdas Pophale) SiO2 
 PCOD9018903
Probable space group: P -1
;
_chemical_formula_sum "Si O2"
_cell_formula_units_Z 16
_cell_length_a 18.506490
_cell_length_b 13.465068
_cell_length_c 8.146523
_cell_angle_alpha 59.917530
_cell_angle_beta 52.032939
_cell_angle_gamma 27.871729
_cell_volume 743.169044
_symmetry_space_group_name_H-M "P -1"
_symmetry_group_IT_number 2
_symmetry_cell_setting 'triclinic'
loop_
_space_group_symop_operation_xyz
x,y,z
-x,-y,-z
loop_
_atom_site_type_symbol
_atom_site_label
_atom_site_fract_x
_atom_site_fract_y
_atom_site_fract_z
Si Si1 0.548131 0.083524 0.163410
Si Si2 0.173179 0.862113 0.954797
Si Si3 0.044402 0.732572 0.910415
Si Si4 0.942209 0.599425 0.318755
Si Si5 0.092963 0.228001 0.231110
Si Si6 0.636304 0.538841 0.095604
Si Si7 0.676100 0.130308 0.533701
Si Si8 0.446444 0.943730 0.459176
O O1 0.490999 0.168882 0.359549
O O2 0.549366 0.945017 0.252430
O O3 0.418060 0.284062 0.057285
O O4 0.736675 0.931079 0.984612
O O5 0.290758 0.626328 0.004888
O O6 0.266794 0.843441 0.707349
O O7 0.105901 0.014203 0.067741
O O8 0.000000 0.000000 0.000000
O O9 0.998464 0.668405 0.135562
O O10 0.219360 0.595575 0.855766
O O11 0.042644 0.694394 0.756713
O O12 0.000000 0.500000 0.500000
O O13 0.019466 0.426623 0.228044
O O14 0.738719 0.811512 0.433138
O O15 0.161344 0.085851 0.410746
O O16 0.464761 0.672247 0.308754
O O17 0.587112 0.115510 0.581597
#
# Coordination Sequence:
#
# PCOD9018903 Si02
#       8
#     2   2   2   2   2   2   2   2
#     4  10  23  40  59  95 126 168 204 253 310 369
#     4  10  21  44  66  87 121 163 211 263 305 364
#     4  11  22  40  61  92 123 163 209 254 306 362
#     4  12  21  36  60  90 123 167 199 249 308 366
#     4  11  23  38  64  93 130 161 207 252 312 377
#     4  10  24  39  66  88 126 164 211 251 313 364
#     4  11  22  41  62  93 123 160 208 256 317 363
#     4  11  22  38  62  89 135 161 205 256 306 375
#
# _framework density 21.529423999999999
#
# number of rings (size 3 to 8) (size 9 to 14) (size 15 to 20)
#    0.000    1.250    3.750    1.500    1.750    3.000 
#    0.000    9.375    0.000    0.000    0.000    0.000 
#    0.000    0.000    0.000    0.000    0.000    0.000 
#
# Total GULP energy -89421.760301 kJ/mol
# GULP energy per Si atom -5588.860019 kJ/mol
# Density = 2.148042 g / cm^3
# Si number density = 21.529424 Si / 1000 Ang^3
#
#
#
# Elastic Constant Matrix: (Units=GPa)
#
#
# Indices 1 2 3 4 5 6 
#
# 1 70.9701 18.8170 1.5296 -8.0401 12.7386 9.1620
# 2 18.8170 76.2229 0.4970 18.7645 3.2688 14.1359
# 3 1.5296 0.4970 26.0813 -5.8153 4.7185 -2.2821
# 4 -8.0401 18.7645 -5.8153 22.0455 -0.1187 4.5384
# 5 12.7386 3.2688 4.7185 -0.1187 26.7139 3.4421
# 6 9.1620 14.1359 -2.2821 4.5384 3.4421 34.2985
#
#
#
# Elastic Compliance Matrix: (Units=1/GPa)
#
#
# Indices 1 2 3 4 5 6 
#
# 1 0.019747 -0.007751 0.003719 0.015350 -0.008671 -0.002994
# 2 -0.007751 0.021005 -0.005534 -0.021246 0.002576 -0.004402
# 3 0.003719 -0.005534 0.043930 0.017013 -0.009151 0.002877
# 4 0.015350 -0.021246 0.017013 0.074178 -0.006967 -0.003328
# 5 -0.008671 0.002576 -0.009151 -0.006967 0.043195 -0.002767
# 6 -0.002994 -0.004402 0.002877 -0.003328 -0.002767 0.032679
#
#
# Mechanical properties :
#
#
# Convention : Reuss Voigt Hill
#
# Bulk Modulus (GPa) = 15.25555 23.88461 19.57008
# Shear Modulus (GPa) = 18.13452 26.77362 22.45407
#
# Velocity S-wave (km/s) = 2.90541 3.53027 3.23297
# Velocity P-wave (km/s) = 4.28445 5.26641 4.80061
#
# Compressibility (1/GPa) = 0.06554990
#
# Stress axis : x y z
#
# Youngs Moduli (GPa) = 50.63994 47.60741 22.76360
#
# Poissons Ratio (x) = 0.36900 -0.08466
# Poissons Ratio (y) = 0.39251 0.12598
# Poissons Ratio (z) = -0.18833 0.26346
#
# Static dielectric constant tensor:
#      x y z
#    x 1.831320 -0.006770 0.036570 
#    y -0.006770 1.795320 -0.008170 
#    z 0.036570 -0.008170 1.796010 
# 
# From -- ./inp_files/178685.got.cif
#   From: 2010.05.17/outbox.cif.g08.bks.cpg/sg2_90_cif.got.tgz:178685.got - 2010.06.03 11:33:40.
