data_PCOD9018441
_publ_section_title
;
Structure prediction by ZEFSAII (Michael W. Deem and Ramdas Pophale) SiO2 
 PCOD9018441
Probable space group: P -1
;
_chemical_formula_sum "Si O2"
_cell_formula_units_Z 14
_cell_length_a 9.268368
_cell_length_b 23.938353
_cell_length_c 9.113022
_cell_angle_alpha 153.077298
_cell_angle_beta 133.767977
_cell_angle_gamma 43.500336
_cell_volume 623.588761
_symmetry_space_group_name_H-M "P -1"
_symmetry_group_IT_number 2
_symmetry_cell_setting 'triclinic'
loop_
_space_group_symop_operation_xyz
x,y,z
-x,-y,-z
loop_
_atom_site_type_symbol
_atom_site_label
_atom_site_fract_x
_atom_site_fract_y
_atom_site_fract_z
Si Si1 0.176128 0.313180 0.514052
Si Si2 0.717667 0.991113 0.714348
Si Si3 0.443838 0.638057 0.694973
Si Si4 0.611131 0.294738 0.877239
Si Si5 0.154586 0.500656 0.479479
Si Si6 0.458982 0.892697 0.824384
Si Si7 0.049465 0.805001 0.686323
O O1 0.356986 0.352458 0.815683
O O2 0.312612 0.221863 0.265722
O O3 0.989362 0.435086 0.610310
O O4 0.089703 0.223761 0.348302
O O5 0.892904 0.849735 0.541823
O O6 0.500000 0.000000 0.500000
O O7 0.644260 0.050807 0.964370
O O8 0.848587 0.079981 0.949688
O O9 0.500000 0.500000 0.500000
O O10 0.659808 0.629409 0.745046
O O11 0.257123 0.675121 0.531064
O O12 0.361668 0.737479 0.006400
O O13 0.674771 0.175080 0.528630
O O14 0.723605 0.397817 0.156421
O O15 0.000000 0.500000 0.500000
O O16 0.500000 0.000000 0.000000
#
# Coordination Sequence:
#
# PCOD9018441 Si02
#       7
#     2   2   2   2   2   2   2
#     4  10  22  42  67  98 136 180 241 271 353 427
#     4  11  26  46  68 102 144 189 233 302 346 406
#     4  10  21  43  70  97 137 181 236 287 337 421
#     4   9  22  42  67 100 136 180 232 286 344 416
#     4  11  24  45  66 104 139 185 236 291 356 415
#     4  10  22  44  69  99 139 179 233 286 344 421
#     4  11  23  44  67 105 138 181 246 278 353 432
#
# _framework density 22.450693999999999
#
# number of rings (size 3 to 8) (size 9 to 14) (size 15 to 20)
#    0.857    0.857    4.286    0.000    6.000    1.143 
#    7.714    2.143    0.000    0.000    0.000    0.000 
#    0.000    0.000    0.000    0.000    0.000    0.000 
#
# Total GULP energy -78015.601260 kJ/mol
# GULP energy per Si atom -5572.542947 kJ/mol
# Density = 2.239959 g / cm^3
# Si number density = 22.450694 Si / 1000 Ang^3
#
#
#
# Elastic Constant Matrix: (Units=GPa)
#
#
# Indices 1 2 3 4 5 6 
#
# 1 154.8018 35.6695 39.8782 -10.3764 21.0524 2.7321
# 2 35.6695 155.4633 19.7723 -14.7366 14.8921 -15.6300
# 3 39.8782 19.7723 85.3904 -26.2979 13.6486 7.3546
# 4 -10.3764 -14.7366 -26.2979 25.2825 -10.2642 3.5397
# 5 21.0524 14.8921 13.6486 -10.2642 41.5685 -3.6826
# 6 2.7321 -15.6300 7.3546 3.5397 -3.6826 36.1793
#
#
#
# Elastic Compliance Matrix: (Units=1/GPa)
#
#
# Indices 1 2 3 4 5 6 
#
# 1 0.007963 -0.001362 -0.003634 -0.002453 -0.003003 -0.000516
# 2 -0.001362 0.007435 -0.000420 0.002528 -0.000941 0.003057
# 3 -0.003634 -0.000420 0.020238 0.020061 -0.000233 -0.006008
# 4 -0.002453 0.002528 0.020061 0.065810 0.009265 -0.008296
# 5 -0.003003 -0.000941 -0.000233 0.009265 0.028443 0.001856
# 6 -0.000516 0.003057 -0.006008 -0.008296 0.001856 0.031222
#
#
# Mechanical properties :
#
#
# Convention : Reuss Voigt Hill
#
# Bulk Modulus (GPa) = 40.31515 65.14396 52.72955
# Shear Modulus (GPa) = 27.74511 40.62842 34.18676
#
# Velocity S-wave (km/s) = 3.51924 4.25864 3.90647
# Velocity P-wave (km/s) = 5.87449 7.29800 6.62459
#
# Compressibility (1/GPa) = 0.02480457
#
# Stress axis : x y z
#
# Youngs Moduli (GPa) = 125.58128 134.49215 49.41089
#
# Poissons Ratio (x) = 0.18312 0.17958
# Poissons Ratio (y) = 0.17098 0.02076
# Poissons Ratio (z) = 0.45641 0.05651
#
# Static dielectric constant tensor:
#      x y z
#    x 1.838690 -0.041860 -0.041080 
#    y -0.041860 1.909970 0.041900 
#    z -0.041080 0.041900 1.932440 
# 
# From -- ./inp_files/225768.got.cif
#   From: 2010.05.17/outbox.cif.g08.bks.cpg/sg2_113_cif.got.tgz:225768.got - 2010.06.03 11:33:40.
