data_PCOD9018158
_publ_section_title
;
Structure prediction by ZEFSAII (Michael W. Deem and Ramdas Pophale) SiO2 
 PCOD9018158
Probable space group: P -1
;
_chemical_formula_sum "Si O2"
_cell_formula_units_Z 13
_cell_length_a 12.757987
_cell_length_b 9.394352
_cell_length_c 7.769331
_cell_angle_alpha 96.236812
_cell_angle_beta 69.246860
_cell_angle_gamma 146.084862
_cell_volume 454.138920
_symmetry_space_group_name_H-M "P -1"
_symmetry_group_IT_number 2
_symmetry_cell_setting 'triclinic'
loop_
_space_group_symop_operation_xyz
x,y,z
-x,-y,-z
loop_
_atom_site_type_symbol
_atom_site_label
_atom_site_fract_x
_atom_site_fract_y
_atom_site_fract_z
Si Si1 0.198374 0.537807 0.043590
Si Si2 0.449362 0.070772 0.407497
Si Si3 0.111428 0.738894 0.281866
Si Si4 0.178337 0.390251 0.391093
Si Si5 0.000000 0.000000 0.000000
Si Si6 0.207291 0.060845 0.687118
Si Si7 0.713350 0.769983 0.817926
O O1 0.369379 0.720828 0.817557
O O2 0.006612 0.794024 0.906235
O O3 0.111959 0.604467 0.135940
O O4 0.286490 0.581838 0.185954
O O5 0.500000 0.000000 0.500000
O O6 0.225195 0.803358 0.398070
O O7 0.394120 0.151355 0.564803
O O8 0.883020 0.570755 0.414050
O O9 0.265864 0.037379 0.180218
O O10 0.268177 0.330506 0.356950
O O11 0.932898 0.105390 0.424884
O O12 0.753434 0.752014 0.211410
O O13 0.899632 0.923720 0.857954
O O14 0.500000 0.500000 0.000000
#
# Coordination Sequence:
#
# PCOD9018158 Si02
#       7
#     2   2   2   2   1   2   2
#     4  10  21  43  68  96 138 182 231 294 356 420
#     4  11  24  40  62 100 145 181 236 295 348 434
#     4  11  22  41  70 102 137 190 235 293 360 424
#     4   8  19  41  68  94 139 182 235 286 361 425
#     4  10  22  48  68  98 144 192 224 302 354 422
#     4   8  21  42  66  90 140 178 233 282 359 410
#     4  11  23  42  74 102 141 185 244 289 360 428
#
# _framework density 28.625602000000001
#
# number of rings (size 3 to 8) (size 9 to 14) (size 15 to 20)
#    0.923    1.231    0.000    2.308    2.154    0.615 
#    0.000    0.769    3.385    0.000    0.000    0.000 
#    0.000    0.000    0.000    0.000    0.000    0.000 
#
# Total GULP energy -72416.328924 kJ/mol
# GULP energy per Si atom -5570.486840 kJ/mol
# Density = 2.856045 g / cm^3
# Si number density = 28.625602 Si / 1000 Ang^3
#
#
#
# Elastic Constant Matrix: (Units=GPa)
#
#
# Indices 1 2 3 4 5 6 
#
# 1 120.9986 33.0446 39.0278 1.0235 -23.6445 -26.1745
# 2 33.0446 104.3837 26.0144 2.5304 0.2297 -15.6270
# 3 39.0278 26.0144 160.7333 -13.3708 -42.9572 -20.4321
# 4 1.0235 2.5304 -13.3708 53.8047 -10.3474 6.7521
# 5 -23.6445 0.2297 -42.9572 -10.3474 55.2493 11.8478
# 6 -26.1745 -15.6270 -20.4321 6.7521 11.8478 51.8714
#
#
#
# Elastic Compliance Matrix: (Units=1/GPa)
#
#
# Indices 1 2 3 4 5 6 
#
# 1 0.010638 -0.002616 -0.000901 -0.000157 0.003074 0.003543
# 2 -0.002616 0.011326 -0.002030 -0.001983 -0.003626 0.002379
# 3 -0.000901 -0.002030 0.009075 0.003727 0.007301 0.000356
# 4 -0.000157 -0.001983 0.003727 0.021559 0.007685 -0.003770
# 5 0.003074 -0.003626 0.007301 0.007685 0.027387 -0.003921
# 6 0.003543 0.002379 0.000356 -0.003770 -0.003921 0.023310
#
#
# Mechanical properties :
#
#
# Convention : Reuss Voigt Hill
#
# Bulk Modulus (GPa) = 50.13249 64.69878 57.41564
# Shear Modulus (GPa) = 41.30973 51.38701 46.34837
#
# Velocity S-wave (km/s) = 3.80294 4.24151 4.02820
# Velocity P-wave (km/s) = 6.06913 6.82920 6.46035
#
# Compressibility (1/GPa) = 0.01994714
#
# Stress axis : x y z
#
# Youngs Moduli (GPa) = 94.00311 88.29127 110.19052
#
# Poissons Ratio (x) = 0.23094 0.09925
# Poissons Ratio (y) = 0.24588 0.22365
# Poissons Ratio (z) = 0.08467 0.17920
#
# Static dielectric constant tensor:
#      x y z
#    x 2.011240 0.578870 0.320370 
#    y 0.578870 1.335100 -0.555620 
#    z 0.320370 -0.555620 2.091040 
# 
# From -- ./inp_files/150496.got.cif
#   From: 2010.05.17/outbox.cif.g08.bks.cpg/sg2_76_cif.got.tgz:150496.got - 2010.06.03 11:33:40.
