data_PCOD9018785
_publ_section_title
;
Structure prediction by ZEFSAII (Michael W. Deem and Ramdas Pophale) SiO2 
 PCOD9018785
Probable space group: P -1
;
_chemical_formula_sum "Si O2"
_cell_formula_units_Z 15
_cell_length_a 14.622476
_cell_length_b 11.588845
_cell_length_c 12.009775
_cell_angle_alpha 142.938780
_cell_angle_beta 28.365332
_cell_angle_gamma 132.601902
_cell_volume 580.432956
_symmetry_space_group_name_H-M "P -1"
_symmetry_group_IT_number 2
_symmetry_cell_setting 'triclinic'
loop_
_space_group_symop_operation_xyz
x,y,z
-x,-y,-z
loop_
_atom_site_type_symbol
_atom_site_label
_atom_site_fract_x
_atom_site_fract_y
_atom_site_fract_z
Si Si1 0.977760 0.521476 0.282365
Si Si2 0.116919 0.906013 0.908127
Si Si3 0.215813 0.453188 0.270704
Si Si4 0.551459 0.185710 0.679087
Si Si5 0.388871 0.504093 0.768578
Si Si6 0.500000 0.000000 0.000000
Si Si7 0.735088 0.685251 0.468950
Si Si8 0.613286 0.088594 0.196529
O O1 0.973222 0.292460 0.122990
O O2 0.814969 0.593852 0.602652
O O3 0.899064 0.601949 0.310886
O O4 0.203091 0.552304 0.081775
O O5 0.330947 0.880157 0.605453
O O6 0.177118 0.970874 0.016728
O O7 0.000000 0.000000 0.000000
O O8 0.332287 0.636940 0.269723
O O9 0.000000 0.500000 0.500000
O O10 0.338131 0.278049 0.948220
O O11 0.539299 0.036822 0.675721
O O12 0.521354 0.683484 0.759642
O O13 0.293711 0.447708 0.708976
O O14 0.539775 0.314165 0.476217
O O15 0.287175 0.090783 0.356750
O O16 0.611979 0.045445 0.034906
#
# Coordination Sequence:
#
# PCOD9018785 Si02
#       8
#     2   2   2   2   2   1   2   2
#     4  11  22  39  66  95 131 173 227 275 334 411
#     4  11  24  40  67 102 136 179 233 282 339 408
#     4  10  24  39  60  94 135 177 222 277 347 405
#     4  10  23  41  64  93 134 180 228 281 340 407
#     4  10  22  39  71  94 128 177 223 278 339 402
#     4  10  24  42  72  94 132 174 224 278 346 402
#     4  10  21  44  63  98 128 174 220 282 336 406
#     4  11  22  42  69  97 136 179 225 285 344 403
#
# _framework density 25.842777999999999
#
# number of rings (size 3 to 8) (size 9 to 14) (size 15 to 20)
#    0.000    1.600    1.333    2.400    5.600    2.133 
#    0.000    0.667    2.933    0.000    0.000    0.000 
#    0.000    0.000    0.000    0.000    0.000    0.000 
#
# Total GULP energy -83575.176750 kJ/mol
# GULP energy per Si atom -5571.678450 kJ/mol
# Density = 2.578396 g / cm^3
# Si number density = 25.842778 Si / 1000 Ang^3
#
#
#
# Elastic Constant Matrix: (Units=GPa)
#
#
# Indices 1 2 3 4 5 6 
#
# 1 179.8489 0.4119 28.2185 16.3595 -24.5570 -13.3756
# 2 0.4119 48.5898 9.0870 -5.6176 -6.3403 -0.5546
# 3 28.2185 9.0870 63.0801 -10.2879 -19.5344 4.3184
# 4 16.3595 -5.6176 -10.2879 36.2480 3.1212 -6.0176
# 5 -24.5570 -6.3403 -19.5344 3.1212 37.4306 6.6788
# 6 -13.3756 -0.5546 4.3184 -6.0176 6.6788 26.5463
#
#
#
# Elastic Compliance Matrix: (Units=1/GPa)
#
#
# Indices 1 2 3 4 5 6 
#
# 1 0.006965 0.000486 -0.003059 -0.003788 0.002940 0.002419
# 2 0.000486 0.021608 -0.002250 0.002450 0.002421 0.001009
# 3 -0.003059 -0.002250 0.021861 0.005341 0.009714 -0.006377
# 4 -0.003788 0.002450 0.005341 0.032332 -0.002932 0.005340
# 5 0.002940 0.002421 0.009714 -0.002932 0.036117 -0.009800
# 6 0.002419 0.001009 -0.006377 0.005340 -0.009800 0.043623
#
#
# Mechanical properties :
#
#
# Convention : Reuss Voigt Hill
#
# Bulk Modulus (GPa) = 24.51678 40.77261 32.64469
# Shear Modulus (GPa) = 26.91829 36.96508 31.94168
#
# Velocity S-wave (km/s) = 3.23091 3.78614 3.51949
# Velocity P-wave (km/s) = 4.84003 5.90970 5.40141
#
# Compressibility (1/GPa) = 0.04078839
#
# Stress axis : x y z
#
# Youngs Moduli (GPa) = 143.57794 46.27974 45.74343
#
# Poissons Ratio (x) = -0.02250 0.13992
# Poissons Ratio (y) = -0.06982 0.10293
# Poissons Ratio (z) = 0.43916 0.10414
#
# Static dielectric constant tensor:
#      x y z
#    x 2.114990 0.082820 0.089500 
#    y 0.082820 1.645110 -0.294690 
#    z 0.089500 -0.294690 1.919930 
# 
# From -- ./inp_files/451895.got.cif
#   From: 2010.05.17/outbox.cif.g08.bks.cpg/sg2_226_cif.got.tgz:451895.got - 2010.06.03 11:33:40.
