data_PCOD9018069
_publ_section_title
;
Structure prediction by ZEFSAII (Michael W. Deem and Ramdas Pophale) SiO2 
 PCOD9018069
Probable space group: P -1
;
_chemical_formula_sum "Si O2"
_cell_formula_units_Z 14
_cell_length_a 11.850459
_cell_length_b 14.350655
_cell_length_c 6.564466
_cell_angle_alpha 67.994274
_cell_angle_beta 131.902712
_cell_angle_gamma 135.554792
_cell_volume 570.535028
_symmetry_space_group_name_H-M "P -1"
_symmetry_group_IT_number 2
_symmetry_cell_setting 'triclinic'
loop_
_space_group_symop_operation_xyz
x,y,z
-x,-y,-z
loop_
_atom_site_type_symbol
_atom_site_label
_atom_site_fract_x
_atom_site_fract_y
_atom_site_fract_z
Si Si1 0.634081 0.468643 0.266442
Si Si2 0.305500 0.017426 0.351853
Si Si3 0.032834 0.684570 0.812443
Si Si4 0.947692 0.084183 0.263040
Si Si5 0.244144 0.782068 0.385492
Si Si6 0.356631 0.235926 0.450227
Si Si7 0.707087 0.356622 0.100893
O O1 0.804160 0.578370 0.541814
O O2 0.481542 0.329091 0.327156
O O3 0.744453 0.469278 0.200446
O O4 0.500000 0.500000 0.000000
O O5 0.549069 0.107119 0.586870
O O6 0.263999 0.086624 0.400708
O O7 0.193879 0.862160 0.374748
O O8 0.227044 0.013181 0.036211
O O9 0.108209 0.835219 0.757077
O O10 0.143348 0.640516 0.867574
O O11 0.070961 0.677065 0.102555
O O12 0.158939 0.209856 0.299639
O O13 0.000000 0.000000 0.500000
O O14 0.314245 0.733084 0.670794
O O15 0.511766 0.294784 0.777183
#
# Coordination Sequence:
#
# PCOD9018069 Si02
#       7
#     2   2   2   2   2   2   2
#     4  12  29  49  74 103 148 192 245 297 360 424
#     4  10  21  43  68 104 147 184 234 297 351 432
#     4  11  26  47  70 107 142 188 243 298 353 432
#     4  11  26  44  75 108 146 192 239 294 369 427
#     4  10  22  43  70 107 145 180 238 298 364 420
#     4  12  26  47  73 108 148 190 242 298 354 434
#     4  12  24  45  75 105 141 190 241 295 361 421
#
# _framework density 24.538371999999999
#
# number of rings (size 3 to 8) (size 9 to 14) (size 15 to 20)
#    0.000    0.857    2.857    2.571    4.000    8.571 
#    0.000    0.000    0.000    0.000    0.000    0.000 
#    0.000    0.000    0.000    0.000    0.000    0.000 
#
# Total GULP energy -78194.644631 kJ/mol
# GULP energy per Si atom -5585.331759 kJ/mol
# Density = 2.448252 g / cm^3
# Si number density = 24.538372 Si / 1000 Ang^3
#
#
#
# Elastic Constant Matrix: (Units=GPa)
#
#
# Indices 1 2 3 4 5 6 
#
# 1 100.5818 36.2695 49.3117 6.3766 -21.3988 -10.3464
# 2 36.2695 66.0114 45.9448 6.7478 -12.2830 -18.8294
# 3 49.3117 45.9448 163.6193 15.8608 8.1129 3.3354
# 4 6.3766 6.7478 15.8608 42.6129 -4.6150 1.3785
# 5 -21.3988 -12.2830 8.1129 -4.6150 39.0222 4.3868
# 6 -10.3464 -18.8294 3.3354 1.3785 4.3868 33.1009
#
#
#
# Elastic Compliance Matrix: (Units=1/GPa)
#
#
# Indices 1 2 3 4 5 6 
#
# 1 0.015006 -0.003443 -0.004043 0.000584 0.007821 0.002079
# 2 -0.003443 0.027496 -0.007214 -0.000914 0.006533 0.014464
# 3 -0.004043 -0.007214 0.010017 -0.002482 -0.006252 -0.005445
# 4 0.000584 -0.000914 -0.002482 0.024898 0.003674 -0.001611
# 5 0.007821 0.006533 -0.006252 0.003674 0.033458 0.002204
# 6 0.002079 0.014464 -0.005445 -0.001611 0.002204 0.039412
#
#
# Mechanical properties :
#
#
# Convention : Reuss Voigt Hill
#
# Bulk Modulus (GPa) = 43.24940 65.91827 54.58383
# Shear Modulus (GPa) = 26.68178 36.19298 31.43738
#
# Velocity S-wave (km/s) = 3.30108 3.84468 3.58320
# Velocity P-wave (km/s) = 5.67388 6.82865 6.27787
#
# Compressibility (1/GPa) = 0.02312171
#
# Stress axis : x y z
#
# Youngs Moduli (GPa) = 66.63823 36.36885 99.82723
#
# Poissons Ratio (x) = 0.12521 0.40357
# Poissons Ratio (y) = 0.22942 0.72010
# Poissons Ratio (z) = 0.26940 0.26235
#
# Static dielectric constant tensor:
#      x y z
#    x 2.018310 0.004740 -0.002110 
#    y 0.004740 2.049910 -0.035780 
#    z -0.002110 -0.035780 1.891170 
# 
# From -- ./inp_files/77529.got.cif
#   From: 2010.05.17/outbox.cif.g08.bks.cpg/sg2_39_cif.got.tgz:77529.got - 2010.06.03 11:33:40.
