data_PCOD9018214
_publ_section_title
;
Structure prediction by ZEFSAII (Michael W. Deem and Ramdas Pophale) SiO2 
 PCOD9018214
Probable space group: P -1
;
_chemical_formula_sum "Si O2"
_cell_formula_units_Z 15
_cell_length_a 13.090005
_cell_length_b 5.581715
_cell_length_c 7.894651
_cell_angle_alpha 73.027204
_cell_angle_beta 97.552256
_cell_angle_gamma 87.581728
_cell_volume 544.932351
_symmetry_space_group_name_H-M "P -1"
_symmetry_group_IT_number 2
_symmetry_cell_setting 'triclinic'
loop_
_space_group_symop_operation_xyz
x,y,z
-x,-y,-z
loop_
_atom_site_type_symbol
_atom_site_label
_atom_site_fract_x
_atom_site_fract_y
_atom_site_fract_z
Si Si1 0.104313 0.735196 0.519568
Si Si2 0.838036 0.117229 0.849017
Si Si3 0.070197 0.672413 0.870558
Si Si4 0.221986 0.183096 0.610433
Si Si5 0.543696 0.234620 0.368881
Si Si6 0.655073 0.481928 0.625255
Si Si7 0.272409 0.301868 0.961639
Si Si8 0.500000 0.500000 0.000000
O O1 0.089501 0.840377 0.304461
O O2 0.024773 0.720543 0.662100
O O3 0.149321 0.446868 0.553869
O O4 0.172419 0.943118 0.577469
O O5 0.747626 0.345311 0.779140
O O6 0.772264 0.877924 0.869961
O O7 0.902187 0.112893 0.036979
O O8 0.182168 0.526549 0.887941
O O9 0.000000 0.500000 0.000000
O O10 0.311538 0.255690 0.489110
O O11 0.267011 0.154279 0.813852
O O12 0.635747 0.322468 0.485147
O O13 0.454497 0.476842 0.312515
O O14 0.554445 0.244577 0.169369
O O15 0.500000 0.000000 0.500000
O O16 0.387348 0.375991 0.993252
#
# Coordination Sequence:
#
# PCOD9018214 Si02
#       8
#     2   2   2   2   2   2   2   1
#     4  10  24  43  74 108 147 194 249 314 389 461
#     4  11  24  45  76 106 147 201 251 324 392 465
#     4  11  26  49  75 109 152 199 256 322 388 474
#     4  10  21  43  69 101 147 196 242 313 377 458
#     4  11  24  41  62  97 145 192 256 312 383 459
#     4  10  23  41  62  97 138 191 246 310 376 457
#     4  11  24  45  72 107 154 196 260 316 391 467
#     4  12  24  42  70 112 142 204 258 316 394 472
#
# _framework density 27.526353
#
# number of rings (size 3 to 8) (size 9 to 14) (size 15 to 20)
#    0.000    1.333    2.667    1.600    9.333    1.067 
#    2.400    4.667    0.000    0.000    0.000    0.000 
#    0.000    0.000    0.000    0.000    0.000    0.000 
#
# Total GULP energy -83668.959707 kJ/mol
# GULP energy per Si atom -5577.930647 kJ/mol
# Density = 2.746370 g / cm^3
# Si number density = 27.526353 Si / 1000 Ang^3
#
#
#
# Elastic Constant Matrix: (Units=GPa)
#
#
# Indices 1 2 3 4 5 6 
#
# 1 131.7164 63.9132 37.5749 16.1883 3.2805 -0.4144
# 2 63.9132 134.2190 43.5640 -1.1075 -2.6779 25.4992
# 3 37.5749 43.5640 151.8721 -1.0801 12.4340 23.3774
# 4 16.1883 -1.1075 -1.0801 53.0694 19.4764 -12.1501
# 5 3.2805 -2.6779 12.4340 19.4764 30.9363 3.3727
# 6 -0.4144 25.4992 23.3774 -12.1501 3.3727 69.1495
#
#
#
# Elastic Compliance Matrix: (Units=1/GPa)
#
#
# Indices 1 2 3 4 5 6 
#
# 1 0.010891 -0.005004 -0.001647 -0.003423 0.001031 0.001816
# 2 -0.005004 0.011108 -0.001586 -0.000076 0.002584 -0.003729
# 3 -0.001647 -0.001586 0.008050 0.001779 -0.004140 -0.001632
# 4 -0.003423 -0.000076 0.001779 0.027902 -0.018493 0.005211
# 5 0.001031 0.002584 -0.004140 -0.018493 0.046296 -0.005054
# 6 0.001816 -0.003729 -0.001632 0.005211 -0.005054 0.017561
#
#
# Mechanical properties :
#
#
# Convention : Reuss Voigt Hill
#
# Bulk Modulus (GPa) = 73.67518 78.65684 76.16601
# Shear Modulus (GPa) = 35.01227 48.81472 41.91350
#
# Velocity S-wave (km/s) = 3.57032 4.21572 3.90637
# Velocity P-wave (km/s) = 6.61964 7.23419 6.93373
#
# Compressibility (1/GPa) = 0.01357309
#
# Stress axis : x y z
#
# Youngs Moduli (GPa) = 91.82035 90.02847 124.22553
#
# Poissons Ratio (x) = 0.45050 0.20465
# Poissons Ratio (y) = 0.45947 0.19705
# Poissons Ratio (z) = 0.15126 0.14281
#
# Static dielectric constant tensor:
#      x y z
#    x 2.227520 -0.089820 -0.085480 
#    y -0.089820 2.139410 -0.061240 
#    z -0.085480 -0.061240 3.452260 
# 
# From -- ./inp_files/37776.got.cif
#   From: 2010.05.17/outbox.cif.g08.bks.cpg/sg2_19_cif.got.tgz:37776.got - 2010.06.03 11:33:40.
