data_PCOD9018055
_publ_section_title
;
Structure prediction by ZEFSAII (Michael W. Deem and Ramdas Pophale) SiO2 
 PCOD9018055
Probable space group: P -1
;
_chemical_formula_sum "Si O2"
_cell_formula_units_Z 15
_cell_length_a 7.299152
_cell_length_b 8.509404
_cell_length_c 13.066795
_cell_angle_alpha 75.125769
_cell_angle_beta 116.565301
_cell_angle_gamma 127.256439
_cell_volume 577.666580
_symmetry_space_group_name_H-M "P -1"
_symmetry_group_IT_number 2
_symmetry_cell_setting 'triclinic'
loop_
_space_group_symop_operation_xyz
x,y,z
-x,-y,-z
loop_
_atom_site_type_symbol
_atom_site_label
_atom_site_fract_x
_atom_site_fract_y
_atom_site_fract_z
Si Si1 0.251107 0.913114 0.520367
Si Si2 0.630323 0.428988 0.116619
Si Si3 0.533662 0.202726 0.810015
Si Si4 0.000000 0.500000 0.000000
Si Si5 0.266798 0.216357 0.361475
Si Si6 0.121969 0.773678 0.853798
Si Si7 0.613878 0.950049 0.757487
Si Si8 0.252627 0.391542 0.658672
O O1 0.222765 0.096062 0.473209
O O2 0.500000 0.000000 0.500000
O O3 0.340014 0.871185 0.654371
O O4 0.012669 0.721779 0.443368
O O5 0.830674 0.404471 0.109413
O O6 0.434315 0.203836 0.142201
O O7 0.738895 0.549854 0.229598
O O8 0.500000 0.500000 0.000000
O O9 0.355373 0.254097 0.704882
O O10 0.354245 0.995222 0.859054
O O11 0.691010 0.160865 0.779024
O O12 0.720313 0.383651 0.895763
O O13 0.968822 0.277513 0.044989
O O14 0.223583 0.063840 0.285380
O O15 0.544491 0.407374 0.384133
O O16 0.077671 0.271065 0.274207
#
# Coordination Sequence:
#
# PCOD9018055 Si02
#       8
#     2   2   2   1   2   2   2   2
#     4  10  22  43  72  96 134 181 227 279 336 397
#     4  10  23  42  67 100 135 179 226 274 337 406
#     4  11  23  44  66  98 133 179 218 284 329 409
#     4  12  24  40  68  92 134 174 228 264 338 390
#     4  10  21  43  68 102 132 174 224 278 336 397
#     4  11  23  42  67  98 135 176 224 275 335 398
#     4   9  23  43  68  96 137 177 225 272 343 399
#     4  11  22  43  70  98 139 176 226 280 336 392
#
# _framework density 25.966532999999998
#
# number of rings (size 3 to 8) (size 9 to 14) (size 15 to 20)
#    0.000    1.600    2.667    1.200    1.867    8.533 
#    0.000    2.667    0.000    0.000    0.000    0.000 
#    0.000    0.000    0.000    0.000    0.000    0.000 
#
# Total GULP energy -83740.109280 kJ/mol
# GULP energy per Si atom -5582.673952 kJ/mol
# Density = 2.590743 g / cm^3
# Si number density = 25.966533 Si / 1000 Ang^3
#
#
#
# Elastic Constant Matrix: (Units=GPa)
#
#
# Indices 1 2 3 4 5 6 
#
# 1 102.1156 42.9557 41.6138 -0.8551 1.7151 -2.5664
# 2 42.9557 107.3569 25.6480 -11.6382 4.7322 5.6066
# 3 41.6138 25.6480 120.9905 -6.3612 27.1911 -8.5217
# 4 -0.8551 -11.6382 -6.3612 62.9792 -4.2613 11.9147
# 5 1.7151 4.7322 27.1911 -4.2613 36.1272 3.2072
# 6 -2.5664 5.6066 -8.5217 11.9147 3.2072 54.7974
#
#
#
# Elastic Compliance Matrix: (Units=1/GPa)
#
#
# Indices 1 2 3 4 5 6 
#
# 1 0.013464 -0.004611 -0.004369 -0.000987 0.003096 0.000456
# 2 -0.004611 0.011746 -0.000881 0.002397 -0.000191 -0.002065
# 3 -0.004369 -0.000881 0.012144 -0.000044 -0.009028 0.002312
# 4 -0.000987 0.002397 -0.000044 0.017240 0.002170 -0.004174
# 5 0.003096 -0.000191 -0.009028 0.002170 0.034942 -0.003756
# 6 0.000456 -0.002065 0.002312 -0.004174 -0.003756 0.019969
#
#
# Mechanical properties :
#
#
# Convention : Reuss Voigt Hill
#
# Bulk Modulus (GPa) = 56.71167 61.21090 58.96128
# Shear Modulus (GPa) = 37.00881 45.46380 41.23630
#
# Velocity S-wave (km/s) = 3.77934 4.18887 3.98936
# Velocity P-wave (km/s) = 6.39784 6.85709 6.63144
#
# Compressibility (1/GPa) = 0.01763306
#
# Stress axis : x y z
#
# Youngs Moduli (GPa) = 74.27181 85.13493 82.34591
#
# Poissons Ratio (x) = 0.39254 0.35977
# Poissons Ratio (y) = 0.34245 0.07252
# Poissons Ratio (z) = 0.32450 0.07497
#
# Static dielectric constant tensor:
#      x y z
#    x 2.669890 0.153050 -0.418630 
#    y 0.153050 2.102400 -0.213530 
#    z -0.418630 -0.213530 2.429440 
# 
# From -- ./inp_files/492629.got.cif
#   From: 2010.05.17/outbox.cif.g08.bks.cpg/sg2_247_cif.got.tgz:492629.got - 2010.06.03 11:33:40.
