data_PCOD9018900
_publ_section_title
;
Structure prediction by ZEFSAII (Michael W. Deem and Ramdas Pophale) SiO2 
 PCOD9018900
Probable space group: P -1
;
_chemical_formula_sum "Si O2"
_cell_formula_units_Z 10
_cell_length_a 14.848642
_cell_length_b 7.007410
_cell_length_c 5.437737
_cell_angle_alpha 134.586797
_cell_angle_beta 82.538192
_cell_angle_gamma 90.403343
_cell_volume 396.697784
_symmetry_space_group_name_H-M "P -1"
_symmetry_group_IT_number 2
_symmetry_cell_setting 'triclinic'
loop_
_space_group_symop_operation_xyz
x,y,z
-x,-y,-z
loop_
_atom_site_type_symbol
_atom_site_label
_atom_site_fract_x
_atom_site_fract_y
_atom_site_fract_z
Si Si1 0.789173 0.666998 0.301820
Si Si2 0.322640 0.508049 0.426145
Si Si3 0.020160 0.328952 0.584001
Si Si4 0.558824 0.999673 0.229665
Si Si5 0.835023 0.166901 0.493328
O O1 0.695293 0.649141 0.459011
O O2 0.871565 0.757242 0.523695
O O3 0.792045 0.892582 0.296818
O O4 0.815099 0.370103 0.913767
O O5 0.221257 0.656353 0.534628
O O6 0.386865 0.742300 0.594185
O O7 0.370645 0.272109 0.027312
O O8 0.000000 0.500000 0.500000
O O9 0.945070 0.118849 0.397364
O O10 0.000000 0.500000 0.000000
O O11 0.500000 0.000000 0.500000
O O12 0.500000 0.000000 0.000000
#
# Coordination Sequence:
#
# PCOD9018900 Si02
#       5
#     2   2   2   2   2
#     4  11  24  43  71 106 149 193 240 291 347 423
#     4  12  26  47  78 106 142 188 240 301 358 436
#     4  10  21  44  66 105 151 197 236 288 346 411
#     4  12  30  52  78 105 144 185 236 304 380 440
#     4  11  24  43  71 106 149 193 240 291 347 423
#
# _framework density 25.208105
#
# number of rings (size 3 to 8) (size 9 to 14) (size 15 to 20)
#    0.000    0.800    2.000    4.200    8.400    0.000 
#    0.000    4.000    0.000    0.000    0.000    0.000 
#    0.000    0.000    0.000    0.000    0.000    0.000 
#
# Total GULP energy -55916.467951 kJ/mol
# GULP energy per Si atom -5591.646795 kJ/mol
# Density = 2.515073 g / cm^3
# Si number density = 25.208105 Si / 1000 Ang^3
#
#
#
# Elastic Constant Matrix: (Units=GPa)
#
#
# Indices 1 2 3 4 5 6 
#
# 1 110.7169 58.8609 45.2728 9.2968 29.6505 25.5939
# 2 58.8609 146.3682 55.9533 5.7754 8.8018 29.0638
# 3 45.2728 55.9533 91.9121 15.0566 2.3858 21.1842
# 4 9.2968 5.7754 15.0566 53.4476 -0.4994 8.0584
# 5 29.6505 8.8018 2.3858 -0.4994 37.7881 0.2967
# 6 25.5939 29.0638 21.1842 8.0584 0.2967 68.7449
#
#
#
# Elastic Compliance Matrix: (Units=1/GPa)
#
#
# Indices 1 2 3 4 5 6 
#
# 1 0.017050 -0.003523 -0.005081 -0.000793 -0.012223 -0.003147
# 2 -0.003523 0.010129 -0.004195 0.000977 0.000697 -0.001795
# 3 -0.005081 -0.004195 0.016603 -0.003138 0.003883 -0.001100
# 4 -0.000793 0.000977 -0.003138 0.019858 0.000867 -0.001482
# 5 -0.012223 0.000697 0.003883 0.000867 0.035636 0.002804
# 6 -0.003147 -0.001795 -0.001100 -0.001482 0.002804 0.016978
#
#
# Mechanical properties :
#
#
# Convention : Reuss Voigt Hill
#
# Bulk Modulus (GPa) = 54.99419 74.35237 64.67328
# Shear Modulus (GPa) = 33.80372 44.59014 39.19693
#
# Velocity S-wave (km/s) = 3.66592 4.21037 3.94754
# Velocity P-wave (km/s) = 6.30730 7.29354 6.81828
#
# Compressibility (1/GPa) = 0.01818374
#
# Stress axis : x y z
#
# Youngs Moduli (GPa) = 58.65102 98.73120 60.22898
#
# Poissons Ratio (x) = 0.34783 0.30602
# Poissons Ratio (y) = 0.20663 0.25266
# Poissons Ratio (z) = 0.29801 0.41418
#
# Static dielectric constant tensor:
#      x y z
#    x 2.157830 -0.099290 0.036280 
#    y -0.099290 2.046750 -0.080030 
#    z 0.036280 -0.080030 1.974180 
# 
# From -- ./inp_files/2381.got.cif
#   From: 2010.05.17/outbox.cif.g08.bks.cpg/sg2_2_cif.got.tgz:2381.got - 2010.06.03 11:33:40.
