data_PCOD9018881
_publ_section_title
;
Structure prediction by ZEFSAII (Michael W. Deem and Ramdas Pophale) SiO2 
 PCOD9018881
Probable space group: P -1
;
_chemical_formula_sum "Si O2"
_cell_formula_units_Z 14
_cell_length_a 7.958386
_cell_length_b 9.364472
_cell_length_c 8.151580
_cell_angle_alpha 114.663236
_cell_angle_beta 91.643276
_cell_angle_gamma 94.513251
_cell_volume 549.104291
_symmetry_space_group_name_H-M "P -1"
_symmetry_group_IT_number 2
_symmetry_cell_setting 'triclinic'
loop_
_space_group_symop_operation_xyz
x,y,z
-x,-y,-z
loop_
_atom_site_type_symbol
_atom_site_label
_atom_site_fract_x
_atom_site_fract_y
_atom_site_fract_z
Si Si1 0.841578 0.098055 0.015114
Si Si2 0.607023 0.132547 0.460428
Si Si3 0.034570 0.409165 0.291810
Si Si4 0.637596 0.649204 0.554952
Si Si5 0.817476 0.598828 0.181376
Si Si6 0.297832 0.124697 0.858453
Si Si7 0.333469 0.714171 0.146330
O O1 0.894052 0.260512 0.193509
O O2 0.699469 0.968317 0.017140
O O3 0.786633 0.161422 0.870502
O O4 0.000000 0.000000 0.000000
O O5 0.474588 0.204584 0.372681
O O6 0.673316 0.272241 0.651366
O O7 0.500000 0.000000 0.500000
O O8 0.740633 0.029528 0.333165
O O9 0.218992 0.353595 0.302596
O O10 0.000000 0.500000 0.500000
O O11 0.991375 0.528971 0.204120
O O12 0.500000 0.500000 0.500000
O O13 0.726124 0.642873 0.372276
O O14 0.830635 0.748384 0.131935
O O15 0.708486 0.455283 0.018293
O O16 0.477570 0.219508 0.871076
#
# Coordination Sequence:
#
# PCOD9018881 Si02
#       7
#     2   2   2   2   2   2   2
#     4  11  26  44  65  99 133 178 215 277 336 384
#     4  10  22  40  66 100 131 167 222 276 320 383
#     4   9  23  44  63  90 136 171 216 265 324 397
#     4  11  23  40  69  99 129 174 226 264 326 396
#     4  10  21  44  65  99 134 177 214 274 330 385
#     4  11  23  42  69 100 132 175 223 269 329 389
#     4  10  22  43  67  95 141 167 224 267 327 397
#
# _framework density 25.496065999999999
#
# number of rings (size 3 to 8) (size 9 to 14) (size 15 to 20)
#    0.000    1.714    2.857    0.857   10.000    1.143 
#    2.571    5.000    0.000    0.000    0.000    0.000 
#    0.000    0.000    0.000    0.000    0.000    0.000 
#
# Total GULP energy -78277.585721 kJ/mol
# GULP energy per Si atom -5591.256123 kJ/mol
# Density = 2.543804 g / cm^3
# Si number density = 25.496066 Si / 1000 Ang^3
#
#
#
# Elastic Constant Matrix: (Units=GPa)
#
#
# Indices 1 2 3 4 5 6 
#
# 1 76.1299 49.2510 18.9828 -5.3013 28.2639 -8.9466
# 2 49.2510 181.6599 37.3122 -11.9059 17.0627 -39.3781
# 3 18.9828 37.3122 121.5822 3.7746 25.7518 -13.7692
# 4 -5.3013 -11.9059 3.7746 40.0897 -8.0364 6.6987
# 5 28.2639 17.0627 25.7518 -8.0364 32.7663 -5.7366
# 6 -8.9466 -39.3781 -13.7692 6.6987 -5.7366 47.8000
#
#
#
# Elastic Compliance Matrix: (Units=1/GPa)
#
#
# Indices 1 2 3 4 5 6 
#
# 1 0.022947 -0.005292 0.002084 -0.002401 -0.019523 -0.001471
# 2 -0.005292 0.008320 -0.001792 0.001625 0.002999 0.005480
# 3 0.002084 -0.001792 0.010826 -0.003502 -0.010000 0.001323
# 4 -0.002401 0.001625 -0.003502 0.027981 0.010350 -0.002798
# 5 -0.019523 0.002999 -0.010000 0.010350 0.056416 0.001256
# 6 -0.001471 0.005480 0.001323 -0.002798 0.001256 0.026083
#
#
# Mechanical properties :
#
#
# Convention : Reuss Voigt Hill
#
# Bulk Modulus (GPa) = 31.15836 65.60710 48.38273
# Shear Modulus (GPa) = 28.85640 42.38626 35.62133
#
# Velocity S-wave (km/s) = 3.36787 4.08175 3.74188
# Velocity P-wave (km/s) = 5.23171 6.92838 6.13894
#
# Compressibility (1/GPa) = 0.03209412
#
# Stress axis : x y z
#
# Youngs Moduli (GPa) = 43.57818 120.18735 92.36922
#
# Poissons Ratio (x) = 0.63602 -0.19253
# Poissons Ratio (y) = 0.23061 0.16554
# Poissons Ratio (z) = -0.09083 0.21540
#
# Static dielectric constant tensor:
#      x y z
#    x 2.196860 0.039980 -0.078960 
#    y 0.039980 1.956560 -0.035020 
#    z -0.078960 -0.035020 2.047450 
# 
# From -- ./inp_files/159947.got.cif
#   From: 2010.05.17/outbox.cif.g08.bks.cpg/sg2_80_cif.got.tgz:159947.got - 2010.06.03 11:33:40.
