data_PCOD9018598
_publ_section_title
;
Structure prediction by ZEFSAII (Michael W. Deem and Ramdas Pophale) SiO2 
 PCOD9018598
Probable space group: P -1
;
_chemical_formula_sum "Si O2"
_cell_formula_units_Z 12
_cell_length_a 10.206144
_cell_length_b 8.563604
_cell_length_c 16.159758
_cell_angle_alpha 72.522465
_cell_angle_beta 45.940114
_cell_angle_gamma 111.419811
_cell_volume 529.012478
_symmetry_space_group_name_H-M "P -1"
_symmetry_group_IT_number 2
_symmetry_cell_setting 'triclinic'
loop_
_space_group_symop_operation_xyz
x,y,z
-x,-y,-z
loop_
_atom_site_type_symbol
_atom_site_label
_atom_site_fract_x
_atom_site_fract_y
_atom_site_fract_z
Si Si1 0.573770 0.149055 0.189122
Si Si2 0.305935 0.342605 0.523858
Si Si3 0.626682 0.745233 0.850406
Si Si4 0.338944 0.155541 0.836366
Si Si5 0.419298 0.061153 0.452683
Si Si6 0.865970 0.651843 0.647791
O O1 0.697694 0.063638 0.126076
O O2 0.162265 0.845876 0.420105
O O3 0.643858 0.337443 0.058759
O O4 0.642822 0.230481 0.243497
O O5 0.500000 0.500000 0.500000
O O6 0.430274 0.586492 0.375128
O O7 0.400026 0.234444 0.462631
O O8 0.904825 0.040043 0.739086
O O9 0.786177 0.775024 0.694485
O O10 0.500000 0.500000 0.000000
O O11 0.527541 0.325909 0.813012
O O12 0.000000 0.000000 0.000000
O O13 0.500000 0.000000 0.500000
O O14 0.056937 0.726772 0.631892
#
# Coordination Sequence:
#
# PCOD9018598 Si02
#       6
#     2   2   2   2   2   2
#     4  10  21  43  72  94 133 186 231 277 352 409
#     4  11  23  41  64  97 142 176 221 290 345 401
#     4  11  23  43  71 102 134 181 233 286 344 414
#     4  12  25  42  65 104 138 178 231 294 344 407
#     4   9  19  39  71  97 125 180 234 273 340 411
#     4   9  21  42  70  92 135 179 230 277 345 407
#
# _framework density 22.683776000000002
#
# number of rings (size 3 to 8) (size 9 to 14) (size 15 to 20)
#    1.000    0.667    1.667    3.000    2.333    0.000 
#    6.000    2.500    0.000    0.000    0.000    0.000 
#    0.000    0.000    0.000    0.000    0.000    0.000 
#
# Total GULP energy -66883.127756 kJ/mol
# GULP energy per Si atom -5573.593980 kJ/mol
# Density = 2.263215 g / cm^3
# Si number density = 22.683776 Si / 1000 Ang^3
#
#
#
# Elastic Constant Matrix: (Units=GPa)
#
#
# Indices 1 2 3 4 5 6 
#
# 1 217.8129 83.0027 34.5498 -15.2946 8.1074 -1.8662
# 2 83.0027 115.8263 13.2465 -0.4182 -10.9493 12.9149
# 3 34.5498 13.2465 58.7464 -11.3711 5.4438 2.1230
# 4 -15.2946 -0.4182 -11.3711 28.0827 -1.0780 -9.0771
# 5 8.1074 -10.9493 5.4438 -1.0780 39.6527 -8.4335
# 6 -1.8662 12.9149 2.1230 -9.0771 -8.4335 52.6594
#
#
#
# Elastic Compliance Matrix: (Units=1/GPa)
#
#
# Indices 1 2 3 4 5 6 
#
# 1 0.007372 -0.005431 -0.002291 0.003552 -0.002181 0.001949
# 2 -0.005431 0.013384 -0.000865 -0.004081 0.004071 -0.003492
# 3 -0.002291 -0.000865 0.020097 0.006829 -0.002317 0.000127
# 4 0.003552 -0.004081 0.006829 0.042927 0.000136 0.008273
# 5 -0.002181 0.004071 -0.002317 0.000136 0.027856 0.003502
# 6 0.001949 -0.003492 0.000127 0.008273 0.003502 0.021897
#
#
# Mechanical properties :
#
#
# Convention : Reuss Voigt Hill
#
# Bulk Modulus (GPa) = 42.23388 72.66483 57.44936
# Shear Modulus (GPa) = 31.52591 41.51806 36.52199
#
# Velocity S-wave (km/s) = 3.73205 4.28284 4.01689
# Velocity P-wave (km/s) = 6.10163 7.52066 6.84800
#
# Compressibility (1/GPa) = 0.02367767
#
# Stress axis : x y z
#
# Youngs Moduli (GPa) = 135.65684 74.71613 49.75912
#
# Poissons Ratio (x) = 0.40579 0.11402
# Poissons Ratio (y) = 0.73677 0.04303
# Poissons Ratio (z) = 0.31085 0.06461
#
# Static dielectric constant tensor:
#      x y z
#    x 1.854420 0.032930 -0.004840 
#    y 0.032930 1.821510 0.023490 
#    z -0.004840 0.023490 2.016100 
# 
# From -- ./inp_files/556968.got.cif
#   From: 2010.05.17/outbox.cif.g08.bks.cpg/sg2_279_cif.got.tgz:556968.got - 2010.06.03 11:33:40.
