data_PCOD9018712
_publ_section_title
;
Structure prediction by ZEFSAII (Michael W. Deem and Ramdas Pophale) SiO2 
 PCOD9018712
Probable space group: P -1
;
_chemical_formula_sum "Si O2"
_cell_formula_units_Z 12
_cell_length_a 9.353424
_cell_length_b 14.258198
_cell_length_c 16.270085
_cell_angle_alpha 27.162897
_cell_angle_beta 143.186037
_cell_angle_gamma 152.085439
_cell_volume 462.688353
_symmetry_space_group_name_H-M "P -1"
_symmetry_group_IT_number 2
_symmetry_cell_setting 'triclinic'
loop_
_space_group_symop_operation_xyz
x,y,z
-x,-y,-z
loop_
_atom_site_type_symbol
_atom_site_label
_atom_site_fract_x
_atom_site_fract_y
_atom_site_fract_z
Si Si1 0.636183 0.801187 0.993635
Si Si2 0.260541 0.706343 0.154287
Si Si3 0.090793 0.958674 0.363386
Si Si4 0.351800 0.077306 0.693870
Si Si5 0.476122 0.479923 0.678395
Si Si6 0.641675 0.315885 0.223159
O O1 0.515182 0.749361 0.886085
O O2 0.470937 0.911480 0.871389
O O3 0.576549 0.588144 0.197525
O O4 0.000000 0.000000 0.000000
O O5 0.411509 0.687393 0.318035
O O6 0.250525 0.523547 0.224364
O O7 0.942799 0.618097 0.111322
O O8 0.500000 0.000000 0.000000
O O9 0.210289 0.823508 0.573746
O O10 0.953034 0.043823 0.300206
O O11 0.832018 0.754094 0.333821
O O12 0.384397 0.208183 0.256977
O O13 0.408990 0.231742 0.516645
#
# Coordination Sequence:
#
# PCOD9018712 Si02
#       6
#     2   2   2   2   2   2
#     4  12  27  46  70 110 153 190 237 310 369 422
#     4  11  21  43  76 105 137 198 238 295 353 440
#     4  10  21  43  76 106 143 192 243 299 353 440
#     4  11  23  46  77  99 146 199 241 289 374 431
#     4  11  21  46  73 102 147 192 242 291 365 434
#     4  11  23  44  74 110 152 177 253 304 352 436
#
# _framework density 25.935383999999999
#
# number of rings (size 3 to 8) (size 9 to 14) (size 15 to 20)
#    0.000    1.000    6.667    1.000    0.000    2.000 
#    0.000    9.167    0.000    0.000    0.000    0.000 
#    0.000    0.000    0.000    0.000    0.000    0.000 
#
# Total GULP energy -67084.597088 kJ/mol
# GULP energy per Si atom -5590.383091 kJ/mol
# Density = 2.587635 g / cm^3
# Si number density = 25.935384 Si / 1000 Ang^3
#
#
#
# Elastic Constant Matrix: (Units=GPa)
#
#
# Indices 1 2 3 4 5 6 
#
# 1 139.1489 70.9030 71.0127 6.3318 -31.3692 39.1622
# 2 70.9030 136.8243 56.3237 8.8940 -26.1875 38.8960
# 3 71.0127 56.3237 171.5372 13.8770 -34.2505 17.5939
# 4 6.3318 8.8940 13.8770 40.5199 8.8442 -16.1499
# 5 -31.3692 -26.1875 -34.2505 8.8442 62.8958 -0.9064
# 6 39.1622 38.8960 17.5939 -16.1499 -0.9064 52.5464
#
#
#
# Elastic Compliance Matrix: (Units=1/GPa)
#
#
# Indices 1 2 3 4 5 6 
#
# 1 0.013583 -0.001891 -0.002483 -0.005842 0.005318 -0.009596
# 2 -0.001891 0.012881 -0.000872 -0.007265 0.004823 -0.009983
# 3 -0.002483 -0.000872 0.008223 -0.003472 0.003346 -0.001266
# 4 -0.005842 -0.007265 -0.003472 0.040461 -0.013186 0.023102
# 5 0.005318 0.004823 0.003346 -0.013186 0.024059 -0.012291
# 6 -0.009596 -0.009983 -0.001266 0.023102 -0.012291 0.040884
#
#
# Mechanical properties :
#
#
# Convention : Reuss Voigt Hill
#
# Bulk Modulus (GPa) = 41.33326 93.77657 67.55491
# Shear Modulus (GPa) = 31.51632 47.81049 39.66341
#
# Velocity S-wave (km/s) = 3.48973 4.29820 3.91489
# Velocity P-wave (km/s) = 5.67532 7.80185 6.82196
#
# Compressibility (1/GPa) = 0.02419359
#
# Stress axis : x y z
#
# Youngs Moduli (GPa) = 73.62269 77.63576 121.61198
#
# Poissons Ratio (x) = 0.14680 0.30202
# Poissons Ratio (y) = 0.13921 0.10604
# Poissons Ratio (z) = 0.18284 0.06770
#
# Static dielectric constant tensor:
#      x y z
#    x 2.062170 -0.014650 0.036790 
#    y -0.014650 2.161030 0.007620 
#    z 0.036790 0.007620 2.056280 
# 
# From -- ./inp_files/204934.got.cif
#   From: 2010.05.17/outbox.cif.g08.bks.cpg/sg2_103_cif.got.tgz:204934.got - 2010.06.03 11:33:40.
