data_PCOD9018772
_publ_section_title
;
Structure prediction by ZEFSAII (Michael W. Deem and Ramdas Pophale) SiO2 
 PCOD9018772
Probable space group: P -1
;
_chemical_formula_sum "Si O2"
_cell_formula_units_Z 14
_cell_length_a 19.494677
_cell_length_b 10.386178
_cell_length_c 9.516746
_cell_angle_alpha 60.011116
_cell_angle_beta 56.173264
_cell_angle_gamma 25.036528
_cell_volume 677.364920
_symmetry_space_group_name_H-M "P -1"
_symmetry_group_IT_number 2
_symmetry_cell_setting 'triclinic'
loop_
_space_group_symop_operation_xyz
x,y,z
-x,-y,-z
loop_
_atom_site_type_symbol
_atom_site_label
_atom_site_fract_x
_atom_site_fract_y
_atom_site_fract_z
Si Si1 0.555224 0.553812 0.774585
Si Si2 0.278726 0.235682 0.018273
Si Si3 0.038547 0.371379 0.372293
Si Si4 0.824595 0.724563 0.158221
Si Si5 0.175822 0.721733 0.874133
Si Si6 0.571083 0.557373 0.065607
Si Si7 0.862370 0.134839 0.481740
O O1 0.554010 0.385837 0.817276
O O2 0.675198 0.452695 0.587594
O O3 0.354756 0.904165 0.831014
O O4 0.642548 0.432829 0.893833
O O5 0.161430 0.301138 0.198270
O O6 0.462306 0.877384 0.018600
O O7 0.230331 0.316940 0.863730
O O8 0.254724 0.439931 0.980159
O O9 0.878693 0.615335 0.315629
O O10 0.000000 0.500000 0.500000
O O11 0.102272 0.099578 0.445334
O O12 0.000000 0.500000 0.000000
O O13 0.295976 0.655590 0.844896
O O14 0.143294 0.795510 0.707455
O O15 0.000000 0.000000 0.000000
O O16 0.000000 0.000000 0.500000
#
# Coordination Sequence:
#
# PCOD9018772 Si02
#       7
#     2   2   2   2   2   2   2
#     4  10  22  42  69 100 128 177 226 275 332 404
#     4  10  21  44  63  93 127 177 222 265 334 406
#     4  11  23  40  65  97 133 173 224 280 332 393
#     4   9  21  38  68  95 129 170 222 269 332 406
#     4  12  26  40  66  98 137 175 221 278 337 393
#     4  10  22  41  68  95 130 170 225 271 334 402
#     4  12  26  45  66 101 140 178 223 284 336 392
#
# _framework density 20.668329
#
# number of rings (size 3 to 8) (size 9 to 14) (size 15 to 20)
#    0.000    1.429    1.429    3.000    8.000    1.714 
#    0.000    7.857    0.000    0.000    0.000    0.000 
#    0.000    0.000    0.000    0.000    0.000    0.000 
#
# Total GULP energy -77935.840968 kJ/mol
# GULP energy per Si atom -5566.845783 kJ/mol
# Density = 2.062129 g / cm^3
# Si number density = 20.668329 Si / 1000 Ang^3
#
#
#
# Elastic Constant Matrix: (Units=GPa)
#
#
# Indices 1 2 3 4 5 6 
#
# 1 119.1540 64.2008 64.9438 1.5006 22.4999 -2.6202
# 2 64.2008 80.6560 41.2482 4.1731 6.8256 -1.2355
# 3 64.9438 41.2482 133.3393 6.0624 16.2508 -10.6785
# 4 1.5006 4.1731 6.0624 28.0257 1.2297 -0.4816
# 5 22.4999 6.8256 16.2508 1.2297 28.9855 -12.4962
# 6 -2.6202 -1.2355 -10.6785 -0.4816 -12.4962 34.8023
#
#
#
# Elastic Compliance Matrix: (Units=1/GPa)
#
#
# Indices 1 2 3 4 5 6 
#
# 1 0.019912 -0.012557 -0.004843 0.002293 -0.011897 -0.004672
# 2 -0.012557 0.022772 -0.001410 -0.002648 0.005947 0.001529
# 3 -0.004843 -0.001410 0.010667 -0.001763 -0.000701 0.002582
# 4 0.002293 -0.002648 -0.001763 0.036411 -0.002005 -0.000678
# 5 -0.011897 0.005947 -0.000701 -0.002005 0.050181 0.017090
# 6 -0.004672 0.001529 0.002582 -0.000678 0.017090 0.035356
#
#
# Mechanical properties :
#
#
# Convention : Reuss Voigt Hill
#
# Bulk Modulus (GPa) = 63.56678 74.88165 69.22421
# Shear Modulus (GPa) = 22.91877 29.21315 26.06596
#
# Velocity S-wave (km/s) = 3.33360 3.76363 3.55513
# Velocity P-wave (km/s) = 6.75571 7.42936 7.10053
#
# Compressibility (1/GPa) = 0.01573149
#
# Stress axis : x y z
#
# Youngs Moduli (GPa) = 50.21989 43.91385 93.74697
#
# Poissons Ratio (x) = 0.55142 0.45398
# Poissons Ratio (y) = 0.63060 0.13223
# Poissons Ratio (z) = 0.24319 0.06194
#
# Static dielectric constant tensor:
#      x y z
#    x 1.803800 -0.011840 -0.019160 
#    y -0.011840 1.818050 0.016380 
#    z -0.019160 0.016380 1.758640 
# 
# From -- ./inp_files/159774.got.cif
#   From: 2010.05.17/outbox.cif.g08.bks.cpg/sg2_80_cif.got.tgz:159774.got - 2010.06.03 11:33:40.
