data_PCOD9018696
_publ_section_title
;
Structure prediction by ZEFSAII (Michael W. Deem and Ramdas Pophale) SiO2 
 PCOD9018696
Probable space group: P -1
;
_chemical_formula_sum "Si O2"
_cell_formula_units_Z 16
_cell_length_a 5.157817
_cell_length_b 14.301965
_cell_length_c 11.629547
_cell_angle_alpha 129.347395
_cell_angle_beta 94.968302
_cell_angle_gamma 109.169533
_cell_volume 573.324080
_symmetry_space_group_name_H-M "P -1"
_symmetry_group_IT_number 2
_symmetry_cell_setting 'triclinic'
loop_
_space_group_symop_operation_xyz
x,y,z
-x,-y,-z
loop_
_atom_site_type_symbol
_atom_site_label
_atom_site_fract_x
_atom_site_fract_y
_atom_site_fract_z
Si Si1 0.595236 0.004559 0.171037
Si Si2 0.559951 0.809766 0.839913
Si Si3 0.696078 0.124244 0.517688
Si Si4 0.475007 0.376097 0.479227
Si Si5 0.934066 0.459326 0.261985
Si Si6 0.996440 0.249739 0.960507
Si Si7 0.369298 0.306679 0.670502
Si Si8 0.383608 0.629020 0.038907
O O1 0.244516 0.891764 0.097789
O O2 0.607631 0.122624 0.181325
O O3 0.717639 0.065201 0.347597
O O4 0.713829 0.917066 0.034022
O O5 0.706564 0.766729 0.709833
O O6 0.338940 0.660182 0.771134
O O7 0.530300 0.215637 0.576473
O O8 0.041715 0.210975 0.634142
O O9 0.500000 0.000000 0.500000
O O10 0.500000 0.500000 0.500000
O O11 0.819546 0.417652 0.556288
O O12 0.338551 0.363030 0.589652
O O13 0.812167 0.483470 0.154451
O O14 0.094350 0.371726 0.154728
O O15 0.790974 0.283769 0.893635
O O16 0.291861 0.271947 0.927253
O O17 0.571417 0.410241 0.861945
#
# Coordination Sequence:
#
# PCOD9018696 Si02
#       8
#     2   2   2   2   2   2   2   2
#     4  10  21  43  75 107 149 200 252 323 390 464
#     4  10  22  46  70 105 150 200 264 314 386 459
#     4  12  26  47  78 119 158 201 249 329 401 474
#     4  12  28  48  74 113 159 215 262 328 378 458
#     4   9  24  43  76 100 148 203 258 314 382 451
#     4   9  21  42  71 109 144 196 247 315 386 460
#     4  12  27  48  76 117 156 202 266 316 396 469
#     4  10  21  45  73 108 145 192 254 313 389 462
#
# _framework density 27.907426000000001
#
# number of rings (size 3 to 8) (size 9 to 14) (size 15 to 20)
#    0.750    0.750    1.250    3.000    3.500    2.500 
#    0.000    1.875    0.000    0.000    0.000    0.000 
#    0.000    0.000    0.000    0.000    0.000    0.000 
#
# Total GULP energy -89613.373040 kJ/mol
# GULP energy per Si atom -5600.835815 kJ/mol
# Density = 2.784391 g / cm^3
# Si number density = 27.907426 Si / 1000 Ang^3
#
#
#
# Elastic Constant Matrix: (Units=GPa)
#
#
# Indices 1 2 3 4 5 6 
#
# 1 140.6170 31.2655 49.2289 -9.1854 13.8087 -0.1875
# 2 31.2655 143.0786 53.2994 -31.5539 15.2841 -9.8938
# 3 49.2289 53.2994 209.5302 -30.4357 -18.8602 -4.6952
# 4 -9.1854 -31.5539 -30.4357 51.2488 0.6494 6.3157
# 5 13.8087 15.2841 -18.8602 0.6494 37.9718 -4.4923
# 6 -0.1875 -9.8938 -4.6952 6.3157 -4.4923 33.8715
#
#
#
# Elastic Compliance Matrix: (Units=1/GPa)
#
#
# Indices 1 2 3 4 5 6 
#
# 1 0.008417 -0.000671 -0.002194 -0.000036 -0.003996 -0.000977
# 2 -0.000671 0.009394 -0.001968 0.004422 -0.004466 0.001051
# 3 -0.002194 -0.001968 0.006553 0.002155 0.004875 0.000566
# 4 -0.000036 0.004422 0.002155 0.023905 -0.001467 -0.003062
# 5 -0.003996 -0.004466 0.004875 -0.001467 0.032498 0.003933
# 6 -0.000977 0.001051 0.000566 -0.003062 0.003933 0.030996
#
#
# Mechanical properties :
#
#
# Convention : Reuss Voigt Hill
#
# Bulk Modulus (GPa) = 68.03209 84.53480 76.28344
# Shear Modulus (GPa) = 39.57960 48.58054 44.08007
#
# Velocity S-wave (km/s) = 3.77005 4.17679 3.97862
# Velocity P-wave (km/s) = 6.58648 7.32241 6.96417
#
# Compressibility (1/GPa) = 0.01469895
#
# Stress axis : x y z
#
# Youngs Moduli (GPa) = 118.80139 106.45310 152.59674
#
# Poissons Ratio (x) = 0.07141 0.33477
# Poissons Ratio (y) = 0.07970 0.30032
# Poissons Ratio (z) = 0.26063 0.20951
#
# Static dielectric constant tensor:
#      x y z
#    x 2.168810 -0.029900 -0.034510 
#    y -0.029900 2.140610 -0.025910 
#    z -0.034510 -0.025910 2.216050 
# 
# From -- ./inp_files/368077.got.cif
#   From: 2010.05.17/outbox.cif.g08.bks.cpg/sg2_185_cif.got.tgz:368077.got - 2010.06.03 11:33:40.
