data_PCOD9018119
_publ_section_title
;
Structure prediction by ZEFSAII (Michael W. Deem and Ramdas Pophale) SiO2 
 PCOD9018119
Probable space group: P -1
;
_chemical_formula_sum "Si O2"
_cell_formula_units_Z 16
_cell_length_a 7.085340
_cell_length_b 18.408197
_cell_length_c 13.579878
_cell_angle_alpha 152.675893
_cell_angle_beta 69.792541
_cell_angle_gamma 120.264186
_cell_volume 678.420542
_symmetry_space_group_name_H-M "P -1"
_symmetry_group_IT_number 2
_symmetry_cell_setting 'triclinic'
loop_
_space_group_symop_operation_xyz
x,y,z
-x,-y,-z
loop_
_atom_site_type_symbol
_atom_site_label
_atom_site_fract_x
_atom_site_fract_y
_atom_site_fract_z
Si Si1 0.054819 0.203313 0.250227
Si Si2 0.643248 0.211435 0.221261
Si Si3 0.407456 0.616843 0.976001
Si Si4 0.104398 0.106646 0.710141
Si Si5 0.019411 0.349643 0.632870
Si Si6 0.355240 0.437410 0.311350
Si Si7 0.727104 0.156842 0.605686
Si Si8 0.916192 0.317105 0.108747
O O1 0.860612 0.245390 0.289355
O O2 0.053266 0.233328 0.402564
O O3 0.273171 0.336580 0.308334
O O4 0.000000 0.000000 0.000000
O O5 0.552945 0.349697 0.439366
O O6 0.712192 0.257124 0.149687
O O7 0.500000 0.000000 0.000000
O O8 0.215299 0.411071 0.756283
O O9 0.503846 0.633611 0.867473
O O10 0.642032 0.717201 0.119483
O O11 0.247476 0.702976 0.145140
O O12 0.136867 0.954173 0.577841
O O13 0.926708 0.161514 0.855907
O O14 0.000000 0.000000 0.500000
O O15 0.774126 0.265480 0.627264
O O16 0.050493 0.523236 0.775907
O O17 0.130634 0.379819 0.217485
O O18 0.500000 0.000000 0.500000
#
# Coordination Sequence:
#
# PCOD9018119 Si02
#       8
#     2   2   2   2   2   2   2   2
#     4  11  25  40  68 101 135 187 224 283 345 403
#     4  11  23  43  64 100 142 175 232 275 340 414
#     4  10  24  40  69  96 131 178 218 282 341 402
#     4  10  22  45  70  95 130 174 229 280 345 406
#     4  12  23  43  69  97 139 174 233 281 347 404
#     4  10  21  46  66  96 144 178 229 274 339 413
#     4  10  24  45  66  99 133 173 227 291 339 408
#     4  10  21  43  68  94 135 186 214 284 340 402
#
# _framework density 23.584188999999999
#
# number of rings (size 3 to 8) (size 9 to 14) (size 15 to 20)
#    0.000    1.500    2.500    1.875    8.750    1.500 
#    4.500   11.250    0.000    0.000    0.000    0.000 
#    0.000    0.000    0.000    0.000    0.000    0.000 
#
# Total GULP energy -89068.735931 kJ/mol
# GULP energy per Si atom -5566.795996 kJ/mol
# Density = 2.353051 g / cm^3
# Si number density = 23.584189 Si / 1000 Ang^3
#
#
#
# Elastic Constant Matrix: (Units=GPa)
#
#
# Indices 1 2 3 4 5 6 
#
# 1 65.3090 20.1701 14.5817 -11.7236 9.3735 -3.0303
# 2 20.1701 158.1490 66.1218 -3.2951 -7.3356 12.0528
# 3 14.5817 66.1218 205.8270 -23.5930 -12.2802 4.6880
# 4 -11.7236 -3.2951 -23.5930 36.9416 5.1577 -4.9950
# 5 9.3735 -7.3356 -12.2802 5.1577 43.3005 -2.1349
# 6 -3.0303 12.0528 4.6880 -4.9950 -2.1349 23.5963
#
#
#
# Elastic Compliance Matrix: (Units=1/GPa)
#
#
# Indices 1 2 3 4 5 6 
#
# 1 0.018366 -0.002788 -0.000023 0.006918 -0.005042 0.004795
# 2 -0.002788 0.008072 -0.002507 -0.002549 0.001347 -0.004401
# 3 -0.000023 -0.002507 0.006121 0.003674 0.000924 0.000923
# 4 0.006918 -0.002549 0.003674 0.033093 -0.004432 0.008065
# 5 -0.005042 0.001347 0.000924 -0.004432 0.025195 -0.000178
# 6 0.004795 -0.004401 0.000923 0.008065 -0.000178 0.046751
#
#
# Mechanical properties :
#
#
# Convention : Reuss Voigt Hill
#
# Bulk Modulus (GPa) = 45.61472 70.11468 57.86470
# Shear Modulus (GPa) = 32.14582 42.66177 37.40380
#
# Velocity S-wave (km/s) = 3.69592 4.25775 3.98674
# Velocity P-wave (km/s) = 6.13158 7.34611 6.76615
#
# Compressibility (1/GPa) = 0.02192275
#
# Stress axis : x y z
#
# Youngs Moduli (GPa) = 54.44864 123.88961 163.38021
#
# Poissons Ratio (x) = 0.34542 0.00368
# Poissons Ratio (y) = 0.15181 0.40961
# Poissons Ratio (z) = 0.00123 0.31061
#
# Static dielectric constant tensor:
#      x y z
#    x 2.058470 0.080290 0.051520 
#    y 0.080290 1.811660 -0.102760 
#    z 0.051520 -0.102760 1.790130 
# 
# From -- ./inp_files/403535.got.cif
#   From: 2010.05.17/outbox.cif.g08.bks.cpg/sg2_202_cif.got.tgz:403535.got - 2010.06.03 11:33:40.
