data_PCOD9018222
_publ_section_title
;
Structure prediction by ZEFSAII (Michael W. Deem and Ramdas Pophale) SiO2 
 PCOD9018222
Probable space group: P -1
;
_chemical_formula_sum "Si O2"
_cell_formula_units_Z 11
_cell_length_a 12.583564
_cell_length_b 9.191258
_cell_length_c 5.235250
_cell_angle_alpha 70.686556
_cell_angle_beta 110.040860
_cell_angle_gamma 62.761379
_cell_volume 410.644916
_symmetry_space_group_name_H-M "P -1"
_symmetry_group_IT_number 2
_symmetry_cell_setting 'triclinic'
loop_
_space_group_symop_operation_xyz
x,y,z
-x,-y,-z
loop_
_atom_site_type_symbol
_atom_site_label
_atom_site_fract_x
_atom_site_fract_y
_atom_site_fract_z
Si Si1 0.000000 0.500000 0.000000
Si Si2 0.904472 0.394443 0.522923
Si Si3 0.910934 0.027520 0.163036
Si Si4 0.514760 0.230243 0.523518
Si Si5 0.349115 0.592260 0.548143
Si Si6 0.260016 0.218613 0.155495
O O1 0.909264 0.447623 0.784779
O O2 0.843119 0.749555 0.721528
O O3 0.768593 0.394459 0.383199
O O4 0.875996 0.559440 0.206957
O O5 0.058289 0.180975 0.705971
O O6 0.751870 0.242270 0.860468
O O7 0.000000 0.000000 0.500000
O O8 0.000000 0.000000 0.000000
O O9 0.454355 0.370664 0.641663
O O10 0.566357 0.329050 0.332032
O O11 0.383219 0.237337 0.311881
O O12 0.650861 0.992026 0.792472
#
# Coordination Sequence:
#
# PCOD9018222 Si02
#       6
#     1   2   2   2   2   2
#     4  12  24  44  66 104 142 184 240 302 354 434
#     4  11  24  42  73 105 139 187 244 304 366 432
#     4  10  22  41  71 106 144 185 241 306 364 428
#     4  10  22  44  69  99 144 183 234 299 369 444
#     4  10  21  43  69 102 142 183 238 303 358 442
#     4  11  24  44  70 100 140 188 237 300 365 442
#
# _framework density 26.787134999999999
#
# number of rings (size 3 to 8) (size 9 to 14) (size 15 to 20)
#    0.000    1.455    1.818    2.727    2.545    1.455 
#    0.000    1.818    0.000    0.000    0.000    0.000 
#    0.000    0.000    0.000    0.000    0.000    0.000 
#
# Total GULP energy -61267.713662 kJ/mol
# GULP energy per Si atom -5569.792151 kJ/mol
# Density = 2.672617 g / cm^3
# Si number density = 26.787135 Si / 1000 Ang^3
#
#
#
# Elastic Constant Matrix: (Units=GPa)
#
#
# Indices 1 2 3 4 5 6 
#
# 1 142.2198 6.4536 28.0348 -11.6474 15.6313 7.2074
# 2 6.4536 189.3466 52.7741 -30.2763 11.6977 -7.9855
# 3 28.0348 52.7741 90.9020 -18.2479 4.7895 -18.6216
# 4 -11.6474 -30.2763 -18.2479 54.7376 -8.3874 11.0400
# 5 15.6313 11.6977 4.7895 -8.3874 52.6653 -10.7415
# 6 7.2074 -7.9855 -18.6216 11.0400 -10.7415 36.1831
#
#
#
# Elastic Compliance Matrix: (Units=1/GPa)
#
#
# Indices 1 2 3 4 5 6 
#
# 1 0.008419 0.000978 -0.003653 0.001597 -0.003098 -0.004748
# 2 0.000978 0.006829 -0.004043 0.002835 -0.001406 -0.002051
# 3 -0.003653 -0.004043 0.016329 0.001060 0.002427 0.008636
# 4 0.001597 0.002835 0.001060 0.021809 0.001160 -0.005457
# 5 -0.003098 -0.001406 0.002427 0.001160 0.021745 0.007658
# 6 -0.004748 -0.002051 0.008636 -0.005457 0.007658 0.036513
#
#
# Mechanical properties :
#
#
# Convention : Reuss Voigt Hill
#
# Bulk Modulus (GPa) = 55.12606 66.33260 60.72933
# Shear Modulus (GPa) = 38.13122 51.06426 44.59774
#
# Velocity S-wave (km/s) = 3.77701 4.37085 4.08474
# Velocity P-wave (km/s) = 6.29643 7.09148 6.70575
#
# Compressibility (1/GPa) = 0.01814024
#
# Stress axis : x y z
#
# Youngs Moduli (GPa) = 118.77881 146.44418 61.24241
#
# Poissons Ratio (x) = -0.14318 0.22371
# Poissons Ratio (y) = -0.11613 0.24759
# Poissons Ratio (z) = 0.43389 0.59204
#
# Static dielectric constant tensor:
#      x y z
#    x 1.817840 0.206790 0.178150 
#    y 0.206790 2.073650 -0.049540 
#    z 0.178150 -0.049540 2.121430 
# 
# From -- ./inp_files/87466.got.cif
#   From: 2010.05.17/outbox.cif.g08.bks.cpg/sg2_44_cif.got.tgz:87466.got - 2010.06.03 11:33:40.
