data_PCOD9018527
_publ_section_title
;
Structure prediction by ZEFSAII (Michael W. Deem and Ramdas Pophale) SiO2 
 PCOD9018527
Probable space group: P -1
;
_chemical_formula_sum "Si O2"
_cell_formula_units_Z 16
_cell_length_a 23.443335
_cell_length_b 7.810597
_cell_length_c 6.284906
_cell_angle_alpha 114.069458
_cell_angle_beta 130.516650
_cell_angle_gamma 45.753776
_cell_volume 624.519138
_symmetry_space_group_name_H-M "P -1"
_symmetry_group_IT_number 2
_symmetry_cell_setting 'triclinic'
loop_
_space_group_symop_operation_xyz
x,y,z
-x,-y,-z
loop_
_atom_site_type_symbol
_atom_site_label
_atom_site_fract_x
_atom_site_fract_y
_atom_site_fract_z
Si Si1 0.413539 0.378421 0.090799
Si Si2 0.271400 0.564620 0.477826
Si Si3 0.391251 0.112016 0.238702
Si Si4 0.093496 0.387361 0.526256
Si Si5 0.177405 0.211002 0.048198
Si Si6 0.888285 0.985303 0.941631
Si Si7 0.903861 0.317049 0.658966
Si Si8 0.384791 0.827887 0.402090
O O1 0.377458 0.241584 0.045747
O O2 0.392887 0.590820 0.298787
O O3 0.529632 0.208160 0.277350
O O4 0.360660 0.497031 0.799963
O O5 0.318637 0.321479 0.337147
O O6 0.188849 0.659709 0.504413
O O7 0.206047 0.768562 0.247003
O O8 0.500000 0.000000 0.500000
O O9 0.391722 0.895114 0.208641
O O10 0.097828 0.217112 0.278329
O O11 0.095872 0.583792 0.517929
O O12 0.000000 0.500000 0.500000
O O13 0.182996 0.228554 0.819674
O O14 0.129129 0.085447 0.910489
O O15 0.115032 0.479013 0.122277
O O16 0.278489 0.046031 0.329404
O O17 0.990590 0.930405 0.167999
#
# Coordination Sequence:
#
# PCOD9018527 Si02
#       8
#     2   2   2   2   2   2   2   2
#     4  10  24  45  65 101 135 169 234 278 339 405
#     4  12  25  43  65  99 139 175 226 277 337 411
#     4  10  23  45  68  97 134 178 221 286 341 393
#     4  11  20  39  67  91 128 177 228 273 324 401
#     4  11  20  40  65  93 130 168 227 271 332 398
#     4  11  23  40  62  97 135 175 220 277 333 398
#     4  11  23  39  62  97 131 178 218 269 336 393
#     4  10  21  43  71  93 133 180 216 287 339 396
#
# _framework density 25.619710000000001
#
# number of rings (size 3 to 8) (size 9 to 14) (size 15 to 20)
#    0.000    1.250    3.750    2.625    1.750    2.000 
#    0.000   10.625    0.000    0.000    0.000    0.000 
#    0.000    0.000    0.000    0.000    0.000    0.000 
#
# Total GULP energy -89372.349164 kJ/mol
# GULP energy per Si atom -5585.771823 kJ/mol
# Density = 2.556140 g / cm^3
# Si number density = 25.619710 Si / 1000 Ang^3
#
#
#
# Elastic Constant Matrix: (Units=GPa)
#
#
# Indices 1 2 3 4 5 6 
#
# 1 84.0093 14.4453 23.2535 -14.1841 4.3336 -1.7431
# 2 14.4453 82.8200 24.6613 -12.4282 2.3370 -6.5596
# 3 23.2535 24.6613 132.8363 -34.1402 17.5450 -13.2124
# 4 -14.1841 -12.4282 -34.1402 41.3022 -5.9168 -1.0055
# 5 4.3336 2.3370 17.5450 -5.9168 41.3391 -17.7939
# 6 -1.7431 -6.5596 -13.2124 -1.0055 -17.7939 25.7036
#
#
#
# Elastic Compliance Matrix: (Units=1/GPa)
#
#
# Indices 1 2 3 4 5 6 
#
# 1 0.013009 -0.001479 -0.001217 0.002937 -0.000492 -0.000347
# 2 -0.001479 0.013442 -0.001381 0.002817 0.002222 0.004268
# 3 -0.001217 -0.001381 0.010635 0.007886 -0.001254 0.004472
# 4 0.002937 0.002817 0.007886 0.033583 0.005268 0.009932
# 5 -0.000492 0.002222 -0.001254 0.005268 0.036243 0.025185
# 6 -0.000347 0.004268 0.004472 0.009932 0.025185 0.060093
#
#
# Mechanical properties :
#
#
# Convention : Reuss Voigt Hill
#
# Bulk Modulus (GPa) = 34.56661 47.15399 40.86030
# Shear Modulus (GPa) = 27.05569 37.48935 32.27252
#
# Velocity S-wave (km/s) = 3.25322 3.82946 3.55304
# Velocity P-wave (km/s) = 5.25668 6.16428 5.72848
#
# Compressibility (1/GPa) = 0.02892965
#
# Stress axis : x y z
#
# Youngs Moduli (GPa) = 76.87074 74.39441 94.03016
#
# Poissons Ratio (x) = 0.11006 0.11445
# Poissons Ratio (y) = 0.11372 0.12990
# Poissons Ratio (z) = 0.09356 0.10277
#
# Static dielectric constant tensor:
#      x y z
#    x 2.112090 0.034700 -0.005120 
#    y 0.034700 1.995530 -0.027800 
#    z -0.005120 -0.027800 2.040670 
# 
# From -- ./inp_files/122920.got.cif
#   From: 2010.05.17/outbox.cif.g08.bks.cpg/sg2_62_cif.got.tgz:122920.got - 2010.06.03 11:33:40.
