data_PCOD9018427
_publ_section_title
;
Structure prediction by ZEFSAII (Michael W. Deem and Ramdas Pophale) SiO2 
 PCOD9018427
Probable space group: P -1
;
_chemical_formula_sum "Si O2"
_cell_formula_units_Z 16
_cell_length_a 6.920594
_cell_length_b 8.098775
_cell_length_c 14.077988
_cell_angle_alpha 69.323189
_cell_angle_beta 101.966812
_cell_angle_gamma 102.289898
_cell_volume 713.724289
_symmetry_space_group_name_H-M "P -1"
_symmetry_group_IT_number 2
_symmetry_cell_setting 'triclinic'
loop_
_space_group_symop_operation_xyz
x,y,z
-x,-y,-z
loop_
_atom_site_type_symbol
_atom_site_label
_atom_site_fract_x
_atom_site_fract_y
_atom_site_fract_z
Si Si1 0.464701 0.768415 0.953555
Si Si2 0.141377 0.916486 0.606236
Si Si3 0.471171 0.388540 0.708047
Si Si4 0.753257 0.892530 0.119928
Si Si5 0.921601 0.899031 0.787458
Si Si6 0.320137 0.440274 0.128996
Si Si7 0.408561 0.896840 0.358848
Si Si8 0.809374 0.379429 0.459081
O O1 0.519304 0.661922 0.888846
O O2 0.363202 0.943719 0.894066
O O3 0.669188 0.831645 0.020700
O O4 0.329163 0.626375 0.036470
O O5 0.138419 0.712388 0.614898
O O6 0.059638 0.925548 0.702669
O O7 0.367207 0.021556 0.604694
O O8 0.000000 0.000000 0.500000
O O9 0.309664 0.274003 0.783402
O O10 0.615580 0.515510 0.765778
O O11 0.579467 0.247411 0.692698
O O12 0.359790 0.499245 0.600989
O O13 0.981602 0.969833 0.146739
O O14 0.883521 0.696925 0.861158
O O15 0.711686 0.952024 0.722142
O O16 0.281624 0.786971 0.451005
O O17 0.000000 0.500000 0.500000
#
# Coordination Sequence:
#
# PCOD9018427 Si02
#       8
#     2   2   2   2   2   2   2   2
#     4   9  21  45  70  94 137 173 213 288 351 399
#     4  12  26  46  70  98 139 185 232 274 332 398
#     4  11  23  41  67  98 133 181 218 274 335 394
#     4  10  21  43  70  96 130 176 224 270 340 418
#     4  12  25  42  71 104 128 181 234 271 336 402
#     4  10  23  40  66 103 131 169 224 281 343 399
#     4  12  25  46  67  96 145 183 225 278 331 396
#     4  12  26  42  67 101 140 181 226 279 336 393
#
# _framework density 22.417618999999998
#
# number of rings (size 3 to 8) (size 9 to 14) (size 15 to 20)
#    0.000    1.000    2.500    3.750    5.250    1.000 
#    0.000    0.000    0.000    0.000    0.000    0.000 
#    0.000    0.000    0.000    0.000    0.000    0.000 
#
# Total GULP energy -89531.995844 kJ/mol
# GULP energy per Si atom -5595.749740 kJ/mol
# Density = 2.236660 g / cm^3
# Si number density = 22.417619 Si / 1000 Ang^3
#
#
#
# Elastic Constant Matrix: (Units=GPa)
#
#
# Indices 1 2 3 4 5 6 
#
# 1 68.2257 22.3104 22.6823 5.2621 9.4557 16.1803
# 2 22.3104 106.3496 17.5944 11.7873 9.0817 4.3365
# 3 22.6823 17.5944 68.3895 -0.5889 10.6678 9.2218
# 4 5.2621 11.7873 -0.5889 44.8198 3.5708 -8.9793
# 5 9.4557 9.0817 10.6678 3.5708 16.6854 10.4836
# 6 16.1803 4.3365 9.2218 -8.9793 10.4836 33.7329
#
#
#
# Elastic Compliance Matrix: (Units=1/GPa)
#
#
# Indices 1 2 3 4 5 6 
#
# 1 0.019333 -0.002538 -0.004549 -0.003279 -0.000716 -0.008353
# 2 -0.002538 0.010678 -0.001488 -0.002101 -0.003454 0.000765
# 3 -0.004549 -0.001488 0.017817 0.002040 -0.008962 0.000831
# 4 -0.003279 -0.002101 0.002040 0.026581 -0.011487 0.011931
# 5 -0.000716 -0.003454 -0.008962 -0.011487 0.087350 -0.026967
# 6 -0.008353 0.000765 0.000831 0.011931 -0.026967 0.044883
#
#
# Mechanical properties :
#
#
# Convention : Reuss Voigt Hill
#
# Bulk Modulus (GPa) = 32.59676 40.90434 36.75055
# Shear Modulus (GPa) = 21.36580 31.07281 26.21930
#
# Velocity S-wave (km/s) = 3.09055 3.72706 3.42363
# Velocity P-wave (km/s) = 5.22567 6.06691 5.66193
#
# Compressibility (1/GPa) = 0.03067790
#
# Stress axis : x y z
#
# Youngs Moduli (GPa) = 51.72564 93.64919 56.12537
#
# Poissons Ratio (x) = 0.23768 0.25533
# Poissons Ratio (y) = 0.13128 0.08351
# Poissons Ratio (z) = 0.23531 0.13935
#
# Static dielectric constant tensor:
#      x y z
#    x 1.846720 0.010390 -0.020370 
#    y 0.010390 1.801270 0.009400 
#    z -0.020370 0.009400 1.825330 
# 
# From -- ./inp_files/480359.got.cif
#   From: 2010.05.17/outbox.cif.g08.bks.cpg/sg2_241_cif.got.tgz:480359.got - 2010.06.03 11:33:40.
