data_PCOD9018113
_publ_section_title
;
Structure prediction by ZEFSAII (Michael W. Deem and Ramdas Pophale) SiO2 
 PCOD9018113
Probable space group: P -1
;
_chemical_formula_sum "Si O2"
_cell_formula_units_Z 14
_cell_length_a 11.823444
_cell_length_b 9.338724
_cell_length_c 9.134166
_cell_angle_alpha 49.267103
_cell_angle_beta 94.856178
_cell_angle_gamma 112.816080
_cell_volume 683.669214
_symmetry_space_group_name_H-M "P -1"
_symmetry_group_IT_number 2
_symmetry_cell_setting 'triclinic'
loop_
_space_group_symop_operation_xyz
x,y,z
-x,-y,-z
loop_
_atom_site_type_symbol
_atom_site_label
_atom_site_fract_x
_atom_site_fract_y
_atom_site_fract_z
Si Si1 0.893713 0.797162 0.702242
Si Si2 0.487852 0.847648 0.468259
Si Si3 0.627620 0.579055 0.687197
Si Si4 0.917630 0.778883 0.062217
Si Si5 0.888207 0.416163 0.777985
Si Si6 0.739900 0.497228 0.461560
Si Si7 0.612073 0.138365 0.029276
O O1 0.755836 0.752021 0.657219
O O2 0.910376 0.593985 0.783229
O O3 0.897208 0.810129 0.868850
O O4 0.000000 0.000000 0.500000
O O5 0.521224 0.657009 0.638902
O O6 0.349662 0.733801 0.455921
O O7 0.500000 0.000000 0.500000
O O8 0.588631 0.995265 0.263114
O O9 0.659395 0.552558 0.538257
O O10 0.599426 0.355384 0.906490
O O11 0.792185 0.656297 0.226743
O O12 0.998222 0.645190 0.169879
O O13 0.000000 0.000000 0.000000
O O14 0.857146 0.500020 0.566334
O O15 0.754067 0.217320 0.932679
O O16 0.500000 0.000000 0.000000
#
# Coordination Sequence:
#
# PCOD9018113 Si02
#       7
#     2   2   2   2   2   2   2
#     4  10  23  44  63  92 126 173 213 258 322 377
#     4  12  26  40  68  99 130 168 212 271 323 381
#     4  10  24  45  66  91 132 172 216 265 315 397
#     4  12  25  39  65  99 127 167 214 265 321 376
#     4  10  23  42  67  90 129 170 211 265 313 391
#     4  10  23  44  63  96 128 165 218 261 320 384
#     4  10  21  43  68  94 126 174 216 253 332 382
#
# _framework density 20.477741000000002
#
# number of rings (size 3 to 8) (size 9 to 14) (size 15 to 20)
#    0.000    1.714    2.857    3.000    8.000    2.857 
#    0.000    0.000    0.000    0.000    0.000    0.000 
#    0.000    0.000    0.000    0.000    0.000    0.000 
#
# Total GULP energy -78199.899062 kJ/mol
# GULP energy per Si atom -5585.707076 kJ/mol
# Density = 2.043113 g / cm^3
# Si number density = 20.477741 Si / 1000 Ang^3
#
#
#
# Elastic Constant Matrix: (Units=GPa)
#
#
# Indices 1 2 3 4 5 6 
#
# 1 22.9062 10.4844 -14.9889 -2.2152 9.2739 -2.3840
# 2 10.4844 139.7931 26.7721 18.5019 -11.8121 12.5313
# 3 -14.9889 26.7721 75.2400 2.8787 -20.0790 8.3826
# 4 -2.2152 18.5019 2.8787 35.6158 4.7062 -5.7077
# 5 9.2739 -11.8121 -20.0790 4.7062 29.1217 -8.8948
# 6 -2.3840 12.5313 8.3826 -5.7077 -8.8948 23.7423
#
#
#
# Elastic Compliance Matrix: (Units=1/GPa)
#
#
# Indices 1 2 3 4 5 6 
#
# 1 0.064138 -0.010265 0.010798 0.011458 -0.017724 0.004160
# 2 -0.010265 0.010438 -0.003692 -0.007204 0.004509 -0.005279
# 3 0.010798 -0.003692 0.018956 -0.000105 0.007933 -0.000713
# 4 0.011458 -0.007204 -0.000105 0.035374 -0.009303 0.010009
# 5 -0.017724 0.004509 0.007933 -0.009303 0.051917 0.010253
# 6 0.004160 -0.005279 -0.000713 0.010009 0.010253 0.051822
#
#
# Mechanical properties :
#
#
# Convention : Reuss Voigt Hill
#
# Bulk Modulus (GPa) = 11.46617 31.38605 21.42611
# Shear Modulus (GPa) = 18.65428 32.07407 25.36417
#
# Velocity S-wave (km/s) = 3.02148 3.96193 3.52322
# Velocity P-wave (km/s) = 4.21710 6.02407 5.19968
#
# Compressibility (1/GPa) = 0.08721306
#
# Stress axis : x y z
#
# Youngs Moduli (GPa) = 15.59149 95.80268 52.75338
#
# Poissons Ratio (x) = 0.98344 -0.56962
# Poissons Ratio (y) = 0.16005 0.19477
# Poissons Ratio (z) = -0.16835 0.35371
#
# Static dielectric constant tensor:
#      x y z
#    x 1.747110 0.003780 -0.004220 
#    y 0.003780 1.715500 0.022180 
#    z -0.004220 0.022180 1.765810 
# 
# From -- ./inp_files/177136.got.cif
#   From: 2010.05.17/outbox.cif.g08.bks.cpg/sg2_89_cif.got.tgz:177136.got - 2010.06.03 11:33:40.
