data_PCOD9018820
_publ_section_title
;
Structure prediction by ZEFSAII (Michael W. Deem and Ramdas Pophale) SiO2 
 PCOD9018820
Probable space group: P -1
;
_chemical_formula_sum "Si O2"
_cell_formula_units_Z 16
_cell_length_a 12.173668
_cell_length_b 12.890044
_cell_length_c 10.272262
_cell_angle_alpha 96.237092
_cell_angle_beta 69.741013
_cell_angle_gamma 36.535616
_cell_volume 649.290443
_symmetry_space_group_name_H-M "P -1"
_symmetry_group_IT_number 2
_symmetry_cell_setting 'triclinic'
loop_
_space_group_symop_operation_xyz
x,y,z
-x,-y,-z
loop_
_atom_site_type_symbol
_atom_site_label
_atom_site_fract_x
_atom_site_fract_y
_atom_site_fract_z
Si Si1 0.045902 0.676963 0.284857
Si Si2 0.249729 0.717496 0.533351
Si Si3 0.833524 0.629005 0.272211
Si Si4 0.084913 0.036070 0.803322
Si Si5 0.593039 0.732354 0.629008
Si Si6 0.880799 0.828027 0.648108
Si Si7 0.366943 0.121068 0.887283
Si Si8 0.516086 0.431031 0.124574
O O1 0.356278 0.451488 0.168468
O O2 0.970807 0.618936 0.281570
O O3 0.995541 0.784505 0.190249
O O4 0.865831 0.864226 0.504420
O O5 0.500000 0.500000 0.500000
O O6 0.353812 0.620469 0.330689
O O7 0.017584 0.816104 0.661283
O O8 0.137320 0.920774 0.641866
O O9 0.610817 0.762759 0.478487
O O10 0.709192 0.768265 0.207084
O O11 0.078895 0.351239 0.108605
O O12 0.364067 0.827480 0.736925
O O13 0.830037 0.188779 0.998394
O O14 0.891763 0.446103 0.485960
O O15 0.504420 0.898980 0.778053
O O16 0.594361 0.015000 0.838888
O O17 0.500000 0.500000 0.000000
#
# Coordination Sequence:
#
# PCOD9018820 Si02
#       8
#     2   2   2   2   2   2   2   2
#     4  10  21  44  64  96 134 174 223 282 334 398
#     4  11  24  46  66 103 138 178 229 278 345 408
#     4  11  24  42  66  98 131 173 230 272 338 405
#     4  11  23  43  71  94 136 183 221 280 345 403
#     4  12  23  44  64  98 138 174 217 279 345 402
#     4  11  24  43  67  96 137 173 224 281 338 406
#     4  11  24  42  66  97 128 179 223 277 333 404
#     4   9  23  42  66 100 132 174 230 278 328 403
#
# _framework density 24.642284
#
# number of rings (size 3 to 8) (size 9 to 14) (size 15 to 20)
#    0.000    1.250    3.750    1.500    1.750    6.500 
#    4.500    0.000    0.000    0.000    0.000    0.000 
#    0.000    0.000    0.000    0.000    0.000    0.000 
#
# Total GULP energy -89567.927368 kJ/mol
# GULP energy per Si atom -5597.995460 kJ/mol
# Density = 2.458620 g / cm^3
# Si number density = 24.642284 Si / 1000 Ang^3
#
#
#
# Elastic Constant Matrix: (Units=GPa)
#
#
# Indices 1 2 3 4 5 6 
#
# 1 139.4101 15.6979 47.2186 9.4883 -25.3782 -12.8171
# 2 15.6979 55.4951 3.0046 5.6876 -2.5180 -1.0762
# 3 47.2186 3.0046 103.3096 6.0998 -26.2094 2.4549
# 4 9.4883 5.6876 6.0998 29.1168 -5.4823 -3.4201
# 5 -25.3782 -2.5180 -26.2094 -5.4823 41.5294 9.8268
# 6 -12.8171 -1.0762 2.4549 -3.4201 9.8268 30.0051
#
#
#
# Elastic Compliance Matrix: (Units=1/GPa)
#
#
# Indices 1 2 3 4 5 6 
#
# 1 0.009486 -0.002203 -0.003679 -0.001041 0.002407 0.003367
# 2 -0.002203 0.018920 0.000647 -0.003202 -0.000057 -0.000662
# 3 -0.003679 0.000647 0.013381 -0.000956 0.007328 -0.005152
# 4 -0.001041 -0.003202 -0.000956 0.036345 0.002708 0.002774
# 5 0.002407 -0.000057 0.007328 0.002708 0.032905 -0.010041
# 6 0.003367 -0.000662 -0.005152 0.002774 -0.010041 0.038769
#
#
# Mechanical properties :
#
#
# Convention : Reuss Voigt Hill
#
# Bulk Modulus (GPa) = 31.93237 47.78413 39.85825
# Shear Modulus (GPa) = 29.28849 35.61651 32.45250
#
# Velocity S-wave (km/s) = 3.45127 3.80589 3.63291
# Velocity P-wave (km/s) = 5.37291 6.22465 5.81440
#
# Compressibility (1/GPa) = 0.03131619
#
# Stress axis : x y z
#
# Youngs Moduli (GPa) = 105.41883 52.85284 74.73498
#
# Poissons Ratio (x) = 0.11643 0.27499
# Poissons Ratio (y) = 0.23222 -0.04835
# Poissons Ratio (z) = 0.38789 -0.03419
#
# Static dielectric constant tensor:
#      x y z
#    x 1.904090 -0.026420 -0.020460 
#    y -0.026420 2.034930 -0.010190 
#    z -0.020460 -0.010190 1.934170 
# 
# From -- ./inp_files/428371.got.cif
#   From: 2010.05.17/outbox.cif.g08.bks.cpg/sg2_215_cif.got.tgz:428371.got - 2010.06.03 11:33:40.
