data_PCOD9018260
_publ_section_title
;
Structure prediction by ZEFSAII (Michael W. Deem and Ramdas Pophale) SiO2 
 PCOD9018260
Probable space group: P -1
;
_chemical_formula_sum "Si O2"
_cell_formula_units_Z 12
_cell_length_a 12.057583
_cell_length_b 5.273402
_cell_length_c 9.794640
_cell_angle_alpha 100.282717
_cell_angle_beta 115.222610
_cell_angle_gamma 100.506419
_cell_volume 530.486134
_symmetry_space_group_name_H-M "P -1"
_symmetry_group_IT_number 2
_symmetry_cell_setting 'triclinic'
loop_
_space_group_symop_operation_xyz
x,y,z
-x,-y,-z
loop_
_atom_site_type_symbol
_atom_site_label
_atom_site_fract_x
_atom_site_fract_y
_atom_site_fract_z
Si Si1 0.068495 0.946860 0.393849
Si Si2 0.429051 0.063082 0.299058
Si Si3 0.010387 0.345972 0.191435
Si Si4 0.552916 0.610162 0.892494
Si Si5 0.789601 0.446688 0.914758
Si Si6 0.367755 0.202405 0.546671
O O1 0.011676 0.090285 0.257131
O O2 0.219358 0.104072 0.494231
O O3 0.048774 0.631003 0.321836
O O4 0.000000 0.000000 0.500000
O O5 0.434230 0.101825 0.141720
O O6 0.388730 0.264744 0.401913
O O7 0.312370 0.796793 0.237325
O O8 0.564841 0.031860 0.411625
O O9 0.112737 0.375794 0.125926
O O10 0.874798 0.330735 0.050984
O O11 0.696628 0.589608 0.953826
O O12 0.452084 0.432925 0.711618
O O13 0.500000 0.500000 0.000000
#
# Coordination Sequence:
#
# PCOD9018260 Si02
#       6
#     2   2   2   2   2   2
#     4  12  27  44  70 101 139 181 221 280 343 402
#     4  10  21  43  69  92 130 173 232 273 337 400
#     4  11  26  45  70 101 135 180 229 275 335 407
#     4  11  25  39  66  99 134 174 220 289 343 398
#     4  10  24  42  69  95 130 179 227 283 332 407
#     4  10  23  41  67  96 127 179 225 279 332 409
#
# _framework density 22.620761000000002
#
# number of rings (size 3 to 8) (size 9 to 14) (size 15 to 20)
#    0.000    1.333    1.667    2.000    7.000    5.333 
#    0.000    0.000    0.000    0.000    0.000    0.000 
#    0.000    0.000    0.000    0.000    0.000    0.000 
#
# Total GULP energy -67015.137230 kJ/mol
# GULP energy per Si atom -5584.594769 kJ/mol
# Density = 2.256927 g / cm^3
# Si number density = 22.620761 Si / 1000 Ang^3
#
#
#
# Elastic Constant Matrix: (Units=GPa)
#
#
# Indices 1 2 3 4 5 6 
#
# 1 138.6946 6.0002 37.5986 -22.0385 4.6959 8.9796
# 2 6.0002 40.5855 3.8115 -13.0699 -5.0518 4.2410
# 3 37.5986 3.8115 73.3312 -24.9913 8.4402 12.7288
# 4 -22.0385 -13.0699 -24.9913 38.4119 5.3535 -4.4044
# 5 4.6959 -5.0518 8.4402 5.3535 45.5830 -7.8290
# 6 8.9796 4.2410 12.7288 -4.4044 -7.8290 23.3929
#
#
#
# Elastic Compliance Matrix: (Units=1/GPa)
#
#
# Indices 1 2 3 4 5 6 
#
# 1 0.008630 -0.000019 -0.003093 0.002899 -0.000896 -0.001380
# 2 -0.000019 0.028454 0.003024 0.011045 0.000518 -0.004544
# 3 -0.003093 0.003024 0.022476 0.013554 -0.007058 -0.011401
# 4 0.002899 0.011045 0.013554 0.040683 -0.007266 -0.005262
# 5 -0.000896 0.000518 -0.007058 -0.007266 0.026223 0.011498
# 6 -0.001380 -0.004544 -0.011401 -0.005262 0.011498 0.053163
#
#
# Mechanical properties :
#
#
# Convention : Reuss Voigt Hill
#
# Bulk Modulus (GPa) = 16.83949 38.60354 27.72151
# Shear Modulus (GPa) = 25.05027 35.15765 30.10396
#
# Velocity S-wave (km/s) = 3.33137 3.94664 3.65199
# Velocity P-wave (km/s) = 4.71782 6.15390 5.48308
#
# Compressibility (1/GPa) = 0.05938423
#
# Stress axis : x y z
#
# Youngs Moduli (GPa) = 115.87848 35.14399 44.49199
#
# Poissons Ratio (x) = 0.00067 0.13761
# Poissons Ratio (y) = 0.00221 -0.13455
# Poissons Ratio (z) = 0.35841 -0.10628
#
# Static dielectric constant tensor:
#      x y z
#    x 1.822130 0.005550 -0.045290 
#    y 0.005550 2.075570 -0.014210 
#    z -0.045290 -0.014210 1.862450 
# 
# From -- ./inp_files/20310.got.cif
#   From: 2010.05.17/outbox.cif.g08.bks.cpg/sg2_11_cif.got.tgz:20310.got - 2010.06.03 11:33:40.
