data_PCOD9018146
_publ_section_title
;
Structure prediction by ZEFSAII (Michael W. Deem and Ramdas Pophale) SiO2 
 PCOD9018146
Probable space group: P -1
;
_chemical_formula_sum "Si O2"
_cell_formula_units_Z 12
_cell_length_a 8.004313
_cell_length_b 7.122373
_cell_length_c 16.128964
_cell_angle_alpha 55.985501
_cell_angle_beta 135.786524
_cell_angle_gamma 122.412411
_cell_volume 516.778477
_symmetry_space_group_name_H-M "P -1"
_symmetry_group_IT_number 2
_symmetry_cell_setting 'triclinic'
loop_
_space_group_symop_operation_xyz
x,y,z
-x,-y,-z
loop_
_atom_site_type_symbol
_atom_site_label
_atom_site_fract_x
_atom_site_fract_y
_atom_site_fract_z
Si Si1 0.085828 0.886310 0.977088
Si Si2 0.603039 0.982524 0.319101
Si Si3 0.266593 0.534266 0.358259
Si Si4 0.102787 0.380908 0.165173
Si Si5 0.448391 0.750833 0.934617
Si Si6 0.985397 0.322227 0.463525
O O1 0.163989 0.648065 0.090264
O O2 0.317665 0.082240 0.979188
O O3 0.869521 0.789309 0.857534
O O4 0.000000 0.000000 0.000000
O O5 0.578915 0.124503 0.193043
O O6 0.721788 0.147894 0.396644
O O7 0.348570 0.801279 0.294489
O O8 0.809717 0.830216 0.413576
O O9 0.500000 0.500000 0.500000
O O10 0.047162 0.460073 0.363837
O O11 0.226272 0.381012 0.298435
O O12 0.810863 0.299581 0.098890
O O13 0.500000 0.500000 0.000000
O O14 0.000000 0.500000 0.500000
#
# Coordination Sequence:
#
# PCOD9018146 Si02
#       6
#     2   2   2   2   2   2
#     4  11  24  45  65  97 133 178 232 282 336 404
#     4  10  22  43  65  93 139 170 224 285 331 405
#     4  10  21  43  68  96 133 173 222 282 345 398
#     4  11  23  44  68  94 135 181 225 287 342 400
#     4  12  23  43  67  98 138 185 225 274 338 407
#     4  10  22  44  69  98 128 176 228 282 348 398
#
# _framework density 23.220780999999999
#
# number of rings (size 3 to 8) (size 9 to 14) (size 15 to 20)
#    0.000    1.333    5.000    0.500    0.000    0.667 
#   15.000    0.000    0.000    0.000    0.000    0.000 
#    0.000    0.000    0.000    0.000    0.000    0.000 
#
# Total GULP energy -67089.009217 kJ/mol
# GULP energy per Si atom -5590.750768 kJ/mol
# Density = 2.316793 g / cm^3
# Si number density = 23.220781 Si / 1000 Ang^3
#
#
#
# Elastic Constant Matrix: (Units=GPa)
#
#
# Indices 1 2 3 4 5 6 
#
# 1 44.1455 37.4123 16.2892 2.3266 -16.0062 2.2409
# 2 37.4123 192.0588 62.8423 27.8467 -13.2337 -12.6692
# 3 16.2892 62.8423 112.9929 11.2409 -25.1081 -15.2710
# 4 2.3266 27.8467 11.2409 60.2667 0.1162 -14.9238
# 5 -16.0062 -13.2337 -25.1081 0.1162 32.7349 5.5013
# 6 2.2409 -12.6692 -15.2710 -14.9238 5.5013 51.2517
#
#
#
# Elastic Compliance Matrix: (Units=1/GPa)
#
#
# Indices 1 2 3 4 5 6 
#
# 1 0.033194 -0.006206 0.001552 0.000245 0.015605 -0.004127
# 2 -0.006206 0.007862 -0.003771 -0.002520 -0.002851 0.000663
# 3 0.001552 -0.003771 0.012974 -0.000303 0.008880 0.001824
# 4 0.000245 -0.002520 -0.000303 0.019058 -0.002047 0.005045
# 5 0.015605 -0.002851 0.008880 -0.002047 0.044536 -0.004118
# 6 -0.004127 0.000663 0.001824 0.005045 -0.004118 0.022311
#
#
# Mechanical properties :
#
#
# Convention : Reuss Voigt Hill
#
# Bulk Modulus (GPa) = 26.89732 64.69829 45.79780
# Shear Modulus (GPa) = 29.55462 44.36086 36.95774
#
# Velocity S-wave (km/s) = 3.57145 4.37555 3.99379
# Velocity P-wave (km/s) = 5.34935 7.31095 6.40568
#
# Compressibility (1/GPa) = 0.03717843
#
# Stress axis : x y z
#
# Youngs Moduli (GPa) = 30.12600 127.18857 77.07955
#
# Poissons Ratio (x) = 0.78937 -0.11961
# Poissons Ratio (y) = 0.18697 0.29068
# Poissons Ratio (z) = -0.04675 0.47966
#
# Static dielectric constant tensor:
#      x y z
#    x 1.967020 -0.003490 0.003800 
#    y -0.003490 1.914940 0.054030 
#    z 0.003800 0.054030 2.037200 
# 
# From -- ./inp_files/22529.got.cif
#   From: 2010.05.17/outbox.cif.g08.bks.cpg/sg2_12_cif.got.tgz:22529.got - 2010.06.03 11:33:40.
