data_PCOD9018592
_publ_section_title
;
Structure prediction by ZEFSAII (Michael W. Deem and Ramdas Pophale) SiO2 
 PCOD9018592
Probable space group: P -1
;
_chemical_formula_sum "Si O2"
_cell_formula_units_Z 16
_cell_length_a 19.556958
_cell_length_b 10.514464
_cell_length_c 9.089505
_cell_angle_alpha 53.603363
_cell_angle_beta 41.218112
_cell_angle_gamma 28.707553
_cell_volume 578.425895
_symmetry_space_group_name_H-M "P -1"
_symmetry_group_IT_number 2
_symmetry_cell_setting 'triclinic'
loop_
_space_group_symop_operation_xyz
x,y,z
-x,-y,-z
loop_
_atom_site_type_symbol
_atom_site_label
_atom_site_fract_x
_atom_site_fract_y
_atom_site_fract_z
Si Si1 0.632720 0.973964 0.748653
Si Si2 0.248970 0.999597 0.876967
Si Si3 0.294779 0.305771 0.602478
Si Si4 0.903646 0.228357 0.618615
Si Si5 0.585923 0.608403 0.430768
Si Si6 0.995635 0.633995 0.241278
Si Si7 0.176625 0.718781 0.978463
Si Si8 0.786265 0.945377 0.766555
O O1 0.840751 0.745337 0.517750
O O2 0.885319 0.654605 0.816325
O O3 0.543221 0.118318 0.638512
O O4 0.729338 0.535689 0.337169
O O5 0.211773 0.236273 0.787411
O O6 0.111179 0.140162 0.869932
O O7 0.448717 0.707984 0.701056
O O8 0.241721 0.960580 0.086685
O O9 0.225452 0.486752 0.448430
O O10 0.500000 0.000000 0.500000
O O11 0.805194 0.270285 0.885963
O O12 0.074455 0.106244 0.494480
O O13 0.625927 0.108238 0.803138
O O14 0.674691 0.406840 0.290771
O O15 0.500000 0.000000 0.000000
O O16 0.141659 0.571602 0.120962
O O17 0.000000 0.000000 0.000000
O O18 0.000000 0.000000 0.500000
#
# Coordination Sequence:
#
# PCOD9018592 Si02
#       8
#     2   2   2   2   2   2   2   2
#     4  11  23  40  67 109 152 188 241 325 385 440
#     4  10  22  39  66 108 146 193 238 316 380 439
#     4  10  21  43  72 109 151 195 248 310 382 459
#     4  12  28  46  76 112 155 203 258 320 390 466
#     4  10  24  41  68 103 142 194 245 297 381 456
#     4  11  23  41  70 112 143 191 258 310 380 452
#     4  12  27  48  77 104 151 206 256 316 390 465
#     4  12  24  42  76 111 154 191 260 320 379 457
#
# _framework density 27.661276000000001
#
# number of rings (size 3 to 8) (size 9 to 14) (size 15 to 20)
#    0.000    1.000    2.500    3.750    5.250    3.000 
#    0.000    2.500    2.750    4.500    0.000    0.000 
#    0.000    0.000    0.000    0.000    0.000    0.000 
#
# Total GULP energy -89361.877855 kJ/mol
# GULP energy per Si atom -5585.117366 kJ/mol
# Density = 2.759832 g / cm^3
# Si number density = 27.661276 Si / 1000 Ang^3
#
#
#
# Elastic Constant Matrix: (Units=GPa)
#
#
# Indices 1 2 3 4 5 6 
#
# 1 152.0705 7.2301 43.1737 8.4804 17.4352 -8.4720
# 2 7.2301 74.0671 47.1083 17.9781 6.7783 1.8859
# 3 43.1737 47.1083 164.4662 20.1137 33.3810 -0.6075
# 4 8.4804 17.9781 20.1137 41.1834 9.0403 9.9187
# 5 17.4352 6.7783 33.3810 9.0403 58.3677 4.9954
# 6 -8.4720 1.8859 -0.6075 9.9187 4.9954 41.2791
#
#
#
# Elastic Compliance Matrix: (Units=1/GPa)
#
#
# Indices 1 2 3 4 5 6 
#
# 1 0.007348 0.000735 -0.001733 -0.001162 -0.001271 0.001882
# 2 0.000735 0.017825 -0.004839 -0.005998 0.001361 0.000542
# 3 -0.001733 -0.004839 0.008853 -0.001187 -0.003864 0.000749
# 4 -0.001162 -0.005998 -0.001187 0.029885 -0.002317 -0.006883
# 5 -0.001271 0.001361 -0.003864 -0.002317 0.020116 -0.002257
# 6 0.001882 0.000542 0.000749 -0.006883 -0.002257 0.026525
#
#
# Mechanical properties :
#
#
# Convention : Reuss Voigt Hill
#
# Bulk Modulus (GPa) = 44.73621 65.06981 54.90301
# Shear Modulus (GPa) = 38.55725 47.70548 43.13136
#
# Velocity S-wave (km/s) = 3.73756 4.15737 3.95304
# Velocity P-wave (km/s) = 5.90201 6.82787 6.38176
#
# Compressibility (1/GPa) = 0.02235326
#
# Stress axis : x y z
#
# Youngs Moduli (GPa) = 136.08847 56.10096 112.95166
#
# Poissons Ratio (x) = -0.04124 0.19569
# Poissons Ratio (y) = -0.10004 0.54659
# Poissons Ratio (z) = 0.23578 0.27148
#
# Static dielectric constant tensor:
#      x y z
#    x 2.698830 0.068680 -0.258030 
#    y 0.068680 2.233790 0.046250 
#    z -0.258030 0.046250 2.338700 
# 
# From -- ./inp_files/345049.got.cif
#   From: 2010.05.17/outbox.cif.g08.bks.cpg/sg2_173_cif.got.tgz:345049.got - 2010.06.03 11:33:40.
