data_PCOD9018287
_publ_section_title
;
Structure prediction by ZEFSAII (Michael W. Deem and Ramdas Pophale) SiO2 
 PCOD9018287
Probable space group: P -1
;
_chemical_formula_sum "Si O2"
_cell_formula_units_Z 16
_cell_length_a 11.784767
_cell_length_b 7.900358
_cell_length_c 11.981339
_cell_angle_alpha 51.974359
_cell_angle_beta 85.782227
_cell_angle_gamma 119.063780
_cell_volume 645.757723
_symmetry_space_group_name_H-M "P -1"
_symmetry_group_IT_number 2
_symmetry_cell_setting 'triclinic'
loop_
_space_group_symop_operation_xyz
x,y,z
-x,-y,-z
loop_
_atom_site_type_symbol
_atom_site_label
_atom_site_fract_x
_atom_site_fract_y
_atom_site_fract_z
Si Si1 0.992725 0.693167 0.727875
Si Si2 0.355677 0.154489 0.159172
Si Si3 0.473418 0.792720 0.681632
Si Si4 0.340859 0.918480 0.019490
Si Si5 0.089784 0.211175 0.749682
Si Si6 0.043901 0.861720 0.413540
Si Si7 0.585624 0.607579 0.331624
Si Si8 0.881281 0.573051 0.100336
O O1 0.809375 0.415515 0.858647
O O2 0.022381 0.982879 0.624483
O O3 0.081733 0.633412 0.822393
O O4 0.040876 0.727900 0.581174
O O5 0.415375 0.051025 0.283879
O O6 0.212980 0.083553 0.258821
O O7 0.310755 0.015577 0.096000
O O8 0.500000 0.500000 0.000000
O O9 0.498938 0.606462 0.683615
O O10 0.299046 0.598782 0.817946
O O11 0.500000 0.000000 0.500000
O O12 0.500000 0.000000 0.000000
O O13 0.366066 0.099125 0.836500
O O14 0.261269 0.338618 0.687090
O O15 0.058691 0.287096 0.837598
O O16 0.064686 0.344335 0.596890
O O17 0.975135 0.856945 0.900491
O O18 0.500000 0.500000 0.500000
#
# Coordination Sequence:
#
# PCOD9018287 Si02
#       8
#     2   2   2   2   2   2   2   2
#     4  11  25  46  67 104 139 177 230 278 346 408
#     4  12  24  46  72 102 141 183 232 283 343 409
#     4  11  25  42  70 105 134 183 223 282 344 409
#     4  12  27  46  72 101 138 186 233 285 348 413
#     4  10  22  42  69  97 127 178 223 277 342 398
#     4  11  26  42  70 102 140 179 222 288 337 410
#     4  11  26  46  69  99 141 180 228 289 342 411
#     4  10  21  43  69  95 132 172 229 274 334 410
#
# _framework density 24.777094999999999
#
# number of rings (size 3 to 8) (size 9 to 14) (size 15 to 20)
#    0.000    1.000    2.500    3.000    5.250    5.500 
#    0.000    0.000    0.000    0.000    0.000    0.000 
#    0.000    0.000    0.000    0.000    0.000    0.000 
#
# Total GULP energy -89581.905864 kJ/mol
# GULP energy per Si atom -5598.869116 kJ/mol
# Density = 2.472070 g / cm^3
# Si number density = 24.777095 Si / 1000 Ang^3
#
#
#
# Elastic Constant Matrix: (Units=GPa)
#
#
# Indices 1 2 3 4 5 6 
#
# 1 84.4743 4.3245 16.2879 12.3996 -0.5571 0.3058
# 2 4.3245 44.6116 10.8469 9.1252 1.2528 2.0040
# 3 16.2879 10.8469 123.0992 30.5178 0.6703 0.3646
# 4 12.3996 9.1252 30.5178 41.8043 6.8056 7.9640
# 5 -0.5571 1.2528 0.6703 6.8056 37.1133 4.1746
# 6 0.3058 2.0040 0.3646 7.9640 4.1746 39.4764
#
#
#
# Elastic Compliance Matrix: (Units=1/GPa)
#
#
# Indices 1 2 3 4 5 6 
#
# 1 0.012495 -0.000393 -0.000821 -0.003240 0.000753 0.000505
# 2 -0.000393 0.023575 -0.000967 -0.004267 0.000035 -0.000328
# 3 -0.000821 -0.000967 0.010134 -0.007367 0.001038 0.001338
# 4 -0.003240 -0.004267 -0.007367 0.033148 -0.005194 -0.005828
# 5 0.000753 0.000035 0.001038 -0.005194 0.028107 -0.001942
# 6 0.000505 -0.000328 0.001338 -0.005828 -0.001942 0.026713
#
#
# Mechanical properties :
#
#
# Convention : Reuss Voigt Hill
#
# Bulk Modulus (GPa) = 23.89854 35.01152 29.45503
# Shear Modulus (GPa) = 32.79093 38.39385 35.59239
#
# Velocity S-wave (km/s) = 3.64185 3.94073 3.79424
# Velocity P-wave (km/s) = 5.22977 5.90483 5.57752
#
# Compressibility (1/GPa) = 0.04184356
#
# Stress axis : x y z
#
# Youngs Moduli (GPa) = 80.03178 42.41708 98.67541
#
# Poissons Ratio (x) = 0.01666 0.08102
# Poissons Ratio (y) = 0.03143 0.09539
# Poissons Ratio (z) = 0.06571 0.04101
#
# Static dielectric constant tensor:
#      x y z
#    x 1.955460 -0.040630 0.031330 
#    y -0.040630 2.032590 -0.006780 
#    z 0.031330 -0.006780 1.939130 
# 
# From -- ./inp_files/343569.got.cif
#   From: 2010.05.17/outbox.cif.g08.bks.cpg/sg2_172_cif.got.tgz:343569.got - 2010.06.03 11:33:40.
