data_PCOD9018507
_publ_section_title
;
Structure prediction by ZEFSAII (Michael W. Deem and Ramdas Pophale) SiO2 
 PCOD9018507
Probable space group: P -1
;
_chemical_formula_sum "Si O2"
_cell_formula_units_Z 15
_cell_length_a 5.864077
_cell_length_b 21.137621
_cell_length_c 13.897156
_cell_angle_alpha 159.440727
_cell_angle_beta 80.306070
_cell_angle_gamma 97.622129
_cell_volume 594.734892
_symmetry_space_group_name_H-M "P -1"
_symmetry_group_IT_number 2
_symmetry_cell_setting 'triclinic'
loop_
_space_group_symop_operation_xyz
x,y,z
-x,-y,-z
loop_
_atom_site_type_symbol
_atom_site_label
_atom_site_fract_x
_atom_site_fract_y
_atom_site_fract_z
Si Si1 0.500000 0.000000 0.000000
Si Si2 0.783197 0.573531 0.515720
Si Si3 0.577960 0.412509 0.120443
Si Si4 0.190545 0.702118 0.534164
Si Si5 0.248197 0.120755 0.731340
Si Si6 0.002191 0.768132 0.916302
Si Si7 0.976825 0.232178 0.722750
Si Si8 0.856103 0.847755 0.602319
O O1 0.286037 0.870831 0.824632
O O2 0.633416 0.868805 0.717651
O O3 0.605669 0.515536 0.366332
O O4 0.820088 0.407446 0.350924
O O5 0.997913 0.626736 0.510578
O O6 0.776212 0.745489 0.832854
O O7 0.374281 0.535182 0.259038
O O8 0.488459 0.212678 0.859361
O O9 0.815175 0.391112 0.011825
O O10 0.068194 0.779373 0.557361
O O11 0.161286 0.146624 0.665659
O O12 0.207186 0.924603 0.498564
O O13 0.069483 0.241114 0.981070
O O14 0.115096 0.949634 0.147134
O O15 0.110002 0.263555 0.658860
#
# Coordination Sequence:
#
# PCOD9018507 Si02
#       8
#     1   2   2   2   2   2   2   2
#     4  12  26  48  74 100 140 198 240 292 366 422
#     4  11  23  44  70 106 148 184 239 310 357 416
#     4  12  23  42  72 106 146 199 229 288 368 436
#     4  12  26  46  69 105 150 192 238 296 359 436
#     4  10  21  43  71 106 148 184 241 297 362 424
#     4  10  21  45  71 106 145 182 237 316 356 411
#     4  10  23  45  71 104 152 188 234 305 351 426
#     4  11  26  47  74 106 145 189 243 302 359 430
#
# _framework density 25.221321
#
# number of rings (size 3 to 8) (size 9 to 14) (size 15 to 20)
#    0.000    1.067    4.000    1.600    1.867    2.133 
#    4.800    4.667    0.000    0.000    0.000    0.000 
#    0.000    0.000    0.000    0.000    0.000    0.000 
#
# Total GULP energy -83517.657621 kJ/mol
# GULP energy per Si atom -5567.843841 kJ/mol
# Density = 2.516392 g / cm^3
# Si number density = 25.221321 Si / 1000 Ang^3
#
#
#
# Elastic Constant Matrix: (Units=GPa)
#
#
# Indices 1 2 3 4 5 6 
#
# 1 54.4008 30.3479 9.9490 -5.1088 -3.8388 14.0679
# 2 30.3479 103.6263 17.1742 -25.2289 -12.5472 0.1754
# 3 9.9490 17.1742 45.5459 -14.9151 8.8297 6.8437
# 4 -5.1088 -25.2289 -14.9151 50.8243 11.1198 -4.7631
# 5 -3.8388 -12.5472 8.8297 11.1198 45.6207 0.1855
# 6 14.0679 0.1754 6.8437 -4.7631 0.1855 27.8466
#
#
#
# Elastic Compliance Matrix: (Units=1/GPa)
#
#
# Indices 1 2 3 4 5 6 
#
# 1 0.026522 -0.008087 -0.002140 -0.003527 0.001336 -0.013434
# 2 -0.008087 0.014116 -0.003178 0.005241 0.002516 0.005657
# 3 -0.002140 -0.003178 0.028583 0.008040 -0.008528 -0.004492
# 4 -0.003527 0.005241 0.008040 0.026175 -0.006809 0.004295
# 5 0.001336 0.002516 -0.008528 -0.006809 0.026034 0.000067
# 6 -0.013434 0.005657 -0.004492 0.004295 0.000067 0.044500
#
#
# Mechanical properties :
#
#
# Convention : Reuss Voigt Hill
#
# Bulk Modulus (GPa) = 23.57832 35.39057 29.48445
# Shear Modulus (GPa) = 24.16914 34.59845 29.38380
#
# Velocity S-wave (km/s) = 3.09897 3.70779 3.41697
# Velocity P-wave (km/s) = 4.70890 5.69146 5.22333
#
# Compressibility (1/GPa) = 0.04241184
#
# Stress axis : x y z
#
# Youngs Moduli (GPa) = 37.70505 70.84050 34.98631
#
# Poissons Ratio (x) = 0.57287 0.07486
# Poissons Ratio (y) = 0.30491 0.11118
# Poissons Ratio (z) = 0.08067 0.22512
#
# Static dielectric constant tensor:
#      x y z
#    x 2.143000 -0.012210 -0.030980 
#    y -0.012210 1.896240 -0.096440 
#    z -0.030980 -0.096440 2.090690 
# 
# From -- ./inp_files/485860.got.cif
#   From: 2010.05.17/outbox.cif.g08.bks.cpg/sg2_243_cif.got.tgz:485860.got - 2010.06.03 11:33:40.
