data_PCOD9018472
_publ_section_title
;
Structure prediction by ZEFSAII (Michael W. Deem and Ramdas Pophale) SiO2 
 PCOD9018472
Probable space group: P -1
;
_chemical_formula_sum "Si O2"
_cell_formula_units_Z 14
_cell_length_a 8.960373
_cell_length_b 15.330739
_cell_length_c 17.713706
_cell_angle_alpha 21.825252
_cell_angle_beta 52.485090
_cell_angle_gamma 41.303427
_cell_volume 557.011087
_symmetry_space_group_name_H-M "P -1"
_symmetry_group_IT_number 2
_symmetry_cell_setting 'triclinic'
loop_
_space_group_symop_operation_xyz
x,y,z
-x,-y,-z
loop_
_atom_site_type_symbol
_atom_site_label
_atom_site_fract_x
_atom_site_fract_y
_atom_site_fract_z
Si Si1 0.450916 0.011212 0.285797
Si Si2 0.316019 0.595004 0.050501
Si Si3 0.242976 0.634200 0.813330
Si Si4 0.614694 0.840612 0.210503
Si Si5 0.829641 0.771759 0.056817
Si Si6 0.936398 0.723830 0.409309
Si Si7 0.194385 0.724931 0.579036
O O1 0.561318 0.000289 0.179178
O O2 0.662114 0.854477 0.409010
O O3 0.370423 0.809646 0.460607
O O4 0.252454 0.374183 0.061693
O O5 0.499606 0.447894 0.182218
O O6 0.117628 0.550311 0.134164
O O7 0.500000 0.500000 0.000000
O O8 0.127020 0.954471 0.837316
O O9 0.172431 0.667311 0.720441
O O10 0.041435 0.976326 0.627321
O O11 0.746077 0.910604 0.054643
O O12 0.824844 0.486559 0.445315
O O13 0.352020 0.971005 0.154732
O O14 0.747641 0.562750 0.247303
O O15 0.000000 0.500000 0.500000
#
# Coordination Sequence:
#
# PCOD9018472 Si02
#       7
#     2   2   2   2   2   2   2
#     4  10  21  43  71 100 139 181 245 285 349 423
#     4  11  27  46  72 104 146 188 235 304 363 424
#     4  10  24  45  65 102 139 183 245 286 348 431
#     4  10  23  43  67  99 144 181 233 296 342 432
#     4  11  26  43  67 107 144 183 238 293 367 416
#     4   9  22  44  70 103 134 193 239 283 359 422
#     4  11  24  41  73 100 137 196 224 295 358 421
#
# _framework density 25.134149000000001
#
# number of rings (size 3 to 8) (size 9 to 14) (size 15 to 20)
#    0.000    1.714    1.429    0.429    6.000   10.857 
#    0.000    2.857    0.000    0.000    0.000    0.000 
#    0.000    0.000    0.000    0.000    0.000    0.000 
#
# Total GULP energy -77978.666006 kJ/mol
# GULP energy per Si atom -5569.904715 kJ/mol
# Density = 2.507694 g / cm^3
# Si number density = 25.134149 Si / 1000 Ang^3
#
#
#
# Elastic Constant Matrix: (Units=GPa)
#
#
# Indices 1 2 3 4 5 6 
#
# 1 74.2717 15.9961 24.9482 -0.9810 6.3513 -28.7105
# 2 15.9961 72.9330 15.3914 1.4626 -2.2760 -10.4177
# 3 24.9482 15.3914 101.4129 -28.4546 -6.3102 -22.0589
# 4 -0.9810 1.4626 -28.4546 34.5197 -15.9357 8.4466
# 5 6.3513 -2.2760 -6.3102 -15.9357 35.7016 -10.4617
# 6 -28.7105 -10.4177 -22.0589 8.4466 -10.4617 53.0775
#
#
#
# Elastic Compliance Matrix: (Units=1/GPa)
#
#
# Indices 1 2 3 4 5 6 
#
# 1 0.019185 -0.001933 -0.005512 -0.008643 -0.006057 0.007889
# 2 -0.001933 0.014877 -0.002307 -0.002934 -0.000021 0.001378
# 3 -0.005512 -0.002307 0.019730 0.022334 0.015542 0.004275
# 4 -0.008643 -0.002934 0.022334 0.062511 0.033395 0.000665
# 5 -0.006057 -0.000021 0.015542 0.033395 0.048940 0.007511
# 6 0.007889 0.001378 0.004275 0.000665 0.007511 0.026529
#
#
# Mechanical properties :
#
#
# Convention : Reuss Voigt Hill
#
# Bulk Modulus (GPa) = 29.16531 40.14322 34.65426
# Shear Modulus (GPa) = 22.45093 37.47856 29.96475
#
# Velocity S-wave (km/s) = 2.99196 3.86572 3.45656
# Velocity P-wave (km/s) = 4.85436 5.99427 5.45418
#
# Compressibility (1/GPa) = 0.03428731
#
# Stress axis : x y z
#
# Youngs Moduli (GPa) = 52.12293 67.21721 50.68374
#
# Poissons Ratio (x) = 0.12996 0.27938
# Poissons Ratio (y) = 0.10078 0.11693
# Poissons Ratio (z) = 0.28731 0.15507
#
# Static dielectric constant tensor:
#      x y z
#    x 2.094630 -0.016570 -0.015690 
#    y -0.016570 2.110190 0.018850 
#    z -0.015690 0.018850 2.069180 
# 
# From -- ./inp_files/590846.got.cif
#   From: 2010.05.17/outbox.cif.g08.bks.cpg/sg2_296_cif.got.tgz:590846.got - 2010.06.03 11:33:40.
