data_PCOD9018957
_publ_section_title
;
Structure prediction by ZEFSAII (Michael W. Deem and Ramdas Pophale) SiO2 
 PCOD9018957
Probable space group: P -1
;
_chemical_formula_sum "Si O2"
_cell_formula_units_Z 16
_cell_length_a 8.373567
_cell_length_b 8.447721
_cell_length_c 10.961372
_cell_angle_alpha 105.217482
_cell_angle_beta 78.097721
_cell_angle_gamma 113.066380
_cell_volume 683.691116
_symmetry_space_group_name_H-M "P -1"
_symmetry_group_IT_number 2
_symmetry_cell_setting 'triclinic'
loop_
_space_group_symop_operation_xyz
x,y,z
-x,-y,-z
loop_
_atom_site_type_symbol
_atom_site_label
_atom_site_fract_x
_atom_site_fract_y
_atom_site_fract_z
Si Si1 0.100009 0.892596 0.231537
Si Si2 0.028179 0.666180 0.766032
Si Si3 0.442849 0.248569 0.548433
Si Si4 0.199431 0.676448 0.359559
Si Si5 0.892983 0.082940 0.406638
Si Si6 0.591065 0.857247 0.930408
Si Si7 0.126615 0.190388 0.971089
Si Si8 0.385360 0.602506 0.703399
O O1 0.179691 0.758866 0.250059
O O2 0.929596 0.796749 0.155983
O O3 0.244770 0.034543 0.157561
O O4 0.042731 0.000261 0.365958
O O5 0.104924 0.850356 0.719841
O O6 0.187654 0.597578 0.735144
O O7 0.875602 0.531485 0.682337
O O8 0.939244 0.682540 0.910088
O O9 0.608117 0.256066 0.604552
O O10 0.390214 0.411710 0.634083
O O11 0.508512 0.279179 0.403815
O O12 0.287249 0.067042 0.559228
O O13 0.084612 0.746709 0.482408
O O14 0.472313 0.693807 0.834665
O O15 0.678190 0.797186 0.021364
O O16 0.500000 0.000000 0.000000
O O17 0.000000 0.000000 0.000000
#
# Coordination Sequence:
#
# PCOD9018957 Si02
#       8
#     2   2   2   2   2   2   2   2
#     4  11  25  42  71  96 138 178 229 273 334 410
#     4  12  24  43  73  95 140 177 228 277 335 401
#     4  11  26  42  68  99 145 175 224 275 340 402
#     4  12  26  43  66 107 134 181 224 278 340 398
#     4  12  24  44  68 101 137 181 220 280 337 405
#     4  11  23  40  71 102 133 175 228 274 344 396
#     4  10  21  44  66  98 126 181 220 279 326 399
#     4  11  24  43  66 101 139 181 220 281 336 398
#
# _framework density 23.402380000000001
#
# number of rings (size 3 to 8) (size 9 to 14) (size 15 to 20)
#    0.000    0.750    3.750    4.875    1.750    1.500 
#    0.000    1.250    0.000    4.500    0.000    0.000 
#    0.000    0.000    0.000    0.000    0.000    0.000 
#
# Total GULP energy -89555.841283 kJ/mol
# GULP energy per Si atom -5597.240080 kJ/mol
# Density = 2.334912 g / cm^3
# Si number density = 23.402380 Si / 1000 Ang^3
#
#
#
# Elastic Constant Matrix: (Units=GPa)
#
#
# Indices 1 2 3 4 5 6 
#
# 1 109.0505 4.8076 23.4068 10.7320 9.3776 -11.7912
# 2 4.8076 57.0331 10.4781 7.8696 2.7672 0.0517
# 3 23.4068 10.4781 89.4781 28.3181 -0.8388 0.1626
# 4 10.7320 7.8696 28.3181 37.6290 -9.3822 0.8699
# 5 9.3776 2.7672 -0.8388 -9.3822 49.4249 4.2779
# 6 -11.7912 0.0517 0.1626 0.8699 4.2779 39.3992
#
#
#
# Elastic Compliance Matrix: (Units=1/GPa)
#
#
# Indices 1 2 3 4 5 6 
#
# 1 0.010441 -0.000072 -0.002069 -0.002165 -0.002724 0.003477
# 2 -0.000072 0.018290 -0.001049 -0.003444 -0.001701 0.000219
# 3 -0.002069 -0.001049 0.015328 -0.011058 -0.001363 -0.000289
# 4 -0.002165 -0.003444 -0.011058 0.038252 0.007876 -0.002297
# 5 -0.002724 -0.001701 -0.001363 0.007876 0.022614 -0.003437
# 6 0.003477 0.000219 -0.000289 -0.002297 -0.003437 0.026847
#
#
# Mechanical properties :
#
#
# Convention : Reuss Voigt Hill
#
# Bulk Modulus (GPa) = 26.54175 36.99408 31.76792
# Shear Modulus (GPa) = 33.17590 39.74857 36.46223
#
# Velocity S-wave (km/s) = 3.76923 4.12574 3.95150
# Velocity P-wave (km/s) = 5.50535 6.20788 5.86714
#
# Compressibility (1/GPa) = 0.03767649
#
# Stress axis : x y z
#
# Youngs Moduli (GPa) = 95.77951 54.67441 65.24135
#
# Poissons Ratio (x) = 0.00395 0.13502
# Poissons Ratio (y) = 0.00691 0.06846
# Poissons Ratio (z) = 0.19822 0.05737
#
# Static dielectric constant tensor:
#      x y z
#    x 1.891300 -0.036220 0.037180 
#    y -0.036220 1.892610 -0.012300 
#    z 0.037180 -0.012300 1.936820 
# 
# From -- ./inp_files/379890.got.cif
#   From: 2010.05.17/outbox.cif.g08.bks.cpg/sg2_190_cif.got.tgz:379890.got - 2010.06.03 11:33:40.
