data_PCOD9018170
_publ_section_title
;
Structure prediction by ZEFSAII (Michael W. Deem and Ramdas Pophale) SiO2 
 PCOD9018170
Probable space group: P -1
;
_chemical_formula_sum "Si O2"
_cell_formula_units_Z 14
_cell_length_a 6.081666
_cell_length_b 6.051684
_cell_length_c 16.895759
_cell_angle_alpha 109.098759
_cell_angle_beta 98.245922
_cell_angle_gamma 94.375919
_cell_volume 576.463002
_symmetry_space_group_name_H-M "P -1"
_symmetry_group_IT_number 2
_symmetry_cell_setting 'triclinic'
loop_
_space_group_symop_operation_xyz
x,y,z
-x,-y,-z
loop_
_atom_site_type_symbol
_atom_site_label
_atom_site_fract_x
_atom_site_fract_y
_atom_site_fract_z
Si Si1 0.435973 0.631432 0.833970
Si Si2 0.653681 0.328764 0.445847
Si Si3 0.101262 0.179322 0.745197
Si Si4 0.405126 0.108528 0.890051
Si Si5 0.700250 0.793062 0.706867
Si Si6 0.254669 0.526495 0.036077
Si Si7 0.033897 0.629939 0.395891
O O1 0.208936 0.452231 0.792888
O O2 0.556153 0.705317 0.766003
O O3 0.635186 0.547790 0.885591
O O4 0.356293 0.858261 0.898098
O O5 0.500000 0.500000 0.500000
O O6 0.477803 0.159162 0.365075
O O7 0.825208 0.482195 0.413161
O O8 0.802018 0.240918 0.513429
O O9 0.297506 0.078416 0.793612
O O10 0.046752 0.187299 0.649896
O O11 0.879206 0.028138 0.751851
O O12 0.667562 0.192256 0.921957
O O13 0.328560 0.336968 0.954274
O O14 0.834096 0.573002 0.661779
O O15 0.000000 0.500000 0.000000
#
# Coordination Sequence:
#
# PCOD9018170 Si02
#       7
#     2   2   2   2   2   2   2
#     4  11  24  46  71  98 145 182 220 293 343 396
#     4   9  20  43  68  97 135 179 228 277 346 402
#     4  11  24  41  70 100 137 178 230 277 341 406
#     4  10  24  45  66 103 140 176 230 285 334 412
#     4  11  24  41  69 102 134 183 229 277 345 407
#     4  10  24  45  72 100 133 183 236 272 344 415
#     4  10  21  43  68  97 141 175 226 294 329 403
#
# _framework density 24.286033
#
# number of rings (size 3 to 8) (size 9 to 14) (size 15 to 20)
#    0.000    1.714    1.429    1.286    4.000    2.286 
#    2.571    6.429    0.000    0.000    0.000    0.000 
#    0.000    0.000    0.000    0.000    0.000    0.000 
#
# Total GULP energy -77985.770496 kJ/mol
# GULP energy per Si atom -5570.412178 kJ/mol
# Density = 2.423076 g / cm^3
# Si number density = 24.286033 Si / 1000 Ang^3
#
#
#
# Elastic Constant Matrix: (Units=GPa)
#
#
# Indices 1 2 3 4 5 6 
#
# 1 83.4579 28.8343 69.6819 21.4719 29.3374 17.6933
# 2 28.8343 83.1297 43.4005 13.4000 10.6182 23.0827
# 3 69.6819 43.4005 150.3874 -11.5987 33.1091 14.4352
# 4 21.4719 13.4000 -11.5987 36.7635 -1.7268 10.3810
# 5 29.3374 10.6182 33.1091 -1.7268 66.0326 10.5227
# 6 17.6933 23.0827 14.4352 10.3810 10.5227 28.4814
#
#
#
# Elastic Compliance Matrix: (Units=1/GPa)
#
#
# Indices 1 2 3 4 5 6 
#
# 1 0.036175 0.002931 -0.017682 -0.027295 -0.007911 -0.003015
# 2 0.002931 0.018507 -0.006292 -0.007272 0.000463 -0.011152
# 3 -0.017682 -0.006292 0.017980 0.018247 0.000296 0.000210
# 4 -0.027295 -0.007272 0.018247 0.054358 0.006968 -0.008786
# 5 -0.007911 0.000463 0.000296 0.006968 0.019470 -0.005344
# 6 -0.003015 -0.011152 0.000210 -0.008786 -0.005344 0.051092
#
#
# Mechanical properties :
#
#
# Convention : Reuss Voigt Hill
#
# Bulk Modulus (GPa) = 32.70321 66.75648 49.72985
# Shear Modulus (GPa) = 20.01132 37.92605 28.96869
#
# Velocity S-wave (km/s) = 2.87363 3.95605 3.45746
# Velocity P-wave (km/s) = 4.95029 6.95804 6.03820
#
# Compressibility (1/GPa) = 0.03057803
#
# Stress axis : x y z
#
# Youngs Moduli (GPa) = 27.64338 54.03388 55.61749
#
# Poissons Ratio (x) = -0.15838 0.98341
# Poissons Ratio (y) = -0.08103 0.34992
# Poissons Ratio (z) = 0.48878 0.33995
#
# Static dielectric constant tensor:
#      x y z
#    x 2.176880 0.093940 -0.078570 
#    y 0.093940 2.006280 -0.039040 
#    z -0.078570 -0.039040 1.988510 
# 
# From -- ./inp_files/546032.got.cif
#   From: 2010.05.17/outbox.cif.g08.bks.cpg/sg2_274_cif.got.tgz:546032.got - 2010.06.03 11:33:40.
