data_PCOD9018071
_publ_section_title
;
Structure prediction by ZEFSAII (Michael W. Deem and Ramdas Pophale) SiO2 
 PCOD9018071
Probable space group: P -1
;
_chemical_formula_sum "Si O2"
_cell_formula_units_Z 16
_cell_length_a 6.773579
_cell_length_b 22.173548
_cell_length_c 5.420963
_cell_angle_alpha 91.925194
_cell_angle_beta 106.341650
_cell_angle_gamma 60.007389
_cell_volume 671.042801
_symmetry_space_group_name_H-M "P -1"
_symmetry_group_IT_number 2
_symmetry_cell_setting 'triclinic'
loop_
_space_group_symop_operation_xyz
x,y,z
-x,-y,-z
loop_
_atom_site_type_symbol
_atom_site_label
_atom_site_fract_x
_atom_site_fract_y
_atom_site_fract_z
Si Si1 0.405823 0.442521 0.187648
Si Si2 0.703553 0.337111 0.914198
Si Si3 0.132056 0.587019 0.341934
Si Si4 0.325704 0.338327 0.470860
Si Si5 0.324950 0.149413 0.869722
Si Si6 0.140123 0.235200 0.315677
Si Si7 0.733203 0.965000 0.409812
Si Si8 0.152133 0.937684 0.852372
O O1 0.495436 0.414499 0.940931
O O2 0.197716 0.521197 0.180076
O O3 0.641868 0.434290 0.403122
O O4 0.341799 0.387863 0.278299
O O5 0.857074 0.289597 0.188061
O O6 0.882876 0.350210 0.816549
O O7 0.570192 0.306652 0.707673
O O8 0.897053 0.612956 0.422039
O O9 0.275606 0.278989 0.352115
O O10 0.199511 0.197851 0.594919
O O11 0.294977 0.082238 0.810160
O O12 0.221973 0.184296 0.101499
O O13 0.606693 0.124077 0.954559
O O14 0.971018 0.919649 0.651758
O O15 0.500000 0.000000 0.500000
O O16 0.757426 0.027510 0.312129
O O17 0.000000 0.000000 0.000000
#
# Coordination Sequence:
#
# PCOD9018071 Si02
#       8
#     2   2   2   2   2   2   2   2
#     4  10  22  40  72 103 132 180 244 303 380 433
#     4  11  25  44  70  97 141 192 238 302 368 428
#     4  10  21  43  68 105 137 174 241 313 374 438
#     4  11  25  44  71  96 144 190 236 303 369 422
#     4  12  28  48  76 108 147 199 241 292 351 433
#     4  12  29  49  69 103 152 198 251 288 348 436
#     4  11  24  47  78 112 153 185 228 298 368 415
#     4  11  25  45  80 114 147 181 237 296 365 422
#
# _framework density 23.843489000000002
#
# number of rings (size 3 to 8) (size 9 to 14) (size 15 to 20)
#    0.000    1.000    2.500    2.625    8.750    2.500 
#    0.000    0.000    0.000    0.000    0.000    0.000 
#    0.000    0.000    0.000    0.000    0.000    0.000 
#
# Total GULP energy -89655.331558 kJ/mol
# GULP energy per Si atom -5603.458222 kJ/mol
# Density = 2.378922 g / cm^3
# Si number density = 23.843489 Si / 1000 Ang^3
#
#
#
# Elastic Constant Matrix: (Units=GPa)
#
#
# Indices 1 2 3 4 5 6 
#
# 1 103.6131 21.7423 25.7610 -1.1368 -7.8722 10.9542
# 2 21.7423 86.5662 31.5373 20.2466 7.9079 -4.0355
# 3 25.7610 31.5373 96.6742 0.3736 13.6742 -0.1386
# 4 -1.1368 20.2466 0.3736 53.0349 -3.2053 2.3062
# 5 -7.8722 7.9079 13.6742 -3.2053 47.0702 14.3921
# 6 10.9542 -4.0355 -0.1386 2.3062 14.3921 29.3335
#
#
#
# Elastic Compliance Matrix: (Units=1/GPa)
#
#
# Indices 1 2 3 4 5 6 
#
# 1 0.012588 -0.003572 -0.003113 0.002412 0.006381 -0.008527
# 2 -0.003572 0.016053 -0.003593 -0.006736 -0.004646 0.006335
# 3 -0.003113 -0.003593 0.012985 0.000815 -0.004515 0.002881
# 4 0.002412 -0.006736 0.000815 0.022001 0.004568 -0.005794
# 5 0.006381 -0.004646 -0.004515 0.004568 0.030301 -0.018270
# 6 -0.008527 0.006335 0.002881 -0.005794 -0.018270 0.047579
#
#
# Mechanical properties :
#
#
# Convention : Reuss Voigt Hill
#
# Bulk Modulus (GPa) = 47.46043 49.43719 48.44881
# Shear Modulus (GPa) = 29.57062 39.74193 34.65627
#
# Velocity S-wave (km/s) = 3.52546 4.08705 3.81660
# Velocity P-wave (km/s) = 6.04318 6.56133 6.30758
#
# Compressibility (1/GPa) = 0.02107019
#
# Stress axis : x y z
#
# Youngs Moduli (GPa) = 79.44294 62.29348 77.01090
#
# Poissons Ratio (x) = 0.22251 0.23975
# Poissons Ratio (y) = 0.28377 0.27668
# Poissons Ratio (z) = 0.24732 0.22380
#
# Static dielectric constant tensor:
#      x y z
#    x 1.882540 -0.039680 0.001110 
#    y -0.039680 1.958440 -0.005110 
#    z 0.001110 -0.005110 1.935480 
# 
# From -- ./inp_files/13321.got.cif
#   From: 2010.05.17/outbox.cif.g08.bks.cpg/sg2_7_cif.got.tgz:13321.got - 2010.06.03 11:33:40.
