data_PCOD9018960
_publ_section_title
;
Structure prediction by ZEFSAII (Michael W. Deem and Ramdas Pophale) SiO2 
 PCOD9018960
Probable space group: P -1
;
_chemical_formula_sum "Si O2"
_cell_formula_units_Z 16
_cell_length_a 15.257311
_cell_length_b 9.464045
_cell_length_c 9.000121
_cell_angle_alpha 63.990059
_cell_angle_beta 81.316800
_cell_angle_gamma 40.778308
_cell_volume 725.617517
_symmetry_space_group_name_H-M "P -1"
_symmetry_group_IT_number 2
_symmetry_cell_setting 'triclinic'
loop_
_space_group_symop_operation_xyz
x,y,z
-x,-y,-z
loop_
_atom_site_type_symbol
_atom_site_label
_atom_site_fract_x
_atom_site_fract_y
_atom_site_fract_z
Si Si1 0.358747 0.910091 0.866057
Si Si2 0.354967 0.620736 0.836289
Si Si3 0.034296 0.677824 0.791461
Si Si4 0.071312 0.927993 0.857840
Si Si5 0.620486 0.806627 0.438271
Si Si6 0.533127 0.627901 0.372426
Si Si7 0.773067 0.854787 0.911541
Si Si8 0.939567 0.410589 0.526726
O O1 0.334053 0.836846 0.761092
O O2 0.394418 0.039425 0.756664
O O3 0.491134 0.642889 0.030068
O O4 0.238125 0.070801 0.948052
O O5 0.240103 0.696185 0.933087
O O6 0.351693 0.561118 0.698621
O O7 0.028157 0.858765 0.778891
O O8 0.060511 0.627540 0.632086
O O9 0.887304 0.795289 0.817137
O O10 0.161012 0.409670 0.966758
O O11 0.030223 0.154060 0.702170
O O12 0.000000 0.000000 0.000000
O O13 0.599977 0.658840 0.453711
O O14 0.780719 0.614397 0.536082
O O15 0.500000 0.000000 0.500000
O O16 0.500000 0.500000 0.500000
O O17 0.384122 0.909077 0.223918
O O18 0.000000 0.500000 0.500000
#
# Coordination Sequence:
#
# PCOD9018960 Si02
#       8
#     2   2   2   2   2   2   2   2
#     4  10  21  44  66  98 135 172 230 287 352 427
#     4  10  23  41  68  95 135 177 219 292 352 415
#     4  11  25  46  74 100 146 187 245 294 368 426
#     4  12  28  43  73 106 143 185 248 293 363 433
#     4  12  27  43  71 101 139 184 239 288 358 429
#     4  11  26  43  69 102 142 180 237 292 369 424
#     4  10  24  42  75 100 138 184 237 296 364 431
#     4  12  29  49  74 104 151 194 245 300 365 431
#
# _framework density 22.050184000000002
#
# number of rings (size 3 to 8) (size 9 to 14) (size 15 to 20)
#    0.000    1.000    1.250    3.375   12.250    1.000 
#    0.000    0.000    0.000    0.000    0.000    0.000 
#    0.000    0.000    0.000    0.000    0.000    0.000 
#
# Total GULP energy -89439.657830 kJ/mol
# GULP energy per Si atom -5589.978614 kJ/mol
# Density = 2.200000 g / cm^3
# Si number density = 22.050184 Si / 1000 Ang^3
#
#
#
# Elastic Constant Matrix: (Units=GPa)
#
#
# Indices 1 2 3 4 5 6 
#
# 1 114.7663 54.7892 18.3297 5.4602 -2.8762 17.3677
# 2 54.7892 123.1098 24.9021 20.4784 -3.9404 -8.6029
# 3 18.3297 24.9021 47.0464 2.1688 -12.0763 4.7824
# 4 5.4602 20.4784 2.1688 44.3820 0.4846 -7.8704
# 5 -2.8762 -3.9404 -12.0763 0.4846 25.9688 3.8803
# 6 17.3677 -8.6029 4.7824 -7.8704 3.8803 47.5681
#
#
#
# Elastic Compliance Matrix: (Units=1/GPa)
#
#
# Indices 1 2 3 4 5 6 
#
# 1 0.012460 -0.005718 -0.001059 0.000170 0.000841 -0.005518
# 2 -0.005718 0.012639 -0.005148 -0.004087 -0.001684 0.004352
# 3 -0.001059 -0.005148 0.028122 0.000214 0.012830 -0.004383
# 4 0.000170 -0.004087 0.000214 0.025012 -0.001482 0.003437
# 5 0.000841 -0.001684 0.012830 -0.001482 0.045211 -0.005835
# 6 -0.005518 0.004352 -0.004383 0.003437 -0.005835 0.025309
#
#
# Mechanical properties :
#
#
# Convention : Reuss Voigt Hill
#
# Bulk Modulus (GPa) = 34.04750 53.44052 43.74401
# Shear Modulus (GPa) = 27.41302 36.04388 31.72845
#
# Velocity S-wave (km/s) = 3.52974 4.04744 3.79743
# Velocity P-wave (km/s) = 5.66450 6.79197 6.25370
#
# Compressibility (1/GPa) = 0.02937074
#
# Stress axis : x y z
#
# Youngs Moduli (GPa) = 80.25516 79.12013 35.55889
#
# Poissons Ratio (x) = 0.45241 0.03766
# Poissons Ratio (y) = 0.45890 0.18307
# Poissons Ratio (z) = 0.08499 0.40735
#
# Static dielectric constant tensor:
#      x y z
#    x 1.840800 -0.009200 0.087990 
#    y -0.009200 1.833610 -0.049270 
#    z 0.087990 -0.049270 1.915480 
# 
# From -- ./inp_files/279128.got.cif
#   From: 2010.05.17/outbox.cif.g08.bks.cpg/sg2_140_cif.got.tgz:279128.got - 2010.06.03 11:33:40.
