data_PCOD9018687
_publ_section_title
;
Structure prediction by ZEFSAII (Michael W. Deem and Ramdas Pophale) SiO2 
 PCOD9018687
Probable space group: P -1
;
_chemical_formula_sum "Si O2"
_cell_formula_units_Z 12
_cell_length_a 19.612490
_cell_length_b 11.290769
_cell_length_c 5.128269
_cell_angle_alpha 123.743947
_cell_angle_beta 53.793610
_cell_angle_gamma 144.582079
_cell_volume 524.327450
_symmetry_space_group_name_H-M "P -1"
_symmetry_group_IT_number 2
_symmetry_cell_setting 'triclinic'
loop_
_space_group_symop_operation_xyz
x,y,z
-x,-y,-z
loop_
_atom_site_type_symbol
_atom_site_label
_atom_site_fract_x
_atom_site_fract_y
_atom_site_fract_z
Si Si1 0.220512 0.069791 0.603875
Si Si2 0.428496 0.971648 0.376181
Si Si3 0.990770 0.108520 0.439350
Si Si4 0.384844 0.252762 0.938595
Si Si5 0.957875 0.321834 0.140274
Si Si6 0.845238 0.469936 0.639323
O O1 0.298594 0.208174 0.848627
O O2 0.111485 0.044675 0.736883
O O3 0.140098 0.836099 0.598342
O O4 0.313303 0.159658 0.263480
O O5 0.418134 0.131011 0.626713
O O6 0.500000 0.000000 0.500000
O O7 0.293575 0.739809 0.356552
O O8 0.500000 0.000000 0.000000
O O9 0.114591 0.329662 0.320901
O O10 0.932943 0.172767 0.802496
O O11 0.000000 0.000000 0.500000
O O12 0.500000 0.500000 0.000000
O O13 0.921182 0.435486 0.288748
O O14 0.093304 0.462516 0.128225
#
# Coordination Sequence:
#
# PCOD9018687 Si02
#       6
#     2   2   2   2   2   2
#     4  11  22  45  74 103 143 189 246 306 358 437
#     4  12  28  48  71 108 152 191 242 307 364 428
#     4  11  24  42  70 113 148 180 232 313 380 428
#     4  12  26  49  74 103 144 202 259 292 355 446
#     4  10  21  43  75 104 134 189 244 301 352 445
#     4  10  23  42  74 100 140 190 242 287 367 433
#
# _framework density 22.88646
#
# number of rings (size 3 to 8) (size 9 to 14) (size 15 to 20)
#    0.000    1.000    3.333    2.000    2.333    5.333 
#    6.000    0.000    0.000    0.000    0.000    0.000 
#    0.000    0.000    0.000    0.000    0.000    0.000 
#
# Total GULP energy -67053.002006 kJ/mol
# GULP energy per Si atom -5587.750167 kJ/mol
# Density = 2.283437 g / cm^3
# Si number density = 22.886460 Si / 1000 Ang^3
#
#
#
# Elastic Constant Matrix: (Units=GPa)
#
#
# Indices 1 2 3 4 5 6 
#
# 1 150.9928 93.5281 12.7614 16.4115 19.4445 10.1000
# 2 93.5281 209.7021 64.1377 19.3610 -1.8996 19.5945
# 3 12.7614 64.1377 85.0184 1.5264 11.9875 -1.6232
# 4 16.4115 19.3610 1.5264 34.1730 1.0406 0.3638
# 5 19.4445 -1.8996 11.9875 1.0406 36.3557 17.9616
# 6 10.1000 19.5945 -1.6232 0.3638 17.9616 52.6970
#
#
#
# Elastic Compliance Matrix: (Units=1/GPa)
#
#
# Indices 1 2 3 4 5 6 
#
# 1 0.011934 -0.007285 0.005298 -0.001564 -0.010534 0.004186
# 2 -0.007285 0.012053 -0.009687 -0.003167 0.011390 -0.007244
# 3 0.005298 -0.009687 0.020369 0.002377 -0.014073 0.007994
# 4 -0.001564 -0.003167 0.002377 0.031742 -0.002019 0.002020
# 5 -0.010534 0.011390 -0.014073 -0.002019 0.047782 -0.018922
# 6 0.004186 -0.007244 0.007994 0.002020 -0.018922 0.027549
#
#
# Mechanical properties :
#
#
# Convention : Reuss Voigt Hill
#
# Bulk Modulus (GPa) = 47.60081 87.39641 67.49861
# Shear Modulus (GPa) = 27.50575 42.99755 35.25165
#
# Velocity S-wave (km/s) = 3.47051 4.33914 3.92890
# Velocity P-wave (km/s) = 6.07479 7.96078 7.08086
#
# Compressibility (1/GPa) = 0.02100805
#
# Stress axis : x y z
#
# Youngs Moduli (GPa) = 83.79272 82.96658 49.09462
#
# Poissons Ratio (x) = 0.60443 -0.26009
# Poissons Ratio (y) = 0.61045 0.47556
# Poissons Ratio (z) = -0.44392 0.80367
#
# Static dielectric constant tensor:
#      x y z
#    x 1.889530 -0.024690 0.043840 
#    y -0.024690 1.879250 -0.041540 
#    z 0.043840 -0.041540 1.993120 
# 
# From -- ./inp_files/118824.got.cif
#   From: 2010.05.17/outbox.cif.g08.bks.cpg/sg2_60_cif.got.tgz:118824.got - 2010.06.03 11:33:40.
