data_PCOD9018031
_publ_section_title
;
Structure prediction by ZEFSAII (Michael W. Deem and Ramdas Pophale) SiO2 
 PCOD9018031
Probable space group: P -1
;
_chemical_formula_sum "Si O2"
_cell_formula_units_Z 16
_cell_length_a 11.298279
_cell_length_b 17.417889
_cell_length_c 14.608333
_cell_angle_alpha 150.102538
_cell_angle_beta 150.717785
_cell_angle_gamma 47.930753
_cell_volume 655.689538
_symmetry_space_group_name_H-M "P -1"
_symmetry_group_IT_number 2
_symmetry_cell_setting 'triclinic'
loop_
_space_group_symop_operation_xyz
x,y,z
-x,-y,-z
loop_
_atom_site_type_symbol
_atom_site_label
_atom_site_fract_x
_atom_site_fract_y
_atom_site_fract_z
Si Si1 0.980550 0.500740 0.595897
Si Si2 0.570221 0.646001 0.520206
Si Si3 0.361451 0.821335 0.275297
Si Si4 0.709782 0.285323 0.428231
Si Si5 0.735460 0.895501 0.755110
Si Si6 0.387281 0.818771 0.943484
Si Si7 0.072789 0.648883 0.068100
Si Si8 0.916115 0.820683 0.302681
O O1 0.714255 0.518544 0.472894
O O2 0.905496 0.308601 0.371523
O O3 0.000000 0.500000 0.500000
O O4 0.224714 0.657695 0.954231
O O5 0.495305 0.683188 0.608509
O O6 0.784535 0.799889 0.775593
O O7 0.319913 0.629642 0.270003
O O8 0.582686 0.796747 0.462834
O O9 0.149893 0.785956 0.180881
O O10 0.500000 0.000000 0.500000
O O11 0.582843 0.183570 0.148242
O O12 0.875746 0.196368 0.503187
O O13 0.911589 0.469753 0.734405
O O14 0.593330 0.010144 0.821387
O O15 0.000000 0.000000 0.000000
O O16 0.633211 0.783967 0.115188
O O17 0.911907 0.695266 0.087717
O O18 0.000000 0.000000 0.500000
#
# Coordination Sequence:
#
# PCOD9018031 Si02
#       8
#     2   2   2   2   2   2   2   2
#     4  12  25  44  71 105 138 184 247 299 350 430
#     4  10  22  41  71  96 142 186 226 291 362 428
#     4  11  23  43  69  97 134 186 234 288 361 423
#     4  11  23  44  69 108 143 186 233 293 368 421
#     4  11  25  50  67  95 144 189 236 291 360 433
#     4  12  25  45  72 108 143 183 243 302 351 428
#     4  10  21  43  67  99 142 184 230 289 367 426
#     4  11  24  42  70 108 149 184 233 295 355 436
#
# _framework density 24.401792
#
# number of rings (size 3 to 8) (size 9 to 14) (size 15 to 20)
#    0.000    1.000    1.250    7.500    1.750    3.000 
#   11.250    1.875    0.000    0.000    0.000    0.000 
#    0.000    0.000    0.000    0.000    0.000    0.000 
#
# Total GULP energy -89279.570002 kJ/mol
# GULP energy per Si atom -5579.973125 kJ/mol
# Density = 2.434625 g / cm^3
# Si number density = 24.401792 Si / 1000 Ang^3
#
#
#
# Elastic Constant Matrix: (Units=GPa)
#
#
# Indices 1 2 3 4 5 6 
#
# 1 75.2760 13.2903 15.9375 -16.7930 -15.5860 22.6114
# 2 13.2903 75.1227 16.6212 0.3593 -5.5157 3.2901
# 3 15.9375 16.6212 131.8858 5.7018 -17.7728 14.1891
# 4 -16.7930 0.3593 5.7018 36.0731 14.3709 10.4302
# 5 -15.5860 -5.5157 -17.7728 14.3709 47.9071 8.0346
# 6 22.6114 3.2901 14.1891 10.4302 8.0346 37.0450
#
#
#
# Elastic Compliance Matrix: (Units=1/GPa)
#
#
# Indices 1 2 3 4 5 6 
#
# 1 0.024579 -0.003014 -0.000165 0.014737 0.006563 -0.020244
# 2 -0.003014 0.014136 -0.001447 -0.001946 0.000426 0.001594
# 3 -0.000165 -0.001447 0.008829 -0.002161 0.004286 -0.003474
# 4 0.014737 -0.001946 -0.002161 0.042713 -0.005901 -0.018741
# 5 0.006563 0.000426 0.004286 -0.005901 0.028116 -0.010122
# 6 -0.020244 0.001594 -0.003474 -0.018741 -0.010122 0.048012
#
#
# Mechanical properties :
#
#
# Convention : Reuss Voigt Hill
#
# Bulk Modulus (GPa) = 26.11526 41.55360 33.83443
# Shear Modulus (GPa) = 26.53927 39.96741 33.25334
#
# Velocity S-wave (km/s) = 3.30145 4.05147 3.69554
# Velocity P-wave (km/s) = 5.02575 6.24114 5.66613
#
# Compressibility (1/GPa) = 0.03829179
#
# Stress axis : x y z
#
# Youngs Moduli (GPa) = 40.68520 70.74256 113.25808
#
# Poissons Ratio (x) = 0.21321 0.01870
# Poissons Ratio (y) = 0.12262 0.16390
# Poissons Ratio (z) = 0.00672 0.10238
#
# Static dielectric constant tensor:
#      x y z
#    x 1.945890 0.005200 0.091200 
#    y 0.005200 2.047550 0.052610 
#    z 0.091200 0.052610 2.057580 
# 
# From -- ./inp_files/523492.got.cif
#   From: 2010.05.17/outbox.cif.g08.bks.cpg/sg2_262_cif.got.tgz:523492.got - 2010.06.03 11:33:40.
