data_PCOD9018414
_publ_section_title
;
Structure prediction by ZEFSAII (Michael W. Deem and Ramdas Pophale) SiO2 
 PCOD9018414
Probable space group: P -1
;
_chemical_formula_sum "Si O2"
_cell_formula_units_Z 16
_cell_length_a 17.570972
_cell_length_b 9.210939
_cell_length_c 10.432321
_cell_angle_alpha 135.743363
_cell_angle_beta 34.626481
_cell_angle_gamma 119.721706
_cell_volume 650.633749
_symmetry_space_group_name_H-M "P -1"
_symmetry_group_IT_number 2
_symmetry_cell_setting 'triclinic'
loop_
_space_group_symop_operation_xyz
x,y,z
-x,-y,-z
loop_
_atom_site_type_symbol
_atom_site_label
_atom_site_fract_x
_atom_site_fract_y
_atom_site_fract_z
Si Si1 0.368039 0.595411 0.832003
Si Si2 0.102970 0.502588 0.019753
Si Si3 0.065353 0.944307 0.233971
Si Si4 0.604759 0.651089 0.118945
Si Si5 0.804425 0.697783 0.663934
Si Si6 0.382031 0.952780 0.471245
Si Si7 0.103802 0.018504 0.750823
Si Si8 0.600282 0.960212 0.955884
O O1 0.500000 0.500000 0.500000
O O2 0.404581 0.535052 0.889186
O O3 0.325391 0.847413 0.033886
O O4 0.237847 0.509514 0.917690
O O5 0.100976 0.682624 0.024411
O O6 0.959148 0.577626 0.343151
O O7 0.115023 0.251609 0.830029
O O8 0.963622 0.053643 0.329643
O O9 0.000000 0.000000 0.500000
O O10 0.187941 0.069006 0.141286
O O11 0.643478 0.841326 0.270320
O O12 0.457247 0.747975 0.320101
O O13 0.722445 0.589368 0.809904
O O14 0.715853 0.745578 0.685851
O O15 0.252523 0.927496 0.551513
O O16 0.501051 0.985665 0.231297
O O17 0.000000 0.000000 0.000000
O O18 0.500000 0.000000 0.000000
#
# Coordination Sequence:
#
# PCOD9018414 Si02
#       8
#     2   2   2   2   2   2   2   2
#     4  12  23  43  71 104 133 184 238 282 349 424
#     4  11  24  44  68 104 144 182 235 294 346 429
#     4  10  23  43  70  97 142 185 229 285 357 418
#     4  10  21  43  70  94 141 178 232 283 353 420
#     4  10  23  45  67 103 134 190 223 284 363 418
#     4  10  22  42  67  96 133 182 228 286 349 411
#     4  12  25  44  68 107 140 185 237 297 352 416
#     4  11  24  43  69  98 138 176 234 289 344 421
#
# _framework density 24.591408000000001
#
# number of rings (size 3 to 8) (size 9 to 14) (size 15 to 20)
#    0.000    1.250    3.750    1.125    3.500    1.500 
#    9.000    1.250    0.000    0.000    0.000    0.000 
#    0.000    0.000    0.000    0.000    0.000    0.000 
#
# Total GULP energy -89453.970400 kJ/mol
# GULP energy per Si atom -5590.873150 kJ/mol
# Density = 2.453544 g / cm^3
# Si number density = 24.591408 Si / 1000 Ang^3
#
#
#
# Elastic Constant Matrix: (Units=GPa)
#
#
# Indices 1 2 3 4 5 6 
#
# 1 160.7776 29.7295 42.7904 -2.8417 -39.4775 -27.2232
# 2 29.7295 82.8101 15.3033 -9.0420 -9.2052 -20.3870
# 3 42.7904 15.3033 94.2045 -18.4389 -26.9808 -16.0333
# 4 -2.8417 -9.0420 -18.4389 22.7727 -1.3881 2.1278
# 5 -39.4775 -9.2052 -26.9808 -1.3881 41.9806 1.0427
# 6 -27.2232 -20.3870 -16.0333 2.1278 1.0427 46.6145
#
#
#
# Elastic Compliance Matrix: (Units=1/GPa)
#
#
# Indices 1 2 3 4 5 6 
#
# 1 0.009383 -0.001244 -0.001148 -0.000192 0.007698 0.004378
# 2 -0.001244 0.014735 0.001231 0.006329 0.002918 0.005787
# 3 -0.001148 0.001231 0.017926 0.015059 0.011083 0.005098
# 4 -0.000192 0.006329 0.015059 0.058916 0.012713 0.004862
# 5 0.007698 0.002918 0.011083 0.012713 0.039041 0.008130
# 6 0.004378 0.005787 0.005098 0.004862 0.008130 0.027890
#
#
# Mechanical properties :
#
#
# Convention : Reuss Voigt Hill
#
# Bulk Modulus (GPa) = 25.17463 57.04874 41.11169
# Shear Modulus (GPa) = 27.25474 38.93814 33.09644
#
# Velocity S-wave (km/s) = 3.33273 3.98352 3.67257
# Velocity P-wave (km/s) = 5.00688 6.66385 5.89388
#
# Compressibility (1/GPa) = 0.03972253
#
# Stress axis : x y z
#
# Youngs Moduli (GPa) = 106.57119 67.86504 55.78414
#
# Poissons Ratio (x) = 0.08443 0.06403
# Poissons Ratio (y) = 0.13259 -0.06866
# Poissons Ratio (z) = 0.12232 -0.08353
#
# Static dielectric constant tensor:
#      x y z
#    x 2.132460 -0.033580 -0.068240 
#    y -0.033580 2.002890 0.113560 
#    z -0.068240 0.113560 2.026390 
# 
# From -- ./inp_files/462393.got.cif
#   From: 2010.05.17/outbox.cif.g08.bks.cpg/sg2_232_cif.got.tgz:462393.got - 2010.06.03 11:33:40.
