data_PCOD9018397
_publ_section_title
;
Structure prediction by ZEFSAII (Michael W. Deem and Ramdas Pophale) SiO2 
 PCOD9018397
Probable space group: P -1
;
_chemical_formula_sum "Si O2"
_cell_formula_units_Z 14
_cell_length_a 13.237947
_cell_length_b 10.766263
_cell_length_c 7.821904
_cell_angle_alpha 120.771300
_cell_angle_beta 46.096381
_cell_angle_gamma 131.103479
_cell_volume 602.051260
_symmetry_space_group_name_H-M "P -1"
_symmetry_group_IT_number 2
_symmetry_cell_setting 'triclinic'
loop_
_space_group_symop_operation_xyz
x,y,z
-x,-y,-z
loop_
_atom_site_type_symbol
_atom_site_label
_atom_site_fract_x
_atom_site_fract_y
_atom_site_fract_z
Si Si1 0.599924 0.111151 0.622599
Si Si2 0.896747 0.217988 0.872759
Si Si3 0.077410 0.829978 0.822310
Si Si4 0.754593 0.452105 0.277578
Si Si5 0.725927 0.669301 0.226275
Si Si6 0.229486 0.023588 0.465993
Si Si7 0.491737 0.647886 0.203873
O O1 0.789889 0.222443 0.427566
O O2 0.618320 0.998174 0.667175
O O3 0.519396 0.225140 0.826297
O O4 0.500000 0.000000 0.500000
O O5 0.853397 0.098150 0.679118
O O6 0.074862 0.378784 0.777911
O O7 0.876345 0.114970 0.997564
O O8 0.785225 0.303505 0.080139
O O9 0.109263 0.959296 0.726549
O O10 0.891428 0.699871 0.964317
O O11 0.660779 0.492097 0.267312
O O12 0.660517 0.412960 0.536458
O O13 0.634551 0.713177 0.219622
O O14 0.739754 0.791585 0.452114
O O15 0.500000 0.500000 0.000000
#
# Coordination Sequence:
#
# PCOD9018397 Si02
#       7
#     2   2   2   2   2   2   2
#     4  10  21  44  63  91 130 166 218 261 315 382
#     4  10  21  43  70  92 128 172 220 262 321 380
#     4   9  21  40  67  92 129 166 216 268 306 386
#     4  10  23  43  61  96 133 166 213 272 314 396
#     4  11  23  42  62  98 132 165 217 272 317 376
#     4  10  22  39  70  95 123 171 218 263 321 377
#     4  12  25  42  65  95 134 171 209 270 330 379
#
# _framework density 23.253834999999999
#
# number of rings (size 3 to 8) (size 9 to 14) (size 15 to 20)
#    0.857    0.857    2.857    0.857    4.000    2.286 
#    5.143    5.000    0.000    0.000    0.000    0.000 
#    0.000    0.000    0.000    0.000    0.000    0.000 
#
# Total GULP energy -78046.679367 kJ/mol
# GULP energy per Si atom -5574.762812 kJ/mol
# Density = 2.320091 g / cm^3
# Si number density = 23.253835 Si / 1000 Ang^3
#
#
#
# Elastic Constant Matrix: (Units=GPa)
#
#
# Indices 1 2 3 4 5 6 
#
# 1 79.2670 13.1115 28.1451 10.8861 -8.8151 -16.4677
# 2 13.1115 37.3649 32.7979 15.3864 -2.4478 -7.3147
# 3 28.1451 32.7979 91.1677 19.7798 -10.4649 4.9186
# 4 10.8861 15.3864 19.7798 38.1011 0.1679 -2.4311
# 5 -8.8151 -2.4478 -10.4649 0.1679 45.1040 8.6413
# 6 -16.4677 -7.3147 4.9186 -2.4311 8.6413 35.5423
#
#
#
# Elastic Compliance Matrix: (Units=1/GPa)
#
#
# Indices 1 2 3 4 5 6 
#
# 1 0.016427 0.001705 -0.005696 -0.001882 0.000353 0.008536
# 2 0.001705 0.046923 -0.016275 -0.010155 -0.003313 0.012810
# 3 -0.005696 -0.016275 0.020321 -0.003017 0.004673 -0.010143
# 4 -0.001882 -0.010155 -0.003017 0.032465 -0.001760 0.000104
# 5 0.000353 -0.003313 0.004673 -0.001760 0.024540 -0.007252
# 6 0.008536 0.012810 -0.010143 0.000104 -0.007252 0.037901
#
#
# Mechanical properties :
#
#
# Convention : Reuss Voigt Hill
#
# Bulk Modulus (GPa) = 23.18181 39.54541 31.36361
# Shear Modulus (GPa) = 21.41422 32.66581 27.04002
#
# Velocity S-wave (km/s) = 3.03791 3.75206 3.41371
# Velocity P-wave (km/s) = 4.72185 5.98444 5.39024
#
# Compressibility (1/GPa) = 0.04313727
#
# Stress axis : x y z
#
# Youngs Moduli (GPa) = 60.87461 21.31145 49.21109
#
# Poissons Ratio (x) = -0.03633 0.28033
# Poissons Ratio (y) = -0.10377 0.80092
# Poissons Ratio (z) = 0.34677 0.34685
#
# Static dielectric constant tensor:
#      x y z
#    x 1.976550 0.007380 -0.022260 
#    y 0.007380 1.937510 -0.047150 
#    z -0.022260 -0.047150 1.868920 
# 
# From -- ./inp_files/259855.got.cif
#   From: 2010.05.17/outbox.cif.g08.bks.cpg/sg2_130_cif.got.tgz:259855.got - 2010.06.03 11:33:40.
