data_PCOD9018040
_publ_section_title
;
Structure prediction by ZEFSAII (Michael W. Deem and Ramdas Pophale) SiO2 
 PCOD9018040
Probable space group: P -1
;
_chemical_formula_sum "Si O2"
_cell_formula_units_Z 12
_cell_length_a 10.313689
_cell_length_b 8.110055
_cell_length_c 7.932578
_cell_angle_alpha 90.874719
_cell_angle_beta 59.599620
_cell_angle_gamma 119.825908
_cell_volume 471.051567
_symmetry_space_group_name_H-M "P -1"
_symmetry_group_IT_number 2
_symmetry_cell_setting 'triclinic'
loop_
_space_group_symop_operation_xyz
x,y,z
-x,-y,-z
loop_
_atom_site_type_symbol
_atom_site_label
_atom_site_fract_x
_atom_site_fract_y
_atom_site_fract_z
Si Si1 0.006290 0.140232 0.200220
Si Si2 0.051970 0.702194 0.062305
Si Si3 0.375535 0.057794 0.674588
Si Si4 0.876282 0.250851 0.599441
Si Si5 0.327531 0.194969 0.191131
Si Si6 0.636674 0.422254 0.725086
O O1 0.793014 0.966608 0.316451
O O2 0.991636 0.268535 0.359446
O O3 0.159612 0.115793 0.167690
O O4 0.057677 0.236526 0.982148
O O5 0.029957 0.692351 0.276322
O O6 0.262589 0.881236 0.885853
O O7 0.000000 0.500000 0.000000
O O8 0.500000 0.000000 0.500000
O O9 0.501256 0.279033 0.666048
O O10 0.786057 0.370762 0.630626
O O11 0.717484 0.011484 0.709172
O O12 0.317167 0.355108 0.312468
O O13 0.520463 0.325613 0.972822
#
# Coordination Sequence:
#
# PCOD9018040 Si02
#       6
#     2   2   2   2   2   2
#     4  10  24  43  66 100 143 173 236 290 335 413
#     4  10  23  40  68 101 133 183 230 276 350 409
#     4  10  21  43  68 100 141 180 226 294 342 401
#     4  12  23  44  73  94 140 188 224 286 348 412
#     4  11  24  41  67 107 133 183 233 281 351 413
#     4  11  23  42  70  99 141 179 233 286 342 419
#
# _framework density 25.474919
#
# number of rings (size 3 to 8) (size 9 to 14) (size 15 to 20)
#    1.000    0.333    3.333    2.000    0.000    6.667 
#    0.000    0.833    0.000    0.000    0.000    0.000 
#    0.000    0.000    0.000    0.000    0.000    0.000 
#
# Total GULP energy -67027.635698 kJ/mol
# GULP energy per Si atom -5585.636308 kJ/mol
# Density = 2.541694 g / cm^3
# Si number density = 25.474919 Si / 1000 Ang^3
#
#
#
# Elastic Constant Matrix: (Units=GPa)
#
#
# Indices 1 2 3 4 5 6 
#
# 1 74.0237 32.0950 56.8279 6.7763 -4.2414 6.9014
# 2 32.0950 181.2523 41.5532 24.7040 16.0811 -16.0108
# 3 56.8279 41.5532 149.2868 19.6187 -4.9368 -16.5593
# 4 6.7763 24.7040 19.6187 46.3492 -2.3639 9.3557
# 5 -4.2414 16.0811 -4.9368 -2.3639 45.9102 13.5508
# 6 6.9014 -16.0108 -16.5593 9.3557 13.5508 37.4869
#
#
#
# Elastic Compliance Matrix: (Units=1/GPa)
#
#
# Indices 1 2 3 4 5 6 
#
# 1 0.025314 -0.005212 -0.010699 0.007341 0.008239 -0.016423
# 2 -0.005212 0.008355 0.001278 -0.006353 -0.006234 0.008931
# 3 -0.010699 0.001278 0.012408 -0.006784 -0.003707 0.011030
# 4 0.007341 -0.006353 -0.006784 0.030867 0.009091 -0.018052
# 5 0.008239 -0.006234 -0.003707 0.009091 0.030429 -0.019085
# 6 -0.016423 0.008931 0.011030 -0.018052 -0.019085 0.049790
#
#
# Mechanical properties :
#
#
# Convention : Reuss Voigt Hill
#
# Bulk Modulus (GPa) = 59.48714 73.94609 66.71661
# Shear Modulus (GPa) = 26.03704 44.22171 35.12938
#
# Velocity S-wave (km/s) = 3.20044 4.17092 3.71749
# Velocity P-wave (km/s) = 6.08762 7.23087 6.68373
#
# Compressibility (1/GPa) = 0.01681035
#
# Stress axis : x y z
#
# Youngs Moduli (GPa) = 39.50375 119.68881 80.59219
#
# Poissons Ratio (x) = 0.62380 0.86229
# Poissons Ratio (y) = 0.20589 -0.10298
# Poissons Ratio (z) = 0.42267 -0.15293
#
# Static dielectric constant tensor:
#      x y z
#    x 2.011650 0.043420 0.012330 
#    y 0.043420 2.101100 -0.017140 
#    z 0.012330 -0.017140 2.018760 
# 
# From -- ./inp_files/244917.got.cif
#   From: 2010.05.17/outbox.cif.g08.bks.cpg/sg2_123_cif.got.tgz:244917.got - 2010.06.03 11:33:40.
