data_PCOD9018099
_publ_section_title
;
Structure prediction by ZEFSAII (Michael W. Deem and Ramdas Pophale) SiO2 
 PCOD9018099
Probable space group: P -1
;
_chemical_formula_sum "Si O2"
_cell_formula_units_Z 15
_cell_length_a 17.292218
_cell_length_b 8.025437
_cell_length_c 19.995883
_cell_angle_alpha 39.113315
_cell_angle_beta 21.190072
_cell_angle_gamma 36.546387
_cell_volume 592.628049
_symmetry_space_group_name_H-M "P -1"
_symmetry_group_IT_number 2
_symmetry_cell_setting 'triclinic'
loop_
_space_group_symop_operation_xyz
x,y,z
-x,-y,-z
loop_
_atom_site_type_symbol
_atom_site_label
_atom_site_fract_x
_atom_site_fract_y
_atom_site_fract_z
Si Si1 0.500000 0.000000 0.500000
Si Si2 0.720873 0.676110 0.198060
Si Si3 0.854131 0.648307 0.831874
Si Si4 0.278965 0.583896 0.581849
Si Si5 0.745739 0.012064 0.689419
Si Si6 0.334060 0.557146 0.823001
Si Si7 0.750899 0.248319 0.952503
Si Si8 0.770873 0.519797 0.719883
O O1 0.421261 0.291922 0.519746
O O2 0.644876 0.139783 0.291721
O O3 0.443853 0.763002 0.400660
O O4 0.791718 0.492190 0.264814
O O5 0.775962 0.507363 0.136333
O O6 0.786487 0.948830 0.048925
O O7 0.693795 0.899920 0.837609
O O8 0.058271 0.734347 0.669015
O O9 0.778560 0.512013 0.998582
O O10 0.918255 0.389458 0.807871
O O11 0.726045 0.789661 0.720333
O O12 0.583828 0.318170 0.704177
O O13 0.000000 0.000000 0.500000
O O14 0.478023 0.424302 0.130965
O O15 0.797146 0.263654 0.831052
O O16 0.000000 0.500000 0.500000
#
# Coordination Sequence:
#
# PCOD9018099 Si02
#       8
#     1   2   2   2   2   2   2   2
#     4  10  22  42  68  94 134 180 228 278 340 410
#     4  10  21  43  68  92 136 176 227 289 335 409
#     4  11  25  42  69  99 137 179 228 287 351 412
#     4  10  23  45  67  99 132 183 234 282 348 410
#     4  11  23  42  67 101 138 173 227 281 339 420
#     4  11  23  41  66 101 135 179 225 286 345 408
#     4  10  22  43  63 102 138 178 230 288 336 423
#     4  10  23  42  68  99 140 188 227 278 355 417
#
# _framework density 25.310986
#
# number of rings (size 3 to 8) (size 9 to 14) (size 15 to 20)
#    0.000    1.600    1.333    2.800    1.867    3.733 
#    4.800    1.333    0.000    0.000    0.000    0.000 
#    0.000    0.000    0.000    0.000    0.000    0.000 
#
# Total GULP energy -83618.649480 kJ/mol
# GULP energy per Si atom -5574.576632 kJ/mol
# Density = 2.525338 g / cm^3
# Si number density = 25.310986 Si / 1000 Ang^3
#
#
#
# Elastic Constant Matrix: (Units=GPa)
#
#
# Indices 1 2 3 4 5 6 
#
# 1 124.6510 21.7740 15.8556 -0.1439 13.3125 -26.2481
# 2 21.7740 41.9751 17.3009 -19.2535 -1.1623 -14.7498
# 3 15.8556 17.3009 122.5946 -12.4382 23.7951 -9.0661
# 4 -0.1439 -19.2535 -12.4382 43.2679 -1.5915 5.6717
# 5 13.3125 -1.1623 23.7951 -1.5915 55.9219 -13.7335
# 6 -26.2481 -14.7498 -9.0661 5.6717 -13.7335 25.3456
#
#
#
# Elastic Compliance Matrix: (Units=1/GPa)
#
#
# Indices 1 2 3 4 5 6 
#
# 1 0.010675 -0.003299 -0.000468 -0.002820 -0.000154 0.009516
# 2 -0.003299 0.041672 -0.004135 0.014938 0.008961 0.020868
# 3 -0.000468 -0.004135 0.009635 0.001043 -0.004574 -0.002156
# 4 -0.002820 0.014938 0.001043 0.030077 0.001442 0.000197
# 5 -0.000154 0.008961 -0.004574 0.001442 0.024054 0.016129
# 6 0.009516 0.020868 -0.002156 0.000197 0.016129 0.069378
#
#
# Mechanical properties :
#
#
# Convention : Reuss Voigt Hill
#
# Bulk Modulus (GPa) = 21.65432 44.34240 32.99836
# Shear Modulus (GPa) = 23.07495 40.52644 31.80069
#
# Velocity S-wave (km/s) = 3.02264 4.00577 3.54842
# Velocity P-wave (km/s) = 4.55584 6.24115 5.46387
#
# Compressibility (1/GPa) = 0.04618015
#
# Stress axis : x y z
#
# Youngs Moduli (GPa) = 93.67637 23.99697 103.78693
#
# Poissons Ratio (x) = 0.07916 0.04853
# Poissons Ratio (y) = 0.30902 0.42912
# Poissons Ratio (z) = 0.04380 0.09922
#
# Static dielectric constant tensor:
#      x y z
#    x 2.089580 -0.057300 -0.013860 
#    y -0.057300 1.990290 0.069270 
#    z -0.013860 0.069270 2.140930 
# 
# From -- ./inp_files/599345.got.cif
#   From: 2010.05.17/outbox.cif.g08.bks.cpg/sg2_300_cif.got.tgz:599345.got - 2010.06.03 11:33:40.
