data_PCOD9018122
_publ_section_title
;
Structure prediction by ZEFSAII (Michael W. Deem and Ramdas Pophale) SiO2 
 PCOD9018122
Probable space group: P -1
;
_chemical_formula_sum "Si O2"
_cell_formula_units_Z 16
_cell_length_a 8.343637
_cell_length_b 14.454082
_cell_length_c 9.510349
_cell_angle_alpha 62.991137
_cell_angle_beta 111.025397
_cell_angle_gamma 137.060931
_cell_volume 695.452801
_symmetry_space_group_name_H-M "P -1"
_symmetry_group_IT_number 2
_symmetry_cell_setting 'triclinic'
loop_
_space_group_symop_operation_xyz
x,y,z
-x,-y,-z
loop_
_atom_site_type_symbol
_atom_site_label
_atom_site_fract_x
_atom_site_fract_y
_atom_site_fract_z
Si Si1 0.864195 0.087421 0.460799
Si Si2 0.712551 0.100763 0.885838
Si Si3 0.428492 0.624979 0.868062
Si Si4 0.036814 0.189514 0.160305
Si Si5 0.516735 0.894411 0.703174
Si Si6 0.222594 0.381355 0.481916
Si Si7 0.878675 0.556193 0.876296
Si Si8 0.023183 0.405121 0.666992
O O1 0.699723 0.122862 0.400483
O O2 0.902574 0.071136 0.322790
O O3 0.116924 0.228922 0.498389
O O4 0.710725 0.950861 0.604923
O O5 0.795249 0.252946 0.768456
O O6 0.639438 0.009139 0.786716
O O7 0.929329 0.135278 0.010101
O O8 0.500000 0.000000 0.000000
O O9 0.684738 0.708721 0.829382
O O10 0.417860 0.742537 0.816603
O O11 0.221314 0.507656 0.776395
O O12 0.373181 0.546607 0.052214
O O13 0.989573 0.288900 0.126236
O O14 0.500000 0.500000 0.500000
O O15 0.151486 0.437289 0.302676
O O16 0.112594 0.359343 0.612627
O O17 0.000000 0.500000 0.000000
O O18 0.000000 0.500000 0.500000
#
# Coordination Sequence:
#
# PCOD9018122 Si02
#       8
#     2   2   2   2   2   2   2   2
#     4  10  21  43  68  94 136 189 227 279 353 428
#     4  12  26  45  72 102 140 184 239 293 355 421
#     4  12  26  42  71 106 138 183 232 299 361 420
#     4  11  24  43  69  99 142 179 233 296 357 415
#     4  11  24  43  70  97 139 185 236 284 356 431
#     4  11  24  41  68 103 139 177 226 294 352 413
#     4  11  23  42  70 102 136 183 235 285 349 423
#     4  12  25  44  71 106 137 180 242 296 343 426
#
# _framework density 23.006592999999999
#
# number of rings (size 3 to 8) (size 9 to 14) (size 15 to 20)
#    0.000    0.750    3.750    4.875    3.500    1.000 
#    0.000    1.250    0.000    0.000    0.000    0.000 
#    0.000    0.000    0.000    0.000    0.000    0.000 
#
# Total GULP energy -89439.546527 kJ/mol
# GULP energy per Si atom -5589.971658 kJ/mol
# Density = 2.295423 g / cm^3
# Si number density = 23.006593 Si / 1000 Ang^3
#
#
#
# Elastic Constant Matrix: (Units=GPa)
#
#
# Indices 1 2 3 4 5 6 
#
# 1 60.3228 17.7798 20.5048 -6.0582 -7.6312 12.5704
# 2 17.7798 129.7101 58.4603 -7.3529 5.0192 13.4894
# 3 20.5048 58.4603 92.0142 -14.0813 -19.3735 18.4497
# 4 -6.0582 -7.3529 -14.0813 50.8295 12.1792 -8.9290
# 5 -7.6312 5.0192 -19.3735 12.1792 32.0097 -9.2219
# 6 12.5704 13.4894 18.4497 -8.9290 -9.2219 36.7588
#
#
#
# Elastic Compliance Matrix: (Units=1/GPa)
#
#
# Indices 1 2 3 4 5 6 
#
# 1 0.018847 -0.001286 -0.002025 0.000222 0.002126 -0.004369
# 2 -0.001286 0.012471 -0.008974 0.000929 -0.008490 -0.001537
# 3 -0.002025 -0.008974 0.020265 0.000654 0.012077 -0.002996
# 4 0.000222 0.000929 0.000654 0.022274 -0.007360 0.002819
# 5 0.002126 -0.008490 0.012077 -0.007360 0.044857 0.005793
# 6 -0.004369 -0.001537 -0.002996 0.002819 0.005793 0.032905
#
#
# Mechanical properties :
#
#
# Convention : Reuss Voigt Hill
#
# Bulk Modulus (GPa) = 37.02057 52.83741 44.92899
# Shear Modulus (GPa) = 26.99874 36.27308 31.63591
#
# Velocity S-wave (km/s) = 3.42939 3.97500 3.71223
# Velocity P-wave (km/s) = 5.63978 6.63954 6.15998
#
# Compressibility (1/GPa) = 0.02701201
#
# Stress axis : x y z
#
# Youngs Moduli (GPa) = 53.05985 80.18286 49.34686
#
# Poissons Ratio (x) = 0.10310 0.09994
# Poissons Ratio (y) = 0.06823 0.44285
# Poissons Ratio (z) = 0.10746 0.71959
#
# Static dielectric constant tensor:
#      x y z
#    x 1.905090 0.007470 -0.009450 
#    y 0.007470 1.846500 -0.038180 
#    z -0.009450 -0.038180 1.961760 
# 
# From -- ./inp_files/206501.got.cif
#   From: 2010.05.17/outbox.cif.g08.bks.cpg/sg2_104_cif.got.tgz:206501.got - 2010.06.03 11:33:40.
