data_PCOD9018445
_publ_section_title
;
Structure prediction by ZEFSAII (Michael W. Deem and Ramdas Pophale) SiO2 
 PCOD9018445
Probable space group: P -1
;
_chemical_formula_sum "Si O2"
_cell_formula_units_Z 13
_cell_length_a 12.807780
_cell_length_b 13.792488
_cell_length_c 5.347590
_cell_angle_alpha 88.987872
_cell_angle_beta 89.708085
_cell_angle_gamma 28.510200
_cell_volume 450.721625
_symmetry_space_group_name_H-M "P -1"
_symmetry_group_IT_number 2
_symmetry_cell_setting 'triclinic'
loop_
_space_group_symop_operation_xyz
x,y,z
-x,-y,-z
loop_
_atom_site_type_symbol
_atom_site_label
_atom_site_fract_x
_atom_site_fract_y
_atom_site_fract_z
Si Si1 0.081122 0.106511 0.677249
Si Si2 0.001474 0.776293 0.836407
Si Si3 0.075839 0.382080 0.254436
Si Si4 0.478750 0.149149 0.373775
Si Si5 0.434784 0.608934 0.245760
Si Si6 0.000000 0.000000 0.500000
Si Si7 0.516631 0.754012 0.127032
O O1 0.954232 0.191962 0.405036
O O2 0.183455 0.916642 0.677212
O O3 0.258683 0.047304 0.631528
O O4 0.915684 0.271582 0.885333
O O5 0.006614 0.660042 0.771096
O O6 0.745856 0.012935 0.891405
O O7 0.343561 0.164710 0.290817
O O8 0.000000 0.500000 0.500000
O O9 0.000000 0.500000 0.000000
O O10 0.411974 0.234985 0.647800
O O11 0.402059 0.284803 0.147109
O O12 0.500000 0.500000 0.500000
O O13 0.557682 0.612105 0.219067
O O14 0.179439 0.840535 0.277701
O O15 0.500000 0.500000 0.000000
#
# Coordination Sequence:
#
# PCOD9018445 Si02
#       7
#     2   2   2   2   2   1   2
#     4  10  23  42  75 103 137 193 252 306 376 458
#     4  10  22  44  68  99 134 189 249 296 380 454
#     4  12  26  45  67 105 148 190 246 320 392 460
#     4  10  21  43  70  97 139 185 240 310 368 456
#     4  12  28  49  75 117 155 207 270 323 390 458
#     4  12  26  54  78 114 164 206 266 324 390 474
#     4  10  21  45  70 101 143 185 251 310 377 455
#
# _framework density 28.842634
#
# number of rings (size 3 to 8) (size 9 to 14) (size 15 to 20)
#    0.000    1.231    3.077    2.769    2.154    7.385 
#   16.615    0.000    0.000    0.000    0.000    0.000 
#    0.000    0.000    0.000    0.000    0.000    0.000 
#
# Total GULP energy -72570.841426 kJ/mol
# GULP energy per Si atom -5582.372417 kJ/mol
# Density = 2.877699 g / cm^3
# Si number density = 28.842634 Si / 1000 Ang^3
#
#
#
# Elastic Constant Matrix: (Units=GPa)
#
#
# Indices 1 2 3 4 5 6 
#
# 1 147.7063 13.1635 17.2602 24.6382 25.9167 -10.7398
# 2 13.1635 92.5812 37.0520 19.5831 -4.8888 4.4775
# 3 17.2602 37.0520 216.2456 28.4169 -7.1299 25.3280
# 4 24.6382 19.5831 28.4169 46.9279 14.1043 -0.2827
# 5 25.9167 -4.8888 -7.1299 14.1043 36.1365 0.6173
# 6 -10.7398 4.4775 25.3280 -0.2827 0.6173 55.1831
#
#
#
# Elastic Compliance Matrix: (Units=1/GPa)
#
#
# Indices 1 2 3 4 5 6 
#
# 1 0.008376 -0.000902 -0.000686 -0.001925 -0.005549 0.002071
# 2 -0.000902 0.012818 -0.001178 -0.005456 0.004291 -0.000751
# 3 -0.000686 -0.001178 0.005759 -0.003520 0.002890 -0.002732
# 4 -0.001925 -0.005456 -0.003520 0.030324 -0.011921 0.001972
# 5 -0.005549 0.004291 0.002890 -0.011921 0.037511 -0.003235
# 6 0.002071 -0.000751 -0.002732 0.001972 -0.003235 0.019885
#
#
# Mechanical properties :
#
#
# Convention : Reuss Voigt Hill
#
# Bulk Modulus (GPa) = 46.68477 65.72050 56.20264
# Shear Modulus (GPa) = 39.26317 53.58667 46.42492
#
# Velocity S-wave (km/s) = 3.69357 4.31501 4.01633
# Velocity P-wave (km/s) = 5.86610 6.90370 6.40594
#
# Compressibility (1/GPa) = 0.02142026
#
# Stress axis : x y z
#
# Youngs Moduli (GPa) = 119.38754 78.01511 173.64732
#
# Poissons Ratio (x) = 0.07038 0.11920
# Poissons Ratio (y) = 0.10770 0.20452
# Poissons Ratio (z) = 0.08195 0.09189
#
# Static dielectric constant tensor:
#      x y z
#    x 2.213490 -0.453810 0.109960 
#    y -0.453810 1.927220 -0.123930 
#    z 0.109960 -0.123930 2.466190 
# 
# From -- ./inp_files/96544.got.cif
#   From: 2010.05.17/outbox.cif.g08.bks.cpg/sg2_49_cif.got.tgz:96544.got - 2010.06.03 11:33:40.
