data_PCOD9018161
_publ_section_title
;
Structure prediction by ZEFSAII (Michael W. Deem and Ramdas Pophale) SiO2 
 PCOD9018161
Probable space group: P -1
;
_chemical_formula_sum "Si O2"
_cell_formula_units_Z 12
_cell_length_a 9.174035
_cell_length_b 7.524238
_cell_length_c 7.933223
_cell_angle_alpha 85.105451
_cell_angle_beta 94.577936
_cell_angle_gamma 85.745328
_cell_volume 542.062140
_symmetry_space_group_name_H-M "P -1"
_symmetry_group_IT_number 2
_symmetry_cell_setting 'triclinic'
loop_
_space_group_symop_operation_xyz
x,y,z
-x,-y,-z
loop_
_atom_site_type_symbol
_atom_site_label
_atom_site_fract_x
_atom_site_fract_y
_atom_site_fract_z
Si Si1 0.492466 0.380688 0.669471
Si Si2 0.703581 0.408353 0.987427
Si Si3 0.675636 0.011529 0.627128
Si Si4 0.602924 0.095673 0.236487
Si Si5 0.065944 0.865116 0.158209
Si Si6 0.240822 0.253644 0.827880
O O1 0.500000 0.500000 0.500000
O O2 0.566406 0.437669 0.844734
O O3 0.583156 0.195472 0.652440
O O4 0.323537 0.351460 0.681789
O O5 0.660718 0.272581 0.144764
O O6 0.754849 0.598749 0.036402
O O7 0.831808 0.294713 0.905030
O O8 0.680237 0.023392 0.424151
O O9 0.834199 0.023340 0.720589
O O10 0.567749 0.878324 0.718756
O O11 0.653737 0.932253 0.124446
O O12 0.922117 0.788774 0.228376
O O13 0.000000 0.000000 0.000000
#
# Coordination Sequence:
#
# PCOD9018161 Si02
#       6
#     2   2   2   2   2   2
#     4  10  22  42  65  98 128 165 223 268 317 378
#     4  11  23  42  68  92 133 168 219 268 316 381
#     4   9  22  40  68  93 136 168 214 271 319 376
#     4  10  21  43  68  97 124 173 219 267 318 375
#     4  11  23  42  63  97 134 173 213 257 327 389
#     4  11  23  40  66  97 128 170 214 259 329 381
#
# _framework density 22.137685000000001
#
# number of rings (size 3 to 8) (size 9 to 14) (size 15 to 20)
#    0.000    1.667    1.667    2.000    2.333    2.667 
#    6.000    7.500    0.000    0.000    0.000    0.000 
#    0.000    0.000    0.000    0.000    0.000    0.000 
#
# Total GULP energy -66981.096967 kJ/mol
# GULP energy per Si atom -5581.758081 kJ/mol
# Density = 2.208730 g / cm^3
# Si number density = 22.137685 Si / 1000 Ang^3
#
#
#
# Elastic Constant Matrix: (Units=GPa)
#
#
# Indices 1 2 3 4 5 6 
#
# 1 167.8584 39.5356 55.6492 -17.8580 4.1875 39.5535
# 2 39.5356 71.3345 20.9870 13.5858 8.2803 -0.6689
# 3 55.6492 20.9870 104.9078 0.7017 19.2670 12.2542
# 4 -17.8580 13.5858 0.7017 35.7515 0.9774 -6.3913
# 5 4.1875 8.2803 19.2670 0.9774 34.4887 10.6603
# 6 39.5535 -0.6689 12.2542 -6.3913 10.6603 39.4804
#
#
#
# Elastic Compliance Matrix: (Units=1/GPa)
#
#
# Indices 1 2 3 4 5 6 
#
# 1 0.013063 -0.008007 -0.005197 0.007289 0.006826 -0.012273
# 2 -0.008007 0.021184 0.000309 -0.010377 -0.006583 0.008382
# 3 -0.005197 0.000309 0.013329 -0.002267 -0.007685 0.002782
# 4 0.007289 -0.010377 -0.002267 0.035226 0.002407 -0.001722
# 5 0.006826 -0.006583 -0.007685 0.002407 0.038473 -0.014564
# 6 -0.012273 0.008382 0.002782 -0.001722 -0.014564 0.040557
#
#
# Mechanical properties :
#
#
# Convention : Reuss Voigt Hill
#
# Bulk Modulus (GPa) = 45.89962 64.04935 54.97449
# Shear Modulus (GPa) = 25.65622 37.13939 31.39780
#
# Velocity S-wave (km/s) = 3.40801 4.10036 3.77011
# Velocity P-wave (km/s) = 6.02202 7.17024 6.62107
#
# Compressibility (1/GPa) = 0.02178667
#
# Stress axis : x y z
#
# Youngs Moduli (GPa) = 76.55066 47.20454 75.02711
#
# Poissons Ratio (x) = 0.37796 0.38988
# Poissons Ratio (y) = 0.61293 -0.02316
# Poissons Ratio (z) = 0.39780 -0.01457
#
# Static dielectric constant tensor:
#      x y z
#    x 1.877660 0.073740 -0.108790 
#    y 0.073740 1.918170 -0.002870 
#    z -0.108790 -0.002870 2.041230 
# 
# From -- ./inp_files/155454.got.cif
#   From: 2010.05.17/outbox.cif.g08.bks.cpg/sg2_78_cif.got.tgz:155454.got - 2010.06.03 11:33:40.
