data_PCOD9018368
_publ_section_title
;
Structure prediction by ZEFSAII (Michael W. Deem and Ramdas Pophale) SiO2 
 PCOD9018368
Probable space group: P -1
;
_chemical_formula_sum "Si O2"
_cell_formula_units_Z 16
_cell_length_a 9.562915
_cell_length_b 29.938431
_cell_length_c 5.251214
_cell_angle_alpha 61.961691
_cell_angle_beta 74.919140
_cell_angle_gamma 31.965595
_cell_volume 670.892702
_symmetry_space_group_name_H-M "P -1"
_symmetry_group_IT_number 2
_symmetry_cell_setting 'triclinic'
loop_
_space_group_symop_operation_xyz
x,y,z
-x,-y,-z
loop_
_atom_site_type_symbol
_atom_site_label
_atom_site_fract_x
_atom_site_fract_y
_atom_site_fract_z
Si Si1 0.127098 0.004258 0.253697
Si Si2 0.406413 0.658672 0.309360
Si Si3 0.132890 0.325178 0.828376
Si Si4 0.835243 0.582026 0.654753
Si Si5 0.116014 0.708783 0.810840
Si Si6 0.332885 0.857978 0.227922
Si Si7 0.421995 0.056581 0.628452
Si Si8 0.442462 0.745293 0.822213
O O1 0.268186 0.934298 0.131444
O O2 0.356063 0.965332 0.396546
O O3 0.000000 0.000000 0.500000
O O4 0.859799 0.109498 0.980101
O O5 0.708947 0.586128 0.470073
O O6 0.269102 0.669255 0.574873
O O7 0.327876 0.655118 0.090413
O O8 0.293656 0.748480 0.056786
O O9 0.005868 0.413412 0.516661
O O10 0.354066 0.238314 0.752780
O O11 0.305775 0.301914 0.028917
O O12 0.986907 0.318599 0.024082
O O13 0.569666 0.679923 0.685913
O O14 0.000000 0.500000 0.000000
O O15 0.870706 0.825318 0.592868
O O16 0.264765 0.843265 0.537840
O O17 0.500000 0.000000 0.500000
O O18 0.500000 0.000000 0.000000
#
# Coordination Sequence:
#
# PCOD9018368 Si02
#       8
#     2   2   2   2   2   2   2   2
#     4  11  25  42  63  93 130 184 237 303 345 402
#     4  11  25  44  72 103 136 188 221 286 349 416
#     4  10  24  41  73 101 134 190 228 286 354 414
#     4  10  23  48  78 110 141 175 231 285 346 429
#     4  12  26  46  69  99 147 183 240 284 351 430
#     4  10  22  39  71  92 132 174 252 290 343 411
#     4  12  30  44  63  98 139 190 234 298 356 392
#     4  10  21  43  70 103 130 183 235 275 354 412
#
# _framework density 23.84882
#
# number of rings (size 3 to 8) (size 9 to 14) (size 15 to 20)
#    0.000    1.250    1.250    3.000   12.250    6.000 
#    0.000    1.250    0.000    0.000    0.000    0.000 
#    0.000    0.000    0.000    0.000    0.000    0.000 
#
# Total GULP energy -89219.048771 kJ/mol
# GULP energy per Si atom -5576.190548 kJ/mol
# Density = 2.379454 g / cm^3
# Si number density = 23.848820 Si / 1000 Ang^3
#
#
#
# Elastic Constant Matrix: (Units=GPa)
#
#
# Indices 1 2 3 4 5 6 
#
# 1 117.5479 24.0801 49.7978 9.5232 -1.3948 -1.1268
# 2 24.0801 48.0350 15.8952 6.4410 -13.6507 4.9869
# 3 49.7978 15.8952 175.4531 13.9004 -10.6024 -9.8063
# 4 9.5232 6.4410 13.9004 39.5927 1.7756 0.8943
# 5 -1.3948 -13.6507 -10.6024 1.7756 51.5508 9.1962
# 6 -1.1268 4.9869 -9.8063 0.8943 9.1962 31.6855
#
#
#
# Elastic Compliance Matrix: (Units=1/GPa)
#
#
# Indices 1 2 3 4 5 6 
#
# 1 0.010663 -0.004957 -0.002567 -0.000802 -0.001681 0.000876
# 2 -0.004957 0.027011 -0.000679 -0.003176 0.008225 -0.006935
# 3 -0.002567 -0.000679 0.006786 -0.001737 0.000865 0.001914
# 4 -0.000802 -0.003176 -0.001737 0.026675 -0.002101 -0.000209
# 5 -0.001681 0.008225 0.000865 -0.002101 0.023164 -0.007750
# 6 0.000876 -0.006935 0.001914 -0.000209 -0.007750 0.035531
#
#
# Mechanical properties :
#
#
# Convention : Reuss Voigt Hill
#
# Bulk Modulus (GPa) = 35.64396 57.84248 46.74322
# Shear Modulus (GPa) = 32.13610 41.31666 36.72638
#
# Velocity S-wave (km/s) = 3.67480 4.16677 3.92850
# Velocity P-wave (km/s) = 5.74315 6.88882 6.34191
#
# Compressibility (1/GPa) = 0.02805525
#
# Stress axis : x y z
#
# Youngs Moduli (GPa) = 93.77902 37.02152 147.35524
#
# Poissons Ratio (x) = 0.18353 0.37819
# Poissons Ratio (y) = 0.46489 0.10007
# Poissons Ratio (z) = 0.24069 0.02514
#
# Static dielectric constant tensor:
#      x y z
#    x 1.882870 -0.005220 -0.043300 
#    y -0.005220 2.015700 -0.076860 
#    z -0.043300 -0.076860 1.923320 
# 
# From -- ./inp_files/56709.got.cif
#   From: 2010.05.17/outbox.cif.g08.bks.cpg/sg2_29_cif.got.tgz:56709.got - 2010.06.03 11:33:40.
