data_PCOD9018979
_publ_section_title
;
Structure prediction by ZEFSAII (Michael W. Deem and Ramdas Pophale) SiO2 
 PCOD9018979
Probable space group: P -1
;
_chemical_formula_sum "Si O2"
_cell_formula_units_Z 13
_cell_length_a 12.389767
_cell_length_b 8.418255
_cell_length_c 17.201542
_cell_angle_alpha 48.632793
_cell_angle_beta 25.918416
_cell_angle_gamma 44.227970
_cell_volume 546.197463
_symmetry_space_group_name_H-M "P -1"
_symmetry_group_IT_number 2
_symmetry_cell_setting 'triclinic'
loop_
_space_group_symop_operation_xyz
x,y,z
-x,-y,-z
loop_
_atom_site_type_symbol
_atom_site_label
_atom_site_fract_x
_atom_site_fract_y
_atom_site_fract_z
Si Si1 0.968730 0.094533 0.810690
Si Si2 0.500000 0.500000 0.500000
Si Si3 0.594488 0.859632 0.903527
Si Si4 0.028251 0.364211 0.823529
Si Si5 0.198335 0.418510 0.469263
Si Si6 0.656967 0.237597 0.638682
Si Si7 0.767007 0.356564 0.148676
O O1 0.978210 0.172987 0.867423
O O2 0.119723 0.228659 0.623557
O O3 0.670257 0.159728 0.954437
O O4 0.127450 0.824378 0.792327
O O5 0.316119 0.373125 0.622730
O O6 0.638019 0.281698 0.545030
O O7 0.807541 0.610452 0.864580
O O8 0.706944 0.998685 0.725357
O O9 0.500000 0.000000 0.000000
O O10 0.986401 0.333384 0.951054
O O11 0.170310 0.633107 0.473329
O O12 0.515060 0.326057 0.278386
O O13 0.000000 0.500000 0.500000
O O14 0.360760 0.395147 0.811544
#
# Coordination Sequence:
#
# PCOD9018979 Si02
#       7
#     2   1   2   2   2   2   2
#     4  12  24  44  69 107 140 183 237 289 360 413
#     4  12  26  46  70 100 156 178 238 290 354 420
#     4  12  25  45  76 104 138 191 238 293 352 422
#     4  12  25  47  68 106 143 185 235 297 351 420
#     4  10  21  44  67 103 141 180 238 289 349 420
#     4  10  24  46  66 109 136 191 233 287 354 414
#     4  10  23  43  72  99 142 183 241 284 355 422
#
# _framework density 23.800915
#
# number of rings (size 3 to 8) (size 9 to 14) (size 15 to 20)
#    0.923    0.000    3.077    4.154    2.154    1.846 
#    2.769    0.000    0.000    0.000    0.000    0.000 
#    0.000    0.000    0.000    0.000    0.000    0.000 
#
# Total GULP energy -72458.785533 kJ/mol
# GULP energy per Si atom -5573.752733 kJ/mol
# Density = 2.374674 g / cm^3
# Si number density = 23.800915 Si / 1000 Ang^3
#
#
#
# Elastic Constant Matrix: (Units=GPa)
#
#
# Indices 1 2 3 4 5 6 
#
# 1 128.9219 6.4260 29.8223 3.7256 -34.2976 -22.1681
# 2 6.4260 74.4747 16.1472 -13.4320 4.2725 -8.3509
# 3 29.8223 16.1472 57.9019 -29.9894 -4.6443 -12.7586
# 4 3.7256 -13.4320 -29.9894 35.1944 -5.3972 7.8127
# 5 -34.2976 4.2725 -4.6443 -5.3972 49.5073 -4.6164
# 6 -22.1681 -8.3509 -12.7586 7.8127 -4.6164 28.6322
#
#
#
# Elastic Compliance Matrix: (Units=1/GPa)
#
#
# Indices 1 2 3 4 5 6 
#
# 1 0.014948 -0.000390 -0.010388 -0.011726 0.009210 0.011516
# 2 -0.000390 0.014775 -0.001673 0.003619 -0.001112 0.002095
# 3 -0.010388 -0.001673 0.042096 0.036371 0.000904 0.000450
# 4 -0.011726 0.003619 0.036371 0.064234 0.001124 -0.009162
# 5 0.009210 -0.001112 0.000904 0.001124 0.027947 0.011409
# 6 0.011516 0.002095 0.000450 -0.009162 0.011409 0.048993
#
#
# Mechanical properties :
#
#
# Convention : Reuss Voigt Hill
#
# Bulk Modulus (GPa) = 21.31285 40.67660 30.99472
# Shear Modulus (GPa) = 19.72125 36.59363 28.15744
#
# Velocity S-wave (km/s) = 2.88165 3.92534 3.44327
# Velocity P-wave (km/s) = 4.47727 6.13774 5.37205
#
# Compressibility (1/GPa) = 0.04692006
#
# Stress axis : x y z
#
# Youngs Moduli (GPa) = 66.89768 67.68115 23.75501
#
# Poissons Ratio (x) = 0.02637 0.24676
# Poissons Ratio (y) = 0.02607 0.03973
# Poissons Ratio (z) = 0.69491 0.11320
#
# Static dielectric constant tensor:
#      x y z
#    x 1.980250 0.038310 0.002360 
#    y 0.038310 1.918330 0.041000 
#    z 0.002360 0.041000 1.964470 
# 
# From -- ./inp_files/378910.got.cif
#   From: 2010.05.17/outbox.cif.g08.bks.cpg/sg2_190_cif.got.tgz:378910.got - 2010.06.03 11:33:40.
