data_PCOD9018824
_publ_section_title
;
Structure prediction by ZEFSAII (Michael W. Deem and Ramdas Pophale) SiO2 
 PCOD9018824
Probable space group: P -1
;
_chemical_formula_sum "Si O2"
_cell_formula_units_Z 16
_cell_length_a 16.737536
_cell_length_b 9.386905
_cell_length_c 13.743983
_cell_angle_alpha 60.333314
_cell_angle_beta 156.318831
_cell_angle_gamma 119.626522
_cell_volume 748.380468
_symmetry_space_group_name_H-M "P -1"
_symmetry_group_IT_number 2
_symmetry_cell_setting 'triclinic'
loop_
_space_group_symop_operation_xyz
x,y,z
-x,-y,-z
loop_
_atom_site_type_symbol
_atom_site_label
_atom_site_fract_x
_atom_site_fract_y
_atom_site_fract_z
Si Si1 0.970313 0.073049 0.129350
Si Si2 0.645635 0.260350 0.025338
Si Si3 0.291220 0.308609 0.299009
Si Si4 0.602835 0.854374 0.715212
Si Si5 0.298044 0.004828 0.670963
Si Si6 0.284808 0.672734 0.138463
Si Si7 0.488788 0.759882 0.831160
Si Si8 0.766092 0.506334 0.242749
O O1 0.120330 0.164718 0.186593
O O2 0.824404 0.198995 0.965384
O O3 0.105712 0.023520 0.385902
O O4 0.826960 0.922728 0.975264
O O5 0.742521 0.300738 0.015437
O O6 0.418148 0.175745 0.783278
O O7 0.743168 0.120420 0.242663
O O8 0.665740 0.419930 0.062748
O O9 0.380196 0.283882 0.299728
O O10 0.213402 0.486120 0.154181
O O11 0.477505 0.303579 0.581494
O O12 0.484578 0.799986 0.699576
O O13 0.500000 0.000000 0.500000
O O14 0.448920 0.916332 0.798517
O O15 0.323687 0.611013 0.730319
O O16 0.696090 0.686830 0.111213
O O17 0.000000 0.500000 0.500000
#
# Coordination Sequence:
#
# PCOD9018824 Si02
#       8
#     2   2   2   2   2   2   2   2
#     4  12  24  44  68  95 131 174 227 271 329 397
#     4  10  21  44  64  97 133 167 213 274 329 386
#     4  11  24  44  65  95 134 173 226 271 325 390
#     4  12  24  43  69  97 133 177 219 277 335 380
#     4  10  22  42  69  95 132 170 214 275 333 387
#     4  11  23  44  66  92 134 172 220 275 322 392
#     4  10  23  44  68  95 138 169 217 279 321 388
#     4  10  23  46  69  99 133 176 217 266 333 401
#
# _framework density 21.379498999999999
#
# number of rings (size 3 to 8) (size 9 to 14) (size 15 to 20)
#    0.000    1.250    2.500    3.000    3.500    0.500 
#   11.250    0.000    0.000    0.000    0.000    0.000 
#    0.000    0.000    0.000    0.000    0.000    0.000 
#
# Total GULP energy -89494.195892 kJ/mol
# GULP energy per Si atom -5593.387243 kJ/mol
# Density = 2.133084 g / cm^3
# Si number density = 21.379499 Si / 1000 Ang^3
#
#
#
# Elastic Constant Matrix: (Units=GPa)
#
#
# Indices 1 2 3 4 5 6 
#
# 1 119.6235 8.5743 19.3927 -7.2256 -23.1344 13.5290
# 2 8.5743 48.6603 22.8782 -1.9812 -5.5402 -11.6644
# 3 19.3927 22.8782 98.4221 -6.5696 -9.1270 8.4999
# 4 -7.2256 -1.9812 -6.5696 27.7270 -4.6089 0.0430
# 5 -23.1344 -5.5402 -9.1270 -4.6089 33.0199 -1.4832
# 6 13.5290 -11.6644 8.4999 0.0430 -1.4832 30.4163
#
#
#
# Elastic Compliance Matrix: (Units=1/GPa)
#
#
# Indices 1 2 3 4 5 6 
#
# 1 0.010805 -0.002002 -0.000270 0.003858 0.007468 -0.005140
# 2 -0.002002 0.027681 -0.007027 0.000090 0.001921 0.013563
# 3 -0.000270 -0.007027 0.012770 0.002843 0.002287 -0.006036
# 4 0.003858 0.000090 0.002843 0.039232 0.008886 -0.002098
# 5 0.007468 0.001921 0.002287 0.008886 0.037649 -0.001401
# 6 -0.005140 0.013563 -0.006036 -0.002098 -0.001401 0.041986
#
#
# Mechanical properties :
#
#
# Convention : Reuss Voigt Hill
#
# Bulk Modulus (GPa) = 30.61985 40.93295 35.77640
# Shear Modulus (GPa) = 25.04931 32.62336 28.83633
#
# Velocity S-wave (km/s) = 3.42665 3.91054 3.67656
# Velocity P-wave (km/s) = 5.47805 6.29104 5.89857
#
# Compressibility (1/GPa) = 0.03265856
#
# Stress axis : x y z
#
# Youngs Moduli (GPa) = 92.54717 36.12602 78.30795
#
# Poissons Ratio (x) = 0.07232 0.02113
# Poissons Ratio (y) = 0.18527 0.55028
# Poissons Ratio (z) = 0.02497 0.25386
#
# Static dielectric constant tensor:
#      x y z
#    x 1.756620 0.016530 -0.001680 
#    y 0.016530 1.797250 -0.010950 
#    z -0.001680 -0.010950 1.748090 
# 
# From -- ./inp_files/447286.got.cif
#   From: 2010.05.17/outbox.cif.g08.bks.cpg/sg2_224_cif.got.tgz:447286.got - 2010.06.03 11:33:40.
