data_PCOD9018981
_publ_section_title
;
Structure prediction by ZEFSAII (Michael W. Deem and Ramdas Pophale) SiO2 
 PCOD9018981
Probable space group: P -1
;
_chemical_formula_sum "Si O2"
_cell_formula_units_Z 14
_cell_length_a 10.876963
_cell_length_b 12.739234
_cell_length_c 5.522265
_cell_angle_alpha 82.037791
_cell_angle_beta 115.472492
_cell_angle_gamma 61.450913
_cell_volume 546.723280
_symmetry_space_group_name_H-M "P -1"
_symmetry_group_IT_number 2
_symmetry_cell_setting 'triclinic'
loop_
_space_group_symop_operation_xyz
x,y,z
-x,-y,-z
loop_
_atom_site_type_symbol
_atom_site_label
_atom_site_fract_x
_atom_site_fract_y
_atom_site_fract_z
Si Si1 0.000671 0.848600 0.840683
Si Si2 0.801264 0.659244 0.435776
Si Si3 0.503193 0.933591 0.271913
Si Si4 0.061910 0.624455 0.286122
Si Si5 0.269460 0.884933 0.283436
Si Si6 0.729712 0.360531 0.183039
Si Si7 0.566524 0.636230 0.890125
O O1 0.981739 0.744181 0.991931
O O2 0.136537 0.858487 0.097318
O O3 0.100824 0.779749 0.702224
O O4 0.828233 0.996002 0.641855
O O5 0.677126 0.785099 0.455393
O O6 0.885849 0.519886 0.689026
O O7 0.940031 0.661781 0.404705
O O8 0.683332 0.662288 0.125484
O O9 0.336846 0.935753 0.125639
O O10 0.500000 0.000000 0.500000
O O11 0.500000 0.000000 0.000000
O O12 0.229733 0.605309 0.536244
O O13 0.442579 0.751024 0.563388
O O14 0.570909 0.356915 0.053104
O O15 0.681283 0.485024 0.938853
#
# Coordination Sequence:
#
# PCOD9018981 Si02
#       7
#     2   2   2   2   2   2   2
#     4  11  24  42  67 102 136 187 233 301 362 438
#     4  10  23  44  72 101 140 189 240 296 371 429
#     4  12  27  47  72 104 148 197 243 306 367 445
#     4  10  22  46  68 102 140 183 239 301 359 440
#     4  11  25  43  68 103 142 185 241 296 369 433
#     4  10  22  40  72  95 139 183 235 295 366 421
#     4  10  21  44  67 107 134 182 241 300 356 437
#
# _framework density 25.607106000000002
#
# number of rings (size 3 to 8) (size 9 to 14) (size 15 to 20)
#    0.000    1.429    1.429    2.571    4.000    1.143 
#    2.571    2.143    0.000    0.000    0.000    0.000 
#    0.000    0.000    0.000    0.000    0.000    0.000 
#
# Total GULP energy -78384.626694 kJ/mol
# GULP energy per Si atom -5598.901907 kJ/mol
# Density = 2.554882 g / cm^3
# Si number density = 25.607106 Si / 1000 Ang^3
#
#
#
# Elastic Constant Matrix: (Units=GPa)
#
#
# Indices 1 2 3 4 5 6 
#
# 1 123.1112 31.1158 22.8128 0.5782 1.4067 14.8762
# 2 31.1158 135.3408 13.8049 -3.9582 -9.9010 -13.4465
# 3 22.8128 13.8049 62.6186 9.5372 4.7162 14.1754
# 4 0.5782 -3.9582 9.5372 20.6673 3.5147 1.2257
# 5 1.4067 -9.9010 4.7162 3.5147 40.1821 -0.0413
# 6 14.8762 -13.4465 14.1754 1.2257 -0.0413 36.8277
#
#
#
# Elastic Compliance Matrix: (Units=1/GPa)
#
#
# Indices 1 2 3 4 5 6 
#
# 1 0.009613 -0.002428 -0.002100 0.000598 -0.000745 -0.003982
# 2 -0.002428 0.009011 -0.002845 0.002378 0.002437 0.005290
# 3 -0.002100 -0.002845 0.020712 -0.009193 -0.002262 -0.007859
# 4 0.000598 0.002378 -0.009193 0.053440 -0.003028 0.002383
# 5 -0.000745 0.002437 -0.002262 -0.003028 0.026046 0.002191
# 6 -0.003982 0.005290 -0.007859 0.002383 0.002191 0.033641
#
#
# Mechanical properties :
#
#
# Convention : Reuss Voigt Hill
#
# Bulk Modulus (GPa) = 40.67065 50.72640 45.69853
# Shear Modulus (GPa) = 28.50540 36.42455 32.46497
#
# Velocity S-wave (km/s) = 3.34006 3.77562 3.56450
# Velocity P-wave (km/s) = 5.54903 6.23374 5.90132
#
# Compressibility (1/GPa) = 0.02458775
#
# Stress axis : x y z
#
# Youngs Moduli (GPa) = 104.03094 110.98058 48.28189
#
# Poissons Ratio (x) = 0.26950 0.10140
# Poissons Ratio (y) = 0.25263 0.13736
# Poissons Ratio (z) = 0.21848 0.31574
#
# Static dielectric constant tensor:
#      x y z
#    x 1.998620 0.013340 -0.045510 
#    y 0.013340 2.048250 -0.032210 
#    z -0.045510 -0.032210 2.039490 
# 
# From -- ./inp_files/70024.got.cif
#   From: 2010.05.17/outbox.cif.g08.bks.cpg/sg2_36_cif.got.tgz:70024.got - 2010.06.03 11:33:40.
