data_PCOD9018126
_publ_section_title
;
Structure prediction by ZEFSAII (Michael W. Deem and Ramdas Pophale) SiO2 
 PCOD9018126
Probable space group: P -1
;
_chemical_formula_sum "Si O2"
_cell_formula_units_Z 12
_cell_length_a 8.724378
_cell_length_b 13.821962
_cell_length_c 10.809742
_cell_angle_alpha 147.997031
_cell_angle_beta 107.367747
_cell_angle_gamma 93.852106
_cell_volume 510.261712
_symmetry_space_group_name_H-M "P -1"
_symmetry_group_IT_number 2
_symmetry_cell_setting 'triclinic'
loop_
_space_group_symop_operation_xyz
x,y,z
-x,-y,-z
loop_
_atom_site_type_symbol
_atom_site_label
_atom_site_fract_x
_atom_site_fract_y
_atom_site_fract_z
Si Si1 0.739566 0.235118 0.813168
Si Si2 0.698140 0.973615 0.750195
Si Si3 0.343790 0.906376 0.743065
Si Si4 0.638192 0.521995 0.197438
Si Si5 0.009718 0.676779 0.604984
Si Si6 0.200279 0.036395 0.636216
O O1 0.500000 0.000000 0.500000
O O2 0.796471 0.184858 0.904327
O O3 0.837885 0.191288 0.680113
O O4 0.733645 0.449192 0.041991
O O5 0.475943 0.887196 0.653082
O O6 0.668482 0.757876 0.443668
O O7 0.849108 0.077057 0.018088
O O8 0.129713 0.701433 0.536097
O O9 0.271561 0.039498 0.797848
O O10 0.500000 0.000000 0.000000
O O11 0.781027 0.580794 0.414690
O O12 0.402930 0.290521 0.910926
O O13 0.000000 0.500000 0.500000
O O14 0.000000 0.000000 0.500000
#
# Coordination Sequence:
#
# PCOD9018126 Si02
#       6
#     2   2   2   2   2   2
#     4  10  21  43  68  94 148 179 231 284 349 413
#     4  11  22  43  72 104 137 185 237 285 355 423
#     4  10  22  45  70 101 140 181 238 292 340 420
#     4  11  23  43  70 103 138 189 228 291 350 416
#     4  11  22  44  72  99 142 187 233 297 352 411
#     4  11  25  47  71 105 144 186 236 289 354 424
#
# _framework density 23.517343
#
# number of rings (size 3 to 8) (size 9 to 14) (size 15 to 20)
#    0.000    1.333    5.000    1.500    2.333    4.000 
#    0.000    5.833    0.000    0.000    0.000    0.000 
#    0.000    0.000    0.000    0.000    0.000    0.000 
#
# Total GULP energy -66859.028095 kJ/mol
# GULP energy per Si atom -5571.585675 kJ/mol
# Density = 2.346382 g / cm^3
# Si number density = 23.517343 Si / 1000 Ang^3
#
#
#
# Elastic Constant Matrix: (Units=GPa)
#
#
# Indices 1 2 3 4 5 6 
#
# 1 103.6779 48.8094 69.4429 -3.8763 15.5398 -30.5599
# 2 48.8094 122.6885 37.8943 -13.5941 8.8729 -20.3139
# 3 69.4429 37.8943 119.9897 -1.3325 4.1209 -17.3700
# 4 -3.8763 -13.5941 -1.3325 44.0101 -14.4516 10.7709
# 5 15.5398 8.8729 4.1209 -14.4516 55.9719 -6.0764
# 6 -30.5599 -20.3139 -17.3700 10.7709 -6.0764 42.9327
#
#
#
# Elastic Compliance Matrix: (Units=1/GPa)
#
#
# Indices 1 2 3 4 5 6 
#
# 1 0.021304 -0.003988 -0.009559 -0.003460 -0.004424 0.009652
# 2 -0.003988 0.010451 -0.000807 0.002677 0.000327 0.001154
# 3 -0.009559 -0.000807 0.013864 0.000217 0.001666 -0.001396
# 4 -0.003460 0.002677 0.000217 0.027183 0.006782 -0.006968
# 5 -0.004424 0.000327 0.001666 0.006782 0.020550 -0.001114
# 6 0.009652 0.001154 -0.001396 -0.006968 -0.001114 0.031734
#
#
# Mechanical properties :
#
#
# Convention : Reuss Voigt Hill
#
# Bulk Modulus (GPa) = 59.13423 73.18327 66.15875
# Shear Modulus (GPa) = 31.36110 41.26359 36.31234
#
# Velocity S-wave (km/s) = 3.65572 4.19334 3.93372
# Velocity P-wave (km/s) = 6.55885 7.39134 6.98750
#
# Compressibility (1/GPa) = 0.01691068
#
# Stress axis : x y z
#
# Youngs Moduli (GPa) = 46.93852 95.68780 72.12706
#
# Poissons Ratio (x) = 0.38163 0.68949
# Poissons Ratio (y) = 0.18721 0.05818
# Poissons Ratio (z) = 0.44871 0.07719
#
# Static dielectric constant tensor:
#      x y z
#    x 1.916300 -0.016650 -0.002420 
#    y -0.016650 1.996650 -0.094340 
#    z -0.002420 -0.094340 1.992970 
# 
# From -- ./inp_files/236253.got.cif
#   From: 2010.05.17/outbox.cif.g08.bks.cpg/sg2_119_cif.got.tgz:236253.got - 2010.06.03 11:33:40.
