data_PCOD9018827
_publ_section_title
;
Structure prediction by ZEFSAII (Michael W. Deem and Ramdas Pophale) SiO2 
 PCOD9018827
Probable space group: P -1
;
_chemical_formula_sum "Si O2"
_cell_formula_units_Z 14
_cell_length_a 17.773181
_cell_length_b 25.176323
_cell_length_c 13.787434
_cell_angle_alpha 24.765655
_cell_angle_beta 24.060957
_cell_angle_gamma 13.346544
_cell_volume 567.931399
_symmetry_space_group_name_H-M "P -1"
_symmetry_group_IT_number 2
_symmetry_cell_setting 'triclinic'
loop_
_space_group_symop_operation_xyz
x,y,z
-x,-y,-z
loop_
_atom_site_type_symbol
_atom_site_label
_atom_site_fract_x
_atom_site_fract_y
_atom_site_fract_z
Si Si1 0.358079 0.381803 0.870249
Si Si2 0.443609 0.697111 0.547712
Si Si3 0.541535 0.098617 0.517890
Si Si4 0.441198 0.153296 0.978917
Si Si5 0.849807 0.780599 0.395251
Si Si6 0.341549 0.608801 0.354346
Si Si7 0.748932 0.237860 0.130806
O O1 0.423351 0.453225 0.594972
O O2 0.538199 0.329183 0.842383
O O3 0.952494 0.613582 0.978327
O O4 0.444174 0.206792 0.996967
O O5 0.461890 0.555709 0.698854
O O6 0.191854 0.840038 0.699048
O O7 0.833868 0.470937 0.506234
O O8 0.375921 0.857581 0.293000
O O9 0.252387 0.238715 0.547751
O O10 0.577375 0.221321 0.305825
O O11 0.471042 0.044487 0.781131
O O12 0.927155 0.846690 0.439462
O O13 0.500000 0.000000 0.500000
O O14 0.958301 0.861583 0.107711
O O15 0.500000 0.500000 0.000000
#
# Coordination Sequence:
#
# PCOD9018827 Si02
#       7
#     2   2   2   2   2   2   2
#     4   8  16  31  58  96 137 164 210 266 328 376
#     4  10  21  44  64  97 138 173 217 266 336 385
#     4  11  23  41  69 100 129 171 226 270 328 383
#     4   9  19  36  65  98 134 172 214 274 323 392
#     4  11  24  45  71  98 127 176 224 277 314 393
#     4   9  17  34  63  97 126 172 217 268 317 385
#     4  10  26  47  63  92 142 174 215 272 332 397
#
# _framework density 24.650865
#
# number of rings (size 3 to 8) (size 9 to 14) (size 15 to 20)
#    0.000    2.286    1.429    0.857    2.000    3.429 
#    7.714    0.714    0.000    0.000    0.000    0.000 
#    0.000    0.000    0.000    0.000    0.000    0.000 
#
# Total GULP energy -78242.785562 kJ/mol
# GULP energy per Si atom -5588.770397 kJ/mol
# Density = 2.459476 g / cm^3
# Si number density = 24.650865 Si / 1000 Ang^3
#
#
#
# Elastic Constant Matrix: (Units=GPa)
#
#
# Indices 1 2 3 4 5 6 
#
# 1 114.9041 7.5703 64.8696 -8.5551 -25.2767 -16.2419
# 2 7.5703 57.7398 28.5797 -0.6967 -7.0267 -12.3724
# 3 64.8696 28.5797 158.2733 -3.5216 -21.1387 14.1355
# 4 -8.5551 -0.6967 -3.5216 32.4955 10.8049 2.0441
# 5 -25.2767 -7.0267 -21.1387 10.8049 42.4723 -1.6793
# 6 -16.2419 -12.3724 14.1355 2.0441 -1.6793 34.6154
#
#
#
# Elastic Compliance Matrix: (Units=1/GPa)
#
#
# Indices 1 2 3 4 5 6 
#
# 1 0.016189 0.005410 -0.007827 0.000362 0.007058 0.013047
# 2 0.005410 0.023764 -0.007218 -0.001220 0.004434 0.014267
# 3 -0.007827 -0.007218 0.011761 -0.000109 -0.000409 -0.011068
# 4 0.000362 -0.001220 -0.000109 0.033915 -0.008773 -0.002650
# 5 0.007058 0.004434 -0.000409 -0.008773 0.030787 0.007075
# 6 0.013047 0.014267 -0.011068 -0.002650 0.007075 0.045129
#
#
# Mechanical properties :
#
#
# Convention : Reuss Voigt Hill
#
# Bulk Modulus (GPa) = 30.82066 59.21739 45.01903
# Shear Modulus (GPa) = 26.09218 37.24314 31.66766
#
# Velocity S-wave (km/s) = 3.25694 3.89115 3.58809
# Velocity P-wave (km/s) = 5.16465 6.65302 5.95551
#
# Compressibility (1/GPa) = 0.03244576
#
# Stress axis : x y z
#
# Youngs Moduli (GPa) = 61.77142 42.07983 85.02801
#
# Poissons Ratio (x) = -0.22767 0.66548
# Poissons Ratio (y) = -0.33420 0.61372
# Poissons Ratio (z) = 0.48346 0.30373
#
# Static dielectric constant tensor:
#      x y z
#    x 2.002510 -0.004550 0.019310 
#    y -0.004550 2.067740 0.016620 
#    z 0.019310 0.016620 1.972460 
# 
# From -- ./inp_files/457597.got.cif
#   From: 2010.05.17/outbox.cif.g08.bks.cpg/sg2_229_cif.got.tgz:457597.got - 2010.06.03 11:33:40.
