data_PCOD9018160
_publ_section_title
;
Structure prediction by ZEFSAII (Michael W. Deem and Ramdas Pophale) SiO2 
 PCOD9018160
Probable space group: P -1
;
_chemical_formula_sum "Si O2"
_cell_formula_units_Z 16
_cell_length_a 20.334738
_cell_length_b 8.068078
_cell_length_c 10.903443
_cell_angle_alpha 43.513844
_cell_angle_beta 138.254354
_cell_angle_gamma 135.939314
_cell_volume 756.099384
_symmetry_space_group_name_H-M "P -1"
_symmetry_group_IT_number 2
_symmetry_cell_setting 'triclinic'
loop_
_space_group_symop_operation_xyz
x,y,z
-x,-y,-z
loop_
_atom_site_type_symbol
_atom_site_label
_atom_site_fract_x
_atom_site_fract_y
_atom_site_fract_z
Si Si1 0.719509 0.587177 0.505837
Si Si2 0.862830 0.333684 0.850770
Si Si3 0.500022 0.412741 0.410378
Si Si4 0.363797 0.619713 0.944300
Si Si5 0.761618 0.154242 0.171999
Si Si6 0.022035 0.739576 0.710072
Si Si7 0.335682 0.087004 0.094027
Si Si8 0.580470 0.172560 0.347197
O O1 0.827676 0.569879 0.715659
O O2 0.620391 0.449917 0.529694
O O3 0.672991 0.421535 0.404846
O O4 0.738864 0.884401 0.354863
O O5 0.922179 0.458964 0.739011
O O6 0.745508 0.105900 0.816541
O O7 0.929811 0.246230 0.091215
O O8 0.500000 0.500000 0.500000
O O9 0.427409 0.107023 0.466246
O O10 0.459046 0.585016 0.172542
O O11 0.286260 0.679567 0.900037
O O12 0.407059 0.823598 0.784399
O O13 0.313596 0.347167 0.947282
O O14 0.887074 0.277925 0.244512
O O15 0.702515 0.059774 0.009950
O O16 0.000000 0.000000 0.500000
O O17 0.464711 0.177391 0.219914
#
# Coordination Sequence:
#
# PCOD9018160 Si02
#       8
#     2   2   2   2   2   2   2   2
#     4  12  21  40  65  96 133 178 213 264 328 388
#     4  10  22  38  69  97 122 166 224 271 330 387
#     4  12  25  38  60  94 140 180 220 263 314 388
#     4  12  25  42  61  99 138 178 222 261 318 396
#     4  11  24  40  69  94 130 174 221 273 327 380
#     4  10  21  43  68  97 123 165 225 279 332 390
#     4  11  21  43  65  92 137 178 214 267 321 384
#     4  12  23  42  63  94 139 182 218 258 317 399
#
# _framework density 21.161238999999998
#
# number of rings (size 3 to 8) (size 9 to 14) (size 15 to 20)
#    0.000    0.750    5.000    3.750    1.750    1.500 
#    0.000    0.625    0.000    6.750    0.000    0.000 
#    0.000    0.000    0.000    0.000    0.000    0.000 
#
# Total GULP energy -89158.671387 kJ/mol
# GULP energy per Si atom -5572.416962 kJ/mol
# Density = 2.111308 g / cm^3
# Si number density = 21.161239 Si / 1000 Ang^3
#
#
#
# Elastic Constant Matrix: (Units=GPa)
#
#
# Indices 1 2 3 4 5 6 
#
# 1 140.0218 48.1899 50.7776 11.8875 3.7655 -2.0658
# 2 48.1899 51.9871 21.7534 -6.2236 0.3626 10.0507
# 3 50.7776 21.7534 112.8037 -5.6415 4.7983 6.3088
# 4 11.8875 -6.2236 -5.6415 21.6853 5.0855 -1.0602
# 5 3.7655 0.3626 4.7983 5.0855 36.3189 -2.4975
# 6 -2.0658 10.0507 6.3088 -1.0602 -2.4975 32.7023
#
#
#
# Elastic Compliance Matrix: (Units=1/GPa)
#
#
# Indices 1 2 3 4 5 6 
#
# 1 0.015486 -0.015118 -0.005191 -0.014260 0.001661 0.006290
# 2 -0.015118 0.037390 0.001358 0.019367 -0.002541 -0.012275
# 3 -0.005191 0.001358 0.011523 0.006588 -0.002121 -0.002917
# 4 -0.014260 0.019367 0.006588 0.062952 -0.008865 -0.006760
# 5 0.001661 -0.002541 -0.002121 -0.008865 0.029131 0.003232
# 6 0.006290 -0.012275 -0.002917 -0.006760 0.003232 0.035339
#
#
# Mechanical properties :
#
#
# Convention : Reuss Voigt Hill
#
# Bulk Modulus (GPa) = 37.74039 60.69495 49.21767
# Shear Modulus (GPa) = 20.95955 30.41405 25.68680
#
# Velocity S-wave (km/s) = 3.15059 3.79522 3.48783
# Velocity P-wave (km/s) = 5.57748 6.92455 6.28720
#
# Compressibility (1/GPa) = 0.02649681
#
# Stress axis : x y z
#
# Youngs Moduli (GPa) = 64.57474 26.74508 86.78553
#
# Poissons Ratio (x) = 0.40432 0.45052
# Poissons Ratio (y) = 0.97621 -0.11784
# Poissons Ratio (z) = 0.33522 -0.03631
#
# Static dielectric constant tensor:
#      x y z
#    x 1.794010 0.023810 -0.007850 
#    y 0.023810 1.840300 0.003870 
#    z -0.007850 0.003870 1.906370 
# 
# From -- ./inp_files/469657.got.cif
#   From: 2010.05.17/outbox.cif.g08.bks.cpg/sg2_235_cif.got.tgz:469657.got - 2010.06.03 11:33:40.
