data_PCOD9018514
_publ_section_title
;
Structure prediction by ZEFSAII (Michael W. Deem and Ramdas Pophale) SiO2 
 PCOD9018514
Probable space group: P -1
;
_chemical_formula_sum "Si O2"
_cell_formula_units_Z 14
_cell_length_a 18.669697
_cell_length_b 7.299390
_cell_length_c 7.604211
_cell_angle_alpha 125.119060
_cell_angle_beta 59.344533
_cell_angle_gamma 138.347884
_cell_volume 557.205684
_symmetry_space_group_name_H-M "P -1"
_symmetry_group_IT_number 2
_symmetry_cell_setting 'triclinic'
loop_
_space_group_symop_operation_xyz
x,y,z
-x,-y,-z
loop_
_atom_site_type_symbol
_atom_site_label
_atom_site_fract_x
_atom_site_fract_y
_atom_site_fract_z
Si Si1 0.626019 0.761388 0.941557
Si Si2 0.253027 0.277193 0.950415
Si Si3 0.055373 0.169934 0.784110
Si Si4 0.945282 0.277970 0.226784
Si Si5 0.295678 0.680125 0.627327
Si Si6 0.608878 0.583795 0.493283
Si Si7 0.848040 0.558350 0.633130
O O1 0.646253 0.806564 0.731704
O O2 0.500000 0.500000 0.000000
O O3 0.684543 0.658739 0.911707
O O4 0.665954 0.049942 0.152215
O O5 0.318834 0.345967 0.729225
O O6 0.160602 0.928960 0.875038
O O7 0.200142 0.431696 0.117455
O O8 0.172208 0.384307 0.665380
O O9 0.061620 0.956771 0.775968
O O10 0.940600 0.917347 0.685638
O O11 0.040756 0.376120 0.026740
O O12 0.921647 0.463882 0.463981
O O13 0.384689 0.641274 0.532616
O O14 0.263384 0.684491 0.470540
O O15 0.500000 0.500000 0.500000
#
# Coordination Sequence:
#
# PCOD9018514 Si02
#       7
#     2   2   2   2   2   2   2
#     4  12  27  51  75 102 145 192 248 314 371 429
#     4  11  23  48  72 107 149 188 247 297 367 438
#     4  10  23  42  69 113 153 188 252 288 357 449
#     4  10  21  43  71 108 152 196 236 297 361 438
#     4  12  26  46  73 111 146 195 244 307 370 431
#     4  12  27  50  76 108 140 190 256 310 364 443
#     4  11  23  42  76 106 152 200 232 296 368 439
#
# _framework density 25.125373
#
# number of rings (size 3 to 8) (size 9 to 14) (size 15 to 20)
#    0.000    0.857    5.714    0.857    0.000    4.000 
#    2.571    0.000    0.000    0.000    0.000    0.000 
#    0.000    0.000    0.000    0.000    0.000    0.000 
#
# Total GULP energy -77966.031702 kJ/mol
# GULP energy per Si atom -5569.002264 kJ/mol
# Density = 2.506819 g / cm^3
# Si number density = 25.125373 Si / 1000 Ang^3
#
#
#
# Elastic Constant Matrix: (Units=GPa)
#
#
# Indices 1 2 3 4 5 6 
#
# 1 140.7025 13.0679 67.1631 15.7714 7.4741 26.0282
# 2 13.0679 38.8114 47.9720 8.3900 5.9200 8.5977
# 3 67.1631 47.9720 214.5900 13.0121 -14.9623 14.9732
# 4 15.7714 8.3900 13.0121 41.9630 0.3795 2.4944
# 5 7.4741 5.9200 -14.9623 0.3795 54.6232 1.9166
# 6 26.0282 8.5977 14.9732 2.4944 1.9166 28.7472
#
#
#
# Elastic Compliance Matrix: (Units=1/GPa)
#
#
# Indices 1 2 3 4 5 6 
#
# 1 0.010448 0.003692 -0.003503 -0.003063 -0.002476 -0.008309
# 2 0.003692 0.041206 -0.009850 -0.005939 -0.007293 -0.009534
# 3 -0.003503 -0.009850 0.008064 0.000656 0.003694 0.001614
# 4 -0.003063 -0.005939 0.000656 0.025844 0.000996 0.001899
# 5 -0.002476 -0.007293 0.003694 0.000996 0.020405 0.001052
# 6 -0.008309 -0.009534 0.001614 0.001899 0.001052 0.044085
#
#
# Mechanical properties :
#
#
# Convention : Reuss Voigt Hill
#
# Bulk Modulus (GPa) = 24.75511 72.27888 48.51700
# Shear Modulus (GPa) = 27.34647 42.79339 35.06993
#
# Velocity S-wave (km/s) = 3.30267 4.13145 3.74009
# Velocity P-wave (km/s) = 4.94141 7.18250 6.16465
#
# Compressibility (1/GPa) = 0.04039570
#
# Stress axis : x y z
#
# Youngs Moduli (GPa) = 95.71114 24.26807 124.01478
#
# Poissons Ratio (x) = -0.08959 0.43437
# Poissons Ratio (y) = -0.35335 1.22159
# Poissons Ratio (z) = 0.33524 0.23905
#
# Static dielectric constant tensor:
#      x y z
#    x 2.235060 -0.026470 0.054110 
#    y -0.026470 1.979200 -0.040420 
#    z 0.054110 -0.040420 2.084200 
# 
# From -- ./inp_files/343106.got.cif
#   From: 2010.05.17/outbox.cif.g08.bks.cpg/sg2_172_cif.got.tgz:343106.got - 2010.06.03 11:33:40.
