data_PCOD9018720
_publ_section_title
;
Structure prediction by ZEFSAII (Michael W. Deem and Ramdas Pophale) SiO2 
 PCOD9018720
Probable space group: P -1
;
_chemical_formula_sum "Si O2"
_cell_formula_units_Z 15
_cell_length_a 11.557542
_cell_length_b 9.653941
_cell_length_c 14.767258
_cell_angle_alpha 62.410914
_cell_angle_beta 38.403785
_cell_angle_gamma 43.234088
_cell_volume 678.221825
_symmetry_space_group_name_H-M "P -1"
_symmetry_group_IT_number 2
_symmetry_cell_setting 'triclinic'
loop_
_space_group_symop_operation_xyz
x,y,z
-x,-y,-z
loop_
_atom_site_type_symbol
_atom_site_label
_atom_site_fract_x
_atom_site_fract_y
_atom_site_fract_z
Si Si1 0.389797 0.038772 0.790416
Si Si2 0.548351 0.412970 0.709980
Si Si3 0.951511 0.710686 0.486855
Si Si4 0.500000 0.500000 0.500000
Si Si5 0.335158 0.712634 0.910914
Si Si6 0.630886 0.814701 0.047917
Si Si7 0.124699 0.632844 0.221344
Si Si8 0.091707 0.473786 0.746814
O O1 0.318435 0.118491 0.912417
O O2 0.276001 0.233325 0.737078
O O3 0.687952 0.878288 0.645002
O O4 0.297642 0.916802 0.861042
O O5 0.475067 0.460152 0.635961
O O6 0.355764 0.615255 0.831543
O O7 0.535521 0.242138 0.805483
O O8 0.818775 0.337779 0.587464
O O9 0.000000 0.500000 0.500000
O O10 0.945566 0.787215 0.365352
O O11 0.249475 0.540384 0.616501
O O12 0.608077 0.537295 0.842992
O O13 0.155832 0.732013 0.088075
O O14 0.881713 0.613350 0.908887
O O15 0.500000 0.000000 0.000000
O O16 0.039126 0.516764 0.266403
#
# Coordination Sequence:
#
# PCOD9018720 Si02
#       8
#     2   2   2   1   2   2   2   2
#     4  12  26  45  72 114 148 195 245 305 380 439
#     4  11  24  48  76 108 150 199 250 308 367 447
#     4  11  23  43  74 109 148 190 248 307 366 442
#     4  12  28  46  72 104 162 200 234 306 386 438
#     4  10  22  44  77 111 138 191 257 302 367 443
#     4  12  28  48  78 105 145 202 255 306 367 441
#     4  10  21  43  77 103 146 191 245 306 365 436
#     4  12  27  49  70 108 156 194 245 311 375 443
#
# _framework density 22.116658000000001
#
# number of rings (size 3 to 8) (size 9 to 14) (size 15 to 20)
#    0.000    0.800    5.333    2.000    5.600    2.667 
#    0.000    0.000    0.000    0.000    0.000    0.000 
#    0.000    0.000    0.000    0.000    0.000    0.000 
#
# Total GULP energy -83698.111035 kJ/mol
# GULP energy per Si atom -5579.874069 kJ/mol
# Density = 2.206632 g / cm^3
# Si number density = 22.116658 Si / 1000 Ang^3
#
#
#
# Elastic Constant Matrix: (Units=GPa)
#
#
# Indices 1 2 3 4 5 6 
#
# 1 101.4688 22.2088 47.7529 -12.2611 18.8838 13.9653
# 2 22.2088 76.2926 24.8713 -2.0526 4.9155 1.6603
# 3 47.7529 24.8713 86.6303 -30.2156 9.7361 3.5720
# 4 -12.2611 -2.0526 -30.2156 28.2732 5.4200 -2.1703
# 5 18.8838 4.9155 9.7361 5.4200 43.7162 -6.5950
# 6 13.9653 1.6603 3.5720 -2.1703 -6.5950 28.7207
#
#
#
# Elastic Compliance Matrix: (Units=1/GPa)
#
#
# Indices 1 2 3 4 5 6 
#
# 1 0.015953 -0.001629 -0.007538 -0.000701 -0.006179 -0.008197
# 2 -0.001629 0.015177 -0.005595 -0.005748 0.001018 0.000410
# 3 -0.007538 -0.005595 0.026988 0.026267 -0.005166 0.001431
# 4 -0.000701 -0.005748 0.026267 0.065177 -0.013083 -0.000673
# 5 -0.006179 0.001018 -0.005166 -0.013083 0.029620 0.009401
# 6 -0.008197 0.000410 0.001431 -0.000673 0.009401 0.040710
#
#
# Mechanical properties :
#
#
# Convention : Reuss Voigt Hill
#
# Bulk Modulus (GPa) = 34.97343 50.45087 42.71215
# Shear Modulus (GPa) = 21.48877 31.44592 26.46735
#
# Velocity S-wave (km/s) = 3.12045 3.77479 3.46311
# Velocity P-wave (km/s) = 5.36940 6.46989 5.94516
#
# Compressibility (1/GPa) = 0.02859314
#
# Stress axis : x y z
#
# Youngs Moduli (GPa) = 62.68572 65.89113 37.05324
#
# Poissons Ratio (x) = 0.10733 0.27930
# Poissons Ratio (y) = 0.10211 0.20733
# Poissons Ratio (z) = 0.47251 0.36869
#
# Static dielectric constant tensor:
#      x y z
#    x 1.802050 -0.008820 -0.005200 
#    y -0.008820 1.826170 -0.018720 
#    z -0.005200 -0.018720 1.837850 
# 
# From -- ./inp_files/515303.got.cif
#   From: 2010.05.17/outbox.cif.g08.bks.cpg/sg2_258_cif.got.tgz:515303.got - 2010.06.03 11:33:40.
