data_PCOD9018059
_publ_section_title
;
Structure prediction by ZEFSAII (Michael W. Deem and Ramdas Pophale) SiO2 
 PCOD9018059
Probable space group: P -1
;
_chemical_formula_sum "Si O2"
_cell_formula_units_Z 12
_cell_length_a 14.360574
_cell_length_b 10.792497
_cell_length_c 14.218896
_cell_angle_alpha 42.244879
_cell_angle_beta 19.348722
_cell_angle_gamma 43.246655
_cell_volume 486.414470
_symmetry_space_group_name_H-M "P -1"
_symmetry_group_IT_number 2
_symmetry_cell_setting 'triclinic'
loop_
_space_group_symop_operation_xyz
x,y,z
-x,-y,-z
loop_
_atom_site_type_symbol
_atom_site_label
_atom_site_fract_x
_atom_site_fract_y
_atom_site_fract_z
Si Si1 0.922218 0.947628 0.848816
Si Si2 0.975189 0.834197 0.189152
Si Si3 0.858022 0.295334 0.494750
Si Si4 0.357069 0.011527 0.249625
Si Si5 0.519375 0.368929 0.271813
Si Si6 0.322912 0.409259 0.639953
O O1 0.677473 0.020785 0.966795
O O2 0.840044 0.753304 0.074334
O O3 0.931001 0.094596 0.841081
O O4 0.216123 0.935541 0.520401
O O5 0.661103 0.780050 0.518592
O O6 0.179936 0.660266 0.048152
O O7 0.000000 0.000000 0.000000
O O8 0.664192 0.429726 0.674610
O O9 0.894271 0.429173 0.295046
O O10 0.149976 0.194927 0.313820
O O11 0.679062 0.142056 0.708234
O O12 0.518365 0.336094 0.404334
O O13 0.500000 0.500000 0.500000
#
# Coordination Sequence:
#
# PCOD9018059 Si02
#       6
#     2   2   2   2   2   2
#     4  12  25  41  69  98 132 167 232 267 319 391
#     4  12  23  41  65  97 133 176 211 276 323 381
#     4   9  23  45  68  95 138 174 211 273 339 390
#     4  11  25  45  66 100 132 176 214 272 335 391
#     4  10  24  40  66  94 134 168 221 258 335 381
#     4  10  21  43  68 103 127 168 216 280 322 386
#
# _framework density 24.670318000000002
#
# number of rings (size 3 to 8) (size 9 to 14) (size 15 to 20)
#    1.000    0.333    3.333    1.500    2.333    7.333 
#    0.000    5.000    0.000    0.000    0.000    0.000 
#    0.000    0.000    0.000    0.000    0.000    0.000 
#
# Total GULP energy -67262.786192 kJ/mol
# GULP energy per Si atom -5605.232183 kJ/mol
# Density = 2.461417 g / cm^3
# Si number density = 24.670318 Si / 1000 Ang^3
#
#
#
# Elastic Constant Matrix: (Units=GPa)
#
#
# Indices 1 2 3 4 5 6 
#
# 1 130.7154 27.3711 18.9007 -18.3464 -5.9407 15.2345
# 2 27.3711 116.1071 3.8842 -5.1773 -2.1678 -5.2604
# 3 18.9007 3.8842 90.8778 0.4310 -2.1920 6.2542
# 4 -18.3464 -5.1773 0.4310 32.1873 4.4766 1.0090
# 5 -5.9407 -2.1678 -2.1920 4.4766 37.0857 1.3895
# 6 15.2345 -5.2604 6.2542 1.0090 1.3895 44.8124
#
#
#
# Elastic Compliance Matrix: (Units=1/GPa)
#
#
# Indices 1 2 3 4 5 6 
#
# 1 0.009469 -0.002088 -0.001652 0.005076 0.000811 -0.003373
# 2 -0.002088 0.009201 -0.000081 0.000220 0.000105 0.001793
# 3 -0.001652 -0.000081 0.011442 -0.001157 0.000585 -0.001037
# 4 0.005076 0.000220 -0.001157 0.034545 -0.003329 -0.002213
# 5 0.000811 0.000105 0.000585 -0.003329 0.027579 -0.001125
# 6 -0.003373 0.001793 -0.001037 -0.002213 -0.001125 0.023902
#
#
# Mechanical properties :
#
#
# Convention : Reuss Voigt Hill
#
# Bulk Modulus (GPa) = 44.50702 48.66802 46.58752
# Shear Modulus (GPa) = 38.08945 41.98669 40.03807
#
# Velocity S-wave (km/s) = 3.93356 4.12990 4.03292
# Velocity P-wave (km/s) = 6.22177 6.52009 6.37268
#
# Compressibility (1/GPa) = 0.02246836
#
# Stress axis : x y z
#
# Youngs Moduli (GPa) = 105.60946 108.68714 87.39825
#
# Poissons Ratio (x) = 0.22696 0.14442
# Poissons Ratio (y) = 0.22054 0.00707
# Poissons Ratio (z) = 0.17452 0.00879
#
# Static dielectric constant tensor:
#      x y z
#    x 1.918780 -0.031080 0.047630 
#    y -0.031080 2.006300 -0.010440 
#    z 0.047630 -0.010440 1.938980 
# 
# From -- ./inp_files/126719.got.cif
#   From: 2010.05.17/outbox.cif.g08.bks.cpg/sg2_64_cif.got.tgz:126719.got - 2010.06.03 11:33:40.
