data_PCOD9018271
_publ_section_title
;
Structure prediction by ZEFSAII (Michael W. Deem and Ramdas Pophale) SiO2 
 PCOD9018271
Probable space group: P -1
;
_chemical_formula_sum "Si O2"
_cell_formula_units_Z 14
_cell_length_a 8.733503
_cell_length_b 9.393391
_cell_length_c 9.938369
_cell_angle_alpha 121.434152
_cell_angle_beta 131.036926
_cell_angle_gamma 67.352728
_cell_volume 523.573461
_symmetry_space_group_name_H-M "P -1"
_symmetry_group_IT_number 2
_symmetry_cell_setting 'triclinic'
loop_
_space_group_symop_operation_xyz
x,y,z
-x,-y,-z
loop_
_atom_site_type_symbol
_atom_site_label
_atom_site_fract_x
_atom_site_fract_y
_atom_site_fract_z
Si Si1 0.318627 0.242896 0.807019
Si Si2 0.348899 0.614058 0.374941
Si Si3 0.182525 0.130563 0.085020
Si Si4 0.216175 0.752192 0.855804
Si Si5 0.054740 0.555313 0.884047
Si Si6 0.376972 0.181326 0.514049
Si Si7 0.647947 0.129637 0.282701
O O1 0.217801 0.398925 0.906524
O O2 0.259242 0.219210 0.604024
O O3 0.284641 0.065120 0.768726
O O4 0.560002 0.264571 0.956349
O O5 0.500000 0.500000 0.500000
O O6 0.469968 0.669257 0.342314
O O7 0.293882 0.787411 0.504264
O O8 0.147304 0.518721 0.211109
O O9 0.252942 0.175178 0.299868
O O10 0.400688 0.146523 0.142875
O O11 0.990154 0.254671 0.992511
O O12 0.136257 0.939709 0.943142
O O13 0.090004 0.607059 0.772477
O O14 0.256996 0.764865 0.727792
O O15 0.500000 0.000000 0.500000
#
# Coordination Sequence:
#
# PCOD9018271 Si02
#       7
#     2   2   2   2   2   2   2
#     4  11  24  44  67 101 131 168 222 272 324 379
#     4  11  23  45  69  98 128 170 222 270 327 385
#     4  10  21  43  69  94 129 176 219 261 331 379
#     4  11  24  45  68  91 139 178 214 261 329 396
#     4  12  26  42  65 104 131 169 220 273 324 389
#     4  11  20  44  76  91 127 177 218 270 325 386
#     4  10  22  45  70  91 131 179 213 269 328 386
#
# _framework density 26.739324
#
# number of rings (size 3 to 8) (size 9 to 14) (size 15 to 20)
#    0.000    1.143    7.143    2.571    2.000    2.857 
#    2.571    5.000    0.000    0.000    0.000    0.000 
#    0.000    0.000    0.000    0.000    0.000    0.000 
#
# Total GULP energy -78291.623055 kJ/mol
# GULP energy per Si atom -5592.258790 kJ/mol
# Density = 2.667846 g / cm^3
# Si number density = 26.739324 Si / 1000 Ang^3
#
#
#
# Elastic Constant Matrix: (Units=GPa)
#
#
# Indices 1 2 3 4 5 6 
#
# 1 107.3534 58.5759 24.6638 0.4520 -5.8380 9.4394
# 2 58.5759 166.1863 15.0766 20.8411 -0.8386 -22.3757
# 3 24.6638 15.0766 67.1597 6.8465 -14.4662 5.4379
# 4 0.4520 20.8411 6.8465 35.4180 9.1130 -9.5678
# 5 -5.8380 -0.8386 -14.4662 9.1130 38.3219 0.7523
# 6 9.4394 -22.3757 5.4379 -9.5678 0.7523 74.7683
#
#
#
# Elastic Compliance Matrix: (Units=1/GPa)
#
#
# Indices 1 2 3 4 5 6 
#
# 1 0.013102 -0.004967 -0.003829 0.002872 -0.000192 -0.002493
# 2 -0.004967 0.008668 0.000245 -0.004518 0.000548 0.002620
# 3 -0.003829 0.000245 0.018738 -0.006234 0.008011 -0.001685
# 4 0.002872 -0.004518 -0.006234 0.035703 -0.010572 0.003414
# 5 -0.000192 0.000548 0.008011 -0.010572 0.031656 -0.002066
# 6 -0.002493 0.002620 -0.001685 0.003414 -0.002066 0.015054
#
#
# Mechanical properties :
#
#
# Convention : Reuss Voigt Hill
#
# Bulk Modulus (GPa) = 42.72421 59.70354 51.21387
# Shear Modulus (GPa) = 33.82365 45.86053 39.84209
#
# Velocity S-wave (km/s) = 3.56046 4.14587 3.86426
# Velocity P-wave (km/s) = 5.73718 6.73009 6.25337
#
# Compressibility (1/GPa) = 0.02340594
#
# Stress axis : x y z
#
# Youngs Moduli (GPa) = 76.32613 115.36601 53.36621
#
# Poissons Ratio (x) = 0.57307 0.20432
# Poissons Ratio (y) = 0.37914 -0.01307
# Poissons Ratio (z) = 0.29223 -0.02825
#
# Static dielectric constant tensor:
#      x y z
#    x 2.180610 0.023160 0.014430 
#    y 0.023160 2.071780 -0.074720 
#    z 0.014430 -0.074720 2.165890 
# 
# From -- ./inp_files/380446.got.cif
#   From: 2010.05.17/outbox.cif.g08.bks.cpg/sg2_191_cif.got.tgz:380446.got - 2010.06.03 11:33:40.
