data_PCOD9018678
_publ_section_title
;
Structure prediction by ZEFSAII (Michael W. Deem and Ramdas Pophale) SiO2 
 PCOD9018678
Probable space group: P -1
;
_chemical_formula_sum "Si O2"
_cell_formula_units_Z 13
_cell_length_a 11.443942
_cell_length_b 9.117807
_cell_length_c 9.087702
_cell_angle_alpha 93.278936
_cell_angle_beta 62.019585
_cell_angle_gamma 135.977779
_cell_volume 517.761018
_symmetry_space_group_name_H-M "P -1"
_symmetry_group_IT_number 2
_symmetry_cell_setting 'triclinic'
loop_
_space_group_symop_operation_xyz
x,y,z
-x,-y,-z
loop_
_atom_site_type_symbol
_atom_site_label
_atom_site_fract_x
_atom_site_fract_y
_atom_site_fract_z
Si Si1 0.102538 0.429496 0.437497
Si Si2 0.646112 0.333028 0.404886
Si Si3 0.316411 0.099458 0.379808
Si Si4 0.204628 0.000610 0.945762
Si Si5 0.000000 0.500000 0.000000
Si Si6 0.562252 0.381657 0.966726
Si Si7 0.203918 0.215074 0.693096
O O1 0.286501 0.598285 0.461447
O O2 0.205501 0.457448 0.225954
O O3 0.000000 0.500000 0.500000
O O4 0.896163 0.151526 0.581562
O O5 0.420892 0.091634 0.448951
O O6 0.828483 0.399412 0.222004
O O7 0.666365 0.521935 0.355213
O O8 0.234441 0.175131 0.511942
O O9 0.503126 0.281050 0.159893
O O10 0.402993 0.151920 0.943933
O O11 0.266968 0.151517 0.775870
O O12 0.094985 0.753270 0.956082
O O13 0.037952 0.954427 0.134145
O O14 0.500000 0.500000 0.000000
#
# Coordination Sequence:
#
# PCOD9018678 Si02
#       7
#     2   2   2   2   1   2   2
#     4  12  31  49  73 116 156 198 257 316 389 463
#     4  11  25  46  73 105 152 196 252 310 382 450
#     4  12  26  46  80 108 150 199 253 315 381 449
#     4  10  22  42  74 110 157 194 257 311 384 451
#     4  10  24  40  74 108 146 202 246 302 376 458
#     4  12  26  48  78 112 151 202 259 318 382 457
#     4  10  21  43  74 113 144 200 255 317 370 460
#
# _framework density 25.108111000000001
#
# number of rings (size 3 to 8) (size 9 to 14) (size 15 to 20)
#    0.000    0.923    0.000    6.000    6.462    4.308 
#    0.000    1.538    0.000    0.000    0.000    0.000 
#    0.000    0.000    0.000    0.000    0.000    0.000 
#
# Total GULP energy -72517.787682 kJ/mol
# GULP energy per Si atom -5578.291360 kJ/mol
# Density = 2.505096 g / cm^3
# Si number density = 25.108111 Si / 1000 Ang^3
#
#
#
# Elastic Constant Matrix: (Units=GPa)
#
#
# Indices 1 2 3 4 5 6 
#
# 1 79.9178 47.5788 41.9637 11.8375 6.9195 8.4365
# 2 47.5788 68.3085 38.0550 15.3624 2.4532 -7.3388
# 3 41.9637 38.0550 186.6611 24.0725 -12.6614 -7.6884
# 4 11.8375 15.3624 24.0725 37.7375 -6.5795 -9.5935
# 5 6.9195 2.4532 -12.6614 -6.5795 32.7146 9.0350
# 6 8.4365 -7.3388 -7.6884 -9.5935 9.0350 38.5841
#
#
#
# Elastic Compliance Matrix: (Units=1/GPa)
#
#
# Indices 1 2 3 4 5 6 
#
# 1 0.025257 -0.016468 -0.002594 -0.002404 -0.003097 -0.009044
# 2 -0.016468 0.028792 -0.001480 -0.003894 -0.002341 0.008362
# 3 -0.002594 -0.001480 0.006739 -0.002306 0.002686 0.000426
# 4 -0.002404 -0.003894 -0.002306 0.032752 0.004739 0.006359
# 5 -0.003097 -0.002341 0.002686 0.004739 0.035125 -0.006280
# 6 -0.009044 0.008362 0.000426 0.006359 -0.006280 0.032622
#
#
# Mechanical properties :
#
#
# Convention : Reuss Voigt Hill
#
# Bulk Modulus (GPa) = 50.74387 65.56470 58.15428
# Shear Modulus (GPa) = 23.93045 35.62658 29.77851
#
# Velocity S-wave (km/s) = 3.09057 3.77095 3.44759
# Velocity P-wave (km/s) = 5.74365 6.71787 6.24977
#
# Compressibility (1/GPa) = 0.01970681
#
# Stress axis : x y z
#
# Youngs Moduli (GPa) = 39.59226 34.73154 148.38368
#
# Poissons Ratio (x) = 0.57194 0.38483
# Poissons Ratio (y) = 0.65199 0.21962
# Poissons Ratio (z) = 0.10268 0.05141
#
# Static dielectric constant tensor:
#      x y z
#    x 2.070810 0.014830 -0.030060 
#    y 0.014830 2.023680 -0.035500 
#    z -0.030060 -0.035500 2.011700 
# 
# From -- ./inp_files/159321.got.cif
#   From: 2010.05.17/outbox.cif.g08.bks.cpg/sg2_80_cif.got.tgz:159321.got - 2010.06.03 11:33:40.
