data_PCOD9018775
_publ_section_title
;
Structure prediction by ZEFSAII (Michael W. Deem and Ramdas Pophale) SiO2 
 PCOD9018775
Probable space group: P -1
;
_chemical_formula_sum "Si O2"
_cell_formula_units_Z 14
_cell_length_a 7.815408
_cell_length_b 8.344916
_cell_length_c 19.887429
_cell_angle_alpha 49.820406
_cell_angle_beta 145.985377
_cell_angle_gamma 131.185296
_cell_volume 530.624853
_symmetry_space_group_name_H-M "P -1"
_symmetry_group_IT_number 2
_symmetry_cell_setting 'triclinic'
loop_
_space_group_symop_operation_xyz
x,y,z
-x,-y,-z
loop_
_atom_site_type_symbol
_atom_site_label
_atom_site_fract_x
_atom_site_fract_y
_atom_site_fract_z
Si Si1 0.414607 0.190680 0.830578
Si Si2 0.638191 0.295976 0.010062
Si Si3 0.983559 0.225323 0.578349
Si Si4 0.655080 0.833951 0.411402
Si Si5 0.381022 0.284134 0.420062
Si Si6 0.319345 0.015811 0.143214
Si Si7 0.160105 0.520649 0.838674
O O1 0.560014 0.150300 0.818584
O O2 0.139785 0.283750 0.687405
O O3 0.314509 0.942778 0.895982
O O4 0.647116 0.332239 0.923714
O O5 0.851267 0.457957 0.089942
O O6 0.284025 0.320682 0.907066
O O7 0.661705 0.297337 0.454357
O O8 0.206504 0.293683 0.566936
O O9 0.864733 0.958164 0.610891
O O10 0.520447 0.729101 0.466813
O O11 0.404560 0.945834 0.264452
O O12 0.000000 0.000000 0.500000
O O13 0.164451 0.448816 0.302353
O O14 0.555052 0.261914 0.147245
O O15 0.000000 0.000000 0.000000
#
# Coordination Sequence:
#
# PCOD9018775 Si02
#       7
#     2   2   2   2   2   2   2
#     4   9  17  35  52  79 105 141 184 227 277 330
#     4   9  18  31  56  72 108 142 173 235 279 316
#     4   9  17  30  52  81 104 134 191 226 258 337
#     4   9  16  32  51  79 109 144 181 225 267 326
#     4  10  17  30  54  81 104 143 186 223 270 327
#     4  10  19  33  53  79 109 144 187 226 271 328
#     4  10  18  34  49  81 110 138 185 229 272 327
#
# _framework density 26.383987000000001
#
# number of rings (size 3 to 8) (size 9 to 14) (size 15 to 20)
#    0.000    2.571    5.714    0.000    0.000    3.429 
#    2.571    1.429    0.000    6.857    0.000    0.000 
#    0.000    0.000    0.000    0.000    0.000    0.571 
#
# Total GULP energy -78063.127106 kJ/mol
# GULP energy per Si atom -5575.937650 kJ/mol
# Density = 2.632394 g / cm^3
# Si number density = 26.383987 Si / 1000 Ang^3
#
#
#
# Elastic Constant Matrix: (Units=GPa)
#
#
# Indices 1 2 3 4 5 6 
#
# 1 108.3984 0.8621 72.3615 -2.4627 -13.8484 2.4026
# 2 0.8621 80.4880 10.2488 -2.3899 -0.3804 12.3057
# 3 72.3615 10.2488 196.8680 6.0352 -13.6901 8.9315
# 4 -2.4627 -2.3899 6.0352 35.7600 -10.4512 0.8103
# 5 -13.8484 -0.3804 -13.6901 -10.4512 59.9946 10.2403
# 6 2.4026 12.3057 8.9315 0.8103 10.2403 20.3204
#
#
#
# Elastic Compliance Matrix: (Units=1/GPa)
#
#
# Indices 1 2 3 4 5 6 
#
# 1 0.012652 0.000729 -0.004526 0.002459 0.002547 -0.001330
# 2 0.000729 0.013993 -0.000479 0.001894 0.002096 -0.009482
# 3 -0.004526 -0.000479 0.006977 -0.001238 0.000769 -0.002579
# 4 0.002459 0.001894 -0.001238 0.030501 0.006532 -0.005401
# 5 0.002547 0.002096 0.000769 0.006532 0.020737 -0.012619
# 6 -0.001330 -0.009482 -0.002579 -0.005401 -0.012619 0.062819
#
#
# Mechanical properties :
#
#
# Convention : Reuss Voigt Hill
#
# Bulk Modulus (GPa) = 39.88804 61.41103 50.64953
# Shear Modulus (GPa) = 30.37933 43.36714 36.87324
#
# Velocity S-wave (km/s) = 3.39695 4.05865 3.74245
# Velocity P-wave (km/s) = 5.52601 6.72977 6.15738
#
# Compressibility (1/GPa) = 0.02507017
#
# Stress axis : x y z
#
# Youngs Moduli (GPa) = 79.04112 71.46367 143.33740
#
# Poissons Ratio (x) = -0.05211 0.64876
# Poissons Ratio (y) = -0.05764 0.06860
# Poissons Ratio (z) = 0.35775 0.03420
#
# Static dielectric constant tensor:
#      x y z
#    x 2.144970 0.132510 0.102000 
#    y 0.132510 2.256670 0.005790 
#    z 0.102000 0.005790 2.251940 
# 
# From -- ./inp_files/503162.got.cif
#   From: 2010.05.17/outbox.cif.g08.bks.cpg/sg2_252_cif.got.tgz:503162.got - 2010.06.03 11:33:40.
