data_PCOD9018625
_publ_section_title
;
Structure prediction by ZEFSAII (Michael W. Deem and Ramdas Pophale) SiO2 
 PCOD9018625
Probable space group: P -1
;
_chemical_formula_sum "Si O2"
_cell_formula_units_Z 16
_cell_length_a 8.365675
_cell_length_b 5.194912
_cell_length_c 19.922834
_cell_angle_alpha 59.877999
_cell_angle_beta 60.833817
_cell_angle_gamma 83.681699
_cell_volume 643.494414
_symmetry_space_group_name_H-M "P -1"
_symmetry_group_IT_number 2
_symmetry_cell_setting 'triclinic'
loop_
_space_group_symop_operation_xyz
x,y,z
-x,-y,-z
loop_
_atom_site_type_symbol
_atom_site_label
_atom_site_fract_x
_atom_site_fract_y
_atom_site_fract_z
Si Si1 0.894714 0.144468 0.747247
Si Si2 0.765872 0.778569 0.241073
Si Si3 0.704364 0.507753 0.927195
Si Si4 0.559276 0.345338 0.841925
Si Si5 0.527653 0.201950 0.293470
Si Si6 0.781236 0.837291 0.523831
Si Si7 0.178807 0.901269 0.945529
Si Si8 0.122691 0.540491 0.548363
O O1 0.710422 0.289254 0.764051
O O2 0.049362 0.276117 0.753033
O O3 0.003126 0.238169 0.644356
O O4 0.817510 0.806054 0.830682
O O5 0.670649 0.480806 0.260040
O O6 0.625425 0.912921 0.301436
O O7 0.820443 0.045120 0.140329
O O8 0.656250 0.298624 0.898691
O O9 0.500000 0.500000 0.000000
O O10 0.814383 0.417320 0.980219
O O11 0.523435 0.677922 0.785671
O O12 0.367933 0.113979 0.905204
O O13 0.351864 0.165151 0.384131
O O14 0.723356 0.585808 0.510886
O O15 0.974301 0.719903 0.518605
O O16 0.799872 0.187776 0.451353
O O17 0.000000 0.000000 0.000000
#
# Coordination Sequence:
#
# PCOD9018625 Si02
#       8
#     2   2   2   2   2   2   2   2
#     4  12  27  45  67 104 144 182 236 299 350 423
#     4  11  28  45  70 103 146 192 232 291 362 421
#     4  12  26  42  69  99 135 186 241 295 347 413
#     4  11  25  43  70 100 138 184 238 298 354 409
#     4  11  24  48  72 104 142 191 234 289 359 428
#     4  10  21  43  73 103 140 178 237 286 351 426
#     4  11  25  47  69 102 142 189 242 293 354 425
#     4  10  23  40  70 110 135 183 229 295 350 412
#
# _framework density 24.864241
#
# number of rings (size 3 to 8) (size 9 to 14) (size 15 to 20)
#    0.000    1.000    2.500    2.625   10.500    1.500 
#    0.000    3.750    0.000    0.000    0.000    0.000 
#    0.000    0.000    0.000    0.000    0.000    0.000 
#
# Total GULP energy -89337.235385 kJ/mol
# GULP energy per Si atom -5583.577212 kJ/mol
# Density = 2.480765 g / cm^3
# Si number density = 24.864241 Si / 1000 Ang^3
#
#
#
# Elastic Constant Matrix: (Units=GPa)
#
#
# Indices 1 2 3 4 5 6 
#
# 1 60.0605 1.2717 19.3750 -0.7478 -9.6664 -3.2058
# 2 1.2717 95.1075 34.3361 11.4490 -11.6903 -1.0658
# 3 19.3750 34.3361 139.5445 -3.7218 -6.3541 -6.2427
# 4 -0.7478 11.4490 -3.7218 46.7846 -8.1908 -3.9075
# 5 -9.6664 -11.6903 -6.3541 -8.1908 26.5159 4.7542
# 6 -3.2058 -1.0658 -6.2427 -3.9075 4.7542 30.1315
#
#
#
# Elastic Compliance Matrix: (Units=1/GPa)
#
#
# Indices 1 2 3 4 5 6 
#
# 1 0.018618 0.001423 -0.002565 0.001018 0.007020 0.000524
# 2 0.001423 0.012517 -0.003184 -0.002568 0.004685 -0.001138
# 3 -0.002565 -0.003184 0.008410 0.001515 -0.000138 0.001575
# 4 0.001018 -0.002568 0.001515 0.023462 0.006426 0.002360
# 5 0.007020 0.004685 -0.000138 0.006426 0.045263 -0.005424
# 6 0.000524 -0.001138 0.001575 0.002360 -0.005424 0.034692
#
#
# Mechanical properties :
#
#
# Convention : Reuss Voigt Hill
#
# Bulk Modulus (GPa) = 32.36817 44.96424 38.66620
# Shear Modulus (GPa) = 30.88137 36.66837 33.77487
#
# Velocity S-wave (km/s) = 3.52802 3.84440 3.68961
# Velocity P-wave (km/s) = 5.44446 6.15054 5.80824
#
# Compressibility (1/GPa) = 0.03089455
#
# Stress axis : x y z
#
# Youngs Moduli (GPa) = 53.71225 79.89098 118.90268
#
# Poissons Ratio (x) = -0.11371 0.30498
# Poissons Ratio (y) = -0.07645 0.37854
# Poissons Ratio (z) = 0.13777 0.25434
#
# Static dielectric constant tensor:
#      x y z
#    x 2.001030 0.095300 0.052280 
#    y 0.095300 2.117350 -0.028820 
#    z 0.052280 -0.028820 2.024670 
# 
# From -- ./inp_files/52453.got.cif
#   From: 2010.05.17/outbox.cif.g08.bks.cpg/sg2_27_cif.got.tgz:52453.got - 2010.06.03 11:33:40.
