data_PCOD9018211
_publ_section_title
;
Structure prediction by ZEFSAII (Michael W. Deem and Ramdas Pophale) SiO2 
 PCOD9018211
Probable space group: P -1
;
_chemical_formula_sum "Si O2"
_cell_formula_units_Z 16
_cell_length_a 7.867591
_cell_length_b 6.919720
_cell_length_c 17.493087
_cell_angle_alpha 124.151449
_cell_angle_beta 64.781834
_cell_angle_gamma 105.311087
_cell_volume 712.615697
_symmetry_space_group_name_H-M "P -1"
_symmetry_group_IT_number 2
_symmetry_cell_setting 'triclinic'
loop_
_space_group_symop_operation_xyz
x,y,z
-x,-y,-z
loop_
_atom_site_type_symbol
_atom_site_label
_atom_site_fract_x
_atom_site_fract_y
_atom_site_fract_z
Si Si1 0.266760 0.464632 0.753442
Si Si2 0.714273 0.273074 0.756172
Si Si3 0.948829 0.286543 0.872210
Si Si4 0.310963 0.584071 0.368381
Si Si5 0.783589 0.933126 0.449341
Si Si6 0.808781 0.806710 0.581794
Si Si7 0.632585 0.598820 0.064480
Si Si8 0.895074 0.035787 0.109197
O O1 0.488310 0.516286 0.713994
O O2 0.241359 0.237921 0.654327
O O3 0.160533 0.700432 0.806537
O O4 0.158343 0.386604 0.834573
O O5 0.845170 0.273998 0.806508
O O6 0.793986 0.379404 0.684656
O O7 0.522385 0.400619 0.839162
O O8 0.672086 0.002257 0.683874
O O9 0.816787 0.446591 0.983981
O O10 0.979793 0.055582 0.864695
O O11 0.205558 0.415197 0.410648
O O12 0.338498 0.839846 0.459106
O O13 0.766072 0.773572 0.493377
O O14 0.987898 0.061693 0.428340
O O15 0.711095 0.864327 0.099976
O O16 0.500000 0.500000 0.000000
O O17 0.000000 0.000000 0.000000
#
# Coordination Sequence:
#
# PCOD9018211 Si02
#       8
#     2   2   2   2   2   2   2   2
#     4  12  25  44  69 105 141 183 228 285 347 412
#     4  10  22  43  67 103 137 183 230 280 350 397
#     4  11  24  45  69  97 144 184 223 288 342 407
#     4  11  24  40  73 102 138 180 235 287 335 413
#     4  10  23  44  68 100 143 182 227 283 353 399
#     4  10  21  43  69 101 140 180 230 284 339 417
#     4  10  22  45  71  96 139 179 224 287 340 401
#     4  12  26  43  70 101 136 182 231 276 345 416
#
# _framework density 22.452493
#
# number of rings (size 3 to 8) (size 9 to 14) (size 15 to 20)
#    0.000    1.250    2.500    2.625    1.750    3.500 
#    0.000    1.250    0.000    0.000    0.000    0.000 
#    0.000    0.000    0.000    0.000    0.000    0.000 
#
# Total GULP energy -89252.750480 kJ/mol
# GULP energy per Si atom -5578.296905 kJ/mol
# Density = 2.240139 g / cm^3
# Si number density = 22.452493 Si / 1000 Ang^3
#
#
#
# Elastic Constant Matrix: (Units=GPa)
#
#
# Indices 1 2 3 4 5 6 
#
# 1 74.9239 28.7524 40.6723 -9.6972 -18.4454 -12.0883
# 2 28.7524 147.9956 58.6020 -22.5816 4.1906 -29.8235
# 3 40.6723 58.6020 162.4629 -5.8428 -15.3639 -17.9606
# 4 -9.6972 -22.5816 -5.8428 39.0617 -4.6349 -3.5645
# 5 -18.4454 4.1906 -15.3639 -4.6349 41.7378 5.6633
# 6 -12.0883 -29.8235 -17.9606 -3.5645 5.6633 30.3267
#
#
#
# Elastic Compliance Matrix: (Units=1/GPa)
#
#
# Indices 1 2 3 4 5 6 
#
# 1 0.018329 -0.001171 -0.002922 0.004617 0.007163 0.003629
# 2 -0.001171 0.011184 -0.002689 0.006318 -0.003327 0.010302
# 3 -0.002922 -0.002689 0.008055 -0.000815 0.001781 0.000533
# 4 0.004617 0.006318 -0.000815 0.031629 0.003167 0.010697
# 5 0.007163 -0.003327 0.001781 0.003167 0.029065 -0.004417
# 6 0.003629 0.010302 0.000533 0.010697 -0.004417 0.046950
#
#
# Mechanical properties :
#
#
# Convention : Reuss Voigt Hill
#
# Bulk Modulus (GPa) = 41.66093 71.27068 56.46580
# Shear Modulus (GPa) = 29.98035 39.38228 34.68132
#
# Velocity S-wave (km/s) = 3.65811 4.19265 3.93447
# Velocity P-wave (km/s) = 6.03637 7.43301 6.77080
#
# Compressibility (1/GPa) = 0.02400331
#
# Stress axis : x y z
#
# Youngs Moduli (GPa) = 54.55928 89.41657 124.15075
#
# Poissons Ratio (x) = 0.10470 0.36271
# Poissons Ratio (y) = 0.06389 0.33388
# Poissons Ratio (z) = 0.15940 0.24047
#
# Static dielectric constant tensor:
#      x y z
#    x 1.964900 -0.022840 -0.005480 
#    y -0.022840 1.795100 -0.008280 
#    z -0.005480 -0.008280 1.858870 
# 
# From -- ./inp_files/553822.got.cif
#   From: 2010.05.17/outbox.cif.g08.bks.cpg/sg2_277_cif.got.tgz:553822.got - 2010.06.03 11:33:40.
