data_PCOD9018201
_publ_section_title
;
Structure prediction by ZEFSAII (Michael W. Deem and Ramdas Pophale) SiO2 
 PCOD9018201
Probable space group: P -1
;
_chemical_formula_sum "Si O2"
_cell_formula_units_Z 16
_cell_length_a 10.568865
_cell_length_b 15.161650
_cell_length_c 8.217730
_cell_angle_alpha 93.456888
_cell_angle_beta 44.160373
_cell_angle_gamma 118.069409
_cell_volume 722.467618
_symmetry_space_group_name_H-M "P -1"
_symmetry_group_IT_number 2
_symmetry_cell_setting 'triclinic'
loop_
_space_group_symop_operation_xyz
x,y,z
-x,-y,-z
loop_
_atom_site_type_symbol
_atom_site_label
_atom_site_fract_x
_atom_site_fract_y
_atom_site_fract_z
Si Si1 0.908991 0.817298 0.011456
Si Si2 0.621218 0.105730 0.756199
Si Si3 0.381558 0.048351 0.495976
Si Si4 0.735038 0.901788 0.706859
Si Si5 0.142931 0.245370 0.309152
Si Si6 0.717684 0.644704 0.467191
Si Si7 0.750025 0.457951 0.279090
Si Si8 0.557304 0.228251 0.586531
O O1 0.861926 0.742932 0.882242
O O2 0.858874 0.749219 0.217988
O O3 0.716863 0.836415 0.167844
O O4 0.156111 0.939008 0.778764
O O5 0.658894 0.211761 0.646974
O O6 0.871846 0.149597 0.584162
O O7 0.529044 0.007999 0.698490
O O8 0.432051 0.075879 0.057599
O O9 0.301459 0.100454 0.450954
O O10 0.579294 0.157886 0.423488
O O11 0.706283 0.797026 0.798897
O O12 0.000000 0.000000 0.500000
O O13 0.220762 0.330419 0.395879
O O14 0.757402 0.556083 0.364988
O O15 0.450525 0.592199 0.677809
O O16 0.662367 0.353646 0.465065
O O17 0.000000 0.500000 0.000000
#
# Coordination Sequence:
#
# PCOD9018201 Si02
#       8
#     2   2   2   2   2   2   2   2
#     4  10  21  43  69 100 141 173 219 285 329 413
#     4  11  24  40  62  99 141 170 224 277 332 418
#     4  11  23  38  66 101 131 186 218 268 346 405
#     4  12  21  41  59  91 143 177 218 274 329 396
#     4  11  24  42  69  99 131 181 220 277 344 398
#     4  10  24  47  73  99 132 178 229 276 346 398
#     4  10  24  46  72  98 132 176 228 292 327 396
#     4  11  22  43  66  95 137 175 227 275 342 398
#
# _framework density 22.146322000000001
#
# number of rings (size 3 to 8) (size 9 to 14) (size 15 to 20)
#    0.000    1.250    3.750    2.625    3.500    3.000 
#    0.000    6.250    0.000    0.000    0.000    0.000 
#    0.000    0.000    0.000    0.000    0.000    0.000 
#
# Total GULP energy -89217.072140 kJ/mol
# GULP energy per Si atom -5576.067009 kJ/mol
# Density = 2.209592 g / cm^3
# Si number density = 22.146322 Si / 1000 Ang^3
#
#
#
# Elastic Constant Matrix: (Units=GPa)
#
#
# Indices 1 2 3 4 5 6 
#
# 1 70.7518 14.2793 15.9852 2.9545 2.3102 -10.3498
# 2 14.2793 85.0575 24.7491 12.4175 5.8712 -8.7065
# 3 15.9852 24.7491 91.5889 12.2654 -23.6559 -0.2778
# 4 2.9545 12.4175 12.2654 21.8470 -9.9152 3.9419
# 5 2.3102 5.8712 -23.6559 -9.9152 30.5926 8.8093
# 6 -10.3498 -8.7065 -0.2778 3.9419 8.8093 39.8163
#
#
#
# Elastic Compliance Matrix: (Units=1/GPa)
#
#
# Indices 1 2 3 4 5 6 
#
# 1 0.016514 0.000547 -0.004507 -0.005050 -0.008415 0.006743
# 2 0.000547 0.018201 -0.007255 -0.015727 -0.016942 0.009377
# 3 -0.004507 -0.007255 0.017996 0.004719 0.019299 -0.007370
# 4 -0.005050 -0.015727 0.004719 0.072886 0.036428 -0.019994
# 5 -0.008415 -0.016942 0.019299 0.036428 0.070492 -0.024960
# 6 0.006743 0.009377 -0.007370 -0.019994 -0.024960 0.036369
#
#
# Mechanical properties :
#
#
# Convention : Reuss Voigt Hill
#
# Bulk Modulus (GPa) = 33.02335 39.71393 36.36864
# Shear Modulus (GPa) = 18.86930 31.27682 25.07306
#
# Velocity S-wave (km/s) = 2.92212 3.76211 3.36840
# Velocity P-wave (km/s) = 5.13116 6.06982 5.62012
#
# Compressibility (1/GPa) = 0.03028161
#
# Stress axis : x y z
#
# Youngs Moduli (GPa) = 60.55570 54.94196 55.56830
#
# Poissons Ratio (x) = -0.03008 0.25044
# Poissons Ratio (y) = -0.03315 0.40315
# Poissons Ratio (z) = 0.27292 0.39860
#
# Static dielectric constant tensor:
#      x y z
#    x 3.105150 -0.028380 -0.569940 
#    y -0.028380 1.844390 0.033170 
#    z -0.569940 0.033170 2.215380 
# 
# From -- ./inp_files/270392.got.cif
#   From: 2010.05.17/outbox.cif.g08.bks.cpg/sg2_136_cif.got.tgz:270392.got - 2010.06.03 11:33:40.
