data_PCOD9018259
_publ_section_title
;
Structure prediction by ZEFSAII (Michael W. Deem and Ramdas Pophale) SiO2 
 PCOD9018259
Probable space group: P -1
;
_chemical_formula_sum "Si O2"
_cell_formula_units_Z 16
_cell_length_a 11.185880
_cell_length_b 8.722286
_cell_length_c 20.590191
_cell_angle_alpha 40.175126
_cell_angle_beta 143.062372
_cell_angle_gamma 113.044034
_cell_volume 642.274665
_symmetry_space_group_name_H-M "P -1"
_symmetry_group_IT_number 2
_symmetry_cell_setting 'triclinic'
loop_
_space_group_symop_operation_xyz
x,y,z
-x,-y,-z
loop_
_atom_site_type_symbol
_atom_site_label
_atom_site_fract_x
_atom_site_fract_y
_atom_site_fract_z
Si Si1 0.268830 0.200067 0.460783
Si Si2 0.688620 0.112471 0.855435
Si Si3 0.978159 0.147674 0.696573
Si Si4 0.840719 0.216508 0.760795
Si Si5 0.196360 0.217046 0.575708
Si Si6 0.490291 0.289754 0.912047
Si Si7 0.550093 0.351061 0.347918
Si Si8 0.230462 0.666831 0.798772
O O1 0.323232 0.441687 0.409374
O O2 0.256019 0.141049 0.550372
O O3 0.998287 0.325271 0.276256
O O4 0.457937 0.908347 0.599686
O O5 0.763579 0.070361 0.826235
O O6 0.441603 0.135738 0.744594
O O7 0.648326 0.410494 0.766303
O O8 0.894647 0.884123 0.066079
O O9 0.874112 0.146604 0.722388
O O10 0.979613 0.437902 0.603462
O O11 0.791239 0.206534 0.541461
O O12 0.237377 0.852967 0.896931
O O13 0.131997 0.002406 0.642472
O O14 0.456594 0.461393 0.776001
O O15 0.294068 0.510968 0.806586
O O16 0.500000 0.000000 0.000000
O O17 0.500000 0.500000 0.000000
#
# Coordination Sequence:
#
# PCOD9018259 Si02
#       8
#     2   2   2   2   2   2   2   2
#     4  11  23  41  61  92 129 167 208 264 314 377
#     4  10  22  42  69  95 123 169 214 264 318 379
#     4  10  23  40  64  92 125 165 214 261 311 380
#     4  10  21  43  69  92 127 165 216 264 316 381
#     4  10  22  39  63  90 127 166 213 253 315 383
#     4  12  25  40  62  91 131 168 212 263 313 374
#     4  11  24  41  63  94 129 164 213 262 319 375
#     4  12  25  40  64  92 130 172 209 259 319 381
#
# _framework density 24.911460999999999
#
# number of rings (size 3 to 8) (size 9 to 14) (size 15 to 20)
#    0.000    1.250    2.500    3.375    5.250    5.500 
#    0.000    0.000    0.000    3.750    0.000    0.000 
#    0.000    0.000    0.000    0.000    0.000    0.000 
#
# Total GULP energy -89537.195610 kJ/mol
# GULP energy per Si atom -5596.074726 kJ/mol
# Density = 2.485476 g / cm^3
# Si number density = 24.911461 Si / 1000 Ang^3
#
#
#
# Elastic Constant Matrix: (Units=GPa)
#
#
# Indices 1 2 3 4 5 6 
#
# 1 57.8730 5.1064 20.5640 -13.5693 1.1451 -11.7633
# 2 5.1064 79.6404 18.5900 -11.6857 4.9937 -12.2761
# 3 20.5640 18.5900 110.8684 9.5142 -2.2008 -8.7948
# 4 -13.5693 -11.6857 9.5142 39.6987 -12.5624 12.9273
# 5 1.1451 4.9937 -2.2008 -12.5624 36.3902 4.2757
# 6 -11.7633 -12.2761 -8.7948 12.9273 4.2757 28.4998
#
#
#
# Elastic Compliance Matrix: (Units=1/GPa)
#
#
# Indices 1 2 3 4 5 6 
#
# 1 0.021441 0.001428 -0.004506 0.007700 0.000994 0.004432
# 2 0.001428 0.014389 -0.002619 0.003314 -0.001588 0.004714
# 3 -0.004506 -0.002619 0.011132 -0.006686 -0.001570 0.003715
# 4 0.007700 0.003314 -0.006686 0.041259 0.015312 -0.018470
# 5 0.000994 -0.001588 -0.001570 0.015312 0.034368 -0.012860
# 6 0.004432 0.004714 0.003715 -0.018470 -0.012860 0.050401
#
#
# Mechanical properties :
#
#
# Convention : Reuss Voigt Hill
#
# Bulk Modulus (GPa) = 28.11612 37.43363 32.77488
# Shear Modulus (GPa) = 25.47887 34.52583 30.00235
#
# Velocity S-wave (km/s) = 3.20156 3.72686 3.47415
# Velocity P-wave (km/s) = 4.99775 5.79471 5.41092
#
# Compressibility (1/GPa) = 0.03556678
#
# Stress axis : x y z
#
# Youngs Moduli (GPa) = 46.63974 69.49878 89.83167
#
# Poissons Ratio (x) = -0.09923 0.40476
# Poissons Ratio (y) = -0.06659 0.23531
# Poissons Ratio (z) = 0.21015 0.18205
#
# Static dielectric constant tensor:
#      x y z
#    x 1.950250 0.013530 0.013970 
#    y 0.013530 1.987340 0.029890 
#    z 0.013970 0.029890 2.014180 
# 
# From -- ./inp_files/185743.got.cif
#   From: 2010.05.17/outbox.cif.g08.bks.cpg/sg2_93_cif.got.tgz:185743.got - 2010.06.03 11:33:40.
