data_PCOD9018760
_publ_section_title
;
Structure prediction by ZEFSAII (Michael W. Deem and Ramdas Pophale) SiO2 
 PCOD9018760
Probable space group: P -1
;
_chemical_formula_sum "Si O2"
_cell_formula_units_Z 14
_cell_length_a 9.309886
_cell_length_b 5.655301
_cell_length_c 16.886020
_cell_angle_alpha 100.979753
_cell_angle_beta 78.011673
_cell_angle_gamma 143.087265
_cell_volume 521.867191
_symmetry_space_group_name_H-M "P -1"
_symmetry_group_IT_number 2
_symmetry_cell_setting 'triclinic'
loop_
_space_group_symop_operation_xyz
x,y,z
-x,-y,-z
loop_
_atom_site_type_symbol
_atom_site_label
_atom_site_fract_x
_atom_site_fract_y
_atom_site_fract_z
Si Si1 0.800101 0.544475 0.397910
Si Si2 0.875837 0.074180 0.979714
Si Si3 0.852252 0.676933 0.821435
Si Si4 0.511980 0.348350 0.279712
Si Si5 0.105168 0.525178 0.340868
Si Si6 0.656075 0.842202 0.146240
Si Si7 0.685538 0.529732 0.574462
O O1 0.695004 0.423566 0.313947
O O2 0.877189 0.367620 0.389210
O O3 0.640850 0.441047 0.481369
O O4 0.051187 0.008838 0.413958
O O5 0.858593 0.943563 0.883981
O O6 0.000000 0.500000 0.000000
O O7 0.657069 0.816419 0.049923
O O8 0.000000 0.000000 0.000000
O O9 0.562816 0.253027 0.824619
O O10 0.931189 0.758275 0.726587
O O11 0.056472 0.767794 0.842886
O O12 0.584820 0.534425 0.196176
O O13 0.487494 0.544337 0.354179
O O14 0.250190 0.887475 0.287549
O O15 0.276557 0.679238 0.402626
#
# Coordination Sequence:
#
# PCOD9018760 Si02
#       7
#     2   2   2   2   2   2   2
#     4  10  23  40  69  95 143 199 251 328 375 465
#     4  10  25  52  82 118 158 204 260 320 392 470
#     4  11  25  47  75 109 150 198 248 317 384 463
#     4  11  24  40  67 103 144 195 257 314 387 456
#     4  11  24  40  67 103 145 193 259 312 388 456
#     4  11  25  47  76 109 151 198 248 316 384 462
#     4  10  21  44  62  99 143 193 258 316 391 453
#
# _framework density 26.826751000000002
#
# number of rings (size 3 to 8) (size 9 to 14) (size 15 to 20)
#    0.000    1.429    1.429    2.143    4.000    6.286 
#    2.571    6.429    0.000    0.000    0.000    0.000 
#    0.000    0.000    0.000    0.000    0.000    0.000 
#
# Total GULP energy -77992.144430 kJ/mol
# GULP energy per Si atom -5570.867459 kJ/mol
# Density = 2.676569 g / cm^3
# Si number density = 26.826751 Si / 1000 Ang^3
#
#
#
# Elastic Constant Matrix: (Units=GPa)
#
#
# Indices 1 2 3 4 5 6 
#
# 1 119.1471 7.0697 18.5407 7.6311 -18.9629 13.6259
# 2 7.0697 102.2835 32.2055 19.6900 9.0718 -11.9389
# 3 18.5407 32.2055 146.6425 19.9438 -15.8097 -24.8516
# 4 7.6311 19.6900 19.9438 41.0741 9.4949 14.3126
# 5 -18.9629 9.0718 -15.8097 9.4949 53.1580 -1.9012
# 6 13.6259 -11.9389 -24.8516 14.3126 -1.9012 37.6502
#
#
#
# Elastic Compliance Matrix: (Units=1/GPa)
#
#
# Indices 1 2 3 4 5 6 
#
# 1 0.009702 -0.001120 -0.001593 0.000577 0.002897 -0.004991
# 2 -0.001120 0.012370 -0.000489 -0.007630 -0.001048 0.006852
# 3 -0.001593 -0.000489 0.011047 -0.010112 0.005030 0.011811
# 4 0.000577 -0.007630 -0.010112 0.044538 -0.010412 -0.026760
# 5 0.002897 -0.001048 0.005030 -0.010412 0.023633 0.007091
# 6 -0.004991 0.006852 0.011811 -0.026760 0.007091 0.048866
#
#
# Mechanical properties :
#
#
# Convention : Reuss Voigt Hill
#
# Bulk Modulus (GPa) = 37.43044 53.74499 45.58771
# Shear Modulus (GPa) = 30.21786 47.06028 38.63907
#
# Velocity S-wave (km/s) = 3.35984 4.19290 3.79927
# Velocity P-wave (km/s) = 5.38835 6.59682 6.02297
#
# Compressibility (1/GPa) = 0.02671622
#
# Stress axis : x y z
#
# Youngs Moduli (GPa) = 103.07051 80.84293 90.51987
#
# Poissons Ratio (x) = 0.09051 0.14417
# Poissons Ratio (y) = 0.11540 0.04427
# Poissons Ratio (z) = 0.16416 0.03954
#
# Static dielectric constant tensor:
#      x y z
#    x 1.931490 0.050840 0.078860 
#    y 0.050840 2.239080 0.012090 
#    z 0.078860 0.012090 2.097600 
# 
# From -- ./inp_files/585329.got.cif
#   From: 2010.05.17/outbox.cif.g08.bks.cpg/sg2_293_cif.got.tgz:585329.got - 2010.06.03 11:33:40.
