data_PCOD9018842
_publ_section_title
;
Structure prediction by ZEFSAII (Michael W. Deem and Ramdas Pophale) SiO2 
 PCOD9018842
Probable space group: P -1
;
_chemical_formula_sum "Si O2"
_cell_formula_units_Z 16
_cell_length_a 13.962231
_cell_length_b 8.692925
_cell_length_c 14.133187
_cell_angle_alpha 124.490652
_cell_angle_beta 138.810455
_cell_angle_gamma 85.865464
_cell_volume 705.764865
_symmetry_space_group_name_H-M "P -1"
_symmetry_group_IT_number 2
_symmetry_cell_setting 'triclinic'
loop_
_space_group_symop_operation_xyz
x,y,z
-x,-y,-z
loop_
_atom_site_type_symbol
_atom_site_label
_atom_site_fract_x
_atom_site_fract_y
_atom_site_fract_z
Si Si1 0.174652 0.520500 0.874398
Si Si2 0.554339 0.581321 0.924780
Si Si3 0.610446 0.637255 0.760420
Si Si4 0.934400 0.171427 0.104660
Si Si5 0.275581 0.543779 0.360848
Si Si6 0.101655 0.920110 0.606313
Si Si7 0.131369 0.188290 0.425215
Si Si8 0.925673 0.290471 0.792171
O O1 0.350207 0.525161 0.996952
O O2 0.203136 0.764017 0.976269
O O3 0.002677 0.342163 0.608834
O O4 0.087074 0.403583 0.871540
O O5 0.671762 0.853927 0.150629
O O6 0.591435 0.616182 0.851110
O O7 0.327260 0.389460 0.697072
O O8 0.427139 0.586840 0.562050
O O9 0.640272 0.456549 0.676696
O O10 0.793188 0.890908 0.936253
O O11 0.063532 0.288886 0.146424
O O12 0.097711 0.295724 0.349789
O O13 0.245571 0.740075 0.397890
O O14 0.036711 0.901820 0.658375
O O15 0.000000 0.000000 0.500000
O O16 0.129145 0.968523 0.313862
O O17 0.000000 0.500000 0.000000
#
# Coordination Sequence:
#
# PCOD9018842 Si02
#       8
#     2   2   2   2   2   2   2   2
#     4  10  23  42  65  93 126 163 216 255 319 369
#     4  11  22  41  65  93 122 170 212 255 313 376
#     4  11  21  41  62  89 131 171 203 262 309 375
#     4  11  22  40  63  92 126 163 208 263 315 366
#     4  10  23  38  61  93 127 165 217 251 312 371
#     4  10  21  44  65  89 127 166 208 268 307 374
#     4  12  23  40  68  93 125 167 214 256 317 372
#     4  11  22  42  66  92 131 167 205 264 310 375
#
# _framework density 22.670439999999999
#
# number of rings (size 3 to 8) (size 9 to 14) (size 15 to 20)
#    0.000    1.250    5.000    1.875    1.750    3.500 
#    0.000    1.875    0.000    0.000    0.000    0.000 
#    0.000    0.000    0.000    0.000    0.000    0.000 
#
# Total GULP energy -89220.374269 kJ/mol
# GULP energy per Si atom -5576.273392 kJ/mol
# Density = 2.261884 g / cm^3
# Si number density = 22.670440 Si / 1000 Ang^3
#
#
#
# Elastic Constant Matrix: (Units=GPa)
#
#
# Indices 1 2 3 4 5 6 
#
# 1 42.7198 4.4814 2.6224 -0.3765 -4.1488 11.0449
# 2 4.4814 64.8849 -11.2334 -8.3156 11.5485 -3.6980
# 3 2.6224 -11.2334 76.1522 -0.3931 20.0457 -6.0913
# 4 -0.3765 -8.3156 -0.3931 18.2810 -4.2776 3.8832
# 5 -4.1488 11.5485 20.0457 -4.2776 31.5764 -13.1844
# 6 11.0449 -3.6980 -6.0913 3.8832 -13.1844 25.4699
#
#
#
# Elastic Compliance Matrix: (Units=1/GPa)
#
#
# Indices 1 2 3 4 5 6 
#
# 1 0.027297 -0.003089 -0.002796 0.002112 0.001574 -0.012462
# 2 -0.003089 0.019282 0.005695 0.006559 -0.010595 -0.000984
# 3 -0.002796 0.005695 0.017708 -0.000179 -0.014141 -0.001019
# 4 0.002112 0.006559 -0.000179 0.060034 0.002935 -0.007640
# 5 0.001574 -0.010595 -0.014141 0.002935 0.054346 0.022082
# 6 -0.012462 -0.000984 -0.001019 -0.007640 0.022082 0.056875
#
#
# Mechanical properties :
#
#
# Convention : Reuss Voigt Hill
#
# Bulk Modulus (GPa) = 15.64789 19.49974 17.57381
# Shear Modulus (GPa) = 19.43823 27.59123 23.51473
#
# Velocity S-wave (km/s) = 2.93136 3.49242 3.22412
# Velocity P-wave (km/s) = 4.28655 4.98826 4.65066
#
# Compressibility (1/GPa) = 0.06390637
#
# Stress axis : x y z
#
# Youngs Moduli (GPa) = 36.63348 51.86311 56.47177
#
# Poissons Ratio (x) = 0.16021 0.15789
# Poissons Ratio (y) = 0.11316 -0.32160
# Poissons Ratio (z) = 0.10243 -0.29535
#
# Static dielectric constant tensor:
#      x y z
#    x 1.229000 -0.270240 0.112920 
#    y -0.270240 1.694720 0.081030 
#    z 0.112920 0.081030 1.908840 
# 
# From -- ./inp_files/313298.got.cif
#   From: 2010.05.17/outbox.cif.g08.bks.cpg/sg2_157_cif.got.tgz:313298.got - 2010.06.03 11:33:40.
