data_PCOD9018250
_publ_section_title
;
Structure prediction by ZEFSAII (Michael W. Deem and Ramdas Pophale) SiO2 
 PCOD9018250
Probable space group: P -1
;
_chemical_formula_sum "Si O2"
_cell_formula_units_Z 16
_cell_length_a 11.205389
_cell_length_b 10.352859
_cell_length_c 8.989372
_cell_angle_alpha 63.441933
_cell_angle_beta 58.958045
_cell_angle_gamma 97.601843
_cell_volume 703.962723
_symmetry_space_group_name_H-M "P -1"
_symmetry_group_IT_number 2
_symmetry_cell_setting 'triclinic'
loop_
_space_group_symop_operation_xyz
x,y,z
-x,-y,-z
loop_
_atom_site_type_symbol
_atom_site_label
_atom_site_fract_x
_atom_site_fract_y
_atom_site_fract_z
Si Si1 0.609042 0.374598 0.122527
Si Si2 0.380663 0.376288 0.516750
Si Si3 0.161387 0.810339 0.357762
Si Si4 0.668527 0.091156 0.266689
Si Si5 0.853572 0.730899 0.717349
Si Si6 0.149318 0.966731 0.571285
Si Si7 0.300067 0.098480 0.919022
Si Si8 0.397173 0.671973 0.193717
O O1 0.477836 0.329403 0.357545
O O2 0.709943 0.280408 0.138551
O O3 0.288459 0.429979 0.045078
O O4 0.558965 0.328746 0.006753
O O5 0.500000 0.500000 0.500000
O O6 0.267701 0.217390 0.768651
O O7 0.325014 0.488279 0.402547
O O8 0.227052 0.902794 0.426202
O O9 0.268648 0.734466 0.269231
O O10 0.977043 0.688677 0.570930
O O11 0.166608 0.952303 0.174353
O O12 0.795019 0.062892 0.292712
O O13 0.500000 0.000000 0.500000
O O14 0.644788 0.004729 0.169155
O O15 0.964646 0.848480 0.716282
O O16 0.811152 0.848205 0.584639
O O17 0.443511 0.211342 0.878372
#
# Coordination Sequence:
#
# PCOD9018250 Si02
#       8
#     2   2   2   2   2   2   2   2
#     4  12  25  41  66  97 136 176 225 265 333 404
#     4  10  25  39  62  98 135 167 215 281 337 384
#     4  10  21  43  69  90 129 176 224 265 324 397
#     4  12  24  40  67 101 133 169 222 280 335 390
#     4   9  24  45  70  94 127 185 230 261 325 399
#     4   9  23  44  70  91 129 181 225 270 327 395
#     4  11  23  41  63  99 134 168 219 276 341 384
#     4  11  24  40  65  99 134 179 211 280 336 393
#
# _framework density 22.728477999999999
#
# number of rings (size 3 to 8) (size 9 to 14) (size 15 to 20)
#    0.750    0.750    2.500    1.500    8.750    1.000 
#    0.000    1.875    0.000    0.000    0.000    0.000 
#    0.000    0.000    0.000    0.000    0.000    0.000 
#
# Total GULP energy -89366.745545 kJ/mol
# GULP energy per Si atom -5585.421597 kJ/mol
# Density = 2.267675 g / cm^3
# Si number density = 22.728478 Si / 1000 Ang^3
#
#
#
# Elastic Constant Matrix: (Units=GPa)
#
#
# Indices 1 2 3 4 5 6 
#
# 1 81.2722 29.1034 24.5152 -6.2255 25.4474 -7.0398
# 2 29.1034 106.1475 19.2968 6.2763 12.9633 -9.1340
# 3 24.5152 19.2968 78.4656 -1.1591 18.6119 -1.4065
# 4 -6.2255 6.2763 -1.1591 49.7356 -8.1205 10.5218
# 5 25.4474 12.9633 18.6119 -8.1205 32.6849 -3.4760
# 6 -7.0398 -9.1340 -1.4065 10.5218 -3.4760 31.9987
#
#
#
# Elastic Compliance Matrix: (Units=1/GPa)
#
#
# Indices 1 2 3 4 5 6 
#
# 1 0.017652 -0.002986 -0.002117 0.000387 -0.011087 0.001607
# 2 -0.002986 0.011131 -0.001400 -0.002752 -0.001638 0.003186
# 3 -0.002117 -0.001400 0.015334 -0.000689 -0.006774 -0.000701
# 4 0.000387 -0.002752 -0.000689 0.023105 0.006108 -0.007665
# 5 -0.011087 -0.001638 -0.006774 0.006108 0.045220 -0.000301
# 6 0.001607 0.003186 -0.000701 -0.007665 -0.000301 0.034971
#
#
# Mechanical properties :
#
#
# Convention : Reuss Voigt Hill
#
# Bulk Modulus (GPa) = 32.14021 45.74621 38.94321
# Shear Modulus (GPa) = 29.27608 35.74849 32.51229
#
# Velocity S-wave (km/s) = 3.59288 3.97022 3.78625
# Velocity P-wave (km/s) = 5.60208 6.41777 6.02375
#
# Compressibility (1/GPa) = 0.03111367
#
# Stress axis : x y z
#
# Youngs Moduli (GPa) = 56.64999 89.84026 65.21434
#
# Poissons Ratio (x) = 0.26824 0.13803
# Poissons Ratio (y) = 0.16914 0.09127
# Poissons Ratio (z) = 0.11990 0.12573
#
# Static dielectric constant tensor:
#      x y z
#    x 1.837560 -0.001130 0.020090 
#    y -0.001130 1.885820 0.001070 
#    z 0.020090 0.001070 1.864300 
# 
# From -- ./inp_files/247127.got.cif
#   From: 2010.05.17/outbox.cif.g08.bks.cpg/sg2_124_cif.got.tgz:247127.got - 2010.06.03 11:33:40.
