data_PCOD9018906
_publ_section_title
;
Structure prediction by ZEFSAII (Michael W. Deem and Ramdas Pophale) SiO2 
 PCOD9018906
Probable space group: P -1
;
_chemical_formula_sum "Si O2"
_cell_formula_units_Z 16
_cell_length_a 15.059080
_cell_length_b 11.944256
_cell_length_c 9.820072
_cell_angle_alpha 98.222629
_cell_angle_beta 50.646373
_cell_angle_gamma 137.538822
_cell_volume 721.851158
_symmetry_space_group_name_H-M "P -1"
_symmetry_group_IT_number 2
_symmetry_cell_setting 'triclinic'
loop_
_space_group_symop_operation_xyz
x,y,z
-x,-y,-z
loop_
_atom_site_type_symbol
_atom_site_label
_atom_site_fract_x
_atom_site_fract_y
_atom_site_fract_z
Si Si1 0.797926 0.514635 0.619902
Si Si2 0.551513 0.595352 0.110437
Si Si3 0.565426 0.078337 0.792873
Si Si4 0.910088 0.343031 0.858072
Si Si5 0.010229 0.045342 0.840447
Si Si6 0.030429 0.692715 0.696969
Si Si7 0.880197 0.618268 0.116706
Si Si8 0.461259 0.366363 0.405850
O O1 0.632181 0.462830 0.703210
O O2 0.677196 0.293819 0.713847
O O3 0.001946 0.663272 0.350295
O O4 0.882310 0.617291 0.706124
O O5 0.534035 0.480535 0.214751
O O6 0.500000 0.500000 0.000000
O O7 0.787928 0.842893 0.944038
O O8 0.735846 0.134887 0.567219
O O9 0.500000 0.000000 0.000000
O O10 0.336888 0.885478 0.906763
O O11 0.941336 0.494648 0.795141
O O12 0.051193 0.429941 0.867369
O O13 0.068810 0.226602 0.819298
O O14 0.207657 0.137055 0.604868
O O15 0.000000 0.000000 0.000000
O O16 0.008717 0.737584 0.869926
O O17 0.626191 0.406226 0.293194
O O18 0.500000 0.500000 0.500000
#
# Coordination Sequence:
#
# PCOD9018906 Si02
#       8
#     2   2   2   2   2   2   2   2
#     4  11  22  38  68  87 126 171 210 260 330 373
#     4  12  25  43  67 101 130 165 224 275 314 384
#     4  11  20  42  64  90 128 168 212 264 319 386
#     4  11  22  41  64  90 125 171 212 260 325 385
#     4  11  23  44  68  93 133 176 215 261 330 392
#     4  11  23  41  61  96 128 163 214 273 313 380
#     4  11  23  42  66  94 130 170 217 265 326 381
#     4  10  21  44  66  89 133 172 210 263 325 384
#
# _framework density 22.165232
#
# number of rings (size 3 to 8) (size 9 to 14) (size 15 to 20)
#    0.000    1.000    5.000    4.125    0.000    1.000 
#    2.250    1.250    0.000    0.000    0.000    0.000 
#    0.000    0.000    0.000    0.000    0.000    0.000 
#
# Total GULP energy -89447.757754 kJ/mol
# GULP energy per Si atom -5590.484860 kJ/mol
# Density = 2.211478 g / cm^3
# Si number density = 22.165232 Si / 1000 Ang^3
#
#
#
# Elastic Constant Matrix: (Units=GPa)
#
#
# Indices 1 2 3 4 5 6 
#
# 1 95.2086 27.3395 17.9799 -5.9149 -13.4620 31.5845
# 2 27.3395 67.8876 36.7283 -4.4560 -10.8326 25.5043
# 3 17.9799 36.7283 122.9576 -10.1344 -21.5730 19.6917
# 4 -5.9149 -4.4560 -10.1344 35.3496 13.5682 -0.4273
# 5 -13.4620 -10.8326 -21.5730 13.5682 40.4726 -5.2123
# 6 31.5845 25.5043 19.6917 -0.4273 -5.2123 35.6005
#
#
#
# Elastic Compliance Matrix: (Units=1/GPa)
#
#
# Indices 1 2 3 4 5 6 
#
# 1 0.015492 -0.001289 0.000833 0.001298 0.003168 -0.012802
# 2 -0.001289 0.022474 -0.004218 0.000677 0.001515 -0.012393
# 3 0.000833 -0.004218 0.010536 0.001044 0.004035 -0.002941
# 4 0.001298 0.000677 0.001044 0.032784 -0.010249 -0.003320
# 5 0.003168 0.001515 0.004035 -0.010249 0.031544 -0.001633
# 6 -0.012802 -0.012393 -0.002941 -0.003320 -0.001633 0.049674
#
#
# Mechanical properties :
#
#
# Convention : Reuss Voigt Hill
#
# Bulk Modulus (GPa) = 25.54142 50.01658 37.77900
# Shear Modulus (GPa) = 27.04118 35.88495 31.46306
#
# Velocity S-wave (km/s) = 3.49661 4.02801 3.77168
# Velocity P-wave (km/s) = 5.27730 6.65188 6.00406
#
# Compressibility (1/GPa) = 0.03915210
#
# Stress axis : x y z
#
# Youngs Moduli (GPa) = 64.55141 44.49668 94.91072
#
# Poissons Ratio (x) = 0.05737 -0.07904
# Poissons Ratio (y) = 0.08322 0.40035
# Poissons Ratio (z) = -0.05375 0.18769
#
# Static dielectric constant tensor:
#      x y z
#    x 1.818390 -0.024270 -0.042210 
#    y -0.024270 1.847210 0.021360 
#    z -0.042210 0.021360 1.847610 
# 
# From -- ./inp_files/313315.got.cif
#   From: 2010.05.17/outbox.cif.g08.bks.cpg/sg2_157_cif.got.tgz:313315.got - 2010.06.03 11:33:40.
