data_PCOD9018966
_publ_section_title
;
Structure prediction by ZEFSAII (Michael W. Deem and Ramdas Pophale) SiO2 
 PCOD9018966
Probable space group: P -1
;
_chemical_formula_sum "Si O2"
_cell_formula_units_Z 12
_cell_length_a 7.557044
_cell_length_b 7.389440
_cell_length_c 13.731431
_cell_angle_alpha 60.190976
_cell_angle_beta 138.015880
_cell_angle_gamma 109.552383
_cell_volume 444.258162
_symmetry_space_group_name_H-M "P -1"
_symmetry_group_IT_number 2
_symmetry_cell_setting 'triclinic'
loop_
_space_group_symop_operation_xyz
x,y,z
-x,-y,-z
loop_
_atom_site_type_symbol
_atom_site_label
_atom_site_fract_x
_atom_site_fract_y
_atom_site_fract_z
Si Si1 0.826636 0.265553 0.212893
Si Si2 0.773822 0.821630 0.357864
Si Si3 0.457809 0.375394 0.866725
Si Si4 0.689636 0.669303 0.738343
Si Si5 0.798004 0.055326 0.816622
Si Si6 0.749198 0.411834 0.561813
O O1 0.675041 0.428747 0.179739
O O2 0.079974 0.356586 0.240578
O O3 0.912573 0.038901 0.352058
O O4 0.613655 0.232967 0.048005
O O5 0.732901 0.737561 0.254513
O O6 0.874453 0.618350 0.514897
O O7 0.484830 0.882892 0.267386
O O8 0.668517 0.471902 0.853116
O O9 0.753626 0.863984 0.778203
O O10 0.401239 0.696887 0.560512
O O11 0.887294 0.243773 0.735588
O O12 0.000000 0.000000 0.000000
O O13 0.500000 0.500000 0.500000
#
# Coordination Sequence:
#
# PCOD9018966 Si02
#       6
#     2   2   2   2   2   2
#     4  11  22  40  66 106 140 184 235 291 348 414
#     4  10  21  44  66  98 147 178 231 294 344 413
#     4  10  22  40  64 101 150 181 234 293 345 411
#     4  11  22  43  72 101 141 187 232 286 359 412
#     4  11  22  41  74 105 135 187 235 283 354 418
#     4   9  22  44  69  98 144 186 228 290 348 422
#
# _framework density 27.011323000000001
#
# number of rings (size 3 to 8) (size 9 to 14) (size 15 to 20)
#    0.000    1.667    1.667    2.500    0.000    2.667 
#    9.000    4.167    0.000    0.000    0.000    0.000 
#    0.000    0.000    0.000    0.000    0.000    0.000 
#
# Total GULP energy -67335.018799 kJ/mol
# GULP energy per Si atom -5611.251567 kJ/mol
# Density = 2.694984 g / cm^3
# Si number density = 27.011323 Si / 1000 Ang^3
#
#
#
# Elastic Constant Matrix: (Units=GPa)
#
#
# Indices 1 2 3 4 5 6 
#
# 1 154.9495 30.7964 -7.1904 -16.3217 -17.0734 11.9774
# 2 30.7964 161.7285 45.6294 -13.5211 -25.5576 -11.6182
# 3 -7.1904 45.6294 176.1731 -4.3682 -25.6145 6.1150
# 4 -16.3217 -13.5211 -4.3682 39.2593 0.7739 -8.1018
# 5 -17.0734 -25.5576 -25.6145 0.7739 37.2870 -1.6911
# 6 11.9774 -11.6182 6.1150 -8.1018 -1.6911 38.3371
#
#
#
# Elastic Compliance Matrix: (Units=1/GPa)
#
#
# Indices 1 2 3 4 5 6 
#
# 1 0.007543 -0.001237 0.001246 0.002310 0.003310 -0.002296
# 2 -0.001237 0.008002 -0.001617 0.002775 0.003924 0.003829
# 3 0.001246 -0.001617 0.006802 0.000282 0.004051 -0.001726
# 4 0.002310 0.002775 0.000282 0.028654 0.002842 0.006255
# 5 0.003310 0.003924 0.004051 0.002842 0.033821 0.001601
# 6 -0.002296 0.003829 -0.001726 0.006255 0.001601 0.029630
#
#
# Mechanical properties :
#
#
# Convention : Reuss Voigt Hill
#
# Bulk Modulus (GPa) = 52.26633 70.14689 61.20661
# Shear Modulus (GPa) = 40.30887 51.21774 45.76331
#
# Velocity S-wave (km/s) = 3.86721 4.35921 4.12056
# Velocity P-wave (km/s) = 6.27154 7.16679 6.73406
#
# Compressibility (1/GPa) = 0.01913278
#
# Stress axis : x y z
#
# Youngs Moduli (GPa) = 132.57559 124.97018 147.02208
#
# Poissons Ratio (x) = 0.15455 -0.18325
# Poissons Ratio (y) = 0.16396 0.23767
# Poissons Ratio (z) = -0.16525 0.20202
#
# Static dielectric constant tensor:
#      x y z
#    x 2.165250 0.006710 0.052500 
#    y 0.006710 2.099290 0.043450 
#    z 0.052500 0.043450 2.121730 
# 
# From -- ./inp_files/492190.got.cif
#   From: 2010.05.17/outbox.cif.g08.bks.cpg/sg2_247_cif.got.tgz:492190.got - 2010.06.03 11:33:40.
