data_PCOD9018493
_publ_section_title
;
Structure prediction by ZEFSAII (Michael W. Deem and Ramdas Pophale) SiO2 
 PCOD9018493
Probable space group: P -1
;
_chemical_formula_sum "Si O2"
_cell_formula_units_Z 16
_cell_length_a 8.863759
_cell_length_b 14.890314
_cell_length_c 8.422277
_cell_angle_alpha 51.578359
_cell_angle_beta 71.872103
_cell_angle_gamma 99.743561
_cell_volume 722.896693
_symmetry_space_group_name_H-M "P -1"
_symmetry_group_IT_number 2
_symmetry_cell_setting 'triclinic'
loop_
_space_group_symop_operation_xyz
x,y,z
-x,-y,-z
loop_
_atom_site_type_symbol
_atom_site_label
_atom_site_fract_x
_atom_site_fract_y
_atom_site_fract_z
Si Si1 0.647270 0.708336 0.240710
Si Si2 0.027627 0.299373 0.005201
Si Si3 0.890435 0.224758 0.481960
Si Si4 0.254008 0.353669 0.381949
Si Si5 0.383030 0.616971 0.883544
Si Si6 0.407119 0.058370 0.081292
Si Si7 0.744586 0.416273 0.401314
Si Si8 0.634046 0.141757 0.224550
O O1 0.706628 0.669330 0.427115
O O2 0.430332 0.612177 0.404509
O O3 0.789075 0.710721 0.063528
O O4 0.657836 0.849815 0.085311
O O5 0.977160 0.293943 0.211673
O O6 0.848452 0.185857 0.102965
O O7 0.084690 0.445004 0.763536
O O8 0.787614 0.296795 0.514641
O O9 0.052874 0.246802 0.518985
O O10 0.762071 0.072975 0.652220
O O11 0.406101 0.344691 0.234753
O O12 0.281566 0.496791 0.170404
O O13 0.308257 0.574742 0.775240
O O14 0.369286 0.743676 0.797071
O O15 0.547960 0.137941 0.086418
O O16 0.500000 0.000000 0.000000
O O17 0.500000 0.000000 0.500000
#
# Coordination Sequence:
#
# PCOD9018493 Si02
#       8
#     2   2   2   2   2   2   2   2
#     4  11  28  45  69 106 148 184 230 297 352 417
#     4  12  25  43  73 113 138 176 239 293 347 417
#     4  12  23  45  75 101 138 190 238 282 351 425
#     4  10  24  42  71 105 140 182 233 286 353 412
#     4  10  21  43  71 103 141 185 230 285 348 419
#     4  12  28  50  70  95 143 194 232 286 361 418
#     4  11  21  46  75 104 147 186 224 292 357 419
#     4  12  26  45  72 103 140 184 241 287 346 418
#
# _framework density 22.133175999999999
#
# number of rings (size 3 to 8) (size 9 to 14) (size 15 to 20)
#    0.000    0.750    5.000    1.500    5.250    3.000 
#    0.000    1.875    0.000    0.000    0.000    0.000 
#    0.000    0.000    0.000    0.000    0.000    0.000 
#
# Total GULP energy -89486.692422 kJ/mol
# GULP energy per Si atom -5592.918276 kJ/mol
# Density = 2.208280 g / cm^3
# Si number density = 22.133176 Si / 1000 Ang^3
#
#
#
# Elastic Constant Matrix: (Units=GPa)
#
#
# Indices 1 2 3 4 5 6 
#
# 1 93.6678 31.7046 36.7195 0.9248 -14.3389 4.9477
# 2 31.7046 73.6988 28.5606 -9.5755 -11.2978 -10.7547
# 3 36.7195 28.5606 105.1583 -20.2236 -15.4589 -5.2989
# 4 0.9248 -9.5755 -20.2236 29.1393 -3.3697 -4.0637
# 5 -14.3389 -11.2978 -15.4589 -3.3697 39.8784 -6.4818
# 6 4.9477 -10.7547 -5.2989 -4.0637 -6.4818 38.3896
#
#
#
# Elastic Compliance Matrix: (Units=1/GPa)
#
#
# Indices 1 2 3 4 5 6 
#
# 1 0.015119 -0.006064 -0.005116 -0.006679 0.000358 -0.005000
# 2 -0.006064 0.019296 -0.000475 0.007874 0.005036 0.007805
# 3 -0.005116 -0.000475 0.014666 0.011467 0.005441 0.004683
# 4 -0.006679 0.007874 0.011467 0.047847 0.010176 0.011433
# 5 0.000358 0.005036 0.005441 0.010176 0.030970 0.008422
# 6 -0.005000 0.007805 0.004683 0.011433 0.008422 0.032158
#
#
# Mechanical properties :
#
#
# Convention : Reuss Voigt Hill
#
# Bulk Modulus (GPa) = 38.80452 51.83270 45.31861
# Shear Modulus (GPa) = 26.04740 33.18413 29.61577
#
# Velocity S-wave (km/s) = 3.43424 3.87627 3.66193
# Velocity P-wave (km/s) = 5.77025 6.59571 6.19674
#
# Compressibility (1/GPa) = 0.02577020
#
# Stress axis : x y z
#
# Youngs Moduli (GPa) = 66.14155 51.82493 68.18346
#
# Poissons Ratio (x) = 0.31427 0.34884
# Poissons Ratio (y) = 0.40108 0.03240
# Poissons Ratio (z) = 0.33840 0.02463
#
# Static dielectric constant tensor:
#      x y z
#    x 1.844810 0.008000 -0.025910 
#    y 0.008000 1.788840 -0.003220 
#    z -0.025910 -0.003220 1.856560 
# 
# From -- ./inp_files/205530.got.cif
#   From: 2010.05.17/outbox.cif.g08.bks.cpg/sg2_103_cif.got.tgz:205530.got - 2010.06.03 11:33:40.
