data_PCOD9018365
_publ_section_title
;
Structure prediction by ZEFSAII (Michael W. Deem and Ramdas Pophale) SiO2 
 PCOD9018365
Probable space group: P -1
;
_chemical_formula_sum "Si O2"
_cell_formula_units_Z 14
_cell_length_a 9.440989
_cell_length_b 11.231575
_cell_length_c 7.119956
_cell_angle_alpha 60.180983
_cell_angle_beta 122.032340
_cell_angle_gamma 127.138649
_cell_volume 492.401844
_symmetry_space_group_name_H-M "P -1"
_symmetry_group_IT_number 2
_symmetry_cell_setting 'triclinic'
loop_
_space_group_symop_operation_xyz
x,y,z
-x,-y,-z
loop_
_atom_site_type_symbol
_atom_site_label
_atom_site_fract_x
_atom_site_fract_y
_atom_site_fract_z
Si Si1 0.827457 0.733659 0.120313
Si Si2 0.215658 0.030301 0.628065
Si Si3 0.902651 0.301549 0.171404
Si Si4 0.296172 0.591574 0.799463
Si Si5 0.229568 0.753485 0.291682
Si Si6 0.638656 0.916227 0.886663
Si Si7 0.696016 0.653434 0.524044
O O1 0.697748 0.569178 0.059606
O O2 0.769271 0.704384 0.321546
O O3 0.035532 0.755597 0.215172
O O4 0.794411 0.878487 0.923047
O O5 0.330312 0.207376 0.505733
O O6 0.195031 0.868730 0.665021
O O7 0.291978 0.038838 0.886014
O O8 0.000000 0.000000 0.500000
O O9 0.883271 0.420425 0.203264
O O10 0.120913 0.348251 0.254905
O O11 0.791077 0.283921 0.913857
O O12 0.267657 0.634402 0.534678
O O13 0.463760 0.746001 0.882239
O O14 0.380029 0.931944 0.301086
O O15 0.500000 0.500000 0.500000
#
# Coordination Sequence:
#
# PCOD9018365 Si02
#       7
#     2   2   2   2   2   2   2
#     4  11  24  47  68  99 146 187 230 288 348 418
#     4   8  18  40  67  96 133 176 230 283 336 409
#     4  10  23  44  72  98 141 188 226 283 359 409
#     4  12  25  46  69 105 151 178 228 298 344 413
#     4  11  24  45  74 102 137 187 237 281 353 417
#     4  10  23  44  73 103 135 189 238 282 347 415
#     4  10  21  43  70 102 136 184 235 287 345 414
#
# _framework density 28.432062999999999
#
# number of rings (size 3 to 8) (size 9 to 14) (size 15 to 20)
#    0.000    1.714    1.429    1.714    0.000    6.286 
#   12.857    0.000    0.000    0.000    0.000    0.000 
#    0.000    0.000    0.000    0.000    0.000    0.000 
#
# Total GULP energy -78463.603750 kJ/mol
# GULP energy per Si atom -5604.543125 kJ/mol
# Density = 2.836735 g / cm^3
# Si number density = 28.432063 Si / 1000 Ang^3
#
#
#
# Elastic Constant Matrix: (Units=GPa)
#
#
# Indices 1 2 3 4 5 6 
#
# 1 75.2970 16.9406 4.4336 0.6510 -6.1730 -1.2392
# 2 16.9406 209.0618 12.6679 -4.3174 11.3215 -4.7039
# 3 4.4336 12.6679 98.9300 20.9978 -16.9558 -0.4400
# 4 0.6510 -4.3174 20.9978 52.2633 -0.5005 16.0666
# 5 -6.1730 11.3215 -16.9558 -0.5005 33.5275 4.1306
# 6 -1.2392 -4.7039 -0.4400 16.0666 4.1306 58.4093
#
#
#
# Elastic Compliance Matrix: (Units=1/GPa)
#
#
# Indices 1 2 3 4 5 6 
#
# 1 0.013818 -0.001298 0.000137 -0.000325 0.003039 0.000064
# 2 -0.001298 0.005128 -0.001214 0.000798 -0.002615 0.000342
# 3 0.000137 -0.001214 0.012531 -0.005386 0.006567 0.001017
# 4 -0.000325 0.000798 -0.005386 0.023270 -0.001936 -0.006247
# 5 0.003039 -0.002615 0.006567 -0.001936 0.034810 -0.002026
# 6 0.000064 0.000342 0.001017 -0.006247 -0.002026 0.019019
#
#
# Mechanical properties :
#
#
# Convention : Reuss Voigt Hill
#
# Bulk Modulus (GPa) = 37.41687 50.15256 43.78471
# Shear Modulus (GPa) = 40.90516 52.12314 46.51415
#
# Velocity S-wave (km/s) = 3.79713 4.28629 4.04911
# Velocity P-wave (km/s) = 5.69324 6.49416 6.10684
#
# Compressibility (1/GPa) = 0.02672591
#
# Stress axis : x y z
#
# Youngs Moduli (GPa) = 72.37118 195.01594 79.80381
#
# Poissons Ratio (x) = 0.25309 -0.01094
# Poissons Ratio (y) = 0.09392 0.09691
# Poissons Ratio (z) = -0.00992 0.23682
#
# Static dielectric constant tensor:
#      x y z
#    x 2.258760 0.054090 0.019850 
#    y 0.054090 2.214530 -0.039080 
#    z 0.019850 -0.039080 2.243270 
# 
# From -- ./inp_files/257678.got.cif
#   From: 2010.05.17/outbox.cif.g08.bks.cpg/sg2_129_cif.got.tgz:257678.got - 2010.06.03 11:33:40.
