data_PCOD9018783
_publ_section_title
;
Structure prediction by ZEFSAII (Michael W. Deem and Ramdas Pophale) SiO2 
 PCOD9018783
Probable space group: P -1
;
_chemical_formula_sum "Si O2"
_cell_formula_units_Z 15
_cell_length_a 25.775581
_cell_length_b 5.079029
_cell_length_c 7.092217
_cell_angle_alpha 94.637671
_cell_angle_beta 135.549336
_cell_angle_gamma 73.479838
_cell_volume 612.966165
_symmetry_space_group_name_H-M "P -1"
_symmetry_group_IT_number 2
_symmetry_cell_setting 'triclinic'
loop_
_space_group_symop_operation_xyz
x,y,z
-x,-y,-z
loop_
_atom_site_type_symbol
_atom_site_label
_atom_site_fract_x
_atom_site_fract_y
_atom_site_fract_z
Si Si1 0.478446 0.787311 0.571858
Si Si2 0.125333 0.226873 0.480086
Si Si3 0.662355 0.025280 0.521037
Si Si4 0.380094 0.445330 0.825189
Si Si5 0.753882 0.516444 0.245191
Si Si6 0.000000 0.500000 0.000000
Si Si7 0.185946 0.866414 0.958320
Si Si8 0.891373 0.180226 0.862204
O O1 0.500000 0.500000 0.500000
O O2 0.389799 0.886463 0.421192
O O3 0.500000 0.000000 0.500000
O O4 0.531733 0.720982 0.894545
O O5 0.212628 0.224016 0.655995
O O6 0.062780 0.531455 0.340038
O O7 0.082447 0.138195 0.177834
O O8 0.130064 0.065815 0.672855
O O9 0.631756 0.260708 0.290833
O O10 0.751332 0.998755 0.790325
O O11 0.652056 0.739862 0.408800
O O12 0.329439 0.457396 0.884244
O O13 0.815925 0.311702 0.538441
O O14 0.765704 0.397706 0.058464
O O15 0.047545 0.658799 0.987401
O O16 0.139590 0.806664 0.008468
#
# Coordination Sequence:
#
# PCOD9018783 Si02
#       8
#     2   2   2   2   2   1   2   2
#     4  12  26  45  70 104 146 188 242 294 348 418
#     4  10  23  40  66  94 133 175 225 288 338 430
#     4  12  26  44  71 103 140 192 237 291 356 418
#     4  12  25  45  71  99 144 188 240 292 353 415
#     4  10  23  40  65  96 133 179 227 289 347 412
#     4  10  22  42  68  92 136 172 226 278 364 406
#     4  11  24  40  68  98 134 176 239 280 355 413
#     4  10  21  44  63  97 129 176 221 285 350 416
#
# _framework density 24.471169
#
# number of rings (size 3 to 8) (size 9 to 14) (size 15 to 20)
#    0.000    1.067    1.333    4.400    5.600    2.667 
#    0.000    6.667    0.000    0.000    0.000    0.000 
#    0.000    0.000    0.000    0.000    0.000    0.000 
#
# Total GULP energy -83787.153724 kJ/mol
# GULP energy per Si atom -5585.810248 kJ/mol
# Density = 2.441547 g / cm^3
# Si number density = 24.471169 Si / 1000 Ang^3
#
#
#
# Elastic Constant Matrix: (Units=GPa)
#
#
# Indices 1 2 3 4 5 6 
#
# 1 167.9453 27.1646 27.4094 5.0790 -19.8463 17.2581
# 2 27.1646 71.5983 13.5306 2.0816 -11.2436 16.5919
# 3 27.4094 13.5306 70.1259 -8.0366 -11.3587 6.0781
# 4 5.0790 2.0816 -8.0366 28.5285 2.1000 -3.4264
# 5 -19.8463 -11.2436 -11.3587 2.1000 46.9109 1.9207
# 6 17.2581 16.5919 6.0781 -3.4264 1.9207 35.2444
#
#
#
# Elastic Compliance Matrix: (Units=1/GPa)
#
#
# Indices 1 2 3 4 5 6 
#
# 1 0.007163 -0.001171 -0.002191 -0.002340 0.002444 -0.002939
# 2 -0.001171 0.017195 -0.001932 -0.002775 0.003596 -0.007654
# 3 -0.002191 -0.001932 0.016489 0.004938 0.002402 -0.000512
# 4 -0.002340 -0.002775 0.004938 0.037888 -0.002377 0.005413
# 5 0.002444 0.003596 0.002402 -0.002377 0.024100 -0.004848
# 6 -0.002939 -0.007654 -0.000512 0.005413 -0.004848 0.034295
#
#
# Mechanical properties :
#
#
# Convention : Reuss Voigt Hill
#
# Bulk Modulus (GPa) = 33.04865 49.54206 41.29536
# Shear Modulus (GPa) = 31.68497 38.24111 34.96304
#
# Velocity S-wave (km/s) = 3.60222 3.95739 3.78397
# Velocity P-wave (km/s) = 5.55300 6.41641 6.00025
#
# Compressibility (1/GPa) = 0.03025842
#
# Stress axis : x y z
#
# Youngs Moduli (GPa) = 139.60762 58.15576 60.64736
#
# Poissons Ratio (x) = 0.06807 0.13290
# Poissons Ratio (y) = 0.16341 0.11719
# Poissons Ratio (z) = 0.30593 0.11238
#
# Static dielectric constant tensor:
#      x y z
#    x 1.914240 -0.135290 0.056780 
#    y -0.135290 2.396090 -0.099240 
#    z 0.056780 -0.099240 1.973080 
# 
# From -- ./inp_files/7591.got.cif
#   From: 2010.05.17/outbox.cif.g08.bks.cpg/sg2_4_cif.got.tgz:7591.got - 2010.06.03 11:33:40.
