data_PCOD9018773
_publ_section_title
;
Structure prediction by ZEFSAII (Michael W. Deem and Ramdas Pophale) SiO2 
 PCOD9018773
Probable space group: P -1
;
_chemical_formula_sum "Si O2"
_cell_formula_units_Z 16
_cell_length_a 20.815720
_cell_length_b 7.558224
_cell_length_c 20.192722
_cell_angle_alpha 123.668389
_cell_angle_beta 20.743019
_cell_angle_gamma 136.590351
_cell_volume 663.510624
_symmetry_space_group_name_H-M "P -1"
_symmetry_group_IT_number 2
_symmetry_cell_setting 'triclinic'
loop_
_space_group_symop_operation_xyz
x,y,z
-x,-y,-z
loop_
_atom_site_type_symbol
_atom_site_label
_atom_site_fract_x
_atom_site_fract_y
_atom_site_fract_z
Si Si1 0.391088 0.984713 0.298179
Si Si2 0.834488 0.528736 0.369302
Si Si3 0.095727 0.186859 0.290665
Si Si4 0.666699 0.433684 0.231931
Si Si5 0.970738 0.196882 0.163797
Si Si6 0.554668 0.566141 0.193155
Si Si7 0.376885 0.595359 0.586409
Si Si8 0.618138 0.507293 0.801526
O O1 0.428970 0.779257 0.194131
O O2 0.090646 0.785733 0.550445
O O3 0.538352 0.128272 0.255866
O O4 0.483285 0.267782 0.225737
O O5 0.559700 0.355472 0.629737
O O6 0.784972 0.431218 0.320158
O O7 0.974110 0.435726 0.241515
O O8 0.992515 0.873592 0.300733
O O9 0.129777 0.219258 0.344201
O O10 0.380265 0.449716 0.044018
O O11 0.432735 0.407728 0.462932
O O12 0.757984 0.488387 0.230338
O O13 0.876263 0.686531 0.029618
O O14 0.136754 0.181668 0.048790
O O15 0.671884 0.907899 0.379257
O O16 0.407945 0.491404 0.251455
#
# Coordination Sequence:
#
# PCOD9018773 Si02
#       8
#     2   2   2   2   2   2   2   2
#     4  10  21  44  63  93 137 167 214 278 321 398
#     4  11  23  43  63  95 134 171 221 275 328 391
#     4  10  22  43  64  97 134 162 220 279 316 405
#     4  10  22  39  63  94 134 177 217 272 338 379
#     4  11  23  42  65  93 136 178 220 276 323 404
#     4  10  24  42  65  97 133 169 220 279 323 391
#     4  11  22  40  64  95 131 178 224 270 329 401
#     4  11  24  40  71  98 122 179 220 257 350 397
#
# _framework density 24.114156000000001
#
# number of rings (size 3 to 8) (size 9 to 14) (size 15 to 20)
#    0.000    1.500    3.750    2.625    3.500    2.500 
#    0.000    5.625    0.000    0.000    0.000    0.000 
#    0.000    0.000    0.000    0.000    0.000    0.000 
#
# Total GULP energy -89328.444916 kJ/mol
# GULP energy per Si atom -5583.027807 kJ/mol
# Density = 2.405927 g / cm^3
# Si number density = 24.114156 Si / 1000 Ang^3
#
#
#
# Elastic Constant Matrix: (Units=GPa)
#
#
# Indices 1 2 3 4 5 6 
#
# 1 85.3090 26.2173 -0.7433 0.3205 0.0699 18.6142
# 2 26.2173 72.9695 19.2999 2.0575 -3.5547 14.2806
# 3 -0.7433 19.2999 66.6883 12.9962 -19.9083 -8.4454
# 4 0.3205 2.0575 12.9962 31.3245 3.1231 -6.5860
# 5 0.0699 -3.5547 -19.9083 3.1231 24.8960 -1.8470
# 6 18.6142 14.2806 -8.4454 -6.5860 -1.8470 26.1093
#
#
#
# Elastic Compliance Matrix: (Units=1/GPa)
#
#
# Indices 1 2 3 4 5 6 
#
# 1 0.014809 -0.003572 0.000131 -0.001790 -0.000896 -0.009077
# 2 -0.003572 0.019120 -0.008536 0.000527 -0.004960 -0.010890
# 3 0.000131 -0.008536 0.028254 -0.010864 0.023675 0.012649
# 4 -0.001790 0.000527 -0.010864 0.039061 -0.013032 0.006405
# 5 -0.000896 -0.004960 0.023675 -0.013032 0.060921 0.012032
# 6 -0.009077 -0.010890 0.012649 0.006405 0.012032 0.057286
#
#
# Mechanical properties :
#
#
# Convention : Reuss Voigt Hill
#
# Bulk Modulus (GPa) = 26.15827 34.94606 30.55216
# Shear Modulus (GPa) = 19.52000 28.47883 23.99941
#
# Velocity S-wave (km/s) = 2.84823 3.44030 3.15817
# Velocity P-wave (km/s) = 4.65701 5.50493 5.09863
#
# Compressibility (1/GPa) = 0.03822883
#
# Stress axis : x y z
#
# Youngs Moduli (GPa) = 67.52652 52.30071 35.39380
#
# Poissons Ratio (x) = 0.18683 -0.00463
# Poissons Ratio (y) = 0.24121 0.30211
# Poissons Ratio (z) = -0.00884 0.44642
#
# Static dielectric constant tensor:
#      x y z
#    x 2.077710 -0.030310 0.039820 
#    y -0.030310 1.970920 -0.064940 
#    z 0.039820 -0.064940 1.951900 
# 
# From -- ./inp_files/601182.got.cif
#   From: 2010.05.17/outbox.cif.g08.bks.cpg/sg2_301_cif.got.tgz:601182.got - 2010.06.03 11:33:40.
