data_PCOD9018216
_publ_section_title
;
Structure prediction by ZEFSAII (Michael W. Deem and Ramdas Pophale) SiO2 
 PCOD9018216
Probable space group: P -1
;
_chemical_formula_sum "Si O2"
_cell_formula_units_Z 14
_cell_length_a 11.415332
_cell_length_b 20.795696
_cell_length_c 11.858596
_cell_angle_alpha 148.930345
_cell_angle_beta 118.705938
_cell_angle_gamma 41.407164
_cell_volume 845.612698
_symmetry_space_group_name_H-M "P -1"
_symmetry_group_IT_number 2
_symmetry_cell_setting 'triclinic'
loop_
_space_group_symop_operation_xyz
x,y,z
-x,-y,-z
loop_
_atom_site_type_symbol
_atom_site_label
_atom_site_fract_x
_atom_site_fract_y
_atom_site_fract_z
Si Si1 0.613580 0.558507 0.260036
Si Si2 0.567057 0.986861 0.358582
Si Si3 0.990460 0.863307 0.147064
Si Si4 0.894778 0.952353 0.495366
Si Si5 0.242764 0.331327 0.868955
Si Si6 0.671949 0.468918 0.892972
Si Si7 0.421378 0.952565 0.806522
O O1 0.464854 0.555298 0.233823
O O2 0.557526 0.733702 0.538970
O O3 0.594612 0.568803 0.130309
O O4 0.838744 0.358618 0.091626
O O5 0.704586 0.998698 0.497877
O O6 0.667889 0.790820 0.158775
O O7 0.344881 0.172645 0.581155
O O8 0.579651 0.990830 0.236057
O O9 0.895680 0.964265 0.377350
O O10 0.803498 0.939977 0.107630
O O11 0.096836 0.919304 0.248797
O O12 0.100790 0.738467 0.298711
O O13 0.318618 0.419215 0.015493
O O14 0.000000 0.500000 0.000000
O O15 0.500000 0.000000 0.000000
#
# Coordination Sequence:
#
# PCOD9018216 Si02
#       7
#     2   2   2   2   2   2   2
#     4  10  19  32  53  78 107 136 174 227 268 306
#     4  10  21  33  50  78 111 144 174 212 272 317
#     4   9  18  29  49  76 102 137 171 217 271 308
#     4   9  15  29  49  77 107 128 169 221 269 316
#     4  11  20  32  51  80 113 141 168 217 276 328
#     4  10  17  30  53  80 109 132 168 225 277 314
#     4  11  22  36  52  76 113 147 181 215 256 322
#
# _framework density 16.556042999999999
#
# number of rings (size 3 to 8) (size 9 to 14) (size 15 to 20)
#    0.000    2.000    4.286    0.857    4.000    0.571 
#    0.000    0.000    0.000    0.857    0.000   10.000 
#    0.000    0.000    0.000    0.000    0.000    0.000 
#
# Total GULP energy -77999.549670 kJ/mol
# GULP energy per Si atom -5571.396405 kJ/mol
# Density = 1.651836 g / cm^3
# Si number density = 16.556043 Si / 1000 Ang^3
#
#
#
# Elastic Constant Matrix: (Units=GPa)
#
#
# Indices 1 2 3 4 5 6 
#
# 1 95.2020 40.6738 45.1063 4.3001 20.2606 -2.2089
# 2 40.6738 66.1724 50.0957 -0.2837 13.8492 -11.7624
# 3 45.1063 50.0957 96.9234 5.0425 23.1348 -9.3912
# 4 4.3001 -0.2837 5.0425 22.4460 -5.0506 4.2943
# 5 20.2606 13.8492 23.1348 -5.0506 33.7307 6.7476
# 6 -2.2089 -11.7624 -9.3912 4.2943 6.7476 28.2403
#
#
#
# Elastic Compliance Matrix: (Units=1/GPa)
#
#
# Indices 1 2 3 4 5 6 
#
# 1 0.015931 -0.006966 -0.002342 -0.003762 -0.005558 -0.000534
# 2 -0.006966 0.029474 -0.010892 0.002190 -0.001758 0.008196
# 3 -0.002342 -0.010892 0.020512 -0.007771 -0.010512 0.005795
# 4 -0.003762 0.002190 -0.007771 0.053753 0.017609 -0.014347
# 5 -0.005558 -0.001758 -0.010512 0.017609 0.047282 -0.018638
# 6 -0.000534 0.008196 0.005795 -0.014347 -0.018638 0.047344
#
#
# Mechanical properties :
#
#
# Convention : Reuss Voigt Hill
#
# Bulk Modulus (GPa) = 39.19236 58.89436 49.04336
# Shear Modulus (GPa) = 18.99673 25.04488 22.02080
#
# Velocity S-wave (km/s) = 3.39103 3.89361 3.65098
# Velocity P-wave (km/s) = 6.24949 7.47419 6.88911
#
# Compressibility (1/GPa) = 0.02551517
#
# Stress axis : x y z
#
# Youngs Moduli (GPa) = 62.77229 33.92807 48.75154
#
# Poissons Ratio (x) = 0.23636 0.11420
# Poissons Ratio (y) = 0.43730 0.53100
# Poissons Ratio (z) = 0.14704 0.36955
#
# Static dielectric constant tensor:
#      x y z
#    x 1.626530 -0.004090 0.005470 
#    y -0.004090 1.553240 0.034220 
#    z 0.005470 0.034220 1.562920 
# 
# From -- ./inp_files/170010.got.cif
#   From: 2010.05.17/outbox.cif.g08.bks.cpg/sg2_86_cif.got.tgz:170010.got - 2010.06.03 11:33:40.
