data_PCOD9018747
_publ_section_title
;
Structure prediction by ZEFSAII (Michael W. Deem and Ramdas Pophale) SiO2 
 PCOD9018747
Probable space group: P -1
;
_chemical_formula_sum "Si O2"
_cell_formula_units_Z 16
_cell_length_a 14.622193
_cell_length_b 9.182618
_cell_length_c 13.160766
_cell_angle_alpha 47.199167
_cell_angle_beta 41.854260
_cell_angle_gamma 39.365572
_cell_volume 725.092040
_symmetry_space_group_name_H-M "P -1"
_symmetry_group_IT_number 2
_symmetry_cell_setting 'triclinic'
loop_
_space_group_symop_operation_xyz
x,y,z
-x,-y,-z
loop_
_atom_site_type_symbol
_atom_site_label
_atom_site_fract_x
_atom_site_fract_y
_atom_site_fract_z
Si Si1 0.158981 0.332817 0.570599
Si Si2 0.678001 0.903077 0.642218
Si Si3 0.546742 0.112727 0.996178
Si Si4 0.023357 0.130383 0.512890
Si Si5 0.388633 0.087911 0.667994
Si Si6 0.404578 0.607563 0.922944
Si Si7 0.870826 0.759223 0.022589
Si Si8 0.056524 0.871136 0.186261
O O1 0.326113 0.202793 0.556484
O O2 0.046944 0.595200 0.581935
O O3 0.077077 0.180576 0.716269
O O4 0.199821 0.323981 0.421242
O O5 0.577750 0.852191 0.827918
O O6 0.540919 0.084312 0.591075
O O7 0.785148 0.986815 0.566166
O O8 0.730418 0.938318 0.971448
O O9 0.495055 0.377795 0.884974
O O10 0.500000 0.000000 0.000000
O O11 0.940564 0.146440 0.683510
O O12 0.000000 0.000000 0.500000
O O13 0.235796 0.242948 0.796468
O O14 0.414486 0.828350 0.776389
O O15 0.219191 0.706282 0.063218
O O16 0.500000 0.500000 0.000000
O O17 0.000000 0.500000 0.000000
O O18 0.969054 0.873904 0.926456
#
# Coordination Sequence:
#
# PCOD9018747 Si02
#       8
#     2   2   2   2   2   2   2   2
#     4  11  23  40  66  92 127 170 211 263 310 382
#     4  10  21  44  61  90 125 163 213 254 311 374
#     4  11  23  37  65  94 121 165 207 263 314 367
#     4  11  25  38  65  93 125 169 212 263 310 378
#     4  10  23  39  68  92 122 170 209 259 318 371
#     4  11  19  39  65  91 122 162 218 259 304 379
#     4  10  23  39  63  93 135 160 200 268 320 368
#     4  10  22  41  65  93 125 172 211 258 315 369
#
# _framework density 22.066165000000002
#
# number of rings (size 3 to 8) (size 9 to 14) (size 15 to 20)
#    0.000    1.500    3.750    3.375    3.500    4.000 
#    0.000    0.625    2.750    0.000    0.000    0.000 
#    0.000    0.000    0.000    0.000    0.000    0.000 
#
# Total GULP energy -89314.155478 kJ/mol
# GULP energy per Si atom -5582.134717 kJ/mol
# Density = 2.201594 g / cm^3
# Si number density = 22.066165 Si / 1000 Ang^3
#
#
#
# Elastic Constant Matrix: (Units=GPa)
#
#
# Indices 1 2 3 4 5 6 
#
# 1 140.6791 47.0112 37.2489 -3.8992 -25.7416 11.2771
# 2 47.0112 142.9525 29.6770 -3.3810 -19.8684 17.8152
# 3 37.2489 29.6770 56.8423 15.5462 -22.2865 -9.9503
# 4 -3.8992 -3.3810 15.5462 15.0151 -1.2568 -4.5943
# 5 -25.7416 -19.8684 -22.2865 -1.2568 34.6087 -0.1106
# 6 11.2771 17.8152 -9.9503 -4.5943 -0.1106 33.3236
#
#
#
# Elastic Compliance Matrix: (Units=1/GPa)
#
#
# Indices 1 2 3 4 5 6 
#
# 1 0.011135 -0.000228 -0.010962 0.012741 0.001538 -0.005158
# 2 -0.000228 0.009904 -0.008475 0.008985 0.000364 -0.006508
# 3 -0.010962 -0.008475 0.055424 -0.055124 0.020725 0.017259
# 4 0.012741 0.008985 -0.055124 0.125071 -0.016348 -0.008386
# 5 0.001538 0.000364 0.020725 -0.016348 0.043011 0.003362
# 6 -0.005158 -0.006508 0.017259 -0.008386 0.003362 0.039242
#
#
# Mechanical properties :
#
#
# Convention : Reuss Voigt Hill
#
# Bulk Modulus (GPa) = 26.93068 63.14977 45.04023
# Shear Modulus (GPa) = 14.90331 31.69193 23.29762
#
# Velocity S-wave (km/s) = 2.60165 3.79386 3.25284
# Velocity P-wave (km/s) = 4.61040 6.91894 5.87909
#
# Compressibility (1/GPa) = 0.03713237
#
# Stress axis : x y z
#
# Youngs Moduli (GPa) = 89.80479 100.96921 18.04267
#
# Poissons Ratio (x) = 0.02305 0.19778
# Poissons Ratio (y) = 0.02050 0.15292
# Poissons Ratio (z) = 0.98444 0.85574
#
# Static dielectric constant tensor:
#      x y z
#    x 1.957630 0.150100 0.068840 
#    y 0.150100 2.077060 0.082680 
#    z 0.068840 0.082680 1.869100 
# 
# From -- ./inp_files/269515.got.cif
#   From: 2010.05.17/outbox.cif.g08.bks.cpg/sg2_135_cif.got.tgz:269515.got - 2010.06.03 11:33:40.
