data_PCOD9018311
_publ_section_title
;
Structure prediction by ZEFSAII (Michael W. Deem and Ramdas Pophale) SiO2 
 PCOD9018311
Probable space group: P -1
;
_chemical_formula_sum "Si O2"
_cell_formula_units_Z 16
_cell_length_a 16.668960
_cell_length_b 22.863621
_cell_length_c 12.311222
_cell_angle_alpha 23.639910
_cell_angle_beta 143.240345
_cell_angle_gamma 158.429339
_cell_volume 649.383429
_symmetry_space_group_name_H-M "P -1"
_symmetry_group_IT_number 2
_symmetry_cell_setting 'triclinic'
loop_
_space_group_symop_operation_xyz
x,y,z
-x,-y,-z
loop_
_atom_site_type_symbol
_atom_site_label
_atom_site_fract_x
_atom_site_fract_y
_atom_site_fract_z
Si Si1 0.233196 0.730655 0.685925
Si Si2 0.642259 0.600520 0.732800
Si Si3 0.296216 0.432228 0.923058
Si Si4 0.628198 0.124013 0.043009
Si Si5 0.984894 0.756962 0.677098
Si Si6 0.831352 0.010393 0.741498
Si Si7 0.235365 0.694775 0.493350
Si Si8 0.770062 0.564069 0.399857
O O1 0.182531 0.826038 0.542862
O O2 0.171763 0.654934 0.618425
O O3 0.500000 0.000000 0.500000
O O4 0.172071 0.527378 0.027497
O O5 0.823373 0.720178 0.633809
O O6 0.489957 0.612343 0.552275
O O7 0.791249 0.720852 0.801133
O O8 0.419902 0.289134 0.009838
O O9 0.340000 0.629831 0.686386
O O10 0.188484 0.376051 0.785423
O O11 0.500000 0.500000 0.000000
O O12 0.788660 0.122741 0.231285
O O13 0.439326 0.975561 0.186723
O O14 0.778894 0.404816 0.719196
O O15 0.500000 0.000000 0.000000
O O16 0.070506 0.924545 0.382616
O O17 0.032177 0.167251 0.782721
O O18 0.000000 0.500000 0.500000
#
# Coordination Sequence:
#
# PCOD9018311 Si02
#       8
#     2   2   2   2   2   2   2   2
#     4  12  22  39  68 104 134 181 232 284 346 409
#     4  11  25  48  74 100 145 188 238 285 352 424
#     4  10  21  43  69  97 135 185 230 282 350 412
#     4  12  25  43  70 106 142 179 237 294 352 410
#     4  12  25  44  73 103 142 183 239 285 350 420
#     4  12  25  44  73 105 144 188 234 291 353 416
#     4  12  24  43  70 103 136 182 230 291 351 415
#     4  11  25  44  71 106 144 187 231 295 352 415
#
# _framework density 24.638756999999998
#
# number of rings (size 3 to 8) (size 9 to 14) (size 15 to 20)
#    0.000    0.500    5.000    3.750    1.750    0.500 
#    0.000    5.625    0.000    0.000    0.000    0.000 
#    0.000    0.000    0.000    0.000    0.000    0.000 
#
# Total GULP energy -89264.190554 kJ/mol
# GULP energy per Si atom -5579.011910 kJ/mol
# Density = 2.458268 g / cm^3
# Si number density = 24.638757 Si / 1000 Ang^3
#
#
#
# Elastic Constant Matrix: (Units=GPa)
#
#
# Indices 1 2 3 4 5 6 
#
# 1 158.6973 23.5582 46.3960 -2.4092 -28.6471 11.3088
# 2 23.5582 102.9138 29.5764 4.7679 -27.9891 -2.2626
# 3 46.3960 29.5764 86.3221 -9.1320 -15.2927 -7.7443
# 4 -2.4092 4.7679 -9.1320 40.0844 1.0696 -5.5684
# 5 -28.6471 -27.9891 -15.2927 1.0696 45.3892 0.0731
# 6 11.3088 -2.2626 -7.7443 -5.5684 0.0731 27.7588
#
#
#
# Elastic Compliance Matrix: (Units=1/GPa)
#
#
# Indices 1 2 3 4 5 6 
#
# 1 0.008717 0.000464 -0.004703 -0.001428 0.004245 -0.005123
# 2 0.000464 0.012660 -0.003704 -0.002608 0.006915 -0.000732
# 3 -0.004703 -0.003704 0.016589 0.004936 0.000209 0.007232
# 4 -0.001428 -0.002608 0.004936 0.027341 -0.001502 0.007235
# 5 0.004245 0.006915 0.000209 -0.001502 0.029083 -0.001485
# 6 -0.005123 -0.000732 0.007232 0.007235 -0.001485 0.041525
#
#
# Mechanical properties :
#
#
# Convention : Reuss Voigt Hill
#
# Bulk Modulus (GPa) = 45.28615 60.77714 53.03165
# Shear Modulus (GPa) = 31.41460 39.20664 35.31062
#
# Velocity S-wave (km/s) = 3.57460 3.99339 3.78978
# Velocity P-wave (km/s) = 5.95457 6.78113 6.38125
#
# Compressibility (1/GPa) = 0.02208181
#
# Stress axis : x y z
#
# Youngs Moduli (GPa) = 114.71819 78.98676 60.27996
#
# Poissons Ratio (x) = -0.03667 0.28348
# Poissons Ratio (y) = -0.05325 0.22327
# Poissons Ratio (z) = 0.53949 0.29256
#
# Static dielectric constant tensor:
#      x y z
#    x 1.821670 -0.054700 0.021920 
#    y -0.054700 2.079740 0.027070 
#    z 0.021920 0.027070 2.020640 
# 
# From -- ./inp_files/467436.got.cif
#   From: 2010.05.17/outbox.cif.g08.bks.cpg/sg2_234_cif.got.tgz:467436.got - 2010.06.03 11:33:40.
