data_PCOD9018053
_publ_section_title
;
Structure prediction by ZEFSAII (Michael W. Deem and Ramdas Pophale) SiO2 
 PCOD9018053
Probable space group: P -1
;
_chemical_formula_sum "Si O2"
_cell_formula_units_Z 13
_cell_length_a 12.920094
_cell_length_b 8.191151
_cell_length_c 11.958532
_cell_angle_alpha 144.615220
_cell_angle_beta 48.386018
_cell_angle_gamma 124.723193
_cell_volume 546.743938
_symmetry_space_group_name_H-M "P -1"
_symmetry_group_IT_number 2
_symmetry_cell_setting 'triclinic'
loop_
_space_group_symop_operation_xyz
x,y,z
-x,-y,-z
loop_
_atom_site_type_symbol
_atom_site_label
_atom_site_fract_x
_atom_site_fract_y
_atom_site_fract_z
Si Si1 0.203831 0.549734 0.857780
Si Si2 0.422159 0.930723 0.633064
Si Si3 0.287816 0.152606 0.232611
Si Si4 0.459446 0.789810 0.073610
Si Si5 0.500000 0.500000 0.500000
Si Si6 0.958449 0.664257 0.359470
Si Si7 0.787116 0.675110 0.035756
O O1 0.353778 0.538427 0.688770
O O2 0.095531 0.459270 0.789555
O O3 0.191290 0.339008 0.854458
O O4 0.206336 0.865930 0.081720
O O5 0.506461 0.096173 0.764852
O O6 0.264570 0.025495 0.796866
O O7 0.500000 0.000000 0.500000
O O8 0.434941 0.617519 0.492229
O O9 0.167590 0.340921 0.465731
O O10 0.381319 0.035948 0.202630
O O11 0.396819 0.256042 0.117117
O O12 0.351313 0.525717 0.000386
O O13 0.000000 0.000000 0.500000
O O14 0.085987 0.476697 0.195365
#
# Coordination Sequence:
#
# PCOD9018053 Si02
#       7
#     2   2   2   2   1   2   2
#     4  11  23  41  70 101 142 189 237 293 359 426
#     4  12  25  42  71 110 141 186 241 304 361 423
#     4  10  22  40  72 103 140 191 238 293 360 427
#     4  10  21  43  68 101 142 178 241 300 348 422
#     4  12  24  44  76 102 142 184 242 302 362 416
#     4  12  24  39  68 104 144 195 236 290 368 434
#     4  11  25  42  66 106 145 182 241 300 350 435
#
# _framework density 23.777128000000001
#
# number of rings (size 3 to 8) (size 9 to 14) (size 15 to 20)
#    0.000    0.923    6.154    1.846    4.308    0.000 
#    0.000    1.538    0.000    0.000    0.000    0.000 
#    0.000    0.000    0.000    0.000    0.000    0.000 
#
# Total GULP energy -72555.057384 kJ/mol
# GULP energy per Si atom -5581.158260 kJ/mol
# Density = 2.372301 g / cm^3
# Si number density = 23.777128 Si / 1000 Ang^3
#
#
#
# Elastic Constant Matrix: (Units=GPa)
#
#
# Indices 1 2 3 4 5 6 
#
# 1 300.4925 151.6628 214.0396 -47.0838 -201.6971 -179.7196
# 2 151.6628 138.1788 133.2401 -34.4196 -139.4353 -124.4498
# 3 214.0396 133.2401 243.5774 -59.1227 -156.3592 -150.7405
# 4 -47.0838 -34.4196 -59.1227 55.8531 49.9361 52.5900
# 5 -201.6971 -139.4353 -156.3592 49.9361 273.0739 211.5002
# 6 -179.7196 -124.4498 -150.7405 52.5900 211.5002 233.4876
#
#
#
# Elastic Compliance Matrix: (Units=1/GPa)
#
#
# Indices 1 2 3 4 5 6 
#
# 1 0.012213 -0.003446 -0.007010 -0.002837 0.003077 0.000891
# 2 -0.003446 0.021926 -0.005121 -0.000488 0.004309 0.001935
# 3 -0.007010 -0.005121 0.014262 0.006452 -0.001739 0.001204
# 4 -0.002837 -0.000488 0.006452 0.025952 -0.000678 -0.003510
# 5 0.003077 0.004309 -0.001739 -0.000678 0.014749 -0.009665
# 6 0.000891 0.001935 0.001204 -0.003510 -0.009665 0.016322
#
#
# Mechanical properties :
#
#
# Convention : Reuss Voigt Hill
#
# Bulk Modulus (GPa) = 57.97596 186.68152 122.32874
# Shear Modulus (GPa) = 35.13026 124.70334 79.91680
#
# Velocity S-wave (km/s) = 3.84797 7.24987 5.80377
# Velocity P-wave (km/s) = 6.64669 12.19690 9.82199
#
# Compressibility (1/GPa) = 0.01724853
#
# Stress axis : x y z
#
# Youngs Moduli (GPa) = 81.87678 45.60696 70.11847
#
# Poissons Ratio (x) = 0.15715 0.49152
# Poissons Ratio (y) = 0.28212 0.35907
# Poissons Ratio (z) = 0.57395 0.23355
#
# Static dielectric constant tensor:
#      x y z
#    x 1.885400 0.025460 -0.003930 
#    y 0.025460 1.964730 0.137330 
#    z -0.003930 0.137330 1.984540 
# 
# From -- ./inp_files/413798.got.cif
#   From: 2010.05.17/outbox.cif.g08.bks.cpg/sg2_207_cif.got.tgz:413798.got - 2010.06.03 11:33:40.
