data_PCOD9018613
_publ_section_title
;
Structure prediction by ZEFSAII (Michael W. Deem and Ramdas Pophale) SiO2 
 PCOD9018613
Probable space group: P -1
;
_chemical_formula_sum "Si O2"
_cell_formula_units_Z 14
_cell_length_a 8.829414
_cell_length_b 11.045385
_cell_length_c 10.760547
_cell_angle_alpha 69.705640
_cell_angle_beta 133.789313
_cell_angle_gamma 119.083086
_cell_volume 661.953392
_symmetry_space_group_name_H-M "P -1"
_symmetry_group_IT_number 2
_symmetry_cell_setting 'triclinic'
loop_
_space_group_symop_operation_xyz
x,y,z
-x,-y,-z
loop_
_atom_site_type_symbol
_atom_site_label
_atom_site_fract_x
_atom_site_fract_y
_atom_site_fract_z
Si Si1 0.411396 0.338508 0.537634
Si Si2 0.968312 0.144229 0.954140
Si Si3 0.270236 0.583590 0.117099
Si Si4 0.024302 0.855465 0.536021
Si Si5 0.598232 0.679283 0.733426
Si Si6 0.294376 0.850478 0.447876
Si Si7 0.706347 0.145255 0.064505
O O1 0.500000 0.500000 0.500000
O O2 0.637191 0.336347 0.728970
O O3 0.316897 0.268466 0.377813
O O4 0.213061 0.271304 0.545177
O O5 0.839749 0.173459 0.750582
O O6 0.845298 0.143243 0.017473
O O7 0.223264 0.248033 0.085553
O O8 0.000000 0.000000 0.000000
O O9 0.399337 0.477028 0.204804
O O10 0.338458 0.711522 0.017712
O O11 0.000000 0.500000 0.000000
O O12 0.136120 0.862925 0.464216
O O13 0.170679 0.840522 0.739749
O O14 0.000000 0.000000 0.500000
O O15 0.384961 0.728922 0.588852
O O16 0.500000 0.000000 0.500000
O O17 0.500000 0.000000 0.000000
#
# Coordination Sequence:
#
# PCOD9018613 Si02
#       7
#     2   2   2   2   2   2   2
#     4  10  21  43  72  99 140 184 235 293 357 422
#     4  12  23  43  71 103 145 189 239 292 361 427
#     4  11  22  43  72 105 137 188 240 296 356 432
#     4  12  24  45  70 105 139 184 244 300 353 429
#     4  11  23  44  71 103 141 193 238 292 363 430
#     4  12  25  43  70 106 152 190 235 301 368 423
#     4  12  24  42  71 104 135 183 247 298 350 426
#
# _framework density 21.149526000000002
#
# number of rings (size 3 to 8) (size 9 to 14) (size 15 to 20)
#    0.000    0.571    4.286    5.143    0.000    0.000 
#    0.000    3.571    0.000    0.000    0.000    0.000 
#    0.000    0.000    0.000    0.000    0.000    0.000 
#
# Total GULP energy -77968.657776 kJ/mol
# GULP energy per Si atom -5569.189841 kJ/mol
# Density = 2.110139 g / cm^3
# Si number density = 21.149526 Si / 1000 Ang^3
#
#
#
# Elastic Constant Matrix: (Units=GPa)
#
#
# Indices 1 2 3 4 5 6 
#
# 1 111.8045 43.6129 31.7540 0.7484 -12.8741 -1.8189
# 2 43.6129 138.1231 59.0529 -10.9320 17.1023 -6.5614
# 3 31.7540 59.0529 200.2496 11.7447 5.0997 -2.9435
# 4 0.7484 -10.9320 11.7447 45.0663 -3.3779 12.2445
# 5 -12.8741 17.1023 5.0997 -3.3779 33.7039 -1.4562
# 6 -1.8189 -6.5614 -2.9435 12.2445 -1.4562 42.9007
#
#
#
# Elastic Compliance Matrix: (Units=1/GPa)
#
#
# Indices 1 2 3 4 5 6 
#
# 1 0.011552 -0.004190 -0.000728 -0.000575 0.006600 0.000187
# 2 -0.004190 0.010632 -0.002466 0.002740 -0.006336 0.000282
# 3 -0.000728 -0.002466 0.005987 -0.002337 -0.000138 0.000665
# 4 -0.000575 0.002740 -0.002337 0.025448 0.000992 -0.006995
# 5 0.006600 -0.006336 -0.000138 0.000992 0.035536 0.000224
# 6 0.000187 0.000282 0.000665 -0.006995 0.000224 0.025411
#
#
# Mechanical properties :
#
#
# Convention : Reuss Voigt Hill
#
# Bulk Modulus (GPa) = 74.61102 79.89075 77.25088
# Shear Modulus (GPa) = 37.36886 45.38467 41.37677
#
# Velocity S-wave (km/s) = 4.20800 4.63741 4.42791
# Velocity P-wave (km/s) = 7.67881 8.15661 7.92131
#
# Compressibility (1/GPa) = 0.01340285
#
# Stress axis : x y z
#
# Youngs Moduli (GPa) = 86.56331 94.05480 167.03413
#
# Poissons Ratio (x) = 0.39412 0.12156
# Poissons Ratio (y) = 0.36272 0.41192
# Poissons Ratio (z) = 0.06300 0.23195
#
# Static dielectric constant tensor:
#      x y z
#    x 1.842800 -0.114680 0.052760 
#    y -0.114680 1.876060 0.042050 
#    z 0.052760 0.042050 1.904580 
# 
# From -- ./inp_files/186240.got.cif
#   From: 2010.05.17/outbox.cif.g08.bks.cpg/sg2_94_cif.got.tgz:186240.got - 2010.06.03 11:33:40.
