data_PCOD9018291
_publ_section_title
;
Structure prediction by ZEFSAII (Michael W. Deem and Ramdas Pophale) SiO2 
 PCOD9018291
Probable space group: P -1
;
_chemical_formula_sum "Si O2"
_cell_formula_units_Z 15
_cell_length_a 12.958931
_cell_length_b 9.276253
_cell_length_c 7.332516
_cell_angle_alpha 132.643910
_cell_angle_beta 99.431007
_cell_angle_gamma 98.963474
_cell_volume 594.801548
_symmetry_space_group_name_H-M "P -1"
_symmetry_group_IT_number 2
_symmetry_cell_setting 'triclinic'
loop_
_space_group_symop_operation_xyz
x,y,z
-x,-y,-z
loop_
_atom_site_type_symbol
_atom_site_label
_atom_site_fract_x
_atom_site_fract_y
_atom_site_fract_z
Si Si1 0.943036 0.016014 0.187888
Si Si2 0.710729 0.076728 0.386150
Si Si3 0.523320 0.453403 0.758596
Si Si4 0.234106 0.443164 0.229052
Si Si5 0.253239 0.923976 0.998512
Si Si6 0.180235 0.138309 0.506451
Si Si7 0.500000 0.000000 0.500000
Si Si8 0.686470 0.455243 0.263358
O O1 0.051735 0.116180 0.430854
O O2 0.865116 0.146090 0.212708
O O3 0.868264 0.775593 0.018716
O O4 0.000000 0.000000 0.000000
O O5 0.762018 0.330368 0.642208
O O6 0.674338 0.007469 0.106896
O O7 0.800040 0.993383 0.434226
O O8 0.600662 0.978814 0.391451
O O9 0.648090 0.566447 0.814060
O O10 0.502056 0.205559 0.543058
O O11 0.431542 0.530227 0.703219
O O12 0.500000 0.500000 0.000000
O O13 0.237950 0.471325 0.473232
O O14 0.307227 0.769022 0.975965
O O15 0.228021 0.058965 0.269099
O O16 0.257196 0.383836 0.743979
#
# Coordination Sequence:
#
# PCOD9018291 Si02
#       8
#     2   2   2   2   2   2   1   2
#     4  10  21  43  69  95 134 178 222 285 334 386
#     4  10  23  43  66 101 134 176 225 277 335 399
#     4  11  25  39  67  98 133 173 219 273 337 401
#     4  10  22  43  65  94 137 170 223 279 325 403
#     4  10  24  42  66  98 131 178 226 272 336 398
#     4  11  23  45  70  95 138 177 223 284 335 394
#     4  10  22  42  64  92 144 170 210 290 326 388
#     4  11  22  42  67  99 127 175 228 266 339 406
#
# _framework density 25.218494
#
# number of rings (size 3 to 8) (size 9 to 14) (size 15 to 20)
#    0.000    1.600    4.000    0.400    5.600    1.600 
#    2.400    1.333    0.000    0.000    0.000    0.000 
#    0.000    0.000    0.000    0.000    0.000    0.000 
#
# Total GULP energy -83533.205990 kJ/mol
# GULP energy per Si atom -5568.880399 kJ/mol
# Density = 2.516110 g / cm^3
# Si number density = 25.218494 Si / 1000 Ang^3
#
#
#
# Elastic Constant Matrix: (Units=GPa)
#
#
# Indices 1 2 3 4 5 6 
#
# 1 71.5682 40.8011 5.7622 33.9130 -8.5663 5.8791
# 2 40.8011 134.8795 27.0309 35.0798 2.1672 -7.4861
# 3 5.7622 27.0309 73.8239 8.4359 -10.9940 6.6514
# 4 33.9130 35.0798 8.4359 52.5697 -2.6200 -5.8648
# 5 -8.5663 2.1672 -10.9940 -2.6200 27.1235 8.5599
# 6 5.8791 -7.4861 6.6514 -5.8648 8.5599 53.2185
#
#
#
# Elastic Compliance Matrix: (Units=1/GPa)
#
#
# Indices 1 2 3 4 5 6 
#
# 1 0.024992 -0.005423 0.003834 -0.013383 0.010868 -0.007226
# 2 -0.005423 0.011006 -0.004402 -0.003058 -0.005707 0.003278
# 3 0.003834 -0.004402 0.017040 -0.002339 0.009825 -0.005011
# 4 -0.013383 -0.003058 -0.002339 0.030479 -0.003655 0.005288
# 5 0.010868 -0.005707 0.009825 -0.003655 0.047968 -0.011349
# 6 -0.007226 0.003278 -0.005011 0.005288 -0.011349 0.023084
#
#
# Mechanical properties :
#
#
# Convention : Reuss Voigt Hill
#
# Bulk Modulus (GPa) = 24.35784 47.49557 35.92670
# Shear Modulus (GPa) = 27.74111 40.36085 34.05098
#
# Velocity S-wave (km/s) = 3.32027 4.00490 3.67855
# Velocity P-wave (km/s) = 4.93747 6.34509 5.68501
#
# Compressibility (1/GPa) = 0.04105454
#
# Stress axis : x y z
#
# Youngs Moduli (GPa) = 40.01288 90.86152 58.68431
#
# Poissons Ratio (x) = 0.49278 -0.22499
# Poissons Ratio (y) = 0.21700 0.25835
# Poissons Ratio (z) = -0.15341 0.40000
#
# Static dielectric constant tensor:
#      x y z
#    x 2.066870 -0.029940 0.027060 
#    y -0.029940 2.053900 0.015560 
#    z 0.027060 0.015560 2.100540 
# 
# From -- ./inp_files/241445.got.cif
#   From: 2010.05.17/outbox.cif.g08.bks.cpg/sg2_121_cif.got.tgz:241445.got - 2010.06.03 11:33:40.
