data_PCOD9018789
_publ_section_title
;
Structure prediction by ZEFSAII (Michael W. Deem and Ramdas Pophale) SiO2 
 PCOD9018789
Probable space group: P -1
;
_chemical_formula_sum "Si O2"
_cell_formula_units_Z 14
_cell_length_a 13.226186
_cell_length_b 15.696588
_cell_length_c 7.748438
_cell_angle_alpha 125.602546
_cell_angle_beta 95.574634
_cell_angle_gamma 37.551598
_cell_volume 540.230138
_symmetry_space_group_name_H-M "P -1"
_symmetry_group_IT_number 2
_symmetry_cell_setting 'triclinic'
loop_
_space_group_symop_operation_xyz
x,y,z
-x,-y,-z
loop_
_atom_site_type_symbol
_atom_site_label
_atom_site_fract_x
_atom_site_fract_y
_atom_site_fract_z
Si Si1 0.700538 0.847773 0.487942
Si Si2 0.027330 0.029155 0.256552
Si Si3 0.771342 0.451829 0.574654
Si Si4 0.655428 0.783660 0.896413
Si Si5 0.484897 0.440956 0.634216
Si Si6 0.994956 0.387757 0.050572
Si Si7 0.219600 0.608094 0.100516
O O1 0.765877 0.677062 0.386324
O O2 0.500000 0.000000 0.500000
O O3 0.927325 0.675948 0.214328
O O4 0.566748 0.053103 0.830191
O O5 0.003563 0.154334 0.276262
O O6 0.765539 0.215666 0.398619
O O7 0.726932 0.269016 0.068879
O O8 0.978651 0.122287 0.548732
O O9 0.819319 0.525801 0.602829
O O10 0.590401 0.569379 0.542302
O O11 0.695222 0.518637 0.847236
O O12 0.808995 0.731703 0.951726
O O13 0.500000 0.000000 0.000000
O O14 0.440024 0.440079 0.819832
O O15 0.921758 0.337693 0.989144
#
# Coordination Sequence:
#
# PCOD9018789 Si02
#       7
#     2   2   2   2   2   2   2
#     4   9  19  38  68  87 141 176 233 286 357 414
#     4  10  26  48  76 107 151 191 248 314 372 436
#     4  10  25  45  73 106 142 199 244 296 389 435
#     4  11  25  45  65 106 146 189 242 300 363 447
#     4  12  24  52  72 112 150 188 253 317 358 447
#     4  10  21  44  64 102 140 182 236 299 354 450
#     4  10  24  43  76 104 142 194 245 293 393 432
#
# _framework density 25.914881000000001
#
# number of rings (size 3 to 8) (size 9 to 14) (size 15 to 20)
#    0.857    0.857    0.000    4.286    2.000    2.857 
#   15.429    0.000    0.000    0.000    0.000    0.000 
#    0.000    0.000    0.000    0.000    0.000    0.000 
#
# Total GULP energy -77971.288402 kJ/mol
# GULP energy per Si atom -5569.377743 kJ/mol
# Density = 2.585590 g / cm^3
# Si number density = 25.914881 Si / 1000 Ang^3
#
#
#
# Elastic Constant Matrix: (Units=GPa)
#
#
# Indices 1 2 3 4 5 6 
#
# 1 116.6905 66.5244 31.5223 -2.6191 15.9065 -8.1249
# 2 66.5244 146.8116 34.5795 5.0766 20.0786 -1.6489
# 3 31.5223 34.5795 91.6493 4.1088 2.0701 -3.9071
# 4 -2.6191 5.0766 4.1088 32.2585 1.0481 2.4278
# 5 15.9065 20.0786 2.0701 1.0481 20.4112 -6.9864
# 6 -8.1249 -1.6489 -3.9071 2.4278 -6.9864 50.8902
#
#
#
# Elastic Compliance Matrix: (Units=1/GPa)
#
#
# Indices 1 2 3 4 5 6 
#
# 1 0.012617 -0.004494 -0.002591 0.002156 -0.004957 0.000887
# 2 -0.004494 0.010335 -0.002198 -0.001381 -0.006860 -0.001427
# 3 -0.002591 -0.002198 0.012675 -0.001664 0.003332 0.001025
# 4 0.002156 -0.001381 -0.001664 0.031806 -0.002357 -0.001669
# 5 -0.004957 -0.006860 0.003332 -0.002357 0.062083 0.007878
# 6 0.000887 -0.001427 0.001025 -0.001669 0.007878 0.020985
#
#
# Mechanical properties :
#
#
# Convention : Reuss Voigt Hill
#
# Bulk Modulus (GPa) = 58.61029 68.93375 63.77202
# Shear Modulus (GPa) = 28.61173 35.54701 32.07937
#
# Velocity S-wave (km/s) = 3.32635 3.70764 3.52216
# Velocity P-wave (km/s) = 6.11706 6.70721 6.41892
#
# Compressibility (1/GPa) = 0.01706185
#
# Stress axis : x y z
#
# Youngs Moduli (GPa) = 79.25717 96.75683 78.89753
#
# Poissons Ratio (x) = 0.43478 0.20443
# Poissons Ratio (y) = 0.35615 0.17341
# Poissons Ratio (z) = 0.20536 0.21267
#
# Static dielectric constant tensor:
#      x y z
#    x 2.155670 0.046360 0.028070 
#    y 0.046360 2.047180 -0.150870 
#    z 0.028070 -0.150870 2.127050 
# 
# From -- ./inp_files/278403.got.cif
#   From: 2010.05.17/outbox.cif.g08.bks.cpg/sg2_140_cif.got.tgz:278403.got - 2010.06.03 11:33:40.
