data_PCOD9018252
_publ_section_title
;
Structure prediction by ZEFSAII (Michael W. Deem and Ramdas Pophale) SiO2 
 PCOD9018252
Probable space group: P -1
;
_chemical_formula_sum "Si O2"
_cell_formula_units_Z 14
_cell_length_a 16.668526
_cell_length_b 5.287515
_cell_length_c 21.170254
_cell_angle_alpha 84.698348
_cell_angle_beta 18.465794
_cell_angle_gamma 85.638849
_cell_volume 588.057601
_symmetry_space_group_name_H-M "P -1"
_symmetry_group_IT_number 2
_symmetry_cell_setting 'triclinic'
loop_
_space_group_symop_operation_xyz
x,y,z
-x,-y,-z
loop_
_atom_site_type_symbol
_atom_site_label
_atom_site_fract_x
_atom_site_fract_y
_atom_site_fract_z
Si Si1 0.812613 0.393510 0.530288
Si Si2 0.752296 0.894386 0.648456
Si Si3 0.707751 0.088739 0.396185
Si Si4 0.867370 0.035934 0.005182
Si Si5 0.534686 0.713774 0.638772
Si Si6 0.620148 0.762586 0.881932
Si Si7 0.725591 0.649605 0.234667
O O1 0.830341 0.651334 0.553742
O O2 0.690794 0.484525 0.554333
O O3 0.084287 0.270951 0.321424
O O4 0.657263 0.155456 0.682768
O O5 0.577968 0.790437 0.837765
O O6 0.000000 0.000000 0.500000
O O7 0.698590 0.904415 0.468410
O O8 0.984523 0.103866 0.157884
O O9 0.500000 0.000000 0.500000
O O10 0.561187 0.330039 0.525436
O O11 0.077689 0.257916 0.861623
O O12 0.603840 0.179284 0.197786
O O13 0.794623 0.838718 0.120518
O O14 0.298525 0.626472 0.771674
O O15 0.500000 0.500000 0.000000
O O16 0.500000 0.000000 0.000000
#
# Coordination Sequence:
#
# PCOD9018252 Si02
#       7
#     2   2   2   2   2   2   2
#     4  11  24  41  66  95 132 170 213 267 327 381
#     4  10  21  43  69  91 125 174 210 248 320 408
#     4   9  20  38  59  85 120 164 215 266 317 383
#     4   9  19  37  58  85 115 165 216 256 311 390
#     4  11  23  37  59  90 129 164 211 275 324 371
#     4  11  21  41  69  99 125 162 214 261 313 397
#     4   9  19  36  60  82 119 163 212 260 314 378
#
# _framework density 23.807192000000001
#
# number of rings (size 3 to 8) (size 9 to 14) (size 15 to 20)
#    0.000    2.000    0.000    5.571    4.000    3.429 
#    5.143    0.000    0.000    0.000    0.000    0.000 
#    0.000    0.000    0.000    0.000    0.000    0.000 
#
# Total GULP energy -78027.528449 kJ/mol
# GULP energy per Si atom -5573.394889 kJ/mol
# Density = 2.375301 g / cm^3
# Si number density = 23.807192 Si / 1000 Ang^3
#
#
#
# Elastic Constant Matrix: (Units=GPa)
#
#
# Indices 1 2 3 4 5 6 
#
# 1 63.7748 36.4499 20.9128 8.6408 4.9773 -0.6982
# 2 36.4499 127.7117 42.6925 10.2012 11.6254 -4.0031
# 3 20.9128 42.6925 135.4642 26.7988 27.0252 -14.5332
# 4 8.6408 10.2012 26.7988 51.5132 -0.0994 3.9901
# 5 4.9773 11.6254 27.0252 -0.0994 26.6296 1.0151
# 6 -0.6982 -4.0031 -14.5332 3.9901 1.0151 61.0065
#
#
#
# Elastic Compliance Matrix: (Units=1/GPa)
#
#
# Indices 1 2 3 4 5 6 
#
# 1 0.019095 -0.004953 -0.001001 -0.001685 -0.000389 -0.000228
# 2 -0.004953 0.010083 -0.002119 -0.000076 -0.001331 0.000127
# 3 -0.001001 -0.002119 0.011950 -0.005904 -0.011162 0.003268
# 4 -0.001685 -0.000076 -0.005904 0.023030 0.006542 -0.003046
# 5 -0.000389 -0.001331 -0.011162 0.006542 0.049710 -0.004006
# 6 -0.000228 0.000127 0.003268 -0.003046 -0.004006 0.017442
#
#
# Mechanical properties :
#
#
# Convention : Reuss Voigt Hill
#
# Bulk Modulus (GPa) = 40.02630 58.56232 49.29431
# Shear Modulus (GPa) = 32.09607 42.95622 37.52615
#
# Velocity S-wave (km/s) = 3.67572 4.25236 3.97451
# Velocity P-wave (km/s) = 5.90456 6.98298 6.46629
#
# Compressibility (1/GPa) = 0.02498357
#
# Stress axis : x y z
#
# Youngs Moduli (GPa) = 52.36974 99.17482 83.68468
#
# Poissons Ratio (x) = 0.49117 0.08373
# Poissons Ratio (y) = 0.25936 0.17733
# Poissons Ratio (z) = 0.05240 0.21015
#
# Static dielectric constant tensor:
#      x y z
#    x 1.972370 0.007870 0.015530 
#    y 0.007870 1.985470 -0.012220 
#    z 0.015530 -0.012220 2.039720 
# 
# From -- ./inp_files/598998.got.cif
#   From: 2010.05.17/outbox.cif.g08.bks.cpg/sg2_300_cif.got.tgz:598998.got - 2010.06.03 11:33:40.
