data_PCOD9018469
_publ_section_title
;
Structure prediction by ZEFSAII (Michael W. Deem and Ramdas Pophale) SiO2 
 PCOD9018469
Probable space group: P -1
;
_chemical_formula_sum "Si O2"
_cell_formula_units_Z 14
_cell_length_a 7.723208
_cell_length_b 5.848056
_cell_length_c 17.848566
_cell_angle_alpha 121.645923
_cell_angle_beta 126.912572
_cell_angle_gamma 62.316899
_cell_volume 535.320832
_symmetry_space_group_name_H-M "P -1"
_symmetry_group_IT_number 2
_symmetry_cell_setting 'triclinic'
loop_
_space_group_symop_operation_xyz
x,y,z
-x,-y,-z
loop_
_atom_site_type_symbol
_atom_site_label
_atom_site_fract_x
_atom_site_fract_y
_atom_site_fract_z
Si Si1 0.601618 0.743199 0.700814
Si Si2 0.052040 0.936077 0.322996
Si Si3 0.363604 0.914616 0.519341
Si Si4 0.221458 0.503992 0.645479
Si Si5 0.883075 0.441282 0.842283
Si Si6 0.645619 0.690025 0.974460
Si Si7 0.633293 0.696924 0.197616
O O1 0.422621 0.587766 0.666693
O O2 0.832543 0.619331 0.782672
O O3 0.527463 0.751375 0.596049
O O4 0.540195 0.055252 0.767235
O O5 0.819065 0.846000 0.241253
O O6 0.160828 0.842930 0.254854
O O7 0.997514 0.259850 0.382831
O O8 0.186213 0.790229 0.404778
O O9 0.229140 0.188827 0.573304
O O10 0.500000 0.000000 0.500000
O O11 0.262095 0.510245 0.745272
O O12 0.726493 0.607882 0.895007
O O13 0.126875 0.373297 0.929969
O O14 0.494146 0.474282 0.916436
O O15 0.500000 0.000000 0.000000
#
# Coordination Sequence:
#
# PCOD9018469 Si02
#       7
#     2   2   2   2   2   2   2
#     4  10  23  44  71 107 149 190 249 301 361 448
#     4  11  25  43  69 109 144 198 256 291 374 445
#     4  11  25  42  72 106 154 203 245 302 366 434
#     4  10  21  43  70  99 152 194 241 306 357 429
#     4  11  25  46  75 109 145 191 251 305 372 446
#     4  11  25  50  80 106 146 196 247 312 382 441
#     4  10  23  44  73 102 151 192 241 315 366 434
#
# _framework density 26.152540999999999
#
# number of rings (size 3 to 8) (size 9 to 14) (size 15 to 20)
#    0.000    1.429    1.429    2.143    4.000   10.857 
#    5.143    0.000    0.000    0.000    0.000    0.000 
#    0.000    0.000    0.000    0.000    0.000    0.000 
#
# Total GULP energy -78255.358644 kJ/mol
# GULP energy per Si atom -5589.668475 kJ/mol
# Density = 2.609302 g / cm^3
# Si number density = 26.152541 Si / 1000 Ang^3
#
#
#
# Elastic Constant Matrix: (Units=GPa)
#
#
# Indices 1 2 3 4 5 6 
#
# 1 108.7706 28.9646 46.3049 0.4156 -18.2670 -13.4989
# 2 28.9646 129.2925 69.8530 -17.8280 -4.3647 -41.7051
# 3 46.3049 69.8530 219.0327 -17.3912 -24.5024 -20.0559
# 4 0.4156 -17.8280 -17.3912 54.2724 8.7404 -1.9425
# 5 -18.2670 -4.3647 -24.5024 8.7404 41.2772 -1.8129
# 6 -13.4989 -41.7051 -20.0559 -1.9425 -1.8129 45.5332
#
#
#
# Elastic Compliance Matrix: (Units=1/GPa)
#
#
# Indices 1 2 3 4 5 6 
#
# 1 0.011071 -0.001265 -0.001434 -0.001599 0.004323 0.001596
# 2 -0.001265 0.013655 -0.002888 0.004161 -0.001229 0.010988
# 3 -0.001434 -0.002888 0.006098 0.000598 0.002542 -0.000258
# 4 -0.001599 0.004161 0.000598 0.020816 -0.004131 0.004324
# 5 0.004323 -0.001229 0.002542 -0.004131 0.028491 0.002234
# 6 0.001596 0.010988 -0.000258 0.004324 0.002234 0.032659
#
#
# Mechanical properties :
#
#
# Convention : Reuss Voigt Hill
#
# Bulk Modulus (GPa) = 50.89398 83.03785 66.96592
# Shear Modulus (GPa) = 38.30946 49.01477 43.66211
#
# Velocity S-wave (km/s) = 3.83148 4.33389 4.09041
# Velocity P-wave (km/s) = 6.25111 7.54080 6.92604
#
# Compressibility (1/GPa) = 0.01964869
#
# Stress axis : x y z
#
# Youngs Moduli (GPa) = 90.32348 73.23354 163.98703
#
# Poissons Ratio (x) = 0.09266 0.23521
# Poissons Ratio (y) = 0.11428 0.47364
# Poissons Ratio (z) = 0.12955 0.21152
#
# Static dielectric constant tensor:
#      x y z
#    x 2.203160 -0.032050 0.005220 
#    y -0.032050 2.130060 0.000190 
#    z 0.005220 0.000190 2.040080 
# 
# From -- ./inp_files/553890.got.cif
#   From: 2010.05.17/outbox.cif.g08.bks.cpg/sg2_277_cif.got.tgz:553890.got - 2010.06.03 11:33:40.
