data_PCOD9018230
_publ_section_title
;
Structure prediction by ZEFSAII (Michael W. Deem and Ramdas Pophale) SiO2 
 PCOD9018230
Probable space group: P -1
;
_chemical_formula_sum "Si O2"
_cell_formula_units_Z 14
_cell_length_a 11.061255
_cell_length_b 19.081395
_cell_length_c 13.973490
_cell_angle_alpha 24.642247
_cell_angle_beta 34.297972
_cell_angle_gamma 34.328641
_cell_volume 656.753107
_symmetry_space_group_name_H-M "P -1"
_symmetry_group_IT_number 2
_symmetry_cell_setting 'triclinic'
loop_
_space_group_symop_operation_xyz
x,y,z
-x,-y,-z
loop_
_atom_site_type_symbol
_atom_site_label
_atom_site_fract_x
_atom_site_fract_y
_atom_site_fract_z
Si Si1 0.585531 0.789659 0.682582
Si Si2 0.109732 0.852858 0.873817
Si Si3 0.592359 0.475303 0.578316
Si Si4 0.032189 0.142018 0.725790
Si Si5 0.391927 0.160151 0.796310
Si Si6 0.774416 0.024774 0.555690
Si Si7 0.220116 0.345885 0.079612
O O1 0.357088 0.735474 0.898261
O O2 0.749421 0.685046 0.788706
O O3 0.745389 0.796415 0.479819
O O4 0.500000 0.000000 0.500000
O O5 0.184299 0.873056 0.691789
O O6 0.049257 0.035634 0.746681
O O7 0.874866 0.810386 0.084105
O O8 0.500000 0.500000 0.500000
O O9 0.828316 0.321224 0.626796
O O10 0.595820 0.661901 0.383893
O O11 0.425329 0.406265 0.835724
O O12 0.000000 0.000000 0.000000
O O13 0.553058 0.112987 0.655754
O O14 0.500000 0.000000 0.000000
O O15 0.768000 0.836512 0.753922
O O16 0.000000 0.000000 0.500000
O O17 0.000000 0.500000 0.000000
#
# Coordination Sequence:
#
# PCOD9018230 Si02
#       7
#     2   2   2   2   2   2   2
#     4  10  21  43  69 104 139 183 240 291 361 432
#     4  11  24  44  74 104 143 189 244 293 369 440
#     4  12  26  44  71 106 137 188 252 303 356 437
#     4  11  23  44  77 103 144 189 241 303 366 435
#     4  12  26  46  68 104 152 194 243 303 374 431
#     4  12  24  43  73 107 146 195 236 301 369 434
#     4  12  24  43  72 105 144 185 247 305 355 434
#
# _framework density 21.316989
#
# number of rings (size 3 to 8) (size 9 to 14) (size 15 to 20)
#    0.000    0.571    4.286    6.000    2.000    0.000 
#    2.571    3.571    0.000    0.000    0.000    0.000 
#    0.000    0.000    0.000    0.000    0.000    0.000 
#
# Total GULP energy -78149.598069 kJ/mol
# GULP energy per Si atom -5582.114148 kJ/mol
# Density = 2.126847 g / cm^3
# Si number density = 21.316989 Si / 1000 Ang^3
#
#
#
# Elastic Constant Matrix: (Units=GPa)
#
#
# Indices 1 2 3 4 5 6 
#
# 1 107.7450 55.1029 47.1609 8.8772 -5.5982 -8.3137
# 2 55.1029 144.7751 49.8428 25.2131 -3.9240 -15.3526
# 3 47.1609 49.8428 99.9278 27.8931 -11.8133 -4.0765
# 4 8.8772 25.2131 27.8931 47.1354 -5.7195 -2.4180
# 5 -5.5982 -3.9240 -11.8133 -5.7195 54.0743 5.8768
# 6 -8.3137 -15.3526 -4.0765 -2.4180 5.8768 41.5710
#
#
#
# Elastic Compliance Matrix: (Units=1/GPa)
#
#
# Indices 1 2 3 4 5 6 
#
# 1 0.013232 -0.003621 -0.005085 0.002522 0.000161 0.000934
# 2 -0.003621 0.009900 -0.002321 -0.003200 -0.000788 0.002629
# 3 -0.005085 -0.002321 0.015695 -0.006884 0.002118 -0.001035
# 4 0.002522 -0.003200 -0.006884 0.026690 0.001347 0.000009
# 5 0.000161 -0.000788 0.002118 0.001347 0.019352 -0.002708
# 6 0.000934 0.002629 -0.001035 0.000009 -0.002708 0.025495
#
#
# Mechanical properties :
#
#
# Convention : Reuss Voigt Hill
#
# Bulk Modulus (GPa) = 59.62788 72.96236 66.29512
# Shear Modulus (GPa) = 36.22953 41.91223 39.07088
#
# Velocity S-wave (km/s) = 4.12705 4.43893 4.28583
# Velocity P-wave (km/s) = 7.12339 7.78292 7.46045
#
# Compressibility (1/GPa) = 0.01677068
#
# Stress axis : x y z
#
# Youngs Moduli (GPa) = 75.57660 101.01497 63.71518
#
# Poissons Ratio (x) = 0.36579 0.32400
# Poissons Ratio (y) = 0.27367 0.14790
# Poissons Ratio (z) = 0.38432 0.23449
#
# Static dielectric constant tensor:
#      x y z
#    x 1.774130 0.013000 -0.056520 
#    y 0.013000 1.742370 0.085600 
#    z -0.056520 0.085600 1.765800 
# 
# From -- ./inp_files/280211.got.cif
#   From: 2010.05.17/outbox.cif.g08.bks.cpg/sg2_141_cif.got.tgz:280211.got - 2010.06.03 11:33:40.
