data_PCOD9018204
_publ_section_title
;
Structure prediction by ZEFSAII (Michael W. Deem and Ramdas Pophale) SiO2 
 PCOD9018204
Probable space group: P -1
;
_chemical_formula_sum "Si O2"
_cell_formula_units_Z 16
_cell_length_a 15.511212
_cell_length_b 5.568824
_cell_length_c 10.404047
_cell_angle_alpha 71.467251
_cell_angle_beta 48.907478
_cell_angle_gamma 87.560563
_cell_volume 624.532436
_symmetry_space_group_name_H-M "P -1"
_symmetry_group_IT_number 2
_symmetry_cell_setting 'triclinic'
loop_
_space_group_symop_operation_xyz
x,y,z
-x,-y,-z
loop_
_atom_site_type_symbol
_atom_site_label
_atom_site_fract_x
_atom_site_fract_y
_atom_site_fract_z
Si Si1 0.842928 0.025102 0.767724
Si Si2 0.713578 0.075986 0.184878
Si Si3 0.606988 0.468994 0.779638
Si Si4 0.523594 0.682184 0.320952
Si Si5 0.696347 0.438717 0.955491
Si Si6 0.029247 0.860190 0.124443
Si Si7 0.317971 0.985301 0.490742
Si Si8 0.152154 0.666075 0.533271
O O1 0.779324 0.249642 0.850405
O O2 0.928827 0.986539 0.807924
O O3 0.895325 0.171738 0.558950
O O4 0.766296 0.739388 0.848421
O O5 0.688152 0.936418 0.369379
O O6 0.655526 0.851148 0.180535
O O7 0.656285 0.311063 0.155892
O O8 0.850028 0.208844 0.027136
O O9 0.505298 0.391519 0.786948
O O10 0.595949 0.389863 0.952415
O O11 0.719004 0.364488 0.635480
O O12 0.653595 0.776916 0.673716
O O13 0.500000 0.500000 0.500000
O O14 0.426505 0.851425 0.408357
O O15 0.930999 0.610694 0.306058
O O16 0.000000 0.000000 0.000000
O O17 0.191042 0.817150 0.601992
#
# Coordination Sequence:
#
# PCOD9018204 Si02
#       8
#     2   2   2   2   2   2   2   2
#     4  10  22  46  68 100 139 187 232 274 340 419
#     4  11  25  43  64 103 138 178 226 288 348 407
#     4  10  21  43  69 101 131 176 234 277 334 415
#     4  11  24  41  71  96 133 181 232 280 344 409
#     4  10  23  44  71 101 143 178 223 292 348 401
#     4  11  25  43  67 102 140 181 224 289 347 402
#     4  11  22  41  70  97 129 177 237 280 335 414
#     4  10  22  42  70  96 136 183 226 279 338 415
#
# _framework density 25.619164999999999
#
# number of rings (size 3 to 8) (size 9 to 14) (size 15 to 20)
#    0.000    1.500    2.500    1.500    3.500    2.000 
#    6.750    4.375    0.000    0.000    0.000    0.000 
#    0.000    0.000    0.000    0.000    0.000    0.000 
#
# Total GULP energy -89297.474474 kJ/mol
# GULP energy per Si atom -5581.092155 kJ/mol
# Density = 2.556085 g / cm^3
# Si number density = 25.619165 Si / 1000 Ang^3
#
#
#
# Elastic Constant Matrix: (Units=GPa)
#
#
# Indices 1 2 3 4 5 6 
#
# 1 201.0412 40.2974 52.3793 -6.7289 38.2372 26.8786
# 2 40.2974 75.0811 16.5997 -11.0628 8.8514 25.7332
# 3 52.3793 16.5997 110.0785 -9.4730 32.5691 30.3887
# 4 -6.7289 -11.0628 -9.4730 40.1113 -0.6243 -2.1202
# 5 38.2372 8.8514 32.5691 -0.6243 48.5287 -10.8816
# 6 26.8786 25.7332 30.3887 -2.1202 -10.8816 49.5992
#
#
#
# Elastic Compliance Matrix: (Units=1/GPa)
#
#
# Indices 1 2 3 4 5 6 
#
# 1 0.007073 -0.001479 -0.000041 0.000439 -0.006256 -0.004395
# 2 -0.001479 0.019623 0.004511 0.005370 -0.008460 -0.013770
# 3 -0.000041 0.004511 0.018661 0.004462 -0.017141 -0.017322
# 4 0.000439 0.005370 0.004462 0.027153 -0.005261 -0.005751
# 5 -0.006256 -0.008460 -0.017141 -0.005261 0.044766 0.027878
# 6 -0.004395 -0.013770 -0.017322 -0.005751 0.027878 0.046170
#
#
# Mechanical properties :
#
#
# Convention : Reuss Voigt Hill
#
# Bulk Modulus (GPa) = 19.47769 67.19485 43.33627
# Shear Modulus (GPa) = 28.64045 46.10948 37.37496
#
# Velocity S-wave (km/s) = 3.34717 4.24701 3.82366
# Velocity P-wave (km/s) = 4.74946 7.09470 6.03706
#
# Compressibility (1/GPa) = 0.05134080
#
# Stress axis : x y z
#
# Youngs Moduli (GPa) = 141.37796 50.95943 53.58745
#
# Poissons Ratio (x) = 0.07536 0.00218
# Poissons Ratio (y) = 0.20908 -0.24174
# Poissons Ratio (z) = 0.00576 -0.22989
#
# Static dielectric constant tensor:
#      x y z
#    x 2.045240 -0.041460 0.001520 
#    y -0.041460 2.160190 0.100260 
#    z 0.001520 0.100260 2.062370 
# 
# From -- ./inp_files/364298.got.cif
#   From: 2010.05.17/outbox.cif.g08.bks.cpg/sg2_183_cif.got.tgz:364298.got - 2010.06.03 11:33:40.
