data_PCOD9018056
_publ_section_title
;
Structure prediction by ZEFSAII (Michael W. Deem and Ramdas Pophale) SiO2 
 PCOD9018056
Probable space group: P -1
;
_chemical_formula_sum "Si O2"
_cell_formula_units_Z 14
_cell_length_a 10.879718
_cell_length_b 4.881890
_cell_length_c 21.928313
_cell_angle_alpha 114.227989
_cell_angle_beta 147.056344
_cell_angle_gamma 81.153871
_cell_volume 533.222917
_symmetry_space_group_name_H-M "P -1"
_symmetry_group_IT_number 2
_symmetry_cell_setting 'triclinic'
loop_
_space_group_symop_operation_xyz
x,y,z
-x,-y,-z
loop_
_atom_site_type_symbol
_atom_site_label
_atom_site_fract_x
_atom_site_fract_y
_atom_site_fract_z
Si Si1 0.599363 0.661116 0.791858
Si Si2 0.267685 0.965165 0.442604
Si Si3 0.574637 0.323504 0.412790
Si Si4 0.525727 0.467801 0.144188
Si Si5 0.952779 0.710659 0.768088
Si Si6 0.081423 0.638861 0.953272
Si Si7 0.669610 0.859806 0.127444
O O1 0.468932 0.696267 0.679046
O O2 0.425598 0.486499 0.759426
O O3 0.802240 0.505605 0.848411
O O4 0.763871 0.021136 0.918267
O O5 0.331830 0.918105 0.534946
O O6 0.076233 0.624536 0.307934
O O7 0.500000 0.000000 0.500000
O O8 0.243479 0.309075 0.460868
O O9 0.311450 0.275875 0.328387
O O10 0.681740 0.777217 0.196373
O O11 0.242364 0.429100 0.014843
O O12 0.563661 0.145246 0.109211
O O13 0.060358 0.694919 0.877989
O O14 0.106858 0.994661 0.812679
O O15 0.500000 0.500000 0.000000
#
# Coordination Sequence:
#
# PCOD9018056 Si02
#       7
#     2   2   2   2   2   2   2
#     4  10  22  44  67 101 139 174 233 282 349 410
#     4  10  21  43  68 102 133 171 227 290 352 401
#     4  10  23  42  74 101 131 175 224 296 348 400
#     4  12  25  44  63  95 141 183 233 274 334 418
#     4  10  23  45  68 100 141 173 231 282 349 414
#     4  10  22  42  68 103 135 182 220 292 350 412
#     4  12  28  44  65  94 143 195 228 275 335 419
#
# _framework density 26.255437000000001
#
# number of rings (size 3 to 8) (size 9 to 14) (size 15 to 20)
#    0.000    1.429    1.429    3.429    4.000    3.429 
#   20.571    0.000    0.000    5.143    0.000    0.000 
#    0.000    0.000    0.000    0.000    0.000    0.000 
#
# Total GULP energy -78502.882918 kJ/mol
# GULP energy per Si atom -5607.348780 kJ/mol
# Density = 2.619568 g / cm^3
# Si number density = 26.255437 Si / 1000 Ang^3
#
#
#
# Elastic Constant Matrix: (Units=GPa)
#
#
# Indices 1 2 3 4 5 6 
#
# 1 123.7696 57.4586 38.1832 -3.2101 -26.8877 36.9280
# 2 57.4586 176.3257 34.6103 -4.6335 -7.3995 17.8404
# 3 38.1832 34.6103 107.7306 3.4168 -36.8034 22.7896
# 4 -3.2101 -4.6335 3.4168 44.4046 15.7072 1.6839
# 5 -26.8877 -7.3995 -36.8034 15.7072 32.1112 -11.5491
# 6 36.9280 17.8404 22.7896 1.6839 -11.5491 58.9486
#
#
#
# Elastic Compliance Matrix: (Units=1/GPa)
#
#
# Indices 1 2 3 4 5 6 
#
# 1 0.013526 -0.003825 0.002075 -0.003877 0.012736 -0.005512
# 2 -0.003825 0.007408 -0.003621 0.003345 -0.007270 0.000034
# 3 0.002075 -0.003621 0.020809 -0.012401 0.030100 -0.001997
# 4 -0.003877 0.003345 -0.012401 0.035936 -0.034858 -0.001646
# 5 0.012736 -0.007270 0.030100 -0.034858 0.092277 0.001660
# 6 -0.005512 0.000034 -0.001997 -0.001646 0.001660 0.021551
#
#
# Mechanical properties :
#
#
# Convention : Reuss Voigt Hill
#
# Bulk Modulus (GPa) = 32.25773 74.25888 53.25830
# Shear Modulus (GPa) = 23.52039 45.59780 34.55909
#
# Velocity S-wave (km/s) = 2.99629 4.17189 3.63197
# Velocity P-wave (km/s) = 4.92779 7.17990 6.15768
#
# Compressibility (1/GPa) = 0.03100032
#
# Stress axis : x y z
#
# Youngs Moduli (GPa) = 73.93330 134.99300 48.05580
#
# Poissons Ratio (x) = 0.51628 -0.09970
# Poissons Ratio (y) = 0.28276 0.17402
# Poissons Ratio (z) = -0.15338 0.48884
#
# Static dielectric constant tensor:
#      x y z
#    x 2.089450 -0.029620 0.044300 
#    y -0.029620 2.044850 -0.018500 
#    z 0.044300 -0.018500 2.188010 
# 
# From -- ./inp_files/509920.got.cif
#   From: 2010.05.17/outbox.cif.g08.bks.cpg/sg2_255_cif.got.tgz:509920.got - 2010.06.03 11:33:40.
