data_PCOD9018300
_publ_section_title
;
Structure prediction by ZEFSAII (Michael W. Deem and Ramdas Pophale) SiO2 
 PCOD9018300
Probable space group: P -1
;
_chemical_formula_sum "Si O2"
_cell_formula_units_Z 16
_cell_length_a 10.871035
_cell_length_b 12.363402
_cell_length_c 21.277468
_cell_angle_alpha 41.763410
_cell_angle_beta 149.919398
_cell_angle_gamma 146.220375
_cell_volume 793.292577
_symmetry_space_group_name_H-M "P -1"
_symmetry_group_IT_number 2
_symmetry_cell_setting 'triclinic'
loop_
_space_group_symop_operation_xyz
x,y,z
-x,-y,-z
loop_
_atom_site_type_symbol
_atom_site_label
_atom_site_fract_x
_atom_site_fract_y
_atom_site_fract_z
Si Si1 0.063485 0.168254 0.505755
Si Si2 0.872612 0.222610 0.698595
Si Si3 0.106519 0.010020 0.813399
Si Si4 0.658120 0.939426 0.544643
Si Si5 0.202914 0.699109 0.041725
Si Si6 0.144265 0.568610 0.753030
Si Si7 0.684270 0.280166 0.775281
Si Si8 0.696796 0.962016 0.858213
O O1 0.399113 0.275905 0.630424
O O2 0.002294 0.314805 0.381202
O O3 0.000000 0.000000 0.500000
O O4 0.857707 0.086216 0.512768
O O5 0.623169 0.228828 0.546463
O O6 0.004253 0.129788 0.754479
O O7 0.115749 0.434627 0.740640
O O8 0.728975 0.075017 0.758531
O O9 0.450466 0.164703 0.882665
O O10 0.888466 0.918364 0.696249
O O11 0.081754 0.836225 0.917417
O O12 0.500000 0.000000 0.500000
O O13 0.209436 0.652427 0.137107
O O14 0.000000 0.500000 0.000000
O O15 0.470077 0.733664 0.846606
O O16 0.953975 0.419283 0.788581
O O17 0.594333 0.058256 0.821767
O O18 0.000000 0.000000 0.000000
#
# Coordination Sequence:
#
# PCOD9018300 Si02
#       8
#     2   2   2   2   2   2   2   2
#     4  12  21  42  71  97 135 172 221 280 339 398
#     4  10  22  42  66  97 126 169 221 265 336 397
#     4  10  23  44  65  89 134 172 215 279 322 394
#     4  10  21  43  69  96 133 179 220 277 345 392
#     4  11  25  42  64  96 127 174 225 265 327 393
#     4  11  24  41  67  99 131 169 219 276 330 405
#     4  11  24  41  65 100 130 173 220 272 336 396
#     4  11  23  41  65  93 134 175 211 270 332 398
#
# _framework density 20.169103
#
# number of rings (size 3 to 8) (size 9 to 14) (size 15 to 20)
#    0.000    1.250    3.750    1.875    0.000    9.000 
#    0.000    1.250    0.000    0.000    0.000    0.000 
#    0.000    0.000    0.000    0.000    0.000    0.000 
#
# Total GULP energy -89312.040686 kJ/mol
# GULP energy per Si atom -5582.002543 kJ/mol
# Density = 2.012320 g / cm^3
# Si number density = 20.169103 Si / 1000 Ang^3
#
#
#
# Elastic Constant Matrix: (Units=GPa)
#
#
# Indices 1 2 3 4 5 6 
#
# 1 63.9349 29.8020 21.6195 12.4290 -12.9032 -10.2231
# 2 29.8020 117.9820 55.3829 25.3891 -0.6335 -11.1537
# 3 21.6195 55.3829 138.0880 39.5299 -4.5548 -8.6687
# 4 12.4290 25.3891 39.5299 34.9251 -1.3075 1.5254
# 5 -12.9032 -0.6335 -4.5548 -1.3075 33.8190 4.0130
# 6 -10.2231 -11.1537 -8.6687 1.5254 4.0130 23.7537
#
#
#
# Elastic Compliance Matrix: (Units=1/GPa)
#
#
# Indices 1 2 3 4 5 6 
#
# 1 0.020632 -0.003614 0.000308 -0.005089 0.006883 0.006459
# 2 -0.003614 0.012015 -0.002794 -0.004529 -0.002147 0.003720
# 3 0.000308 -0.002794 0.011934 -0.011723 0.000769 0.003799
# 4 -0.005089 -0.004529 -0.011723 0.047496 -0.000395 -0.011578
# 5 0.006883 -0.002147 0.000769 -0.000395 0.032629 -0.003252
# 6 0.006459 0.003720 0.003799 -0.011578 -0.003252 0.049305
#
#
# Mechanical properties :
#
#
# Convention : Reuss Voigt Hill
#
# Bulk Modulus (GPa) = 30.88054 59.29043 45.08549
# Shear Modulus (GPa) = 25.38028 32.71292 29.04660
#
# Velocity S-wave (km/s) = 3.55121 4.03169 3.79905
# Velocity P-wave (km/s) = 5.67087 7.15075 6.45337
#
# Compressibility (1/GPa) = 0.03238285
#
# Stress axis : x y z
#
# Youngs Moduli (GPa) = 48.46778 83.22958 83.79597
#
# Poissons Ratio (x) = 0.30077 -0.02585
# Poissons Ratio (y) = 0.17515 0.23411
# Poissons Ratio (z) = -0.01495 0.23253
#
# Static dielectric constant tensor:
#      x y z
#    x 1.769410 -0.015060 -0.000990 
#    y -0.015060 1.703320 0.019840 
#    z -0.000990 0.019840 1.719270 
# 
# From -- ./inp_files/72314.got.cif
#   From: 2010.05.17/outbox.cif.g08.bks.cpg/sg2_37_cif.got.tgz:72314.got - 2010.06.03 11:33:40.
