data_PCOD9018011
_publ_section_title
;
Structure prediction by ZEFSAII (Michael W. Deem and Ramdas Pophale) SiO2 
 PCOD9018011
Probable space group: P -1
;
_chemical_formula_sum "Si O2"
_cell_formula_units_Z 16
_cell_length_a 20.794501
_cell_length_b 20.626793
_cell_length_c 5.243891
_cell_angle_alpha 109.368933
_cell_angle_beta 99.527718
_cell_angle_gamma 21.062046
_cell_volume 690.409345
_symmetry_space_group_name_H-M "P -1"
_symmetry_group_IT_number 2
_symmetry_cell_setting 'triclinic'
loop_
_space_group_symop_operation_xyz
x,y,z
-x,-y,-z
loop_
_atom_site_type_symbol
_atom_site_label
_atom_site_fract_x
_atom_site_fract_y
_atom_site_fract_z
Si Si1 0.404187 0.259362 0.627475
Si Si2 0.319496 0.231112 0.905729
Si Si3 0.047798 0.603439 0.540361
Si Si4 0.981060 0.953623 0.610829
Si Si5 0.296468 0.116467 0.986333
Si Si6 0.202036 0.964107 0.682630
Si Si7 0.280407 0.971114 0.255681
Si Si8 0.288985 0.738182 0.737580
O O1 0.214212 0.478970 0.648909
O O2 0.584438 0.063766 0.301444
O O3 0.511251 0.195147 0.837773
O O4 0.331732 0.256832 0.677549
O O5 0.173264 0.424156 0.226819
O O6 0.543468 0.012931 0.877095
O O7 0.254072 0.217903 0.882926
O O8 0.905520 0.792337 0.522898
O O9 0.897266 0.715714 0.779730
O O10 0.000746 0.861573 0.360186
O O11 0.153107 0.804153 0.722809
O O12 0.000000 0.000000 0.500000
O O13 0.778464 0.161112 0.908823
O O14 0.303641 0.900378 0.427640
O O15 0.267755 0.823425 0.639631
O O16 0.223052 0.989459 0.980256
O O17 0.500000 0.500000 0.500000
#
# Coordination Sequence:
#
# PCOD9018011 Si02
#       8
#     2   2   2   2   2   2   2   2
#     4  11  25  43  67  98 135 184 236 291 357 423
#     4  10  22  40  69 101 128 173 241 291 368 431
#     4  11  25  43  69  95 133 188 231 291 363 416
#     4   9  20  42  72 103 142 175 222 281 345 400
#     4  10  21  43  67  98 137 171 227 311 365 415
#     4  11  24  46  72 101 142 193 232 279 347 414
#     4  12  26  48  68  95 152 192 237 289 341 419
#     4  10  21  44  75 109 144 176 226 292 350 400
#
# _framework density 23.174655999999999
#
# number of rings (size 3 to 8) (size 9 to 14) (size 15 to 20)
#    0.000    1.500    2.500    1.500    5.250    2.500 
#    4.500    0.000    0.000    0.000    0.000    0.000 
#    0.000    0.000    0.000    0.000    0.000    0.000 
#
# Total GULP energy -89207.428216 kJ/mol
# GULP energy per Si atom -5575.464264 kJ/mol
# Density = 2.312191 g / cm^3
# Si number density = 23.174656 Si / 1000 Ang^3
#
#
#
# Elastic Constant Matrix: (Units=GPa)
#
#
# Indices 1 2 3 4 5 6 
#
# 1 98.4779 24.3589 38.4138 -0.2038 -6.4117 0.4309
# 2 24.3589 90.6379 42.0257 9.9673 0.4369 -8.8330
# 3 38.4138 42.0257 120.1786 1.8892 -18.1590 -14.3777
# 4 -0.2038 9.9673 1.8892 38.0779 -1.3396 -8.3746
# 5 -6.4117 0.4369 -18.1590 -1.3396 30.4763 -15.7405
# 6 0.4309 -8.8330 -14.3777 -8.3746 -15.7405 32.7936
#
#
#
# Elastic Compliance Matrix: (Units=1/GPa)
#
#
# Indices 1 2 3 4 5 6 
#
# 1 0.011980 -0.001773 -0.003705 0.000066 -0.001087 -0.002764
# 2 -0.001773 0.014263 -0.005313 -0.004055 -0.004871 -0.001838
# 3 -0.003705 -0.005313 0.015393 0.004271 0.015944 0.014110
# 4 0.000066 -0.004055 0.004271 0.030571 0.011163 0.013945
# 5 -0.001087 -0.004871 0.015944 0.011163 0.062568 0.038575
# 6 -0.002764 -0.001838 0.014110 0.013945 0.038575 0.058298
#
#
# Mechanical properties :
#
#
# Convention : Reuss Voigt Hill
#
# Bulk Modulus (GPa) = 49.86557 57.65458 53.76007
# Shear Modulus (GPa) = 22.58956 33.90264 28.24610
#
# Velocity S-wave (km/s) = 3.12549 3.82896 3.49497
# Velocity P-wave (km/s) = 5.88123 6.66935 6.28765
#
# Compressibility (1/GPa) = 0.02005392
#
# Stress axis : x y z
#
# Youngs Moduli (GPa) = 83.47317 70.11052 64.96331
#
# Poissons Ratio (x) = 0.12431 0.24070
# Poissons Ratio (y) = 0.14800 0.34515
# Poissons Ratio (z) = 0.30928 0.37250
#
# Static dielectric constant tensor:
#      x y z
#    x 1.934280 -0.093710 0.079650 
#    y -0.093710 2.127980 -0.253050 
#    z 0.079650 -0.253050 2.065990 
# 
# From -- ./inp_files/120459.got.cif
#   From: 2010.05.17/outbox.cif.g08.bks.cpg/sg2_61_cif.got.tgz:120459.got - 2010.06.03 11:33:40.
