data_PCOD9018964
_publ_section_title
;
Structure prediction by ZEFSAII (Michael W. Deem and Ramdas Pophale) SiO2 
 PCOD9018964
Probable space group: P -1
;
_chemical_formula_sum "Si O2"
_cell_formula_units_Z 14
_cell_length_a 21.583410
_cell_length_b 7.348461
_cell_length_c 20.701356
_cell_angle_alpha 35.505284
_cell_angle_beta 161.585290
_cell_angle_gamma 142.099416
_cell_volume 599.871482
_symmetry_space_group_name_H-M "P -1"
_symmetry_group_IT_number 2
_symmetry_cell_setting 'triclinic'
loop_
_space_group_symop_operation_xyz
x,y,z
-x,-y,-z
loop_
_atom_site_type_symbol
_atom_site_label
_atom_site_fract_x
_atom_site_fract_y
_atom_site_fract_z
Si Si1 0.585092 0.310740 0.956825
Si Si2 0.215759 0.634925 0.523196
Si Si3 0.041286 0.998541 0.928126
Si Si4 0.686753 0.444409 0.746252
Si Si5 0.219614 0.538820 0.026841
Si Si6 0.091779 0.994578 0.410360
Si Si7 0.889707 0.367350 0.350694
O O1 0.748178 0.431941 0.134455
O O2 0.417763 0.549630 0.719821
O O3 0.678257 0.292927 0.983539
O O4 0.500000 0.000000 0.000000
O O5 0.842861 0.823180 0.949802
O O6 0.103321 0.342825 0.536136
O O7 0.069566 0.737218 0.294784
O O8 0.861537 0.731253 0.837649
O O9 0.772589 0.086555 0.492011
O O10 0.203589 0.845161 0.089745
O O11 0.500000 0.500000 0.500000
O O12 0.643882 0.409597 0.790166
O O13 0.015470 0.694992 0.793062
O O14 0.179969 0.922969 0.588193
O O15 0.920242 0.700524 0.322297
#
# Coordination Sequence:
#
# PCOD9018964 Si02
#       7
#     2   2   2   2   2   2   2
#     4  12  27  40  67 111 150 189 240 291 345 425
#     4  10  21  44  66  98 144 191 229 290 356 414
#     4  11  25  48  77 107 139 186 242 304 367 431
#     4  11  27  52  77 104 143 182 242 309 373 432
#     4  12  24  48  76 107 145 189 244 297 366 428
#     4   9  20  41  71  92 136 202 230 286 358 417
#     4   9  20  43  62  93 150 185 242 283 341 413
#
# _framework density 23.338334
#
# number of rings (size 3 to 8) (size 9 to 14) (size 15 to 20)
#    0.857    0.571    2.857    1.286    4.000    2.286 
#    7.714    0.000    0.000    0.000    0.000    0.000 
#    0.000    0.000    0.000    0.000    0.000    0.000 
#
# Total GULP energy -78141.807151 kJ/mol
# GULP energy per Si atom -5581.557654 kJ/mol
# Density = 2.328522 g / cm^3
# Si number density = 23.338334 Si / 1000 Ang^3
#
#
#
# Elastic Constant Matrix: (Units=GPa)
#
#
# Indices 1 2 3 4 5 6 
#
# 1 101.8098 18.2568 52.9816 3.7977 -19.1676 -32.4097
# 2 18.2568 82.6205 17.7353 2.3428 1.7166 -14.2449
# 3 52.9816 17.7353 119.2630 5.5202 -11.6132 -20.8426
# 4 3.7977 2.3428 5.5202 21.5668 -5.3018 -0.1304
# 5 -19.1676 1.7166 -11.6132 -5.3018 39.8937 3.9929
# 6 -32.4097 -14.2449 -20.8426 -0.1304 3.9929 27.0905
#
#
#
# Elastic Compliance Matrix: (Units=1/GPa)
#
#
# Indices 1 2 3 4 5 6 
#
# 1 0.019374 -0.000174 -0.004724 -0.000595 0.006004 0.018564
# 2 -0.000174 0.013534 -0.000905 -0.001609 -0.001791 0.006468
# 3 -0.004724 -0.000905 0.011169 -0.001780 0.000546 0.002376
# 4 -0.000595 -0.001609 -0.001780 0.048576 0.006080 -0.003590
# 5 0.006004 -0.001791 0.000546 0.006080 0.028750 0.002453
# 6 0.018564 0.006468 0.002376 -0.003590 0.002453 0.063973
#
#
# Mechanical properties :
#
#
# Convention : Reuss Voigt Hill
#
# Bulk Modulus (GPa) = 30.79692 53.51564 42.15628
# Shear Modulus (GPa) = 24.06085 32.02483 28.04284
#
# Velocity S-wave (km/s) = 3.21434 3.70834 3.47014
# Velocity P-wave (km/s) = 5.19620 6.42774 5.84450
#
# Compressibility (1/GPa) = 0.03247078
#
# Stress axis : x y z
#
# Youngs Moduli (GPa) = 51.61501 73.88629 89.53358
#
# Poissons Ratio (x) = 0.01287 0.42300
# Poissons Ratio (y) = 0.00899 0.08101
# Poissons Ratio (z) = 0.24385 0.06685
#
# Static dielectric constant tensor:
#      x y z
#    x 1.945990 0.050770 -0.032970 
#    y 0.050770 2.027230 0.037640 
#    z -0.032970 0.037640 1.852870 
# 
# From -- ./inp_files/600972.got.cif
#   From: 2010.05.17/outbox.cif.g08.bks.cpg/sg2_301_cif.got.tgz:600972.got - 2010.06.03 11:33:40.
