data_PCOD9018401
_publ_section_title
;
Structure prediction by ZEFSAII (Michael W. Deem and Ramdas Pophale) SiO2 
 PCOD9018401
Probable space group: P -1
;
_chemical_formula_sum "Si O2"
_cell_formula_units_Z 16
_cell_length_a 6.873813
_cell_length_b 12.295521
_cell_length_c 10.443190
_cell_angle_alpha 117.818461
_cell_angle_beta 111.696682
_cell_angle_gamma 86.954460
_cell_volume 717.623111
_symmetry_space_group_name_H-M "P -1"
_symmetry_group_IT_number 2
_symmetry_cell_setting 'triclinic'
loop_
_space_group_symop_operation_xyz
x,y,z
-x,-y,-z
loop_
_atom_site_type_symbol
_atom_site_label
_atom_site_fract_x
_atom_site_fract_y
_atom_site_fract_z
Si Si1 0.824041 0.573227 0.440103
Si Si2 0.571177 0.573531 0.872968
Si Si3 0.270288 0.283657 0.260195
Si Si4 0.481825 0.044390 0.165441
Si Si5 0.597079 0.318065 0.860069
Si Si6 0.907312 0.157554 0.965177
Si Si7 0.085860 0.036857 0.718306
Si Si8 0.819884 0.811549 0.423088
O O1 0.659822 0.479514 0.267541
O O2 0.709576 0.631397 0.563185
O O3 0.904177 0.690174 0.432557
O O4 0.000000 0.500000 0.500000
O O5 0.698443 0.638058 0.820377
O O6 0.656029 0.452287 0.883150
O O7 0.535694 0.661911 0.031748
O O8 0.432260 0.183982 0.243529
O O9 0.030519 0.210800 0.150911
O O10 0.282435 0.951845 0.117432
O O11 0.698332 0.021722 0.273751
O O12 0.500000 0.000000 0.000000
O O13 0.800496 0.259834 0.918994
O O14 0.430995 0.230504 0.682385
O O15 0.076377 0.104019 0.887610
O O16 0.081112 0.136097 0.658272
O O17 0.888613 0.927359 0.596905
#
# Coordination Sequence:
#
# PCOD9018401 Si02
#       8
#     2   2   2   2   2   2   2   2
#     4  11  25  43  67  95 135 175 223 278 333 390
#     4  10  23  44  66  95 132 175 225 275 334 387
#     4  12  25  41  67 101 134 173 226 269 335 401
#     4  12  25  43  70 100 141 173 214 279 330 401
#     4  10  21  43  70  93 133 176 221 279 327 395
#     4  12  24  42  70 102 129 175 224 267 338 399
#     4  11  24  44  69 100 135 175 221 272 334 398
#     4  10  23  45  63  98 132 177 219 272 334 392
#
# _framework density 22.295828
#
# number of rings (size 3 to 8) (size 9 to 14) (size 15 to 20)
#    0.000    1.000    2.500    3.750    3.500    2.000 
#    9.000    0.000    0.000    0.000    0.000    0.000 
#    0.000    0.000    0.000    0.000    0.000    0.000 
#
# Total GULP energy -89535.818874 kJ/mol
# GULP energy per Si atom -5595.988680 kJ/mol
# Density = 2.224508 g / cm^3
# Si number density = 22.295828 Si / 1000 Ang^3
#
#
#
# Elastic Constant Matrix: (Units=GPa)
#
#
# Indices 1 2 3 4 5 6 
#
# 1 56.4896 52.6197 1.4135 -4.6335 -1.6100 -7.4947
# 2 52.6197 115.1814 31.6753 -15.5485 4.8463 -18.6910
# 3 1.4135 31.6753 70.7645 -1.4033 3.7489 7.4490
# 4 -4.6335 -15.5485 -1.4033 31.3476 1.2578 7.6074
# 5 -1.6100 4.8463 3.7489 1.2578 22.9955 -1.2545
# 6 -7.4947 -18.6910 7.4490 7.6074 -1.2545 27.6637
#
#
#
# Elastic Compliance Matrix: (Units=1/GPa)
#
#
# Indices 1 2 3 4 5 6 
#
# 1 0.035205 -0.019855 0.008371 -0.003265 0.005191 -0.004998
# 2 -0.019855 0.023669 -0.011113 0.005595 -0.004225 0.011875
# 3 0.008371 -0.011113 0.020070 -0.000802 -0.000871 -0.010464
# 4 -0.003265 0.005595 -0.000802 0.035989 -0.003625 -0.006949
# 5 0.005191 -0.004225 -0.000871 -0.003625 0.045181 0.001832
# 6 -0.004998 0.011875 -0.010464 -0.006949 0.001832 0.047629
#
#
# Mechanical properties :
#
#
# Convention : Reuss Voigt Hill
#
# Bulk Modulus (GPa) = 29.63076 45.98363 37.80720
# Shear Modulus (GPa) = 18.92584 26.84982 22.88783
#
# Velocity S-wave (km/s) = 2.91667 3.47400 3.20746
# Velocity P-wave (km/s) = 4.96601 6.06306 5.54175
#
# Compressibility (1/GPa) = 0.03374871
#
# Stress axis : x y z
#
# Youngs Moduli (GPa) = 28.40499 42.24929 49.82457
#
# Poissons Ratio (x) = 0.83888 -0.41707
# Poissons Ratio (y) = 0.56399 0.55371
# Poissons Ratio (z) = -0.23777 0.46953
#
# Static dielectric constant tensor:
#      x y z
#    x 1.807520 0.023640 0.015260 
#    y 0.023640 1.839070 0.001160 
#    z 0.015260 0.001160 1.807440 
# 
# From -- ./inp_files/365104.got.cif
#   From: 2010.05.17/outbox.cif.g08.bks.cpg/sg2_183_cif.got.tgz:365104.got - 2010.06.03 11:33:40.
