data_PCOD9018294
_publ_section_title
;
Structure prediction by ZEFSAII (Michael W. Deem and Ramdas Pophale) SiO2 
 PCOD9018294
Probable space group: P -1
;
_chemical_formula_sum "Si O2"
_cell_formula_units_Z 16
_cell_length_a 10.665422
_cell_length_b 17.949737
_cell_length_c 9.806881
_cell_angle_alpha 44.807862
_cell_angle_beta 105.956080
_cell_angle_gamma 139.645018
_cell_volume 696.457403
_symmetry_space_group_name_H-M "P -1"
_symmetry_group_IT_number 2
_symmetry_cell_setting 'triclinic'
loop_
_space_group_symop_operation_xyz
x,y,z
-x,-y,-z
loop_
_atom_site_type_symbol
_atom_site_label
_atom_site_fract_x
_atom_site_fract_y
_atom_site_fract_z
Si Si1 0.969091 0.044225 0.297017
Si Si2 0.519899 0.253027 0.372449
Si Si3 0.760549 0.992443 0.921825
Si Si4 0.231264 0.217269 0.676412
Si Si5 0.043294 0.535867 0.247857
Si Si6 0.537522 0.139918 0.253954
Si Si7 0.362793 0.467767 0.792310
Si Si8 0.057932 0.703389 0.270194
O O1 0.729762 0.952122 0.367360
O O2 0.919835 0.940085 0.285849
O O3 0.000000 0.000000 0.500000
O O4 0.211781 0.270410 0.058792
O O5 0.510120 0.211418 0.267520
O O6 0.538457 0.388510 0.246315
O O7 0.766723 0.372841 0.345925
O O8 0.042612 0.157389 0.779839
O O9 0.751209 0.077501 0.921293
O O10 0.650841 0.963204 0.788462
O O11 0.660746 0.810058 0.174149
O O12 0.430128 0.419376 0.397592
O O13 0.030735 0.410071 0.468588
O O14 0.141877 0.672413 0.226998
O O15 0.207417 0.673717 0.988148
O O16 0.500000 0.000000 0.500000
O O17 0.169223 0.402252 0.734999
#
# Coordination Sequence:
#
# PCOD9018294 Si02
#       8
#     2   2   2   2   2   2   2   2
#     4  11  23  45  67  98 135 173 223 278 338 404
#     4  10  24  42  66  95 134 172 222 272 331 403
#     4  11  23  43  66 101 138 177 221 282 336 400
#     4  10  23  43  68 102 136 174 229 273 338 406
#     4  10  23  44  66  99 129 176 232 275 332 404
#     4  12  26  42  66  99 142 180 221 284 341 397
#     4  10  22  43  70  96 131 178 220 279 332 402
#     4  10  21  43  69  96 129 175 226 278 334 391
#
# _framework density 22.973406000000001
#
# number of rings (size 3 to 8) (size 9 to 14) (size 15 to 20)
#    0.000    1.500    1.250    2.625    3.500    4.000 
#    9.000    0.000    0.000    0.000    0.000    0.000 
#    0.000    0.000    0.000    0.000    0.000    0.000 
#
# Total GULP energy -89405.123356 kJ/mol
# GULP energy per Si atom -5587.820210 kJ/mol
# Density = 2.292112 g / cm^3
# Si number density = 22.973406 Si / 1000 Ang^3
#
#
#
# Elastic Constant Matrix: (Units=GPa)
#
#
# Indices 1 2 3 4 5 6 
#
# 1 33.9233 11.6785 25.5788 -1.3378 3.6153 4.0040
# 2 11.6785 106.6556 20.0032 7.3872 6.5827 2.7329
# 3 25.5788 20.0032 171.8644 1.4225 3.9167 12.5082
# 4 -1.3378 7.3872 1.4225 28.2706 5.0412 -2.1362
# 5 3.6153 6.5827 3.9167 5.0412 22.8121 10.1578
# 6 4.0040 2.7329 12.5082 -2.1362 10.1578 34.4445
#
#
#
# Elastic Compliance Matrix: (Units=1/GPa)
#
#
# Indices 1 2 3 4 5 6 
#
# 1 0.034684 -0.002863 -0.004714 0.003353 -0.004332 -0.000608
# 2 -0.002863 0.010098 -0.000701 -0.002385 -0.001901 0.000199
# 3 -0.004714 -0.000701 0.006744 -0.000704 0.000907 -0.002157
# 4 0.003353 -0.002385 -0.000704 0.038528 -0.010735 0.005610
# 5 -0.004332 -0.001901 0.000907 -0.010735 0.054611 -0.016446
# 6 -0.000608 0.000199 -0.002157 0.005610 -0.016446 0.035068
#
#
# Mechanical properties :
#
#
# Convention : Reuss Voigt Hill
#
# Bulk Modulus (GPa) = 28.59507 47.44049 38.01778
# Shear Modulus (GPa) = 24.04491 34.11763 29.08127
#
# Velocity S-wave (km/s) = 3.23869 3.85787 3.56176
# Velocity P-wave (km/s) = 5.14389 6.36704 5.78787
#
# Compressibility (1/GPa) = 0.03497106
#
# Stress axis : x y z
#
# Youngs Moduli (GPa) = 28.83208 99.02645 148.28599
#
# Poissons Ratio (x) = 0.28352 0.69896
# Poissons Ratio (y) = 0.08255 0.10389
# Poissons Ratio (z) = 0.13590 0.06938
#
# Static dielectric constant tensor:
#      x y z
#    x 1.884990 0.001180 0.008540 
#    y 0.001180 1.844480 -0.024930 
#    z 0.008540 -0.024930 1.893300 
# 
# From -- ./inp_files/279075.got.cif
#   From: 2010.05.17/outbox.cif.g08.bks.cpg/sg2_140_cif.got.tgz:279075.got - 2010.06.03 11:33:40.
