data_PCOD9018093
_publ_section_title
;
Structure prediction by ZEFSAII (Michael W. Deem and Ramdas Pophale) SiO2 
 PCOD9018093
Probable space group: P -1
;
_chemical_formula_sum "Si O2"
_cell_formula_units_Z 16
_cell_length_a 26.873139
_cell_length_b 11.788972
_cell_length_c 7.804741
_cell_angle_alpha 55.880476
_cell_angle_beta 42.714153
_cell_angle_gamma 24.929230
_cell_volume 657.205675
_symmetry_space_group_name_H-M "P -1"
_symmetry_group_IT_number 2
_symmetry_cell_setting 'triclinic'
loop_
_space_group_symop_operation_xyz
x,y,z
-x,-y,-z
loop_
_atom_site_type_symbol
_atom_site_label
_atom_site_fract_x
_atom_site_fract_y
_atom_site_fract_z
Si Si1 0.362483 0.606321 0.939356
Si Si2 0.717021 0.352327 0.532487
Si Si3 0.017683 0.750396 0.108186
Si Si4 0.098919 0.904846 0.184806
Si Si5 0.308669 0.367061 0.885813
Si Si6 0.026677 0.472046 0.750026
Si Si7 0.301260 0.906951 0.100520
Si Si8 0.642492 0.986500 0.825133
O O1 0.304471 0.603323 0.247400
O O2 0.220268 0.827358 0.984188
O O3 0.374471 0.737897 0.877617
O O4 0.524627 0.270979 0.767939
O O5 0.640437 0.597616 0.405755
O O6 0.662304 0.284686 0.709140
O O7 0.893732 0.038718 0.290786
O O8 0.182435 0.483408 0.005653
O O9 0.965598 0.686465 0.234020
O O10 0.026116 0.825536 0.853252
O O11 0.211193 0.608096 0.069557
O O12 0.000000 0.000000 0.500000
O O13 0.412878 0.078901 0.951650
O O14 0.879328 0.785403 0.761971
O O15 0.648663 0.050812 0.942639
O O16 0.000000 0.500000 0.000000
O O17 0.187248 0.284917 0.461069
#
# Coordination Sequence:
#
# PCOD9018093 Si02
#       8
#     2   2   2   2   2   2   2   2
#     4  10  23  42  67  95 129 173 213 263 328 382
#     4   9  20  39  63  89 128 160 215 252 322 380
#     4  11  20  38  64  94 124 163 222 266 312 379
#     4  11  23  39  66  93 133 172 216 263 320 383
#     4  11  23  38  66  99 123 169 212 270 320 377
#     4  12  24  39  63  98 130 167 217 274 318 374
#     4  10  21  43  68  91 126 176 215 260 318 389
#     4  12  24  42  67  95 135 168 215 268 324 383
#
# _framework density 24.345499
#
# number of rings (size 3 to 8) (size 9 to 14) (size 15 to 20)
#    0.750    0.500    2.500    5.250    3.500    1.000 
#    0.000    5.000    0.000    0.000    0.000    0.000 
#    0.000    0.000    0.000    0.000    0.000    0.000 
#
# Total GULP energy -89255.371761 kJ/mol
# GULP energy per Si atom -5578.460735 kJ/mol
# Density = 2.429009 g / cm^3
# Si number density = 24.345499 Si / 1000 Ang^3
#
#
#
# Elastic Constant Matrix: (Units=GPa)
#
#
# Indices 1 2 3 4 5 6 
#
# 1 75.6420 12.9808 9.2087 -0.4660 -0.6712 0.7249
# 2 12.9808 76.9729 19.5814 0.9055 -0.6949 14.0319
# 3 9.2087 19.5814 60.9812 -13.3085 5.8916 -4.7610
# 4 -0.4660 0.9055 -13.3085 31.4898 -6.0873 -12.9669
# 5 -0.6712 -0.6949 5.8916 -6.0873 23.4547 0.0502
# 6 0.7249 14.0319 -4.7610 -12.9669 0.0502 35.6202
#
#
#
# Elastic Compliance Matrix: (Units=1/GPa)
#
#
# Indices 1 2 3 4 5 6 
#
# 1 0.013746 -0.001964 -0.001528 -0.000160 0.000677 0.000230
# 2 -0.001964 0.017464 -0.008026 -0.008374 0.000328 -0.010961
# 3 -0.001528 -0.008026 0.023500 0.014438 -0.002462 0.011593
# 4 -0.000160 -0.008374 0.014438 0.049362 0.008882 0.023189
# 5 0.000677 0.000328 -0.002462 0.008882 0.045582 0.002697
# 6 0.000230 -0.010961 0.011593 0.023189 0.002697 0.042374
#
#
# Mechanical properties :
#
#
# Convention : Reuss Voigt Hill
#
# Bulk Modulus (GPa) = 31.56981 33.01533 32.29257
# Shear Modulus (GPa) = 22.16088 29.56796 25.86442
#
# Velocity S-wave (km/s) = 3.02033 3.48877 3.26297
# Velocity P-wave (km/s) = 5.01585 5.46070 5.24300
#
# Compressibility (1/GPa) = 0.03167583
#
# Stress axis : x y z
#
# Youngs Moduli (GPa) = 72.74890 57.26004 42.55251
#
# Poissons Ratio (x) = 0.11243 0.06500
# Poissons Ratio (y) = 0.14285 0.34154
# Poissons Ratio (z) = 0.11113 0.45958
#
# Static dielectric constant tensor:
#      x y z
#    x 1.965220 -0.003040 -0.007560 
#    y -0.003040 1.951350 0.011820 
#    z -0.007560 0.011820 2.011130 
# 
# From -- ./inp_files/356697.got.cif
#   From: 2010.05.17/outbox.cif.g08.bks.cpg/sg2_179_cif.got.tgz:356697.got - 2010.06.03 11:33:40.
