data_PCOD9018063
_publ_section_title
;
Structure prediction by ZEFSAII (Michael W. Deem and Ramdas Pophale) SiO2 
 PCOD9018063
Probable space group: P -1
;
_chemical_formula_sum "Si O2"
_cell_formula_units_Z 14
_cell_length_a 17.826101
_cell_length_b 9.313185
_cell_length_c 18.750599
_cell_angle_alpha 142.518887
_cell_angle_beta 15.730008
_cell_angle_gamma 139.982314
_cell_volume 513.493403
_symmetry_space_group_name_H-M "P -1"
_symmetry_group_IT_number 2
_symmetry_cell_setting 'triclinic'
loop_
_space_group_symop_operation_xyz
x,y,z
-x,-y,-z
loop_
_atom_site_type_symbol
_atom_site_label
_atom_site_fract_x
_atom_site_fract_y
_atom_site_fract_z
Si Si1 0.000000 0.500000 0.500000
Si Si2 0.706281 0.260307 0.137410
Si Si3 0.991732 0.859230 0.779260
Si Si4 0.627399 0.827359 0.229218
Si Si5 0.595537 0.354107 0.499864
Si Si6 0.686500 0.108172 0.719964
Si Si7 0.082641 0.713463 0.201830
Si Si8 0.500000 0.000000 0.000000
O O1 0.963977 0.730827 0.678162
O O2 0.791739 0.344498 0.681123
O O3 0.555084 0.511417 0.374305
O O4 0.468124 0.063419 0.262144
O O5 0.887056 0.276506 0.906541
O O6 0.898995 0.133523 0.967641
O O7 0.307565 0.837400 0.503834
O O8 0.801382 0.745600 0.970323
O O9 0.625950 0.688472 0.250496
O O10 0.707754 0.097705 0.279317
O O11 0.848307 0.521957 0.358806
O O12 0.499652 0.121161 0.966292
O O13 0.951635 0.961851 0.447512
O O14 0.383309 0.748328 0.974785
#
# Coordination Sequence:
#
# PCOD9018063 Si02
#       8
#     1   2   2   2   2   2   2   1
#     4  12  26  46  74 102 162 202 250 328 406 452
#     4  10  23  45  73 104 151 201 255 311 395 468
#     4  12  28  50  75 114 157 206 262 322 399 481
#     4  11  29  50  77 119 155 202 272 326 398 465
#     4  10  26  48  80 108 157 204 259 337 390 460
#     4  10  22  42  64 102 147 198 254 318 385 470
#     4  10  21  43  68 103 146 197 249 324 377 468
#     4  10  22  38  66 102 142 194 270 306 384 470
#
# _framework density 27.264223999999999
#
# number of rings (size 3 to 8) (size 9 to 14) (size 15 to 20)
#    0.000    1.429    1.429    1.286    8.000    6.857 
#    0.000    0.000    0.000    0.000    0.000    0.000 
#    0.000    0.000    0.000    0.000    0.000    0.000 
#
# Total GULP energy -77934.073869 kJ/mol
# GULP energy per Si atom -5566.719562 kJ/mol
# Density = 2.720217 g / cm^3
# Si number density = 27.264224 Si / 1000 Ang^3
#
#
#
# Elastic Constant Matrix: (Units=GPa)
#
#
# Indices 1 2 3 4 5 6 
#
# 1 98.2037 28.9636 46.1648 -16.2626 -12.6237 -8.5936
# 2 28.9636 196.9746 36.3869 -24.0230 32.5762 -34.7664
# 3 46.1648 36.3869 110.9426 -27.5711 -8.4611 3.0787
# 4 -16.2626 -24.0230 -27.5711 50.2488 12.5231 -13.7027
# 5 -12.6237 32.5762 -8.4611 12.5231 145.0926 -66.5556
# 6 -8.5936 -34.7664 3.0787 -13.7027 -66.5556 91.6220
#
#
#
# Elastic Compliance Matrix: (Units=1/GPa)
#
#
# Indices 1 2 3 4 5 6 
#
# 1 0.013541 -0.000730 -0.004904 0.001604 0.002338 0.003096
# 2 -0.000730 0.006275 -0.001145 0.002935 -0.000769 0.002232
# 3 -0.004904 -0.001145 0.012582 0.004607 -0.000182 -0.000761
# 4 0.001604 0.002935 0.004607 0.025718 -0.000296 0.004741
# 5 0.002338 -0.000769 -0.000182 -0.000296 0.010847 0.007768
# 6 0.003096 0.002232 -0.000761 0.004741 0.007768 0.018429
#
#
# Mechanical properties :
#
#
# Convention : Reuss Voigt Hill
#
# Bulk Modulus (GPa) = 53.08106 69.90573 61.49340
# Shear Modulus (GPa) = 46.62923 77.03305 61.83114
#
# Velocity S-wave (km/s) = 4.14003 5.32124 4.76736
# Velocity P-wave (km/s) = 6.50880 7.96554 7.27373
#
# Compressibility (1/GPa) = 0.01883911
#
# Stress axis : x y z
#
# Youngs Moduli (GPa) = 73.85223 159.37052 79.47814
#
# Poissons Ratio (x) = 0.11628 0.38976
# Poissons Ratio (y) = 0.05388 0.09104
# Poissons Ratio (z) = 0.36217 0.18255
#
# Static dielectric constant tensor:
#      x y z
#    x 2.235630 -0.028760 -0.183170 
#    y -0.028760 2.144350 0.084790 
#    z -0.183170 0.084790 2.375150 
# 
# From -- ./inp_files/67409.got.cif
#   From: 2010.05.17/outbox.cif.g08.bks.cpg/sg2_34_cif.got.tgz:67409.got - 2010.06.03 11:33:40.
