data_PCOD9018138
_publ_section_title
;
Structure prediction by ZEFSAII (Michael W. Deem and Ramdas Pophale) SiO2 
 PCOD9018138
Probable space group: P -1
;
_chemical_formula_sum "Si O2"
_cell_formula_units_Z 14
_cell_length_a 10.090487
_cell_length_b 7.808819
_cell_length_c 13.314726
_cell_angle_alpha 80.296703
_cell_angle_beta 54.658775
_cell_angle_gamma 45.092453
_cell_volume 551.430949
_symmetry_space_group_name_H-M "P -1"
_symmetry_group_IT_number 2
_symmetry_cell_setting 'triclinic'
loop_
_space_group_symop_operation_xyz
x,y,z
-x,-y,-z
loop_
_atom_site_type_symbol
_atom_site_label
_atom_site_fract_x
_atom_site_fract_y
_atom_site_fract_z
Si Si1 0.865959 0.555551 0.896949
Si Si2 0.743987 0.170599 0.680091
Si Si3 0.389896 0.773740 0.045213
Si Si4 0.142332 0.136809 0.963813
Si Si5 0.305920 0.798530 0.512202
Si Si6 0.144491 0.299433 0.604989
Si Si7 0.639412 0.665979 0.668841
O O1 0.923152 0.341107 0.961861
O O2 0.083781 0.405402 0.734637
O O3 0.611384 0.730456 0.932411
O O4 0.852446 0.712866 0.971450
O O5 0.660553 0.161128 0.822607
O O6 0.629498 0.177966 0.629693
O O7 0.657520 0.441530 0.682609
O O8 0.043600 0.918272 0.586441
O O9 0.500000 0.500000 0.000000
O O10 0.152634 0.976131 0.056475
O O11 0.387416 0.924153 0.808826
O O12 0.500000 0.500000 0.500000
O O13 0.231158 0.027487 0.587551
O O14 0.323410 0.276328 0.462406
O O15 0.880912 0.524388 0.640914
#
# Coordination Sequence:
#
# PCOD9018138 Si02
#       7
#     2   2   2   2   2   2   2
#     4  11  26  44  67 101 133 176 225 275 330 400
#     4  10  23  42  63  97 133 169 220 270 333 394
#     4  12  23  43  70  96 135 179 215 276 334 395
#     4  11  25  44  67 101 133 176 228 269 334 395
#     4  10  23  42  64  97 133 172 218 272 334 396
#     4  10  22  41  71  94 129 175 222 274 331 391
#     4  10  21  43  68  96 129 174 223 272 329 393
#
# _framework density 25.388493
#
# number of rings (size 3 to 8) (size 9 to 14) (size 15 to 20)
#    0.000    1.429    2.857    1.286    4.000    5.714 
#    2.571    0.000    0.000    0.000    0.000    0.000 
#    0.000    0.000    0.000    0.000    0.000    0.000 
#
# Total GULP energy -78238.605455 kJ/mol
# GULP energy per Si atom -5588.471818 kJ/mol
# Density = 2.533071 g / cm^3
# Si number density = 25.388493 Si / 1000 Ang^3
#
#
#
# Elastic Constant Matrix: (Units=GPa)
#
#
# Indices 1 2 3 4 5 6 
#
# 1 60.2944 23.9099 21.8240 14.1425 11.8616 -7.1488
# 2 23.9099 142.2675 26.8602 5.9835 14.9990 -18.1239
# 3 21.8240 26.8602 136.0654 6.3837 37.2325 2.7317
# 4 14.1425 5.9835 6.3837 33.3690 6.3478 6.7485
# 5 11.8616 14.9990 37.2325 6.3478 23.3035 0.2325
# 6 -7.1488 -18.1239 2.7317 6.7485 0.2325 44.0847
#
#
#
# Elastic Compliance Matrix: (Units=1/GPa)
#
#
# Indices 1 2 3 4 5 6 
#
# 1 0.021262 -0.001910 -0.001253 -0.008218 -0.005394 0.004027
# 2 -0.001910 0.008232 -0.000366 -0.000555 -0.003623 0.003201
# 3 -0.001253 -0.000366 0.013278 0.002332 -0.020962 -0.001423
# 4 -0.008218 -0.000555 0.002332 0.036273 -0.008994 -0.007211
# 5 -0.005394 -0.003623 -0.020962 -0.008994 0.083932 -0.000131
# 6 0.004027 0.003201 -0.001423 -0.007211 -0.000131 0.025845
#
#
# Mechanical properties :
#
#
# Convention : Reuss Voigt Hill
#
# Bulk Modulus (GPa) = 27.99875 53.75729 40.87802
# Shear Modulus (GPa) = 24.06351 37.88699 30.97525
#
# Velocity S-wave (km/s) = 3.08199 3.86721 3.49671
# Velocity P-wave (km/s) = 4.87001 6.41562 5.69549
#
# Compressibility (1/GPa) = 0.03571588
#
# Stress axis : x y z
#
# Youngs Moduli (GPa) = 47.03232 121.47520 75.31464
#
# Poissons Ratio (x) = 0.23197 0.09435
# Poissons Ratio (y) = 0.08981 0.02753
# Poissons Ratio (z) = 0.05892 0.04441
#
# Static dielectric constant tensor:
#      x y z
#    x 1.927790 0.023010 0.000670 
#    y 0.023010 2.111650 -0.049140 
#    z 0.000670 -0.049140 2.146580 
# 
# From -- ./inp_files/515319.got.cif
#   From: 2010.05.17/outbox.cif.g08.bks.cpg/sg2_258_cif.got.tgz:515319.got - 2010.06.03 11:33:40.
