data_PCOD9018946
_publ_section_title
;
Structure prediction by ZEFSAII (Michael W. Deem and Ramdas Pophale) SiO2 
 PCOD9018946
Probable space group: P -1
;
_chemical_formula_sum "Si O2"
_cell_formula_units_Z 14
_cell_length_a 9.556888
_cell_length_b 19.417518
_cell_length_c 5.442320
_cell_angle_alpha 68.519352
_cell_angle_beta 104.599179
_cell_angle_gamma 138.812005
_cell_volume 618.424338
_symmetry_space_group_name_H-M "P -1"
_symmetry_group_IT_number 2
_symmetry_cell_setting 'triclinic'
loop_
_space_group_symop_operation_xyz
x,y,z
-x,-y,-z
loop_
_atom_site_type_symbol
_atom_site_label
_atom_site_fract_x
_atom_site_fract_y
_atom_site_fract_z
Si Si1 0.483447 0.282000 0.034413
Si Si2 0.453835 0.805156 0.446943
Si Si3 0.737563 0.115766 0.879800
Si Si4 0.989285 0.176147 0.413968
Si Si5 0.563330 0.600867 0.770616
Si Si6 0.160578 0.099287 0.761897
Si Si7 0.762922 0.420390 0.587311
O O1 0.496784 0.203230 0.246002
O O2 0.420984 0.326044 0.122314
O O3 0.305560 0.209542 0.842178
O O4 0.715039 0.389347 0.891849
O O5 0.299301 0.813358 0.312759
O O6 0.679665 0.898876 0.292049
O O7 0.354403 0.692647 0.444979
O O8 0.846210 0.123255 0.670097
O O9 0.873314 0.157442 0.135563
O O10 0.500000 0.000000 0.000000
O O11 0.201459 0.307115 0.366173
O O12 0.055945 0.114682 0.498331
O O13 0.366766 0.554355 0.574482
O O14 0.500000 0.500000 0.000000
O O15 0.000000 0.000000 0.000000
O O16 0.000000 0.500000 0.500000
#
# Coordination Sequence:
#
# PCOD9018946 Si02
#       7
#     2   2   2   2   2   2   2
#     4  10  21  44  66  96 142 170 252 287 349 430
#     4  10  24  42  66  96 135 183 233 291 349 434
#     4  12  29  46  71 105 150 191 238 299 373 430
#     4  12  26  48  70 109 147 185 247 304 354 440
#     4  11  25  43  68 103 138 191 234 301 366 427
#     4  11  23  42  74  99 135 188 235 298 358 428
#     4  10  23  42  67  97 132 179 239 290 353 427
#
# _framework density 22.638176000000001
#
# number of rings (size 3 to 8) (size 9 to 14) (size 15 to 20)
#    0.000    1.143    4.286    2.143    8.000    4.571 
#    0.000    0.000    0.000    0.000    0.000    0.000 
#    0.000    0.000    0.000    0.000    0.000    0.000 
#
# Total GULP energy -78134.900326 kJ/mol
# GULP energy per Si atom -5581.064309 kJ/mol
# Density = 2.258665 g / cm^3
# Si number density = 22.638176 Si / 1000 Ang^3
#
#
#
# Elastic Constant Matrix: (Units=GPa)
#
#
# Indices 1 2 3 4 5 6 
#
# 1 75.0874 18.6116 32.9787 2.3448 6.9665 23.6089
# 2 18.6116 80.8158 36.4803 -17.1722 -3.3728 30.3369
# 3 32.9787 36.4803 120.2516 -3.0973 7.2517 25.1474
# 4 2.3448 -17.1722 -3.0973 42.1803 10.3455 -7.2363
# 5 6.9665 -3.3728 7.2517 10.3455 57.0062 -12.2559
# 6 23.6089 30.3369 25.1474 -7.2363 -12.2559 37.6128
#
#
#
# Elastic Compliance Matrix: (Units=1/GPa)
#
#
# Indices 1 2 3 4 5 6 
#
# 1 0.018582 0.000983 -0.002581 -0.001928 -0.004217 -0.012476
# 2 0.000983 0.020173 -0.003008 0.006116 -0.002795 -0.014611
# 3 -0.002581 -0.003008 0.010876 -0.000470 -0.002015 -0.003973
# 4 -0.001928 0.006116 -0.000470 0.027386 -0.004208 0.000489
# 5 -0.004217 -0.002795 -0.002015 -0.004208 0.021594 0.012475
# 6 -0.012476 -0.014611 -0.003973 0.000489 0.012475 0.053017
#
#
# Mechanical properties :
#
#
# Convention : Reuss Voigt Hill
#
# Bulk Modulus (GPa) = 24.74025 50.25514 37.49769
# Shear Modulus (GPa) = 28.68421 39.89881 34.29151
#
# Velocity S-wave (km/s) = 3.56346 4.20272 3.89622
# Velocity P-wave (km/s) = 5.28046 6.76742 6.06964
#
# Compressibility (1/GPa) = 0.04041996
#
# Stress axis : x y z
#
# Youngs Moduli (GPa) = 53.81661 49.57211 91.94254
#
# Poissons Ratio (x) = -0.04873 0.23727
# Poissons Ratio (y) = -0.05291 0.27655
# Poissons Ratio (z) = 0.13888 0.14910
#
# Static dielectric constant tensor:
#      x y z
#    x 1.900480 0.085890 -0.019970 
#    y 0.085890 1.947100 0.108440 
#    z -0.019970 0.108440 2.161210 
# 
# From -- ./inp_files/34671.got.cif
#   From: 2010.05.17/outbox.cif.g08.bks.cpg/sg2_18_cif.got.tgz:34671.got - 2010.06.03 11:33:40.
