data_PCOD9018524
_publ_section_title
;
Structure prediction by ZEFSAII (Michael W. Deem and Ramdas Pophale) SiO2 
 PCOD9018524
Probable space group: P -1
;
_chemical_formula_sum "Si O2"
_cell_formula_units_Z 16
_cell_length_a 32.165645
_cell_length_b 5.729179
_cell_length_c 8.915154
_cell_angle_alpha 111.538485
_cell_angle_beta 144.506755
_cell_angle_gamma 46.123590
_cell_volume 606.493324
_symmetry_space_group_name_H-M "P -1"
_symmetry_group_IT_number 2
_symmetry_cell_setting 'triclinic'
loop_
_space_group_symop_operation_xyz
x,y,z
-x,-y,-z
loop_
_atom_site_type_symbol
_atom_site_label
_atom_site_fract_x
_atom_site_fract_y
_atom_site_fract_z
Si Si1 0.680894 0.554421 0.153914
Si Si2 0.993040 0.818876 0.576350
Si Si3 0.784786 0.582522 0.219499
Si Si4 0.125230 0.191627 0.312456
Si Si5 0.610556 0.944350 0.316048
Si Si6 0.191626 0.227872 0.194187
Si Si7 0.669740 0.548675 0.676575
Si Si8 0.425626 0.552829 0.411629
O O1 0.703371 0.722130 0.143384
O O2 0.588981 0.857659 0.074480
O O3 0.792056 0.229734 0.491363
O O4 0.654418 0.375606 0.932824
O O5 0.000000 0.500000 0.500000
O O6 0.093090 0.620401 0.926315
O O7 0.000000 0.000000 0.500000
O O8 0.882707 0.142525 0.409111
O O9 0.847000 0.675045 0.448794
O O10 0.719424 0.690160 0.902569
O O11 0.161225 0.195119 0.256509
O O12 0.000000 0.500000 0.000000
O O13 0.708774 0.852822 0.526312
O O14 0.638719 0.643816 0.437029
O O15 0.564354 0.266340 0.375108
O O16 0.235156 0.892091 0.137492
O O17 0.579097 0.684740 0.551194
O O18 0.500000 0.500000 0.500000
#
# Coordination Sequence:
#
# PCOD9018524 Si02
#       8
#     2   2   2   2   2   2   2   2
#     4  11  24  44  70  99 141 189 240 294 374 444
#     4  12  27  41  64  98 141 194 256 320 369 436
#     4  11  24  41  63  93 136 191 243 301 360 431
#     4  12  26  39  63  99 142 184 244 304 357 420
#     4  11  22  43  72  95 135 189 228 299 369 439
#     4  11  23  40  61  93 132 183 239 295 355 431
#     4  10  21  43  71  92 132 179 232 286 370 437
#     4  10  25  46  71 108 139 171 234 300 369 461
#
# _framework density 26.381163999999998
#
# number of rings (size 3 to 8) (size 9 to 14) (size 15 to 20)
#    0.000    1.000    3.750    2.250    5.250    2.000 
#    0.000    0.625    0.000    0.000    0.000    0.000 
#    0.000    0.000    0.000    0.000    0.000    0.000 
#
# Total GULP energy -89130.231757 kJ/mol
# GULP energy per Si atom -5570.639485 kJ/mol
# Density = 2.632112 g / cm^3
# Si number density = 26.381164 Si / 1000 Ang^3
#
#
#
# Elastic Constant Matrix: (Units=GPa)
#
#
# Indices 1 2 3 4 5 6 
#
# 1 163.4563 3.5736 34.7851 -8.6702 0.5679 -16.1245
# 2 3.5736 96.4283 19.0551 34.2766 5.3118 -26.1399
# 3 34.7851 19.0551 117.9919 6.9451 0.1718 -2.8652
# 4 -8.6702 34.2766 6.9451 35.2235 8.0910 -1.0020
# 5 0.5679 5.3118 0.1718 8.0910 42.0199 2.0150
# 6 -16.1245 -26.1399 -2.8652 -1.0020 2.0150 44.3984
#
#
#
# Elastic Compliance Matrix: (Units=1/GPa)
#
#
# Indices 1 2 3 4 5 6 
#
# 1 0.006940 0.000066 -0.002129 0.002285 -0.000653 0.002503
# 2 0.000066 0.020935 -0.001952 -0.019776 0.000605 0.011750
# 3 -0.002129 -0.001952 0.009421 -0.000617 0.000420 -0.001348
# 4 0.002285 -0.019776 -0.000617 0.049571 -0.006621 -0.009434
# 5 -0.000653 0.000605 0.000420 -0.006621 0.025058 -0.001141
# 6 0.002503 0.011750 -0.001348 -0.009434 -0.001141 0.030102
#
#
# Mechanical properties :
#
#
# Convention : Reuss Voigt Hill
#
# Bulk Modulus (GPa) = 34.17020 54.74489 44.45755
# Shear Modulus (GPa) = 31.28629 45.69253 38.48941
#
# Velocity S-wave (km/s) = 3.44747 4.16626 3.82379
# Velocity P-wave (km/s) = 5.36911 6.62874 6.03190
#
# Compressibility (1/GPa) = 0.02926526
#
# Stress axis : x y z
#
# Youngs Moduli (GPa) = 144.09290 47.76651 106.14449
#
# Poissons Ratio (x) = -0.00314 0.22602
# Poissons Ratio (y) = -0.00946 0.20717
# Poissons Ratio (z) = 0.30683 0.09323
#
# Static dielectric constant tensor:
#      x y z
#    x 2.011990 -0.006760 0.017040 
#    y -0.006760 2.301980 0.026360 
#    z 0.017040 0.026360 2.269220 
# 
# From -- ./inp_files/89798.got.cif
#   From: 2010.05.17/outbox.cif.g08.bks.cpg/sg2_45_cif.got.tgz:89798.got - 2010.06.03 11:33:40.
