data_PCOD9018868
_publ_section_title
;
Structure prediction by ZEFSAII (Michael W. Deem and Ramdas Pophale) SiO2 
 PCOD9018868
Probable space group: P -1
;
_chemical_formula_sum "Si O2"
_cell_formula_units_Z 15
_cell_length_a 6.653252
_cell_length_b 12.089555
_cell_length_c 16.477877
_cell_angle_alpha 142.008431
_cell_angle_beta 121.306661
_cell_angle_gamma 64.112957
_cell_volume 696.128479
_symmetry_space_group_name_H-M "P -1"
_symmetry_group_IT_number 2
_symmetry_cell_setting 'triclinic'
loop_
_space_group_symop_operation_xyz
x,y,z
-x,-y,-z
loop_
_atom_site_type_symbol
_atom_site_label
_atom_site_fract_x
_atom_site_fract_y
_atom_site_fract_z
Si Si1 0.274231 0.585172 0.454306
Si Si2 0.878284 0.309510 0.227515
Si Si3 0.877573 0.103499 0.272872
Si Si4 0.345645 0.874067 0.231869
Si Si5 0.511083 0.371580 0.647726
Si Si6 0.500000 0.000000 0.500000
Si Si7 0.449922 0.867140 0.067634
Si Si8 0.729957 0.485228 0.918704
O O1 0.500000 0.500000 0.500000
O O2 0.161942 0.746687 0.579069
O O3 0.367234 0.653945 0.427917
O O4 0.092505 0.427141 0.311639
O O5 0.943558 0.203010 0.261502
O O6 0.670169 0.456921 0.292761
O O7 0.769887 0.177276 0.061517
O O8 0.633247 0.004991 0.150764
O O9 0.086129 0.954967 0.250894
O O10 0.383279 0.931808 0.181340
O O11 0.355819 0.658998 0.118520
O O12 0.526717 0.934379 0.372355
O O13 0.395831 0.196370 0.557112
O O14 0.702505 0.404431 0.776240
O O15 0.589957 0.675452 0.998698
O O16 0.000000 0.500000 0.000000
#
# Coordination Sequence:
#
# PCOD9018868 Si02
#       8
#     2   2   2   2   2   1   2   2
#     4  12  26  44  72 100 135 184 226 274 346 411
#     4  11  26  44  68 100 137 179 224 283 343 403
#     4  12  25  43  69 101 137 175 230 285 336 403
#     4  11  24  42  68  97 139 173 227 279 337 401
#     4  10  23  44  69  95 138 173 227 275 337 400
#     4  10  22  44  66  98 134 176 218 290 322 396
#     4  11  25  44  72  98 134 182 227 279 345 400
#     4  10  21  44  65  96 136 175 218 280 333 398
#
# _framework density 21.547746
#
# number of rings (size 3 to 8) (size 9 to 14) (size 15 to 20)
#    0.000    1.067    2.667    2.800    5.600    0.533 
#    2.400    4.000    0.000    0.000    0.000    0.000 
#    0.000    0.000    0.000    0.000    0.000    0.000 
#
# Total GULP energy -83549.230306 kJ/mol
# GULP energy per Si atom -5569.948687 kJ/mol
# Density = 2.149870 g / cm^3
# Si number density = 21.547746 Si / 1000 Ang^3
#
#
#
# Elastic Constant Matrix: (Units=GPa)
#
#
# Indices 1 2 3 4 5 6 
#
# 1 46.7773 23.6714 23.3904 -17.2658 -5.8415 3.9983
# 2 23.6714 94.8301 10.2393 2.1745 -9.1484 12.7772
# 3 23.3904 10.2393 67.5203 -9.1885 -0.9978 3.9065
# 4 -17.2658 2.1745 -9.1885 36.1963 4.9331 -3.2003
# 5 -5.8415 -9.1484 -0.9978 4.9331 35.5884 -5.1483
# 6 3.9983 12.7772 3.9065 -3.2003 -5.1483 31.1337
#
#
#
# Elastic Compliance Matrix: (Units=1/GPa)
#
#
# Indices 1 2 3 4 5 6 
#
# 1 0.035885 -0.008407 -0.009165 0.015236 0.001624 0.001826
# 2 -0.008407 0.013573 0.000421 -0.005436 0.002189 -0.004740
# 3 -0.009165 0.000421 0.018015 0.000204 -0.001125 -0.001421
# 4 0.015236 -0.005436 0.000204 0.036036 -0.003395 0.003391
# 5 0.001624 0.002189 -0.001125 -0.003395 0.029892 0.003628
# 6 0.001826 -0.004740 -0.001421 0.003391 0.003628 0.034957
#
#
# Mechanical properties :
#
#
# Convention : Reuss Voigt Hill
#
# Bulk Modulus (GPa) = 30.14655 35.96999 33.05827
# Shear Modulus (GPa) = 23.39549 30.70546 27.05047
#
# Velocity S-wave (km/s) = 3.29865 3.77901 3.54697
# Velocity P-wave (km/s) = 5.34126 5.98085 5.67008
#
# Compressibility (1/GPa) = 0.03317129
#
# Stress axis : x y z
#
# Youngs Moduli (GPa) = 27.86660 73.67727 55.51012
#
# Poissons Ratio (x) = 0.61939 0.50874
# Poissons Ratio (y) = 0.23427 -0.02336
# Poissons Ratio (z) = 0.25539 -0.03101
#
# Static dielectric constant tensor:
#      x y z
#    x 1.788220 0.003040 0.019150 
#    y 0.003040 1.719180 0.021620 
#    z 0.019150 0.021620 1.827810 
# 
# From -- ./inp_files/92159.got.cif
#   From: 2010.05.17/outbox.cif.g08.bks.cpg/sg2_47_cif.got.tgz:92159.got - 2010.06.03 11:33:40.
