data_PCOD9018337
_publ_section_title
;
Structure prediction by ZEFSAII (Michael W. Deem and Ramdas Pophale) SiO2 
 PCOD9018337
Probable space group: P -1
;
_chemical_formula_sum "Si O2"
_cell_formula_units_Z 12
_cell_length_a 20.679644
_cell_length_b 9.357104
_cell_length_c 5.171274
_cell_angle_alpha 77.656057
_cell_angle_beta 106.642093
_cell_angle_gamma 146.854780
_cell_volume 523.554049
_symmetry_space_group_name_H-M "P -1"
_symmetry_group_IT_number 2
_symmetry_cell_setting 'triclinic'
loop_
_space_group_symop_operation_xyz
x,y,z
-x,-y,-z
loop_
_atom_site_type_symbol
_atom_site_label
_atom_site_fract_x
_atom_site_fract_y
_atom_site_fract_z
Si Si1 0.192435 0.737257 0.330757
Si Si2 0.444200 0.475367 0.700341
Si Si3 0.418798 0.990172 0.333770
Si Si4 0.829020 0.568146 0.891237
Si Si5 0.041503 0.943922 0.388257
Si Si6 0.825390 0.101834 0.275801
O O1 0.134434 0.481442 0.271229
O O2 0.143128 0.723043 0.535392
O O3 0.330453 0.925981 0.448438
O O4 0.182410 0.832897 0.038858
O O5 0.500000 0.500000 0.500000
O O6 0.303859 0.189380 0.666075
O O7 0.479546 0.705757 0.711923
O O8 0.500000 0.500000 0.000000
O O9 0.500000 0.000000 0.500000
O O10 0.851896 0.778775 0.761639
O O11 0.687491 0.265292 0.881539
O O12 0.925613 0.707463 0.167766
O O13 0.092446 0.892811 0.604911
O O14 0.000000 0.000000 0.500000
#
# Coordination Sequence:
#
# PCOD9018337 Si02
#       6
#     2   2   2   2   2   2
#     4  10  25  44  69 102 137 174 232 273 343 405
#     4  12  21  43  67 100 137 172 222 274 333 411
#     4  10  21  43  69  99 139 178 220 283 341 405
#     4   9  23  46  63 101 136 171 238 273 341 408
#     4  11  26  44  71  94 138 182 233 284 341 403
#     4  12  24  46  70 102 138 182 223 286 336 407
#
# _framework density 22.920269000000001
#
# number of rings (size 3 to 8) (size 9 to 14) (size 15 to 20)
#    1.000    0.333    3.333    1.000    7.000    1.333 
#    6.000    3.333    0.000    0.000    0.000    0.000 
#    0.000    0.000    0.000    0.000    0.000    0.000 
#
# Total GULP energy -66848.924485 kJ/mol
# GULP energy per Si atom -5570.743707 kJ/mol
# Density = 2.286810 g / cm^3
# Si number density = 22.920269 Si / 1000 Ang^3
#
#
#
# Elastic Constant Matrix: (Units=GPa)
#
#
# Indices 1 2 3 4 5 6 
#
# 1 100.8994 26.2181 59.7881 -2.8171 35.0259 -15.6558
# 2 26.2181 162.2573 54.1115 11.7755 15.4970 -28.8377
# 3 59.7881 54.1115 97.4535 -6.1403 17.7794 -9.2728
# 4 -2.8171 11.7755 -6.1403 46.5281 -12.2420 9.5274
# 5 35.0259 15.4970 17.7794 -12.2420 45.0547 -7.6615
# 6 -15.6558 -28.8377 -9.2728 9.5274 -7.6615 41.7423
#
#
#
# Elastic Compliance Matrix: (Units=1/GPa)
#
#
# Indices 1 2 3 4 5 6 
#
# 1 0.022518 0.003804 -0.013071 -0.006510 -0.014227 0.007044
# 2 0.003804 0.009908 -0.006767 -0.005726 -0.004002 0.007340
# 3 -0.013071 -0.006767 0.021008 0.006098 0.004938 -0.005396
# 4 -0.006510 -0.005726 0.006098 0.028098 0.010643 -0.009503
# 5 -0.014227 -0.004002 0.004938 0.010643 0.035065 -0.002997
# 6 0.007044 0.007340 -0.005396 -0.009503 -0.002997 0.032090
#
#
# Mechanical properties :
#
#
# Convention : Reuss Voigt Hill
#
# Bulk Modulus (GPa) = 46.80740 71.20508 59.00624
# Shear Modulus (GPa) = 26.61325 41.36450 33.98888
#
# Velocity S-wave (km/s) = 3.41122 4.25280 3.85504
# Velocity P-wave (km/s) = 5.99845 7.43296 6.75390
#
# Compressibility (1/GPa) = 0.02136414
#
# Stress axis : x y z
#
# Youngs Moduli (GPa) = 44.40977 100.93247 47.60154
#
# Poissons Ratio (x) = -0.38393 0.62220
# Poissons Ratio (y) = -0.16893 0.32212
# Poissons Ratio (z) = 0.58048 0.68302
#
# Static dielectric constant tensor:
#      x y z
#    x 1.893800 0.091650 -0.108900 
#    y 0.091650 1.956600 0.008570 
#    z -0.108900 0.008570 2.031590 
# 
# From -- ./inp_files/102544.got.cif
#   From: 2010.05.17/outbox.cif.g08.bks.cpg/sg2_52_cif.got.tgz:102544.got - 2010.06.03 11:33:40.
