data_PCOD9018159
_publ_section_title
;
Structure prediction by ZEFSAII (Michael W. Deem and Ramdas Pophale) SiO2 
 PCOD9018159
Probable space group: P -1
;
_chemical_formula_sum "Si O2"
_cell_formula_units_Z 16
_cell_length_a 15.257550
_cell_length_b 9.226609
_cell_length_c 20.959154
_cell_angle_alpha 121.318348
_cell_angle_beta 20.241585
_cell_angle_gamma 109.763684
_cell_volume 752.212303
_symmetry_space_group_name_H-M "P -1"
_symmetry_group_IT_number 2
_symmetry_cell_setting 'triclinic'
loop_
_space_group_symop_operation_xyz
x,y,z
-x,-y,-z
loop_
_atom_site_type_symbol
_atom_site_label
_atom_site_fract_x
_atom_site_fract_y
_atom_site_fract_z
Si Si1 0.128107 0.784225 0.331064
Si Si2 0.791370 0.406060 0.635447
Si Si3 0.644219 0.822612 0.408584
Si Si4 0.656848 0.442629 0.310833
Si Si5 0.232755 0.073153 0.861409
Si Si6 0.535961 0.809629 0.701680
Si Si7 0.774966 0.026963 0.805357
Si Si8 0.735124 0.261482 0.004911
O O1 0.258999 0.626320 0.263007
O O2 0.866909 0.760331 0.473578
O O3 0.302340 0.809114 0.158912
O O4 0.000000 0.000000 0.500000
O O5 0.000000 0.500000 0.500000
O O6 0.961896 0.184264 0.442550
O O7 0.501448 0.541149 0.823872
O O8 0.585409 0.654489 0.384606
O O9 0.991305 0.729415 0.153090
O O10 0.500000 0.000000 0.500000
O O11 0.492125 0.927288 0.603460
O O12 0.500000 0.500000 0.500000
O O13 0.520729 0.338894 0.336929
O O14 0.011241 0.298774 0.044536
O O15 0.363004 0.020279 0.831643
O O16 0.000000 0.000000 0.000000
O O17 0.411762 0.800733 0.853445
O O18 0.852851 0.097388 0.832438
O O19 0.500000 0.000000 0.000000
#
# Coordination Sequence:
#
# PCOD9018159 Si02
#       8
#     2   2   2   2   2   2   2   2
#     4  10  22  42  74  99 142 189 236 295 359 427
#     4  11  22  47  68 103 144 184 241 301 349 431
#     4  12  26  45  69 105 139 183 239 303 369 427
#     4  11  24  44  74 101 139 185 243 297 358 434
#     4  10  21  43  68  96 139 178 235 296 348 430
#     4  11  22  43  71 103 141 192 237 295 363 429
#     4  11  23  43  70 101 143 191 235 296 364 423
#     4  12  26  42  69 103 145 183 240 293 364 424
#
# _framework density 21.270589000000001
#
# number of rings (size 3 to 8) (size 9 to 14) (size 15 to 20)
#    0.000    1.000    5.000    3.000    0.000    6.500 
#    0.000    0.000    0.000    0.000    0.000    0.000 
#    0.000    0.000    0.000    0.000    0.000    0.000 
#
# Total GULP energy -89292.688341 kJ/mol
# GULP energy per Si atom -5580.793021 kJ/mol
# Density = 2.122218 g / cm^3
# Si number density = 21.270589 Si / 1000 Ang^3
#
#
#
# Elastic Constant Matrix: (Units=GPa)
#
#
# Indices 1 2 3 4 5 6 
#
# 1 109.3304 55.5046 27.1333 4.0079 -6.7644 -24.6359
# 2 55.5046 140.9859 46.1635 10.8858 -2.0744 -18.9401
# 3 27.1333 46.1635 89.8400 4.9662 -18.5937 -14.9027
# 4 4.0079 10.8858 4.9662 49.7180 -2.8835 5.0192
# 5 -6.7644 -2.0744 -18.5937 -2.8835 41.2266 0.2437
# 6 -24.6359 -18.9401 -14.9027 5.0192 0.2437 46.2033
#
#
#
# Elastic Compliance Matrix: (Units=1/GPa)
#
#
# Indices 1 2 3 4 5 6 
#
# 1 0.012554 -0.004043 -0.000555 -0.000477 0.001544 0.004901
# 2 -0.004043 0.010309 -0.004291 -0.001720 -0.002205 0.000885
# 3 -0.000555 -0.004291 0.015375 -0.000465 0.006577 0.002920
# 4 -0.000477 -0.001720 -0.000465 0.020982 0.001113 -0.003394
# 5 0.001544 -0.002205 0.006577 0.001113 0.027432 0.001775
# 6 0.004901 0.000885 0.002920 -0.003394 0.001775 0.025921
#
#
# Mechanical properties :
#
#
# Convention : Reuss Voigt Hill
#
# Bulk Modulus (GPa) = 48.87576 66.41770 57.64673
# Shear Modulus (GPa) = 36.45118 41.51992 38.98555
#
# Velocity S-wave (km/s) = 4.14416 4.42292 4.28581
# Velocity P-wave (km/s) = 6.77693 7.57469 7.18689
#
# Compressibility (1/GPa) = 0.02046004
#
# Stress axis : x y z
#
# Youngs Moduli (GPa) = 79.65463 97.00717 65.04214
#
# Poissons Ratio (x) = 0.39216 0.03613
# Poissons Ratio (y) = 0.32201 0.27907
# Poissons Ratio (z) = 0.04425 0.41622
#
# Static dielectric constant tensor:
#      x y z
#    x 1.803650 -0.007260 0.024990 
#    y -0.007260 1.834010 -0.011400 
#    z 0.024990 -0.011400 1.674480 
# 
# From -- ./inp_files/505128.got.cif
#   From: 2010.05.17/outbox.cif.g08.bks.cpg/sg2_253_cif.got.tgz:505128.got - 2010.06.03 11:33:40.
