data_PCOD9018496
_publ_section_title
;
Structure prediction by ZEFSAII (Michael W. Deem and Ramdas Pophale) SiO2 
 PCOD9018496
Probable space group: P -1
;
_chemical_formula_sum "Si O2"
_cell_formula_units_Z 14
_cell_length_a 8.890195
_cell_length_b 11.165982
_cell_length_c 9.250169
_cell_angle_alpha 95.390791
_cell_angle_beta 133.669606
_cell_angle_gamma 79.973260
_cell_volume 653.606731
_symmetry_space_group_name_H-M "P -1"
_symmetry_group_IT_number 2
_symmetry_cell_setting 'triclinic'
loop_
_space_group_symop_operation_xyz
x,y,z
-x,-y,-z
loop_
_atom_site_type_symbol
_atom_site_label
_atom_site_fract_x
_atom_site_fract_y
_atom_site_fract_z
Si Si1 0.858130 0.180999 0.817086
Si Si2 0.456617 0.374485 0.528330
Si Si3 0.283737 0.027027 0.453477
Si Si4 0.100661 0.800105 0.828488
Si Si5 0.627527 0.449726 0.939927
Si Si6 0.257748 0.312754 0.106558
Si Si7 0.404324 0.906835 0.821743
O O1 0.650463 0.265561 0.633410
O O2 0.874919 0.059784 0.723038
O O3 0.844909 0.146896 0.972787
O O4 0.043781 0.259827 0.934585
O O5 0.500000 0.500000 0.500000
O O6 0.287965 0.335866 0.299811
O O7 0.467289 0.402399 0.710839
O O8 0.146443 0.159610 0.364055
O O9 0.500000 0.000000 0.500000
O O10 0.327992 0.987242 0.641235
O O11 0.194069 0.659055 0.901954
O O12 0.227830 0.851560 0.789169
O O13 0.500000 0.500000 0.000000
O O14 0.728233 0.559184 0.946644
O O15 0.435565 0.208565 0.146752
O O16 0.500000 0.000000 0.000000
#
# Coordination Sequence:
#
# PCOD9018496 Si02
#       7
#     2   2   2   2   2   2   2
#     4  11  23  43  70 102 136 182 237 292 346 418
#     4   9  21  39  68  97 136 181 232 278 344 408
#     4  12  25  46  71 100 140 185 239 290 351 423
#     4  11  24  41  68 102 139 178 234 281 357 415
#     4  10  21  43  71 103 145 182 229 295 350 415
#     4  11  22  44  72 101 141 185 237 288 348 418
#     4  12  24  43  69  99 144 182 230 296 355 413
#
# _framework density 21.419608
#
# number of rings (size 3 to 8) (size 9 to 14) (size 15 to 20)
#    0.000    1.143    2.857    3.429    0.000    5.143 
#    0.000    1.429    0.000    6.857    0.000    0.000 
#    0.000    0.000    0.000    0.000    0.000    0.000 
#
# Total GULP energy -78173.749099 kJ/mol
# GULP energy per Si atom -5583.839221 kJ/mol
# Density = 2.137086 g / cm^3
# Si number density = 21.419608 Si / 1000 Ang^3
#
#
#
# Elastic Constant Matrix: (Units=GPa)
#
#
# Indices 1 2 3 4 5 6 
#
# 1 113.3969 53.8783 63.8821 -5.1283 -23.2732 16.9593
# 2 53.8783 145.4688 74.9306 -19.6394 -18.9093 5.9273
# 3 63.8821 74.9306 113.7478 -15.0616 -15.6383 10.1670
# 4 -5.1283 -19.6394 -15.0616 54.7259 6.6863 -2.9062
# 5 -23.2732 -18.9093 -15.6383 6.6863 29.2184 1.1878
# 6 16.9593 5.9273 10.1670 -2.9062 1.1878 40.7674
#
#
#
# Elastic Compliance Matrix: (Units=1/GPa)
#
#
# Indices 1 2 3 4 5 6 
#
# 1 0.015575 -0.001387 -0.006463 -0.002155 0.008749 -0.005075
# 2 -0.001387 0.010986 -0.005925 0.001920 0.002374 0.000525
# 3 -0.006463 -0.005925 0.016534 0.001862 -0.000542 -0.000425
# 4 -0.002155 0.001920 0.001862 0.019862 -0.004091 0.001688
# 5 0.008749 0.002374 -0.000542 -0.004091 0.043597 -0.005412
# 6 -0.005075 0.000525 -0.000425 0.001688 -0.005412 0.026948
#
#
# Mechanical properties :
#
#
# Convention : Reuss Voigt Hill
#
# Bulk Modulus (GPa) = 64.32030 84.22173 74.27102
# Shear Modulus (GPa) = 30.07840 36.93717 33.50778
#
# Velocity S-wave (km/s) = 3.75139 4.15716 3.95948
# Velocity P-wave (km/s) = 6.98984 7.90240 7.46009
#
# Compressibility (1/GPa) = 0.01554719
#
# Stress axis : x y z
#
# Youngs Moduli (GPa) = 64.20387 91.02485 60.48214
#
# Poissons Ratio (x) = 0.12622 0.39088
# Poissons Ratio (y) = 0.08903 0.35833
# Poissons Ratio (z) = 0.41493 0.53928
#
# Static dielectric constant tensor:
#      x y z
#    x 1.786050 0.084750 0.057680 
#    y 0.084750 2.478950 0.203510 
#    z 0.057680 0.203510 1.840940 
# 
# From -- ./inp_files/91039.got.cif
#   From: 2010.05.17/outbox.cif.g08.bks.cpg/sg2_46_cif.got.tgz:91039.got - 2010.06.03 11:33:40.
