data_PCOD9018121
_publ_section_title
;
Structure prediction by ZEFSAII (Michael W. Deem and Ramdas Pophale) SiO2 
 PCOD9018121
Probable space group: P -1
;
_chemical_formula_sum "Si O2"
_cell_formula_units_Z 16
_cell_length_a 9.945447
_cell_length_b 14.224331
_cell_length_c 6.236585
_cell_angle_alpha 61.696343
_cell_angle_beta 92.581975
_cell_angle_gamma 75.113007
_cell_volume 736.144668
_symmetry_space_group_name_H-M "P -1"
_symmetry_group_IT_number 2
_symmetry_cell_setting 'triclinic'
loop_
_space_group_symop_operation_xyz
x,y,z
-x,-y,-z
loop_
_atom_site_type_symbol
_atom_site_label
_atom_site_fract_x
_atom_site_fract_y
_atom_site_fract_z
Si Si1 0.628601 0.575453 0.834750
Si Si2 0.476259 0.592068 0.211010
Si Si3 0.370072 0.751643 0.389582
Si Si4 0.852917 0.801925 0.935829
Si Si5 0.059080 0.752165 0.368356
Si Si6 0.893162 0.956124 0.397618
Si Si7 0.340013 0.996587 0.018751
Si Si8 0.899028 0.621123 0.798360
O O1 0.628265 0.451318 0.899490
O O2 0.489962 0.673794 0.636570
O O3 0.759615 0.603001 0.708726
O O4 0.612149 0.578529 0.087088
O O5 0.500000 0.500000 0.500000
O O6 0.421520 0.711374 0.194144
O O7 0.226119 0.720488 0.439065
O O8 0.347047 0.883869 0.274829
O O9 0.004207 0.758194 0.115002
O O10 0.845429 0.882327 0.647809
O O11 0.840901 0.692996 0.931723
O O12 0.744954 0.882355 0.010654
O O13 0.996386 0.879006 0.312308
O O14 0.983242 0.680285 0.584121
O O15 0.000000 0.000000 0.500000
O O16 0.751273 0.017063 0.184008
O O17 0.500000 0.000000 0.000000
O O18 0.000000 0.500000 0.000000
#
# Coordination Sequence:
#
# PCOD9018121 Si02
#       8
#     2   2   2   2   2   2   2   2
#     4  10  24  43  66  97 138 172 232 283 338 409
#     4   9  22  41  66  93 132 172 220 280 337 399
#     4  11  24  41  71  99 135 178 225 278 351 409
#     4  10  24  44  66  94 140 175 228 281 337 411
#     4  10  24  43  66 101 134 178 229 282 341 414
#     4  10  21  43  68  94 136 180 233 279 335 410
#     4  11  26  42  68 105 142 181 230 283 353 416
#     4  11  27  43  70  98 135 184 230 284 346 403
#
# _framework density 21.734860000000001
#
# number of rings (size 3 to 8) (size 9 to 14) (size 15 to 20)
#    0.000    1.750    0.000    1.500   14.000    7.000 
#    0.000    0.000    0.000    0.000    0.000    0.000 
#    0.000    0.000    0.000    0.000    0.000    0.000 
#
# Total GULP energy -89142.375344 kJ/mol
# GULP energy per Si atom -5571.398459 kJ/mol
# Density = 2.168539 g / cm^3
# Si number density = 21.734860 Si / 1000 Ang^3
#
#
#
# Elastic Constant Matrix: (Units=GPa)
#
#
# Indices 1 2 3 4 5 6 
#
# 1 95.1783 -3.3021 14.6943 -20.5740 1.0097 -2.2172
# 2 -3.3021 80.0529 4.0628 -10.2377 -5.6711 3.3784
# 3 14.6943 4.0628 81.3094 -13.2170 8.9373 -3.6160
# 4 -20.5740 -10.2377 -13.2170 31.3428 -8.8433 -0.9628
# 5 1.0097 -5.6711 8.9373 -8.8433 27.9495 -3.9511
# 6 -2.2172 3.3784 -3.6160 -0.9628 -3.9511 25.8438
#
#
#
# Elastic Compliance Matrix: (Units=1/GPa)
#
#
# Indices 1 2 3 4 5 6 
#
# 1 0.012844 0.002013 -0.001177 0.009657 0.003600 0.001584
# 2 0.002013 0.013887 -0.000496 0.007049 0.005038 -0.000679
# 3 -0.001177 -0.000496 0.013579 0.004019 -0.002907 0.001569
# 4 0.009657 0.007049 0.004019 0.046670 0.015203 0.004532
# 5 0.003600 0.005038 -0.002907 0.015203 0.043320 0.006433
# 6 0.001584 -0.000679 0.001569 0.004532 0.006433 0.040291
#
#
# Mechanical properties :
#
#
# Convention : Reuss Voigt Hill
#
# Bulk Modulus (GPa) = 24.39667 31.93896 28.16781
# Shear Modulus (GPa) = 27.23681 33.09958 30.16819
#
# Velocity S-wave (km/s) = 3.54381 3.90664 3.72964
# Velocity P-wave (km/s) = 5.29092 5.92249 5.61559
#
# Compressibility (1/GPa) = 0.04098920
#
# Stress axis : x y z
#
# Youngs Moduli (GPa) = 77.85550 72.01022 73.64380
#
# Poissons Ratio (x) = -0.14494 0.08671
# Poissons Ratio (y) = -0.15670 0.03651
# Poissons Ratio (z) = 0.09166 0.03570
#
# Static dielectric constant tensor:
#      x y z
#    x 1.824810 0.024300 0.028100 
#    y 0.024300 1.883420 0.048730 
#    z 0.028100 0.048730 1.811320 
# 
# From -- ./inp_files/37538.got.cif
#   From: 2010.05.17/outbox.cif.g08.bks.cpg/sg2_19_cif.got.tgz:37538.got - 2010.06.03 11:33:40.
