data_PCOD9018265
_publ_section_title
;
Structure prediction by ZEFSAII (Michael W. Deem and Ramdas Pophale) SiO2 
 PCOD9018265
Probable space group: P -1
;
_chemical_formula_sum "Si O2"
_cell_formula_units_Z 12
_cell_length_a 8.929823
_cell_length_b 7.897400
_cell_length_c 12.946479
_cell_angle_alpha 38.476979
_cell_angle_beta 65.441091
_cell_angle_gamma 81.332708
_cell_volume 491.456705
_symmetry_space_group_name_H-M "P -1"
_symmetry_group_IT_number 2
_symmetry_cell_setting 'triclinic'
loop_
_space_group_symop_operation_xyz
x,y,z
-x,-y,-z
loop_
_atom_site_type_symbol
_atom_site_label
_atom_site_fract_x
_atom_site_fract_y
_atom_site_fract_z
Si Si1 0.133497 0.967695 0.388250
Si Si2 0.131354 0.167820 0.968896
Si Si3 0.148762 0.569144 0.063164
Si Si4 0.863069 0.402400 0.696837
Si Si5 0.504213 0.323576 0.807364
Si Si6 0.493623 0.731691 0.804427
O O1 0.183118 0.595263 0.166033
O O2 0.326569 0.014015 0.355145
O O3 0.000000 0.000000 0.500000
O O4 0.039700 0.658714 0.515206
O O5 0.037478 0.394057 0.922531
O O6 0.128847 0.915320 0.169100
O O7 0.327110 0.281254 0.816659
O O8 0.000000 0.000000 0.000000
O O9 0.147188 0.252577 0.183724
O O10 0.500000 0.500000 0.000000
O O11 0.312636 0.788226 0.854000
O O12 0.703313 0.447195 0.658046
O O13 0.486348 0.553065 0.787957
O O14 0.500000 0.000000 0.000000
#
# Coordination Sequence:
#
# PCOD9018265 Si02
#       6
#     2   2   2   2   2   2
#     4   9  15  28  53  75  98 131 167 202 247 298
#     4   9  19  32  49  74 104 133 168 205 247 296
#     4   9  17  30  50  76 100 131 161 207 249 287
#     4   9  16  32  53  76  96 136 169 202 243 301
#     4  10  18  30  52  77  97 133 175 202 239 304
#     4  10  17  30  53  80  99 128 168 210 246 294
#
# _framework density 24.417206
#
# number of rings (size 3 to 8) (size 9 to 14) (size 15 to 20)
#    0.000    2.667    5.000    0.000    0.000    0.667 
#    0.000    1.667    0.000   16.000    0.000    0.000 
#    0.000    0.000    0.000    0.000    0.000    0.000 
#
# Total GULP energy -66854.328358 kJ/mol
# GULP energy per Si atom -5571.194030 kJ/mol
# Density = 2.436163 g / cm^3
# Si number density = 24.417206 Si / 1000 Ang^3
#
#
#
# Elastic Constant Matrix: (Units=GPa)
#
#
# Indices 1 2 3 4 5 6 
#
# 1 180.7222 27.7659 40.8979 -4.3657 -46.7746 -16.9989
# 2 27.7659 79.0105 23.3127 -15.4017 -13.7790 -6.3874
# 3 40.8979 23.3127 77.5450 -16.5491 -41.1650 -6.9432
# 4 -4.3657 -15.4017 -16.5491 38.9255 -2.2308 -5.4522
# 5 -46.7746 -13.7790 -41.1650 -2.2308 46.8753 -4.9614
# 6 -16.9989 -6.3874 -6.9432 -5.4522 -4.9614 31.2640
#
#
#
# Elastic Compliance Matrix: (Units=1/GPa)
#
#
# Indices 1 2 3 4 5 6 
#
# 1 0.009290 -0.000404 0.005003 0.005162 0.014777 0.009325
# 2 -0.000404 0.015454 0.000508 0.007328 0.005485 0.005199
# 3 0.005003 0.000508 0.041183 0.024110 0.044922 0.023303
# 4 0.005162 0.007328 0.024110 0.044482 0.032992 0.022651
# 5 0.014777 0.005485 0.044922 0.032992 0.082734 0.038015
# 6 0.009325 0.005199 0.023303 0.022651 0.038015 0.053276
#
#
# Mechanical properties :
#
#
# Convention : Reuss Voigt Hill
#
# Bulk Modulus (GPa) = 13.13340 57.91452 35.52396
# Shear Modulus (GPa) = 19.11435 39.76637 29.44036
#
# Velocity S-wave (km/s) = 2.80093 4.04000 3.47612
# Velocity P-wave (km/s) = 3.98130 6.74776 5.53999
#
# Compressibility (1/GPa) = 0.07614174
#
# Stress axis : x y z
#
# Youngs Moduli (GPa) = 107.64709 64.70897 24.28195
#
# Poissons Ratio (x) = 0.02611 -0.12148
# Poissons Ratio (y) = 0.04344 -0.01234
# Poissons Ratio (z) = -0.53857 -0.03289
#
# Static dielectric constant tensor:
#      x y z
#    x 2.056360 0.006540 -0.026450 
#    y 0.006540 2.137850 0.025950 
#    z -0.026450 0.025950 2.027920 
# 
# From -- ./inp_files/222434.got.cif
#   From: 2010.05.17/outbox.cif.g08.bks.cpg/sg2_112_cif.got.tgz:222434.got - 2010.06.03 11:33:40.
