data_PCOD9018101
_publ_section_title
;
Structure prediction by ZEFSAII (Michael W. Deem and Ramdas Pophale) SiO2 
 PCOD9018101
Probable space group: P -1
;
_chemical_formula_sum "Si O2"
_cell_formula_units_Z 14
_cell_length_a 8.615696
_cell_length_b 10.592902
_cell_length_c 6.774523
_cell_angle_alpha 63.276152
_cell_angle_beta 110.776861
_cell_angle_gamma 101.722795
_cell_volume 515.617960
_symmetry_space_group_name_H-M "P -1"
_symmetry_group_IT_number 2
_symmetry_cell_setting 'triclinic'
loop_
_space_group_symop_operation_xyz
x,y,z
-x,-y,-z
loop_
_atom_site_type_symbol
_atom_site_label
_atom_site_fract_x
_atom_site_fract_y
_atom_site_fract_z
Si Si1 0.229423 0.512653 0.582722
Si Si2 0.403968 0.395370 0.218857
Si Si3 0.124161 0.206880 0.333526
Si Si4 0.744702 0.027261 0.722722
Si Si5 0.456127 0.835176 0.827320
Si Si6 0.802934 0.361415 0.958098
Si Si7 0.003242 0.749554 0.356148
O O1 0.425960 0.535077 0.672012
O O2 0.192065 0.563674 0.305608
O O3 0.130772 0.632980 0.566138
O O4 0.149318 0.356587 0.703201
O O5 0.302035 0.289296 0.392768
O O6 0.452353 0.297080 0.129966
O O7 0.277662 0.516024 0.033786
O O8 0.058909 0.159708 0.551275
O O9 0.161711 0.094898 0.262400
O O10 0.984351 0.310129 0.123797
O O11 0.649198 0.104741 0.446614
O O12 0.880998 0.139868 0.794245
O O13 0.603243 0.954273 0.850539
O O14 0.329253 0.772827 0.978092
#
# Coordination Sequence:
#
# PCOD9018101 Si02
#       7
#     2   2   2   2   2   2   2
#     4  11  25  42  66  96 135 173 206 262 339 386
#     4  11  22  43  66  97 132 170 211 267 330 385
#     4  11  23  39  72  97 124 168 222 271 309 377
#     4  10  21  43  68  93 124 174 226 253 320 382
#     4  10  22  40  71  92 126 171 224 269 306 379
#     4  12  23  40  63 106 129 160 220 275 319 369
#     4  11  22  43  68  89 131 177 210 259 322 398
#
# _framework density 27.151885
#
# number of rings (size 3 to 8) (size 9 to 14) (size 15 to 20)
#    0.000    1.143    4.286    1.714    0.000    0.000 
#    7.714    1.429    0.000    0.000    0.000    0.000 
#    0.000    0.000    0.000    0.000    0.000    0.000 
#
# Total GULP energy -78352.410270 kJ/mol
# GULP energy per Si atom -5596.600734 kJ/mol
# Density = 2.709009 g / cm^3
# Si number density = 27.151885 Si / 1000 Ang^3
#
#
#
# Elastic Constant Matrix: (Units=GPa)
#
#
# Indices 1 2 3 4 5 6 
#
# 1 191.0368 80.4175 42.1886 -5.4388 3.2646 47.2233
# 2 80.4175 155.1906 21.4326 -8.4631 13.9732 54.6633
# 3 42.1886 21.4326 74.8096 -10.4365 24.8192 9.6185
# 4 -5.4388 -8.4631 -10.4365 21.5997 4.4374 2.9041
# 5 3.2646 13.9732 24.8192 4.4374 55.2133 -16.3814
# 6 47.2233 54.6633 9.6185 2.9041 -16.3814 84.3706
#
#
#
# Elastic Compliance Matrix: (Units=1/GPa)
#
#
# Indices 1 2 3 4 5 6 
#
# 1 0.007768 -0.003237 -0.004137 -0.001529 0.001942 -0.001349
# 2 -0.003237 0.011359 0.002786 0.007363 -0.006731 -0.007426
# 3 -0.004137 0.002786 0.021708 0.013828 -0.012791 -0.004923
# 4 -0.001529 0.007363 0.013828 0.060198 -0.015992 -0.010668
# 5 0.001942 -0.006731 -0.012791 -0.015992 0.030032 0.011113
# 6 -0.001349 -0.007426 -0.004923 -0.010668 0.011113 0.020505
#
#
# Mechanical properties :
#
#
# Convention : Reuss Voigt Hill
#
# Bulk Modulus (GPa) = 31.58715 78.79051 55.18883
# Shear Modulus (GPa) = 29.18867 50.70328 39.94597
#
# Velocity S-wave (km/s) = 3.28230 4.32602 3.83979
# Velocity P-wave (km/s) = 5.10131 7.35079 6.32683
#
# Compressibility (1/GPa) = 0.03165844
#
# Stress axis : x y z
#
# Youngs Moduli (GPa) = 128.74020 88.03309 46.06594
#
# Poissons Ratio (x) = 0.28494 0.19060
# Poissons Ratio (y) = 0.41669 -0.12833
# Poissons Ratio (z) = 0.53266 -0.24525
#
# Static dielectric constant tensor:
#      x y z
#    x 2.107750 -0.009630 -0.051500 
#    y -0.009630 2.151570 0.012320 
#    z -0.051500 0.012320 2.136210 
# 
# From -- ./inp_files/175568.got.cif
#   From: 2010.05.17/outbox.cif.g08.bks.cpg/sg2_88_cif.got.tgz:175568.got - 2010.06.03 11:33:40.
