data_PCOD9018983
_publ_section_title
;
Structure prediction by ZEFSAII (Michael W. Deem and Ramdas Pophale) SiO2 
 PCOD9018983
Probable space group: P -1
;
_chemical_formula_sum "Si O2"
_cell_formula_units_Z 16
_cell_length_a 19.735134
_cell_length_b 19.767348
_cell_length_c 8.073220
_cell_angle_alpha 135.965721
_cell_angle_beta 135.142054
_cell_angle_gamma 20.145637
_cell_volume 746.354201
_symmetry_space_group_name_H-M "P -1"
_symmetry_group_IT_number 2
_symmetry_cell_setting 'triclinic'
loop_
_space_group_symop_operation_xyz
x,y,z
-x,-y,-z
loop_
_atom_site_type_symbol
_atom_site_label
_atom_site_fract_x
_atom_site_fract_y
_atom_site_fract_z
Si Si1 0.942080 0.364616 0.574118
Si Si2 0.297993 0.983959 0.961810
Si Si3 0.486898 0.275739 0.601135
Si Si4 0.016669 0.877834 0.247279
Si Si5 0.898461 0.988385 0.850635
Si Si6 0.984445 0.627343 0.657897
Si Si7 0.653376 0.951224 0.172451
Si Si8 0.339414 0.445568 0.009614
O O1 0.709155 0.569826 0.577830
O O2 0.976500 0.382511 0.484200
O O3 0.108044 0.274816 0.809635
O O4 0.999044 0.199670 0.375089
O O5 0.376474 0.963387 0.897001
O O6 0.109229 0.081619 0.781913
O O7 0.216558 0.141236 0.219851
O O8 0.465819 0.763305 0.930662
O O9 0.671382 0.185288 0.735607
O O10 0.393092 0.392268 0.815647
O O11 0.596856 0.073923 0.440761
O O12 0.239769 0.637902 0.208849
O O13 0.000000 0.000000 0.500000
O O14 0.922587 0.954662 0.033412
O O15 0.000000 0.000000 0.000000
O O16 0.166102 0.521021 0.875896
O O17 0.000000 0.500000 0.500000
O O18 0.500000 0.000000 0.000000
#
# Coordination Sequence:
#
# PCOD9018983 Si02
#       8
#     2   2   2   2   2   2   2   2
#     4  10  22  46  64  92 137 171 230 275 323 413
#     4  11  23  44  63  94 138 166 225 277 332 404
#     4  10  21  44  67  88 130 176 221 270 327 400
#     4  11  24  43  68  98 133 166 221 289 340 396
#     4  11  22  42  67  98 131 173 220 276 340 408
#     4  10  22  39  71  95 119 178 226 272 326 389
#     4  11  27  40  62 100 137 178 217 281 337 389
#     4  10  21  44  68  92 125 175 221 272 325 402
#
# _framework density 21.437543000000002
#
# number of rings (size 3 to 8) (size 9 to 14) (size 15 to 20)
#    0.000    1.500    5.000    0.750    8.750    4.000 
#    0.000    0.000    0.000    0.000    0.000    0.000 
#    0.000    0.000    0.000    0.000    0.000    0.000 
#
# Total GULP energy -89217.577815 kJ/mol
# GULP energy per Si atom -5576.098613 kJ/mol
# Density = 2.138875 g / cm^3
# Si number density = 21.437543 Si / 1000 Ang^3
#
#
#
# Elastic Constant Matrix: (Units=GPa)
#
#
# Indices 1 2 3 4 5 6 
#
# 1 95.1270 26.9121 26.7520 8.8062 34.2261 -12.7955
# 2 26.9121 145.5603 33.4673 -0.4496 13.9590 -21.0766
# 3 26.7520 33.4673 72.5017 11.1589 29.8477 -8.7198
# 4 8.8062 -0.4496 11.1589 40.1219 -2.1540 7.4672
# 5 34.2261 13.9590 29.8477 -2.1540 37.1008 -2.4249
# 6 -12.7955 -21.0766 -8.7198 7.4672 -2.4249 26.6058
#
#
#
# Elastic Compliance Matrix: (Units=1/GPa)
#
#
# Indices 1 2 3 4 5 6 
#
# 1 0.019205 -0.001134 0.004539 -0.008527 -0.020762 0.010326
# 2 -0.001134 0.008492 -0.003301 0.000364 0.000860 0.005076
# 3 0.004539 -0.003301 0.026547 -0.011448 -0.024362 0.009261
# 4 -0.008527 0.000364 -0.011448 0.033815 0.017894 -0.015424
# 5 -0.020762 0.000860 -0.024362 0.017894 0.065352 -0.016354
# 6 0.010326 0.005076 0.009261 -0.015424 -0.016354 0.052447
#
#
# Mechanical properties :
#
#
# Convention : Reuss Voigt Hill
#
# Bulk Modulus (GPa) = 18.36510 54.16132 36.26321
# Shear Modulus (GPa) = 22.34120 35.83622 29.08871
#
# Velocity S-wave (km/s) = 3.23174 4.09303 3.68762
# Velocity P-wave (km/s) = 4.74457 6.90338 5.92316
#
# Compressibility (1/GPa) = 0.05445110
#
# Stress axis : x y z
#
# Youngs Moduli (GPa) = 52.06976 117.75216 37.66924
#
# Poissons Ratio (x) = 0.13359 -0.17098
# Poissons Ratio (y) = 0.05907 0.12435
# Poissons Ratio (z) = -0.23634 0.38870
#
# Static dielectric constant tensor:
#      x y z
#    x 1.751020 -0.004020 -0.028810 
#    y -0.004020 1.859150 -0.038780 
#    z -0.028810 -0.038780 1.790870 
# 
# From -- ./inp_files/349628.got.cif
#   From: 2010.05.17/outbox.cif.g08.bks.cpg/sg2_175_cif.got.tgz:349628.got - 2010.06.03 11:33:40.
