data_PCOD9018009
_publ_section_title
;
Structure prediction by ZEFSAII (Michael W. Deem and Ramdas Pophale) SiO2 
 PCOD9018009
Probable space group: P -1
;
_chemical_formula_sum "Si O2"
_cell_formula_units_Z 14
_cell_length_a 7.836602
_cell_length_b 12.168307
_cell_length_c 7.929882
_cell_angle_alpha 117.567886
_cell_angle_beta 104.827248
_cell_angle_gamma 54.830759
_cell_volume 547.900581
_symmetry_space_group_name_H-M "P -1"
_symmetry_group_IT_number 2
_symmetry_cell_setting 'triclinic'
loop_
_space_group_symop_operation_xyz
x,y,z
-x,-y,-z
loop_
_atom_site_type_symbol
_atom_site_label
_atom_site_fract_x
_atom_site_fract_y
_atom_site_fract_z
Si Si1 0.071018 0.069616 0.711402
Si Si2 0.506235 0.688225 0.400578
Si Si3 0.413963 0.816537 0.102937
Si Si4 0.928127 0.400825 0.327117
Si Si5 0.097456 0.331875 0.955311
Si Si6 0.808706 0.198518 0.282262
Si Si7 0.453466 0.062418 0.343523
O O1 0.320999 0.999137 0.725716
O O2 0.053582 0.979464 0.796552
O O3 0.999689 0.238969 0.794350
O O4 0.000000 0.000000 0.500000
O O5 0.391027 0.766106 0.249201
O O6 0.682068 0.518250 0.302293
O O7 0.347555 0.726385 0.542781
O O8 0.629842 0.768493 0.539073
O O9 0.341586 0.986787 0.182960
O O10 0.662842 0.740584 0.087078
O O11 0.322938 0.767368 0.897798
O O12 0.935892 0.277405 0.358102
O O13 0.000000 0.500000 0.500000
O O14 0.061807 0.328981 0.142669
O O15 0.000000 0.500000 0.000000
O O16 0.500000 0.000000 0.500000
#
# Coordination Sequence:
#
# PCOD9018009 Si02
#       7
#     2   2   2   2   2   2   2
#     4  10  24  44  71 100 141 183 229 291 346 412
#     4  10  21  43  67  98 136 183 223 285 349 407
#     4  10  21  44  71  99 138 177 234 289 337 425
#     4  12  27  43  66 100 145 187 228 292 355 417
#     4  11  24  45  72 105 140 189 229 277 359 417
#     4  11  26  44  68 105 132 182 244 285 346 413
#     4   8  18  36  67  96 125 176 226 272 345 402
#
# _framework density 25.552083
#
# number of rings (size 3 to 8) (size 9 to 14) (size 15 to 20)
#    0.000    1.714    1.429    1.286    2.000   10.857 
#    2.571    0.000    0.000    0.000    0.000    0.000 
#    0.000    0.000    0.000    0.000    0.000    0.000 
#
# Total GULP energy -78222.992410 kJ/mol
# GULP energy per Si atom -5587.356601 kJ/mol
# Density = 2.549393 g / cm^3
# Si number density = 25.552083 Si / 1000 Ang^3
#
#
#
# Elastic Constant Matrix: (Units=GPa)
#
#
# Indices 1 2 3 4 5 6 
#
# 1 139.6813 39.6711 58.4801 3.3504 6.5449 46.3309
# 2 39.6711 141.9210 37.8437 26.1518 11.4133 32.5838
# 3 58.4801 37.8437 144.2128 -10.8440 12.9185 25.2526
# 4 3.3504 26.1518 -10.8440 47.3698 13.1328 2.9526
# 5 6.5449 11.4133 12.9185 13.1328 59.4017 3.7551
# 6 46.3309 32.5838 25.2526 2.9526 3.7551 49.7682
#
#
#
# Elastic Compliance Matrix: (Units=1/GPa)
#
#
# Indices 1 2 3 4 5 6 
#
# 1 0.011511 -0.000162 -0.003145 -0.000947 0.000224 -0.008975
# 2 -0.000162 0.009788 -0.002082 -0.005603 0.000137 -0.004879
# 3 -0.003145 -0.002082 0.009357 0.004150 -0.002172 -0.000539
# 4 -0.000947 -0.005603 0.004150 0.026724 -0.005711 0.001290
# 5 0.000224 0.000137 -0.002172 -0.005711 0.018535 -0.000256
# 6 -0.008975 -0.004879 -0.000539 0.001290 -0.000256 0.031859
#
#
# Mechanical properties :
#
#
# Convention : Reuss Voigt Hill
#
# Bulk Modulus (GPa) = 50.30711 77.53387 63.92049
# Shear Modulus (GPa) = 39.94325 50.62930 45.28627
#
# Velocity S-wave (km/s) = 3.95803 4.45614 4.21445
# Velocity P-wave (km/s) = 6.37329 7.54225 6.98228
#
# Compressibility (1/GPa) = 0.01987790
#
# Stress axis : x y z
#
# Youngs Moduli (GPa) = 86.87368 102.16267 106.87292
#
# Poissons Ratio (x) = 0.01654 0.33612
# Poissons Ratio (y) = 0.01406 0.22253
# Poissons Ratio (z) = 0.27322 0.21272
#
# Static dielectric constant tensor:
#      x y z
#    x 2.007550 -0.031330 -0.003500 
#    y -0.031330 2.121170 0.024680 
#    z -0.003500 0.024680 2.012610 
# 
# From -- ./inp_files/190149.got.cif
#   From: 2010.05.17/outbox.cif.g08.bks.cpg/sg2_96_cif.got.tgz:190149.got - 2010.06.03 11:33:40.
