data_PCOD9018741
_publ_section_title
;
Structure prediction by ZEFSAII (Michael W. Deem and Ramdas Pophale) SiO2 
 PCOD9018741
Probable space group: P -1
;
_chemical_formula_sum "Si O2"
_cell_formula_units_Z 12
_cell_length_a 5.323059
_cell_length_b 16.077763
_cell_length_c 20.078201
_cell_angle_alpha 159.830128
_cell_angle_beta 66.564901
_cell_angle_gamma 101.230866
_cell_volume 448.756727
_symmetry_space_group_name_H-M "P -1"
_symmetry_group_IT_number 2
_symmetry_cell_setting 'triclinic'
loop_
_space_group_symop_operation_xyz
x,y,z
-x,-y,-z
loop_
_atom_site_type_symbol
_atom_site_label
_atom_site_fract_x
_atom_site_fract_y
_atom_site_fract_z
Si Si1 0.182159 0.538366 0.096790
Si Si2 0.119854 0.587797 0.700581
Si Si3 0.870726 0.942167 0.717586
Si Si4 0.868164 0.444465 0.168372
Si Si5 0.193134 0.028156 0.636599
Si Si6 0.698905 0.594211 0.652696
O O1 0.166170 0.456371 0.112872
O O2 0.891007 0.867797 0.352310
O O3 0.500000 0.500000 0.000000
O O4 0.134463 0.305721 0.890814
O O5 0.070055 0.618409 0.807676
O O6 0.766531 0.752503 0.823261
O O7 0.352654 0.690029 0.730249
O O8 0.291602 0.242339 0.403734
O O9 0.936599 0.973155 0.657093
O O10 0.214872 0.692306 0.529701
O O11 0.786649 0.223061 0.978251
O O12 0.550379 0.755970 0.413606
O O13 0.000000 0.500000 0.500000
#
# Coordination Sequence:
#
# PCOD9018741 Si02
#       6
#     2   2   2   2   2   2
#     4  10  24  40  64  98 135 177 233 287 336 403
#     4  10  22  44  66 104 133 180 231 277 343 420
#     4   9  23  40  68  97 137 175 231 286 338 407
#     4  11  21  45  70  98 135 189 227 284 345 406
#     4  10  21  44  60  96 133 178 234 279 339 412
#     4  10  21  44  71  97 143 180 217 291 351 403
#
# _framework density 26.740544
#
# number of rings (size 3 to 8) (size 9 to 14) (size 15 to 20)
#    1.000    1.000    1.667    1.000    2.333    0.667 
#   24.000    1.667    0.000    0.000    0.000    0.000 
#    0.000    0.000    0.000    0.000    0.000    0.000 
#
# Total GULP energy -66966.579937 kJ/mol
# GULP energy per Si atom -5580.548328 kJ/mol
# Density = 2.667968 g / cm^3
# Si number density = 26.740544 Si / 1000 Ang^3
#
#
#
# Elastic Constant Matrix: (Units=GPa)
#
#
# Indices 1 2 3 4 5 6 
#
# 1 162.3630 60.4676 19.2316 -4.3084 9.6101 18.1787
# 2 60.4676 159.1687 11.3164 -13.5278 21.7313 14.7205
# 3 19.2316 11.3164 63.0290 21.9652 16.7711 1.3884
# 4 -4.3084 -13.5278 21.9652 31.4694 7.8941 8.2909
# 5 9.6101 21.7313 16.7711 7.8941 35.2166 -8.8580
# 6 18.1787 14.7205 1.3884 8.2909 -8.8580 45.7191
#
#
#
# Elastic Compliance Matrix: (Units=1/GPa)
#
#
# Indices 1 2 3 4 5 6 
#
# 1 0.007742 -0.002044 -0.002763 0.003190 -0.001034 -0.003115
# 2 -0.002044 0.009387 -0.001833 0.008260 -0.007498 -0.005105
# 3 -0.002763 -0.001833 0.024523 -0.017885 -0.004974 0.003224
# 4 0.003190 0.008260 -0.017885 0.056081 -0.014119 -0.016291
# 5 -0.001034 -0.007498 -0.004974 -0.014119 0.042291 0.013731
# 6 -0.003115 -0.005105 0.003224 -0.016291 0.013731 0.030271
#
#
# Mechanical properties :
#
#
# Convention : Reuss Voigt Hill
#
# Bulk Modulus (GPa) = 35.24666 62.95465 49.10065
# Shear Modulus (GPa) = 25.90198 42.05070 33.97634
#
# Velocity S-wave (km/s) = 3.11568 3.96983 3.56840
# Velocity P-wave (km/s) = 5.11398 6.67882 5.94809
#
# Compressibility (1/GPa) = 0.02837148
#
# Stress axis : x y z
#
# Youngs Moduli (GPa) = 129.15962 106.52532 40.77817
#
# Poissons Ratio (x) = 0.21779 0.11268
# Poissons Ratio (y) = 0.26407 0.07474
# Poissons Ratio (z) = 0.35690 0.19525
#
# Static dielectric constant tensor:
#      x y z
#    x 2.175770 -0.018090 -0.098870 
#    y -0.018090 2.156500 -0.056640 
#    z -0.098870 -0.056640 2.179000 
# 
# From -- ./inp_files/3450.got.cif
#   From: 2010.05.17/outbox.cif.g08.bks.cpg/sg2_2_cif.got.tgz:3450.got - 2010.06.03 11:33:40.
