data_PCOD9018707
_publ_section_title
;
Structure prediction by ZEFSAII (Michael W. Deem and Ramdas Pophale) SiO2 
 PCOD9018707
Probable space group: P -1
;
_chemical_formula_sum "Si O2"
_cell_formula_units_Z 14
_cell_length_a 25.167375
_cell_length_b 5.998897
_cell_length_c 18.696390
_cell_angle_alpha 121.762196
_cell_angle_beta 161.694274
_cell_angle_gamma 50.513882
_cell_volume 648.504873
_symmetry_space_group_name_H-M "P -1"
_symmetry_group_IT_number 2
_symmetry_cell_setting 'triclinic'
loop_
_space_group_symop_operation_xyz
x,y,z
-x,-y,-z
loop_
_atom_site_type_symbol
_atom_site_label
_atom_site_fract_x
_atom_site_fract_y
_atom_site_fract_z
Si Si1 0.168375 0.901636 0.140950
Si Si2 0.719071 0.393355 0.239527
Si Si3 0.144753 0.348112 0.959637
Si Si4 0.121696 0.701963 0.278151
Si Si5 0.940715 0.715617 0.629365
Si Si6 0.463898 0.087463 0.552751
Si Si7 0.951226 0.236847 0.375782
O O1 0.352096 0.914015 0.407513
O O2 0.210155 0.583306 0.110226
O O3 0.000000 0.000000 0.000000
O O4 0.065638 0.151593 0.989385
O O5 0.779186 0.642545 0.380001
O O6 0.764293 0.318990 0.200294
O O7 0.500000 0.500000 0.000000
O O8 0.870957 0.083506 0.422740
O O9 0.951105 0.411379 0.766468
O O10 0.086447 0.429650 0.816685
O O11 0.331545 0.026323 0.164785
O O12 0.309171 0.438600 0.432502
O O13 0.146778 0.981298 0.383252
O O14 0.053765 0.763928 0.716160
O O15 0.500000 0.000000 0.500000
O O16 0.000000 0.500000 0.500000
#
# Coordination Sequence:
#
# PCOD9018707 Si02
#       7
#     2   2   2   2   2   2   2
#     4  11  21  40  68  87 125 171 223 282 328 382
#     4  10  21  43  76 102 127 172 218 259 322 396
#     4  11  23  41  63  93 132 176 217 277 337 377
#     4  11  23  42  61  93 134 174 215 282 341 370
#     4  10  23  43  65  93 143 173 209 273 329 392
#     4  12  23  41  69  93 124 181 235 275 322 393
#     4   9  20  42  70  99 129 166 212 259 320 388
#
# _framework density 21.588118000000001
#
# number of rings (size 3 to 8) (size 9 to 14) (size 15 to 20)
#    0.000    1.429    2.857    2.571    0.000    2.286 
#    0.000   18.571    0.000    0.000    0.000    0.000 
#    0.000    0.000    0.000    0.000    0.000    0.000 
#
# Total GULP energy -78221.756750 kJ/mol
# GULP energy per Si atom -5587.268339 kJ/mol
# Density = 2.153898 g / cm^3
# Si number density = 21.588118 Si / 1000 Ang^3
#
#
#
# Elastic Constant Matrix: (Units=GPa)
#
#
# Indices 1 2 3 4 5 6 
#
# 1 151.0808 14.8716 62.5502 -14.0665 12.0642 3.8750
# 2 14.8716 100.7914 39.7672 -3.1335 8.2201 -17.4913
# 3 62.5502 39.7672 105.1894 -6.0948 26.4401 -15.5192
# 4 -14.0665 -3.1335 -6.0948 35.9188 -1.1506 2.0882
# 5 12.0642 8.2201 26.4401 -1.1506 33.2674 -2.2729
# 6 3.8750 -17.4913 -15.5192 2.0882 -2.2729 32.1092
#
#
#
# Elastic Compliance Matrix: (Units=1/GPa)
#
#
# Indices 1 2 3 4 5 6 
#
# 1 0.009628 0.000470 -0.006754 0.002963 0.001572 -0.004252
# 2 0.000470 0.012342 -0.004409 0.000267 0.000605 0.004561
# 3 -0.006754 -0.004409 0.018947 -0.000566 -0.011073 0.006824
# 4 0.002963 0.000267 -0.000566 0.029071 0.000153 -0.002366
# 5 0.001572 0.000605 -0.011073 0.000153 0.037973 -0.002534
# 6 -0.004252 0.004561 0.006824 -0.002366 -0.002534 0.037414
#
#
# Mechanical properties :
#
#
# Convention : Reuss Voigt Hill
#
# Bulk Modulus (GPa) = 51.19918 65.71551 58.45735
# Shear Modulus (GPa) = 28.85644 36.25060 32.55352
#
# Velocity S-wave (km/s) = 3.66003 4.10224 3.88743
# Velocity P-wave (km/s) = 6.45205 7.27630 6.87654
#
# Compressibility (1/GPa) = 0.01953156
#
# Stress axis : x y z
#
# Youngs Moduli (GPa) = 103.86029 81.02237 52.77863
#
# Poissons Ratio (x) = -0.03810 0.35646
# Poissons Ratio (y) = -0.04883 0.23272
# Poissons Ratio (z) = 0.70146 0.35726
#
# Static dielectric constant tensor:
#      x y z
#    x 1.859740 0.023160 -0.033340 
#    y 0.023160 1.833330 -0.002910 
#    z -0.033340 -0.002910 1.765410 
# 
# From -- ./inp_files/6880.got.cif
#   From: 2010.05.17/outbox.cif.g08.bks.cpg/sg2_4_cif.got.tgz:6880.got - 2010.06.03 11:33:40.
