data_PCOD9018856
_publ_section_title
;
Structure prediction by ZEFSAII (Michael W. Deem and Ramdas Pophale) SiO2 
 PCOD9018856
Probable space group: P -1
;
_chemical_formula_sum "Si O2"
_cell_formula_units_Z 16
_cell_length_a 12.900275
_cell_length_b 13.087440
_cell_length_c 9.445762
_cell_angle_alpha 86.897597
_cell_angle_beta 27.360393
_cell_angle_gamma 79.006268
_cell_volume 695.600026
_symmetry_space_group_name_H-M "P -1"
_symmetry_group_IT_number 2
_symmetry_cell_setting 'triclinic'
loop_
_space_group_symop_operation_xyz
x,y,z
-x,-y,-z
loop_
_atom_site_type_symbol
_atom_site_label
_atom_site_fract_x
_atom_site_fract_y
_atom_site_fract_z
Si Si1 0.916107 0.452090 0.247129
Si Si2 0.082399 0.047049 0.758215
Si Si3 0.415203 0.481229 0.951458
Si Si4 0.039063 0.633937 0.240345
Si Si5 0.402244 0.190048 0.320529
Si Si6 0.317206 0.284483 0.939504
Si Si7 0.356793 0.744845 0.724537
Si Si8 0.418472 0.900261 0.160416
O O1 0.941747 0.538650 0.323087
O O2 0.641076 0.462479 0.575005
O O3 0.081925 0.337888 0.121494
O O4 0.000000 0.500000 0.000000
O O5 0.302401 0.096217 0.510390
O O6 0.176389 0.954109 0.534950
O O7 0.848588 0.144502 0.997283
O O8 0.000000 0.000000 0.000000
O O9 0.330770 0.378974 0.023818
O O10 0.500000 0.500000 0.000000
O O11 0.204892 0.591285 0.173659
O O12 0.821576 0.739608 0.503463
O O13 0.221885 0.655985 0.902714
O O14 0.456110 0.260570 0.376301
O O15 0.602860 0.155825 0.959289
O O16 0.522910 0.258417 0.572030
O O17 0.390919 0.177340 0.956203
O O18 0.500000 0.000000 0.000000
#
# Coordination Sequence:
#
# PCOD9018856 Si02
#       8
#     2   2   2   2   2   2   2   2
#     4  11  23  42  66  97 133 175 223 269 330 397
#     4  10  21  44  65  94 135 171 221 287 332 390
#     4  11  26  41  65  99 136 177 221 271 336 400
#     4  10  22  39  66  91 137 168 218 275 327 388
#     4  10  23  39  70  96 130 177 223 274 340 399
#     4  11  24  41  69  98 139 175 224 279 328 399
#     4  11  22  41  70 101 127 179 225 272 338 404
#     4  10  23  45  66  96 137 175 221 283 334 387
#
# _framework density 23.001722999999998
#
# number of rings (size 3 to 8) (size 9 to 14) (size 15 to 20)
#    0.000    1.500    1.250    3.000    5.250    5.000 
#    0.000    0.000    0.000    0.000    0.000    0.000 
#    0.000    0.000    0.000    0.000    0.000    0.000 
#
# Total GULP energy -89226.292835 kJ/mol
# GULP energy per Si atom -5576.643302 kJ/mol
# Density = 2.294937 g / cm^3
# Si number density = 23.001723 Si / 1000 Ang^3
#
#
#
# Elastic Constant Matrix: (Units=GPa)
#
#
# Indices 1 2 3 4 5 6 
#
# 1 74.8309 21.9701 27.7419 6.1866 16.5119 -12.6019
# 2 21.9701 103.2750 30.3062 3.2825 -3.0462 -26.4378
# 3 27.7419 30.3062 99.7445 -3.3489 20.0411 -5.7955
# 4 6.1866 3.2825 -3.3489 29.7675 -2.3511 -0.2779
# 5 16.5119 -3.0462 20.0411 -2.3511 41.0378 4.4666
# 6 -12.6019 -26.4378 -5.7955 -0.2779 4.4666 31.6551
#
#
#
# Elastic Compliance Matrix: (Units=1/GPa)
#
#
# Indices 1 2 3 4 5 6 
#
# 1 0.017768 -0.001358 -0.002953 -0.004349 -0.006744 0.006312
# 2 -0.001358 0.013701 -0.003701 -0.001378 0.002214 0.009900
# 3 -0.002953 -0.003701 0.013021 0.002065 -0.005204 -0.001131
# 4 -0.004349 -0.001378 0.002065 0.035089 0.002933 -0.002610
# 5 -0.006744 0.002214 -0.005204 0.002933 0.030617 -0.006082
# 6 0.006312 0.009900 -0.001131 -0.002610 -0.006082 0.043000
#
#
# Mechanical properties :
#
#
# Convention : Reuss Voigt Hill
#
# Bulk Modulus (GPa) = 35.13146 48.65410 41.89278
# Shear Modulus (GPa) = 27.97835 33.68090 30.82962
#
# Velocity S-wave (km/s) = 3.49142 3.83074 3.66501
# Velocity P-wave (km/s) = 5.61782 6.38470 6.01350
#
# Compressibility (1/GPa) = 0.02846452
#
# Stress axis : x y z
#
# Youngs Moduli (GPa) = 56.28235 72.98476 76.79976
#
# Poissons Ratio (x) = 0.09911 0.22682
# Poissons Ratio (y) = 0.07643 0.28426
# Poissons Ratio (z) = 0.16623 0.27014
#
# Static dielectric constant tensor:
#      x y z
#    x 1.878230 -0.020030 0.001970 
#    y -0.020030 1.916850 0.017500 
#    z 0.001970 0.017500 1.915490 
# 
# From -- ./inp_files/90669.got.cif
#   From: 2010.05.17/outbox.cif.g08.bks.cpg/sg2_46_cif.got.tgz:90669.got - 2010.06.03 11:33:40.
