data_PCOD9018961
_publ_section_title
;
Structure prediction by ZEFSAII (Michael W. Deem and Ramdas Pophale) SiO2 
 PCOD9018961
Probable space group: P -1
;
_chemical_formula_sum "Si O2"
_cell_formula_units_Z 16
_cell_length_a 12.893345
_cell_length_b 9.846866
_cell_length_c 7.883696
_cell_angle_alpha 81.566825
_cell_angle_beta 82.005078
_cell_angle_gamma 42.498908
_cell_volume 668.159238
_symmetry_space_group_name_H-M "P -1"
_symmetry_group_IT_number 2
_symmetry_cell_setting 'triclinic'
loop_
_space_group_symop_operation_xyz
x,y,z
-x,-y,-z
loop_
_atom_site_type_symbol
_atom_site_label
_atom_site_fract_x
_atom_site_fract_y
_atom_site_fract_z
Si Si1 0.923950 0.466967 0.655794
Si Si2 0.882526 0.756089 0.822761
Si Si3 0.859101 0.029613 0.003961
Si Si4 0.476870 0.898233 0.152002
Si Si5 0.936305 0.909423 0.497131
Si Si6 0.591824 0.770827 0.508010
Si Si7 0.366991 0.746990 0.660312
Si Si8 0.436235 0.641236 0.147233
O O1 0.931880 0.550515 0.812968
O O2 0.750401 0.618153 0.600022
O O3 0.000000 0.500000 0.500000
O O4 0.001378 0.242586 0.649325
O O5 0.968639 0.775415 0.669318
O O6 0.701251 0.923571 0.781718
O O7 0.892399 0.839518 0.975927
O O8 0.747754 0.140211 0.172255
O O9 0.747613 0.192562 0.847720
O O10 0.000000 0.000000 0.000000
O O11 0.596338 0.760547 0.303574
O O12 0.481562 0.752480 0.078793
O O13 0.500000 0.000000 0.000000
O O14 0.754515 0.109418 0.485577
O O15 0.000000 0.000000 0.500000
O O16 0.487934 0.752992 0.617470
O O17 0.500000 0.000000 0.500000
O O18 0.468033 0.512037 0.690648
O O19 0.500000 0.500000 0.000000
#
# Coordination Sequence:
#
# PCOD9018961 Si02
#       8
#     2   2   2   2   2   2   2   2
#     4  10  23  44  65  97 146 178 235 292 349 427
#     4  10  21  44  66  98 137 179 233 287 349 424
#     4  10  22  43  71 102 142 184 232 293 364 424
#     4  11  24  43  71 104 139 183 234 284 354 423
#     4  11  23  42  71 102 140 186 230 299 355 415
#     4  12  24  42  73 106 140 190 234 291 360 421
#     4  11  24  44  71 103 143 183 243 292 349 427
#     4   9  23  43  68 101 143 179 233 292 346 419
#
# _framework density 23.946387000000001
#
# number of rings (size 3 to 8) (size 9 to 14) (size 15 to 20)
#    0.000    1.500    2.500    1.500    7.000    3.500 
#    2.250    3.125    0.000    0.000    0.000    0.000 
#    0.000    0.000    0.000    0.000    0.000    0.000 
#
# Total GULP energy -89243.724074 kJ/mol
# GULP energy per Si atom -5577.732755 kJ/mol
# Density = 2.389188 g / cm^3
# Si number density = 23.946387 Si / 1000 Ang^3
#
#
#
# Elastic Constant Matrix: (Units=GPa)
#
#
# Indices 1 2 3 4 5 6 
#
# 1 196.5707 77.4834 37.1443 -6.1318 -0.4486 11.6741
# 2 77.4834 176.2908 22.8121 -9.9614 13.1856 26.6900
# 3 37.1443 22.8121 84.5422 7.0375 1.4617 6.0114
# 4 -6.1318 -9.9614 7.0375 35.5232 11.1703 6.9486
# 5 -0.4486 13.1856 1.4617 11.1703 39.2773 -0.9839
# 6 11.6741 26.6900 6.0114 6.9486 -0.9839 43.6930
#
#
#
# Elastic Compliance Matrix: (Units=1/GPa)
#
#
# Indices 1 2 3 4 5 6 
#
# 1 0.006567 -0.002651 -0.002237 0.000529 0.000900 0.000109
# 2 -0.002651 0.008277 -0.001004 0.004338 -0.004130 -0.004993
# 3 -0.002237 -0.001004 0.013368 -0.003568 0.000827 -0.000042
# 4 0.000529 0.004338 -0.003568 0.035414 -0.011594 -0.008193
# 5 0.000900 -0.004130 0.000827 -0.011594 0.030241 0.004694
# 6 0.000109 -0.004993 -0.000042 -0.008193 0.004694 0.027322
#
#
# Mechanical properties :
#
#
# Convention : Reuss Voigt Hill
#
# Bulk Modulus (GPa) = 60.86792 81.36480 71.11636
# Shear Modulus (GPa) = 36.11449 45.02961 40.57205
#
# Velocity S-wave (km/s) = 3.88769 4.34110 4.12064
# Velocity P-wave (km/s) = 6.75469 7.69276 7.23893
#
# Compressibility (1/GPa) = 0.01642902
#
# Stress axis : x y z
#
# Youngs Moduli (GPa) = 152.27784 120.81304 74.80605
#
# Poissons Ratio (x) = 0.32023 0.16737
# Poissons Ratio (y) = 0.40364 0.07507
# Poissons Ratio (z) = 0.34070 0.12124
#
# Static dielectric constant tensor:
#      x y z
#    x 1.746740 0.039600 -0.139450 
#    y 0.039600 1.934630 0.056210 
#    z -0.139450 0.056210 1.921990 
# 
# From -- ./inp_files/244024.got.cif
#   From: 2010.05.17/outbox.cif.g08.bks.cpg/sg2_123_cif.got.tgz:244024.got - 2010.06.03 11:33:40.
