data_PCOD9018282
_publ_section_title
;
Structure prediction by ZEFSAII (Michael W. Deem and Ramdas Pophale) SiO2 
 PCOD9018282
Probable space group: P -1
;
_chemical_formula_sum "Si O2"
_cell_formula_units_Z 16
_cell_length_a 8.341555
_cell_length_b 8.132147
_cell_length_c 18.069251
_cell_angle_alpha 129.598921
_cell_angle_beta 69.934440
_cell_angle_gamma 72.815539
_cell_volume 624.373406
_symmetry_space_group_name_H-M "P -1"
_symmetry_group_IT_number 2
_symmetry_cell_setting 'triclinic'
loop_
_space_group_symop_operation_xyz
x,y,z
-x,-y,-z
loop_
_atom_site_type_symbol
_atom_site_label
_atom_site_fract_x
_atom_site_fract_y
_atom_site_fract_z
Si Si1 0.267622 0.616412 0.924384
Si Si2 0.729525 0.206980 0.424142
Si Si3 0.921866 0.642917 0.392713
Si Si4 0.438125 0.093794 0.662064
Si Si5 0.977022 0.903766 0.791629
Si Si6 0.325896 0.334984 0.351191
Si Si7 0.559951 0.787928 0.074479
Si Si8 0.346611 0.357742 0.133214
O O1 0.364204 0.403832 0.919958
O O2 0.470103 0.612013 0.870823
O O3 0.258810 0.441370 0.814176
O O4 0.032562 0.941463 0.089200
O O5 0.500000 0.500000 0.500000
O O6 0.692387 0.989662 0.379559
O O7 0.725830 0.370356 0.541083
O O8 0.935565 0.072763 0.292173
O O9 0.070628 0.482201 0.400542
O O10 0.122255 0.561770 0.282955
O O11 0.667162 0.976223 0.546049
O O12 0.871807 0.445053 0.317990
O O13 0.568930 0.870083 0.650148
O O14 0.700136 0.073399 0.870744
O O15 0.516842 0.073741 0.184910
O O16 0.738868 0.568617 0.917484
O O17 0.500000 0.000000 0.000000
#
# Coordination Sequence:
#
# PCOD9018282 Si02
#       8
#     2   2   2   2   2   2   2   2
#     4  10  21  35  55  83 115 137 177 235 273 319
#     4  10  19  31  52  81 110 147 184 222 261 322
#     4  11  19  31  56  83 106 143 180 226 271 321
#     4  10  21  34  50  81 115 142 183 222 270 317
#     4  10  17  30  53  81 107 140 178 224 270 313
#     4   9  17  30  54  80 106 139 185 223 260 319
#     4   9  19  33  54  88 111 135 178 236 275 310
#     4  11  18  32  54  85 110 141 178 224 277 328
#
# _framework density 25.625692000000001
#
# number of rings (size 3 to 8) (size 9 to 14) (size 15 to 20)
#    0.000    2.000    6.250    1.875    3.500    1.000 
#    0.000    0.000    0.000    1.500   13.000    0.000 
#    0.000    0.000    0.000    0.000    0.000    0.000 
#
# Total GULP energy -89349.103465 kJ/mol
# GULP energy per Si atom -5584.318967 kJ/mol
# Density = 2.556737 g / cm^3
# Si number density = 25.625692 Si / 1000 Ang^3
#
#
#
# Elastic Constant Matrix: (Units=GPa)
#
#
# Indices 1 2 3 4 5 6 
#
# 1 53.6592 18.2300 43.8967 3.5066 15.3653 14.2491
# 2 18.2300 64.0609 22.4781 -3.5973 11.9683 17.0193
# 3 43.8967 22.4781 145.3738 12.4228 38.3753 27.6539
# 4 3.5066 -3.5973 12.4228 49.8316 13.0762 4.6050
# 5 15.3653 11.9683 38.3753 13.0762 34.2336 15.2718
# 6 14.2491 17.0193 27.6539 4.6050 15.2718 35.5860
#
#
#
# Elastic Compliance Matrix: (Units=1/GPa)
#
#
# Indices 1 2 3 4 5 6 
#
# 1 0.026559 -0.004170 -0.006255 0.000250 -0.002283 -0.002832
# 2 -0.004170 0.019305 0.000133 0.003121 -0.003239 -0.006681
# 3 -0.006255 0.000133 0.011671 0.000202 -0.009191 -0.002711
# 4 0.000250 0.003121 0.000202 0.022883 -0.009980 -0.000428
# 5 -0.002283 -0.003239 -0.009191 -0.009980 0.050240 -0.010664
# 6 -0.002832 -0.006681 -0.002711 -0.000428 -0.010664 0.039169
#
#
# Mechanical properties :
#
#
# Convention : Reuss Voigt Hill
#
# Bulk Modulus (GPa) = 27.06176 48.03372 37.54774
# Shear Modulus (GPa) = 24.66345 35.82951 30.24648
#
# Velocity S-wave (km/s) = 3.10570 3.74329 3.43930
# Velocity P-wave (km/s) = 4.84189 6.12111 5.51869
#
# Compressibility (1/GPa) = 0.03695252
#
# Stress axis : x y z
#
# Youngs Moduli (GPa) = 37.65147 51.79914 85.67932
#
# Poissons Ratio (x) = 0.21602 0.53591
# Poissons Ratio (y) = 0.15702 -0.01142
# Poissons Ratio (z) = 0.23550 -0.00690
#
# Static dielectric constant tensor:
#      x y z
#    x 1.998000 -0.035490 0.075160 
#    y -0.035490 2.155610 0.043630 
#    z 0.075160 0.043630 2.375670 
# 
# From -- ./inp_files/588202.got.cif
#   From: 2010.05.17/outbox.cif.g08.bks.cpg/sg2_295_cif.got.tgz:588202.got - 2010.06.03 11:33:40.
