data_PCOD9018067
_publ_section_title
;
Structure prediction by ZEFSAII (Michael W. Deem and Ramdas Pophale) SiO2 
 PCOD9018067
Probable space group: P -1
;
_chemical_formula_sum "Si O2"
_cell_formula_units_Z 16
_cell_length_a 5.278352
_cell_length_b 22.400066
_cell_length_c 8.402183
_cell_angle_alpha 45.264308
_cell_angle_beta 85.978970
_cell_angle_gamma 103.521406
_cell_volume 645.312884
_symmetry_space_group_name_H-M "P -1"
_symmetry_group_IT_number 2
_symmetry_cell_setting 'triclinic'
loop_
_space_group_symop_operation_xyz
x,y,z
-x,-y,-z
loop_
_atom_site_type_symbol
_atom_site_label
_atom_site_fract_x
_atom_site_fract_y
_atom_site_fract_z
Si Si1 0.984088 0.734012 0.810722
Si Si2 0.112059 0.500122 0.314165
Si Si3 0.341027 0.392065 0.657892
Si Si4 0.608972 0.847695 0.534795
Si Si5 0.685296 0.347923 0.492474
Si Si6 0.424117 0.398915 0.123666
Si Si7 0.049339 0.957706 0.909560
Si Si8 0.564519 0.150594 0.830545
O O1 0.812050 0.795770 0.658258
O O2 0.889054 0.657669 0.816241
O O3 0.304041 0.792917 0.721759
O O4 0.862858 0.669549 0.088339
O O5 0.182370 0.410051 0.481923
O O6 0.000000 0.500000 0.500000
O O7 0.868826 0.458689 0.276316
O O8 0.368447 0.583983 0.072277
O O9 0.500000 0.500000 0.500000
O O10 0.532017 0.344863 0.672964
O O11 0.515641 0.851603 0.347958
O O12 0.246492 0.904745 0.036651
O O13 0.496735 0.338831 0.362859
O O14 0.737929 0.256424 0.663077
O O15 0.500000 0.500000 0.000000
O O16 0.738248 0.892936 0.989663
O O17 0.217538 0.045983 0.628151
O O18 0.000000 0.000000 0.000000
#
# Coordination Sequence:
#
# PCOD9018067 Si02
#       8
#     2   2   2   2   2   2   2   2
#     4  12  26  41  70 100 138 183 238 283 340 420
#     4  12  26  44  69  92 138 197 243 284 350 422
#     4  12  25  46  63  94 139 196 239 282 348 419
#     4  11  23  42  69 102 137 173 232 283 348 431
#     4  12  26  42  69 101 137 183 243 300 346 413
#     4  12  25  43  65 100 143 185 235 302 357 398
#     4  10  21  43  68 104 143 180 211 288 374 434
#     4  11  23  39  72 106 142 172 227 293 366 418
#
# _framework density 24.794176
#
# number of rings (size 3 to 8) (size 9 to 14) (size 15 to 20)
#    0.000    0.500    5.000    4.125    7.000    0.000 
#    0.000    0.000    0.000    4.500    0.000    0.000 
#    0.000    0.000    0.000    0.000    0.000    0.000 
#
# Total GULP energy -89268.557917 kJ/mol
# GULP energy per Si atom -5579.284870 kJ/mol
# Density = 2.473774 g / cm^3
# Si number density = 24.794176 Si / 1000 Ang^3
#
#
#
# Elastic Constant Matrix: (Units=GPa)
#
#
# Indices 1 2 3 4 5 6 
#
# 1 130.3882 27.3334 47.0629 -26.6619 -10.5382 -8.2975
# 2 27.3334 62.7582 46.5101 -25.8245 -3.2346 -9.4586
# 3 47.0629 46.5101 130.9352 -29.2978 -18.0812 -8.8661
# 4 -26.6619 -25.8245 -29.2978 37.2956 -9.1387 5.8115
# 5 -10.5382 -3.2346 -18.0812 -9.1387 57.0924 -16.4546
# 6 -8.2975 -9.4586 -8.8661 5.8115 -16.4546 35.6261
#
#
#
# Elastic Compliance Matrix: (Units=1/GPa)
#
#
# Indices 1 2 3 4 5 6 
#
# 1 0.009899 -0.000133 -0.001586 0.006111 0.002940 0.002237
# 2 -0.000133 0.026863 -0.005477 0.014277 0.003496 0.005024
# 3 -0.001586 -0.005477 0.012229 0.005476 0.004892 0.002586
# 4 0.006111 0.014277 0.005476 0.047747 0.012648 0.004630
# 5 0.002940 0.003496 0.004892 0.012648 0.025437 0.012516
# 6 0.002237 0.005024 0.002586 0.004630 0.012516 0.035593
#
#
# Mechanical properties :
#
#
# Convention : Reuss Voigt Hill
#
# Bulk Modulus (GPa) = 28.90193 62.87715 45.88954
# Shear Modulus (GPa) = 27.21929 39.54782 33.38356
#
# Velocity S-wave (km/s) = 3.31692 3.99813 3.67335
# Velocity P-wave (km/s) = 5.13335 6.83580 6.04481
#
# Compressibility (1/GPa) = 0.03459976
#
# Stress axis : x y z
#
# Youngs Moduli (GPa) = 101.01770 37.22543 81.77419
#
# Poissons Ratio (x) = 0.00494 0.12971
# Poissons Ratio (y) = 0.01342 0.44786
# Poissons Ratio (z) = 0.16023 0.20388
#
# Static dielectric constant tensor:
#      x y z
#    x 3.587040 0.144460 -0.123820 
#    y 0.144460 2.019020 0.021430 
#    z -0.123820 0.021430 1.982330 
# 
# From -- ./inp_files/141984.got.cif
#   From: 2010.05.17/outbox.cif.g08.bks.cpg/sg2_71_cif.got.tgz:141984.got - 2010.06.03 11:33:40.
