data_PCOD9018557
_publ_section_title
;
Structure prediction by ZEFSAII (Michael W. Deem and Ramdas Pophale) SiO2 
 PCOD9018557
Probable space group: P -1
;
_chemical_formula_sum "Si O2"
_cell_formula_units_Z 10
_cell_length_a 20.196118
_cell_length_b 9.923815
_cell_length_c 7.645897
_cell_angle_alpha 59.957649
_cell_angle_beta 44.174422
_cell_angle_gamma 28.932353
_cell_volume 478.500371
_symmetry_space_group_name_H-M "P -1"
_symmetry_group_IT_number 2
_symmetry_cell_setting 'triclinic'
loop_
_space_group_symop_operation_xyz
x,y,z
-x,-y,-z
loop_
_atom_site_type_symbol
_atom_site_label
_atom_site_fract_x
_atom_site_fract_y
_atom_site_fract_z
Si Si1 0.666807 0.386398 0.763639
Si Si2 0.991083 0.710665 0.677489
Si Si3 0.395539 0.348544 0.624200
Si Si4 0.348013 0.344573 0.088526
Si Si5 0.778399 0.714638 0.151406
O O1 0.695916 0.406494 0.499009
O O2 0.620307 0.599755 0.833195
O O3 0.500000 0.500000 0.000000
O O4 0.842318 0.055681 0.727269
O O5 0.153349 0.532144 0.356701
O O6 0.085452 0.552602 0.790446
O O7 0.885589 0.696480 0.853005
O O8 0.308316 0.300557 0.788443
O O9 0.610030 0.031719 0.370168
O O10 0.636750 0.567981 0.167360
O O11 0.500000 0.000000 0.000000
#
# Coordination Sequence:
#
# PCOD9018557 Si02
#       5
#     2   2   2   2   2
#     4  12  26  47  68  99 143 178 219 288 344 386
#     4  11  23  43  71 100 138 180 224 276 342 399
#     4  11  22  44  71  97 134 182 224 271 340 403
#     4  12  25  44  73 102 134 178 232 279 331 406
#     4  10  21  43  71  98 137 184 219 272 345 408
#
# _framework density 20.898626
#
# number of rings (size 3 to 8) (size 9 to 14) (size 15 to 20)
#    0.000    0.800    6.000    1.800    0.000    2.400 
#    0.000    0.000    0.000    0.000    0.000    0.000 
#    0.000    0.000    0.000    0.000    0.000    0.000 
#
# Total GULP energy -55925.124892 kJ/mol
# GULP energy per Si atom -5592.512489 kJ/mol
# Density = 2.085106 g / cm^3
# Si number density = 20.898626 Si / 1000 Ang^3
#
#
#
# Elastic Constant Matrix: (Units=GPa)
#
#
# Indices 1 2 3 4 5 6 
#
# 1 49.2772 17.5321 29.4820 -8.0536 7.7475 -16.8300
# 2 17.5321 113.5813 22.9368 8.3943 -4.9951 -21.0756
# 3 29.4820 22.9368 130.6331 -7.2085 -14.9531 13.5126
# 4 -8.0536 8.3943 -7.2085 37.2107 -10.2111 -1.4357
# 5 7.7475 -4.9951 -14.9531 -10.2111 37.4896 -7.1220
# 6 -16.8300 -21.0756 13.5126 -1.4357 -7.1220 25.7609
#
#
#
# Elastic Compliance Matrix: (Units=1/GPa)
#
#
# Indices 1 2 3 4 5 6 
#
# 1 0.041300 0.002141 -0.013607 0.005631 -0.005561 0.034647
# 2 0.002141 0.012018 -0.003929 -0.002037 0.001626 0.013628
# 3 -0.013607 -0.003929 0.013890 0.001240 0.004745 -0.018009
# 4 0.005631 -0.002037 0.001240 0.031379 0.008651 0.005502
# 5 -0.005561 0.001626 0.004745 0.008651 0.033215 0.004873
# 6 0.034647 0.013628 -0.018009 0.005502 0.004873 0.083704
#
#
# Mechanical properties :
#
#
# Convention : Reuss Voigt Hill
#
# Bulk Modulus (GPa) = 27.45847 48.15483 37.80665
# Shear Modulus (GPa) = 19.34725 34.99494 27.17109
#
# Velocity S-wave (km/s) = 3.04594 4.09652 3.60965
# Velocity P-wave (km/s) = 5.05349 6.74295 5.95840
#
# Compressibility (1/GPa) = 0.03641864
#
# Stress axis : x y z
#
# Youngs Moduli (GPa) = 24.21294 83.20804 71.99356
#
# Poissons Ratio (x) = -0.17815 0.97958
# Poissons Ratio (y) = -0.05184 0.28289
# Poissons Ratio (z) = 0.32945 0.32695
#
# Static dielectric constant tensor:
#      x y z
#    x 1.741270 -0.025810 -0.009340 
#    y -0.025810 1.748840 -0.016530 
#    z -0.009340 -0.016530 1.743140 
# 
# From -- ./inp_files/474102.got.cif
#   From: 2010.05.17/outbox.cif.g08.bks.cpg/sg2_238_cif.got.tgz:474102.got - 2010.06.03 11:33:40.
