data_PCOD9018595
_publ_section_title
;
Structure prediction by ZEFSAII (Michael W. Deem and Ramdas Pophale) SiO2 
 PCOD9018595
Probable space group: P -1
;
_chemical_formula_sum "Si O2"
_cell_formula_units_Z 16
_cell_length_a 16.444346
_cell_length_b 8.972263
_cell_length_c 6.758149
_cell_angle_alpha 122.334161
_cell_angle_beta 70.252902
_cell_angle_gamma 134.241502
_cell_volume 602.550312
_symmetry_space_group_name_H-M "P -1"
_symmetry_group_IT_number 2
_symmetry_cell_setting 'triclinic'
loop_
_space_group_symop_operation_xyz
x,y,z
-x,-y,-z
loop_
_atom_site_type_symbol
_atom_site_label
_atom_site_fract_x
_atom_site_fract_y
_atom_site_fract_z
Si Si1 0.198317 0.789002 0.703688
Si Si2 0.453501 0.140694 0.641918
Si Si3 0.317049 0.441681 0.369977
Si Si4 0.909379 0.976885 0.910241
Si Si5 0.226772 0.662677 0.169181
Si Si6 0.411902 0.721092 0.881058
Si Si7 0.372684 0.148931 0.275900
Si Si8 0.049101 0.373757 0.818651
O O1 0.190344 0.716355 0.430483
O O2 0.129189 0.536724 0.687312
O O3 0.337009 0.993658 0.761310
O O4 0.139392 0.901856 0.870712
O O5 0.569824 0.405168 0.749725
O O6 0.407647 0.144620 0.468160
O O7 0.500000 0.000000 0.500000
O O8 0.344505 0.610169 0.651274
O O9 0.316421 0.257689 0.358024
O O10 0.800046 0.708718 0.760797
O O11 0.955494 0.099392 0.738940
O O12 0.000000 0.000000 0.000000
O O13 0.275295 0.874015 0.125722
O O14 0.328644 0.659244 0.081668
O O15 0.126667 0.430954 0.982278
O O16 0.502995 0.687755 0.812144
O O17 0.500000 0.000000 0.000000
O O18 0.000000 0.500000 0.000000
#
# Coordination Sequence:
#
# PCOD9018595 Si02
#       8
#     2   2   2   2   2   2   2   2
#     4  10  24  48  80 113 158 203 271 334 400 492
#     4  10  22  40  73 119 159 201 252 322 415 487
#     4  11  23  47  78 116 164 209 266 338 411 479
#     4  11  27  53  76 113 156 216 279 336 405 462
#     4  10  21  43  72 111 150 205 259 327 387 472
#     4   9  19  38  72 114 156 199 253 316 398 492
#     4   9  19  40  72 114 159 205 249 324 411 472
#     4  10  23  46  76 107 145 211 274 325 388 467
#
# _framework density 26.553798
#
# number of rings (size 3 to 8) (size 9 to 14) (size 15 to 20)
#    0.000    2.000    0.000    3.750    3.500    4.500 
#   13.500    0.625    0.000    0.000    0.000    0.000 
#    0.000    0.000    0.000    0.000    0.000    0.000 
#
# Total GULP energy -89255.141083 kJ/mol
# GULP energy per Si atom -5578.446318 kJ/mol
# Density = 2.649336 g / cm^3
# Si number density = 26.553798 Si / 1000 Ang^3
#
#
#
# Elastic Constant Matrix: (Units=GPa)
#
#
# Indices 1 2 3 4 5 6 
#
# 1 155.6532 49.5566 33.2014 -0.0928 -19.1269 4.5025
# 2 49.5566 191.8592 48.6560 0.2227 -12.4788 1.5029
# 3 33.2014 48.6560 104.3994 -26.4733 -12.4036 2.5322
# 4 -0.0928 0.2227 -26.4733 35.6263 8.7317 1.3118
# 5 -19.1269 -12.4788 -12.4036 8.7317 35.1330 3.6548
# 6 4.5025 1.5029 2.5322 1.3118 3.6548 44.2476
#
#
#
# Elastic Compliance Matrix: (Units=1/GPa)
#
#
# Indices 1 2 3 4 5 6 
#
# 1 0.007730 -0.001233 -0.002016 -0.002353 0.003734 -0.000868
# 2 -0.001233 0.006402 -0.003129 -0.002653 0.001150 0.000071
# 3 -0.002016 -0.003129 0.014452 0.010706 0.000322 -0.000860
# 4 -0.002353 -0.002653 0.010706 0.037975 -0.007802 -0.000765
# 5 0.003734 0.001150 0.000322 -0.007802 0.033264 -0.002954
# 6 -0.000868 0.000071 -0.000860 -0.000765 -0.002954 0.023002
#
#
# Mechanical properties :
#
#
# Convention : Reuss Voigt Hill
#
# Bulk Modulus (GPa) = 63.18123 79.41554 71.29838
# Shear Modulus (GPa) = 35.49731 44.36790 39.93261
#
# Velocity S-wave (km/s) = 3.66020 4.09206 3.88214
# Velocity P-wave (km/s) = 6.45818 7.23180 6.85591
#
# Compressibility (1/GPa) = 0.01582748
#
# Stress axis : x y z
#
# Youngs Moduli (GPa) = 129.37423 156.21338 69.19522
#
# Poissons Ratio (x) = 0.19261 0.13947
# Poissons Ratio (y) = 0.15952 0.21652
# Poissons Ratio (z) = 0.26076 0.48882
#
# Static dielectric constant tensor:
#      x y z
#    x 1.949160 -0.024720 0.079270 
#    y -0.024720 2.109700 -0.038030 
#    z 0.079270 -0.038030 2.219770 
# 
# From -- ./inp_files/202963.got.cif
#   From: 2010.05.17/outbox.cif.g08.bks.cpg/sg2_102_cif.got.tgz:202963.got - 2010.06.03 11:33:40.
