data_PCOD9018624
_publ_section_title
;
Structure prediction by ZEFSAII (Michael W. Deem and Ramdas Pophale) SiO2 
 PCOD9018624
Probable space group: P -1
;
_chemical_formula_sum "Si O2"
_cell_formula_units_Z 12
_cell_length_a 9.020065
_cell_length_b 15.170008
_cell_length_c 5.412760
_cell_angle_alpha 87.621572
_cell_angle_beta 81.093541
_cell_angle_gamma 39.986208
_cell_volume 466.723995
_symmetry_space_group_name_H-M "P -1"
_symmetry_group_IT_number 2
_symmetry_cell_setting 'triclinic'
loop_
_space_group_symop_operation_xyz
x,y,z
-x,-y,-z
loop_
_atom_site_type_symbol
_atom_site_label
_atom_site_fract_x
_atom_site_fract_y
_atom_site_fract_z
Si Si1 0.495691 0.159440 0.864287
Si Si2 0.763917 0.867586 0.358381
Si Si3 0.865954 0.681803 0.687204
Si Si4 0.275298 0.402062 0.605347
Si Si5 0.543440 0.421115 0.248283
Si Si6 0.017652 0.095912 0.054609
O O1 0.297680 0.177147 0.831716
O O2 0.477298 0.262986 0.727608
O O3 0.757433 0.004458 0.806966
O O4 0.395952 0.215275 0.158126
O O5 0.902359 0.761255 0.560058
O O6 0.500000 0.000000 0.500000
O O7 0.890196 0.892983 0.209005
O O8 0.858336 0.622971 0.456691
O O9 0.089324 0.544522 0.793108
O O10 0.363820 0.422871 0.357707
O O11 0.500000 0.500000 0.500000
O O12 0.788814 0.254778 0.178998
O O13 0.500000 0.500000 0.000000
O O14 0.000000 0.000000 0.000000
#
# Coordination Sequence:
#
# PCOD9018624 Si02
#       6
#     2   2   2   2   2   2
#     4  11  24  43  75 110 143 198 264 323 393 460
#     4  11  24  44  73 109 147 195 264 326 391 469
#     4  10  21  43  73 102 147 192 258 325 388 467
#     4  10  24  43  71 106 150 199 256 319 392 473
#     4  12  31  53  77 112 165 215 264 322 408 488
#     4  12  28  49  81 114 161 207 267 336 401 477
#
# _framework density 25.711127999999999
#
# number of rings (size 3 to 8) (size 9 to 14) (size 15 to 20)
#    0.000    1.000    1.667    3.000    9.333    2.000 
#    0.000    0.000    0.000    0.000    0.000    0.000 
#    0.000    0.000    0.000    0.000    0.000    0.000 
#
# Total GULP energy -66925.481575 kJ/mol
# GULP energy per Si atom -5577.123465 kJ/mol
# Density = 2.565261 g / cm^3
# Si number density = 25.711128 Si / 1000 Ang^3
#
#
#
# Elastic Constant Matrix: (Units=GPa)
#
#
# Indices 1 2 3 4 5 6 
#
# 1 133.0555 56.9044 49.4456 -3.2284 -30.8058 26.0927
# 2 56.9044 237.8518 76.3495 9.6390 -25.4269 7.1351
# 3 49.4456 76.3495 101.5163 0.9201 -27.6705 10.6002
# 4 -3.2284 9.6390 0.9201 51.5140 7.8451 -14.5331
# 5 -30.8058 -25.4269 -27.6705 7.8451 43.3962 -0.3080
# 6 26.0927 7.1351 10.6002 -14.5331 -0.3080 41.2900
#
#
#
# Elastic Compliance Matrix: (Units=1/GPa)
#
#
# Indices 1 2 3 4 5 6 
#
# 1 0.011740 -0.001046 -0.002367 -0.002086 0.006537 -0.007316
# 2 -0.001046 0.005723 -0.003686 -0.001071 0.000455 0.000245
# 3 -0.002367 -0.003686 0.015799 -0.001393 0.006469 -0.002365
# 4 -0.002086 -0.001071 -0.001393 0.023434 -0.007161 0.010056
# 5 0.006537 0.000455 0.006469 -0.007161 0.033312 -0.008142
# 6 -0.007316 0.000245 -0.002365 0.010056 -0.008142 0.032886
#
#
# Mechanical properties :
#
#
# Convention : Reuss Voigt Hill
#
# Bulk Modulus (GPa) = 52.45754 93.09141 72.77448
# Shear Modulus (GPa) = 34.85635 46.55497 40.70566
#
# Velocity S-wave (km/s) = 3.68597 4.25984 3.98325
# Velocity P-wave (km/s) = 6.20984 7.77691 7.03713
#
# Compressibility (1/GPa) = 0.01906304
#
# Stress axis : x y z
#
# Youngs Moduli (GPa) = 85.17696 174.74830 63.29712
#
# Poissons Ratio (x) = 0.18282 0.14981
# Poissons Ratio (y) = 0.08911 0.23332
# Poissons Ratio (z) = 0.20160 0.64414
#
# Static dielectric constant tensor:
#      x y z
#    x 2.230720 0.095850 0.499480 
#    y 0.095850 2.417510 0.371340 
#    z 0.499480 0.371340 3.035590 
# 
# From -- ./inp_files/38579.got.cif
#   From: 2010.05.17/outbox.cif.g08.bks.cpg/sg2_20_cif.got.tgz:38579.got - 2010.06.03 11:33:40.
