data_PCOD9018703
_publ_section_title
;
Structure prediction by ZEFSAII (Michael W. Deem and Ramdas Pophale) SiO2 
 PCOD9018703
Probable space group: P -1
;
_chemical_formula_sum "Si O2"
_cell_formula_units_Z 14
_cell_length_a 9.302854
_cell_length_b 9.749497
_cell_length_c 8.465797
_cell_angle_alpha 73.106252
_cell_angle_beta 50.526316
_cell_angle_gamma 85.022499
_cell_volume 562.112838
_symmetry_space_group_name_H-M "P -1"
_symmetry_group_IT_number 2
_symmetry_cell_setting 'triclinic'
loop_
_space_group_symop_operation_xyz
x,y,z
-x,-y,-z
loop_
_atom_site_type_symbol
_atom_site_label
_atom_site_fract_x
_atom_site_fract_y
_atom_site_fract_z
Si Si1 0.336647 0.582757 0.879317
Si Si2 0.731923 0.370986 0.456658
Si Si3 0.065555 0.851031 0.451289
Si Si4 0.360986 0.848674 0.971572
Si Si5 0.798979 0.908442 0.137156
Si Si6 0.358505 0.271472 0.963284
Si Si7 0.229525 0.335774 0.497733
O O1 0.291590 0.598154 0.721326
O O2 0.283875 0.417726 0.020386
O O3 0.561397 0.616887 0.726830
O O4 0.266625 0.703789 0.997556
O O5 0.847611 0.238209 0.443141
O O6 0.532246 0.324251 0.702076
O O7 0.822573 0.518574 0.431135
O O8 0.227654 0.880159 0.197026
O O9 0.907403 0.740957 0.511672
O O10 0.000000 0.000000 0.500000
O O11 0.552088 0.816706 0.932261
O O12 0.357679 0.982201 0.810201
O O13 0.793489 0.823727 0.004092
O O14 0.756575 0.788476 0.340374
O O15 0.000000 0.000000 0.000000
#
# Coordination Sequence:
#
# PCOD9018703 Si02
#       7
#     2   2   2   2   2   2   2
#     4  11  22  43  74 102 125 177 229 279 325 396
#     4  10  21  43  75  98 128 180 227 272 332 397
#     4  11  26  46  67  98 141 178 219 275 342 399
#     4  11  26  41  68 102 137 174 222 275 338 394
#     4  12  23  41  66  97 142 174 222 274 333 393
#     4  10  21  45  67  98 136 176 223 274 333 402
#     4  11  22  45  70 100 136 175 223 278 331 399
#
# _framework density 24.906030999999999
#
# number of rings (size 3 to 8) (size 9 to 14) (size 15 to 20)
#    0.000    1.143    4.286    2.143    2.000    4.000 
#    0.000    4.286    0.000    0.000    0.000    0.000 
#    0.000    0.000    0.000    0.000    0.000    0.000 
#
# Total GULP energy -78475.222487 kJ/mol
# GULP energy per Si atom -5605.373035 kJ/mol
# Density = 2.484934 g / cm^3
# Si number density = 24.906031 Si / 1000 Ang^3
#
#
#
# Elastic Constant Matrix: (Units=GPa)
#
#
# Indices 1 2 3 4 5 6 
#
# 1 102.8231 54.1499 9.8458 -5.3311 26.2193 3.9952
# 2 54.1499 201.5394 25.5664 11.1090 8.5211 -1.3326
# 3 9.8458 25.5664 47.1255 1.7872 9.5795 -9.2621
# 4 -5.3311 11.1090 1.7872 41.8976 -1.1799 2.8755
# 5 26.2193 8.5211 9.5795 -1.1799 23.4100 -13.1893
# 6 3.9952 -1.3326 -9.2621 2.8755 -13.1893 57.9740
#
#
#
# Elastic Compliance Matrix: (Units=1/GPa)
#
#
# Indices 1 2 3 4 5 6 
#
# 1 0.018085 -0.004343 0.001849 0.003170 -0.022885 -0.006414
# 2 -0.004343 0.006475 -0.003197 -0.002082 0.004283 0.001015
# 3 0.001849 -0.003197 0.024967 -0.000373 -0.010321 0.001458
# 4 0.003170 -0.002082 -0.000373 0.024914 -0.002596 -0.002152
# 5 -0.022885 0.004283 -0.010321 -0.002596 0.081402 0.018675
# 6 -0.006414 0.001015 0.001458 -0.002152 0.018675 0.022303
#
#
# Mechanical properties :
#
#
# Convention : Reuss Voigt Hill
#
# Bulk Modulus (GPa) = 26.21713 58.95692 42.58702
# Shear Modulus (GPa) = 24.72276 42.11807 33.42042
#
# Velocity S-wave (km/s) = 3.15404 4.11673 3.66712
# Velocity P-wave (km/s) = 4.87988 6.80587 5.92170
#
# Compressibility (1/GPa) = 0.03814301
#
# Stress axis : x y z
#
# Youngs Moduli (GPa) = 55.29564 154.44680 40.05288
#
# Poissons Ratio (x) = 0.67078 -0.07405
# Poissons Ratio (y) = 0.24015 0.12807
# Poissons Ratio (z) = -0.10223 0.49383
#
# Static dielectric constant tensor:
#      x y z
#    x 1.965940 -0.015310 -0.013970 
#    y -0.015310 1.969650 0.003480 
#    z -0.013970 0.003480 1.993810 
# 
# From -- ./inp_files/157899.got.cif
#   From: 2010.05.17/outbox.cif.g08.bks.cpg/sg2_79_cif.got.tgz:157899.got - 2010.06.03 11:33:40.
