data_PCOD9018958
_publ_section_title
;
Structure prediction by ZEFSAII (Michael W. Deem and Ramdas Pophale) SiO2 
 PCOD9018958
Probable space group: P -1
;
_chemical_formula_sum "Si O2"
_cell_formula_units_Z 15
_cell_length_a 10.147616
_cell_length_b 13.592718
_cell_length_c 9.058107
_cell_angle_alpha 107.549634
_cell_angle_beta 83.752887
_cell_angle_gamma 148.377661
_cell_volume 596.623748
_symmetry_space_group_name_H-M "P -1"
_symmetry_group_IT_number 2
_symmetry_cell_setting 'triclinic'
loop_
_space_group_symop_operation_xyz
x,y,z
-x,-y,-z
loop_
_atom_site_type_symbol
_atom_site_label
_atom_site_fract_x
_atom_site_fract_y
_atom_site_fract_z
Si Si1 0.595680 0.967572 0.687972
Si Si2 0.211803 0.010930 0.585618
Si Si3 0.120304 0.294007 0.276649
Si Si4 0.323720 0.317109 0.682824
Si Si5 0.500000 0.000000 0.000000
Si Si6 0.825976 0.469454 0.427162
Si Si7 0.844909 0.648218 0.044747
Si Si8 0.231670 0.605801 0.925298
O O1 0.474064 0.772240 0.641993
O O2 0.641415 0.985995 0.513751
O O3 0.869640 0.169907 0.830618
O O4 0.423820 0.927934 0.793886
O O5 0.109766 0.928925 0.727397
O O6 0.938155 0.839520 0.450106
O O7 0.363805 0.221332 0.647048
O O8 0.421658 0.454988 0.312434
O O9 0.133047 0.398700 0.432567
O O10 0.090948 0.304475 0.113988
O O11 0.275348 0.331943 0.856739
O O12 0.574335 0.170018 0.032182
O O13 0.889688 0.516417 0.268859
O O14 0.000000 0.500000 0.500000
O O15 0.682023 0.437636 0.016214
O O16 0.000000 0.500000 0.000000
#
# Coordination Sequence:
#
# PCOD9018958 Si02
#       8
#     2   2   2   2   1   2   2   2
#     4  10  21  44  66  98 132 181 218 280 335 408
#     4  10  22  43  71  98 138 176 227 281 343 394
#     4  12  24  43  67 105 135 178 229 281 336 405
#     4  10  22  45  67  98 138 180 224 284 337 405
#     4  10  22  38  72  92 130 174 230 254 342 398
#     4  11  24  42  68  98 135 174 231 281 338 404
#     4  11  24  44  69  98 141 175 230 278 342 407
#     4  11  22  44  67  96 134 178 220 277 338 408
#
# _framework density 25.141473000000001
#
# number of rings (size 3 to 8) (size 9 to 14) (size 15 to 20)
#    0.000    1.333    2.667    3.200    1.867    0.533 
#    9.600    2.667    0.000    0.000    0.000    0.000 
#    0.000    0.000    0.000    0.000    0.000    0.000 
#
# Total GULP energy -83565.577516 kJ/mol
# GULP energy per Si atom -5571.038501 kJ/mol
# Density = 2.508425 g / cm^3
# Si number density = 25.141473 Si / 1000 Ang^3
#
#
#
# Elastic Constant Matrix: (Units=GPa)
#
#
# Indices 1 2 3 4 5 6 
#
# 1 59.9177 17.0342 46.5901 -5.0474 -18.8008 -14.5610
# 2 17.0342 114.0969 46.4971 -18.0942 -2.5086 -19.6371
# 3 46.5901 46.4971 170.5314 -41.5368 -26.9129 -12.7850
# 4 -5.0474 -18.0942 -41.5368 54.1591 3.3482 -2.2952
# 5 -18.8008 -2.5086 -26.9129 3.3482 45.9764 -0.6380
# 6 -14.5610 -19.6371 -12.7850 -2.2952 -0.6380 31.3671
#
#
#
# Elastic Compliance Matrix: (Units=1/GPa)
#
#
# Indices 1 2 3 4 5 6 
#
# 1 0.025509 -0.000051 -0.005533 -0.001939 0.007464 0.009565
# 2 -0.000051 0.011048 -0.002056 0.002417 -0.000711 0.006217
# 3 -0.005533 -0.002056 0.010010 0.006319 0.003035 0.000749
# 4 -0.001939 0.002417 0.006319 0.024064 0.001355 0.004977
# 5 0.007464 -0.000711 0.003035 0.001355 0.026510 0.004895
# 6 0.009565 0.006217 0.000749 0.004977 0.004895 0.040982
#
#
# Mechanical properties :
#
#
# Convention : Reuss Voigt Hill
#
# Bulk Modulus (GPa) = 31.96073 62.75431 47.35752
# Shear Modulus (GPa) = 30.51932 41.92883 36.22408
#
# Velocity S-wave (km/s) = 3.48789 4.08820 3.79992
# Velocity P-wave (km/s) = 5.38149 6.87744 6.17493
#
# Compressibility (1/GPa) = 0.03128839
#
# Stress axis : x y z
#
# Youngs Moduli (GPa) = 39.20189 90.51805 99.89597
#
# Poissons Ratio (x) = 0.00461 0.55268
# Poissons Ratio (y) = 0.00200 0.20536
# Poissons Ratio (z) = 0.21689 0.18608
#
# Static dielectric constant tensor:
#      x y z
#    x 2.114730 0.117120 -0.004850 
#    y 0.117120 2.156120 -0.052910 
#    z -0.004850 -0.052910 2.031800 
# 
# From -- ./inp_files/202418.got.cif
#   From: 2010.05.17/outbox.cif.g08.bks.cpg/sg2_102_cif.got.tgz:202418.got - 2010.06.03 11:33:40.
