data_PCOD9018518
_publ_section_title
;
Structure prediction by ZEFSAII (Michael W. Deem and Ramdas Pophale) SiO2 
 PCOD9018518
Probable space group: P -1
;
_chemical_formula_sum "Si O2"
_cell_formula_units_Z 12
_cell_length_a 11.678795
_cell_length_b 9.979252
_cell_length_c 20.029000
_cell_angle_alpha 144.715599
_cell_angle_beta 22.641271
_cell_angle_gamma 144.103928
_cell_volume 501.913449
_symmetry_space_group_name_H-M "P -1"
_symmetry_group_IT_number 2
_symmetry_cell_setting 'triclinic'
loop_
_space_group_symop_operation_xyz
x,y,z
-x,-y,-z
loop_
_atom_site_type_symbol
_atom_site_label
_atom_site_fract_x
_atom_site_fract_y
_atom_site_fract_z
Si Si1 0.856135 0.168483 0.100323
Si Si2 0.333247 0.476388 0.784142
Si Si3 0.399531 0.155231 0.729684
Si Si4 0.337861 0.014301 0.226062
Si Si5 0.413380 0.525578 0.980545
Si Si6 0.339804 0.289522 0.553679
O O1 0.543782 0.098173 0.383972
O O2 0.502646 0.083504 0.237869
O O3 0.042663 0.422460 0.132210
O O4 0.035255 0.140188 0.924518
O O5 0.304934 0.397545 0.690029
O O6 0.473593 0.287214 0.672864
O O7 0.565513 0.741752 0.768426
O O8 0.000000 0.500000 0.000000
O O9 0.538204 0.354946 0.793704
O O10 0.000000 0.000000 0.000000
O O11 0.476821 0.799608 0.036711
O O12 0.977994 0.892367 0.373610
O O13 0.500000 0.500000 0.000000
O O14 0.500000 0.500000 0.500000
#
# Coordination Sequence:
#
# PCOD9018518 Si02
#       6
#     2   2   2   2   2   2
#     4  10  21  43  71 112 150 200 263 316 374 466
#     4  12  26  53  80 112 158 210 266 318 383 485
#     4  10  25  49  73 110 164 199 256 330 393 451
#     4  12  24  46  79 112 154 208 262 315 390 468
#     4  10  22  40  75 108 146 199 261 313 374 459
#     4  12  31  50  77 119 164 202 258 332 398 460
#
# _framework density 23.908505000000002
#
# number of rings (size 3 to 8) (size 9 to 14) (size 15 to 20)
#    1.000    0.000    3.333    2.500    7.000    4.000 
#    3.000    0.000    0.000    0.000    0.000    0.000 
#    0.000    0.000    0.000    0.000    0.000    0.000 
#
# Total GULP energy -66837.533729 kJ/mol
# GULP energy per Si atom -5569.794477 kJ/mol
# Density = 2.385409 g / cm^3
# Si number density = 23.908505 Si / 1000 Ang^3
#
#
#
# Elastic Constant Matrix: (Units=GPa)
#
#
# Indices 1 2 3 4 5 6 
#
# 1 175.9241 79.0818 44.5123 -10.9639 15.0367 -19.0950
# 2 79.0818 191.5665 59.1208 -16.8259 -1.2589 -13.8498
# 3 44.5123 59.1208 103.2753 0.7698 5.6617 8.0248
# 4 -10.9639 -16.8259 0.7698 41.5478 7.1430 -1.6936
# 5 15.0367 -1.2589 5.6617 7.1430 30.2750 -7.4646
# 6 -19.0950 -13.8498 8.0248 -1.6936 -7.4646 62.4195
#
#
#
# Elastic Compliance Matrix: (Units=1/GPa)
#
#
# Indices 1 2 3 4 5 6 
#
# 1 0.007869 -0.002371 -0.001985 0.001850 -0.003640 0.001751
# 2 -0.002371 0.007657 -0.003628 0.002257 0.002073 0.001749
# 3 -0.001985 -0.003628 0.012999 -0.002036 -0.001947 -0.003371
# 4 0.001850 0.002257 -0.002036 0.026665 -0.006419 0.001285
# 5 -0.003640 0.002073 -0.001947 -0.006419 0.037775 0.003940
# 6 0.001751 0.001749 -0.003371 0.001285 0.003940 0.017884
#
#
# Mechanical properties :
#
#
# Convention : Reuss Voigt Hill
#
# Bulk Modulus (GPa) = 79.62968 92.91063 86.27016
# Shear Modulus (GPa) = 38.16807 46.05187 42.10997
#
# Velocity S-wave (km/s) = 3.99986 4.39358 4.20133
# Velocity P-wave (km/s) = 7.39663 8.04259 7.72637
#
# Compressibility (1/GPa) = 0.01255813
#
# Stress axis : x y z
#
# Youngs Moduli (GPa) = 127.08749 130.60478 76.92975
#
# Poissons Ratio (x) = 0.30961 0.15268
# Poissons Ratio (y) = 0.30127 0.27908
# Poissons Ratio (z) = 0.25222 0.47381
#
# Static dielectric constant tensor:
#      x y z
#    x 1.966160 -0.095130 -0.001550 
#    y -0.095130 2.066290 0.105890 
#    z -0.001550 0.105890 2.238370 
# 
# From -- ./inp_files/620394.got.cif
#   From: 2010.05.17/outbox.cif.g08.bks.cpg/sg2_311_cif.got.tgz:620394.got - 2010.06.03 11:33:40.
