data_PCOD9018673
_publ_section_title
;
Structure prediction by ZEFSAII (Michael W. Deem and Ramdas Pophale) SiO2 
 PCOD9018673
Probable space group: P -1
;
_chemical_formula_sum "Si O2"
_cell_formula_units_Z 16
_cell_length_a 9.985816
_cell_length_b 17.717894
_cell_length_c 18.154116
_cell_angle_alpha 25.409665
_cell_angle_beta 39.369035
_cell_angle_gamma 29.068499
_cell_volume 667.534077
_symmetry_space_group_name_H-M "P -1"
_symmetry_group_IT_number 2
_symmetry_cell_setting 'triclinic'
loop_
_space_group_symop_operation_xyz
x,y,z
-x,-y,-z
loop_
_atom_site_type_symbol
_atom_site_label
_atom_site_fract_x
_atom_site_fract_y
_atom_site_fract_z
Si Si1 0.849154 0.307765 0.877954
Si Si2 0.821371 0.657507 0.006905
Si Si3 0.100380 0.116498 0.093405
Si Si4 0.629051 0.621487 0.343866
Si Si5 0.481611 0.191137 0.467668
Si Si6 0.342623 0.166073 0.712231
Si Si7 0.330537 0.897152 0.770848
Si Si8 0.068908 0.304860 0.323192
O O1 0.038810 0.235711 0.934250
O O2 0.739106 0.171706 0.063613
O O3 0.038548 0.244943 0.782028
O O4 0.660200 0.714452 0.781218
O O5 0.835773 0.475364 0.211500
O O6 0.919469 0.751044 0.943107
O O7 0.000000 0.500000 0.000000
O O8 0.547698 0.895571 0.882993
O O9 0.859329 0.098868 0.210885
O O10 0.404721 0.867456 0.181418
O O11 0.500000 0.500000 0.500000
O O12 0.643774 0.690239 0.358586
O O13 0.919969 0.430051 0.350665
O O14 0.287104 0.129054 0.582788
O O15 0.788031 0.959389 0.519869
O O16 0.436890 0.203724 0.563142
O O17 0.392943 0.419550 0.267116
#
# Coordination Sequence:
#
# PCOD9018673 Si02
#       8
#     2   2   2   2   2   2   2   2
#     4  10  21  43  74 103 149 185 240 295 350 442
#     4  11  20  42  71  99 144 186 240 301 352 430
#     4   9  22  44  71 107 135 192 243 286 367 420
#     4  11  25  46  73 109 144 188 247 302 348 441
#     4  10  22  45  73 106 148 191 238 297 368 419
#     4  11  23  42  71 106 143 195 238 297 368 421
#     4   8  22  44  70 108 142 188 245 290 361 427
#     4  10  22  45  73 102 141 193 238 291 369 419
#
# _framework density 23.968813000000001
#
# number of rings (size 3 to 8) (size 9 to 14) (size 15 to 20)
#    1.500    0.500    1.250    1.875    1.750    3.000 
#    4.500    6.250    0.000    0.000    0.000    0.000 
#    0.000    0.000    0.000    0.000    0.000    0.000 
#
# Total GULP energy -89223.268746 kJ/mol
# GULP energy per Si atom -5576.454297 kJ/mol
# Density = 2.391426 g / cm^3
# Si number density = 23.968813 Si / 1000 Ang^3
#
#
#
# Elastic Constant Matrix: (Units=GPa)
#
#
# Indices 1 2 3 4 5 6 
#
# 1 52.0706 33.6776 12.8409 0.1525 19.4693 13.0737
# 2 33.6776 155.6295 24.6139 -19.1662 19.7426 23.3818
# 3 12.8409 24.6139 80.7771 -14.9008 31.2478 6.7693
# 4 0.1525 -19.1662 -14.9008 34.4825 -11.4654 3.9019
# 5 19.4693 19.7426 31.2478 -11.4654 39.1456 1.0641
# 6 13.0737 23.3818 6.7693 3.9019 1.0641 30.7315
#
#
#
# Elastic Compliance Matrix: (Units=1/GPa)
#
#
# Indices 1 2 3 4 5 6 
#
# 1 0.029411 -0.004135 0.002406 -0.005699 -0.015898 -0.008622
# 2 -0.004135 0.008934 -0.000479 0.005288 -0.000366 -0.005591
# 3 0.002406 -0.000479 0.018967 0.003489 -0.014943 -0.004762
# 4 -0.005699 0.005288 0.003489 0.037117 0.008454 -0.007373
# 5 -0.015898 -0.000366 -0.014943 0.008454 0.047835 0.007603
# 6 -0.008622 -0.005591 -0.004762 -0.007373 0.007603 0.042184
#
#
# Mechanical properties :
#
#
# Convention : Reuss Voigt Hill
#
# Bulk Modulus (GPa) = 18.90552 47.86022 33.38287
# Shear Modulus (GPa) = 24.21346 35.36157 29.78751
#
# Velocity S-wave (km/s) = 3.18182 3.84515 3.52911
# Velocity P-wave (km/s) = 4.62637 6.30275 5.52847
#
# Compressibility (1/GPa) = 0.05289459
#
# Stress axis : x y z
#
# Youngs Moduli (GPa) = 34.00057 111.93559 52.72349
#
# Poissons Ratio (x) = 0.46282 -0.12683
# Poissons Ratio (y) = 0.14058 0.02528
# Poissons Ratio (z) = -0.08179 0.05367
#
# Static dielectric constant tensor:
#      x y z
#    x 2.407840 0.047190 -0.056970 
#    y 0.047190 1.931630 0.005850 
#    z -0.056970 0.005850 1.999770 
# 
# From -- ./inp_files/497944.got.cif
#   From: 2010.05.17/outbox.cif.g08.bks.cpg/sg2_249_cif.got.tgz:497944.got - 2010.06.03 11:33:40.
