data_PCOD9018266
_publ_section_title
;
Structure prediction by ZEFSAII (Michael W. Deem and Ramdas Pophale) SiO2 
 PCOD9018266
Probable space group: P -1
;
_chemical_formula_sum "Si O2"
_cell_formula_units_Z 16
_cell_length_a 11.694347
_cell_length_b 13.891251
_cell_length_c 9.657492
_cell_angle_alpha 61.504816
_cell_angle_beta 116.409651
_cell_angle_gamma 148.956687
_cell_volume 708.775199
_symmetry_space_group_name_H-M "P -1"
_symmetry_group_IT_number 2
_symmetry_cell_setting 'triclinic'
loop_
_space_group_symop_operation_xyz
x,y,z
-x,-y,-z
loop_
_atom_site_type_symbol
_atom_site_label
_atom_site_fract_x
_atom_site_fract_y
_atom_site_fract_z
Si Si1 0.053896 0.048604 0.722258
Si Si2 0.209171 0.386168 0.682227
Si Si3 0.116256 0.390099 0.143227
Si Si4 0.897068 0.271510 0.816181
Si Si5 0.949980 0.550893 0.670896
Si Si6 0.640761 0.622172 0.855520
Si Si7 0.447367 0.970234 0.655912
Si Si8 0.215162 0.013209 0.615784
O O1 0.152686 0.219319 0.741353
O O2 0.240197 0.111175 0.694197
O O3 0.882632 0.848398 0.848308
O O4 0.894540 0.993204 0.559999
O O5 0.122664 0.401962 0.501055
O O6 0.473997 0.580915 0.705705
O O7 0.078509 0.333453 0.783835
O O8 0.166021 0.517680 0.194730
O O9 0.319448 0.464634 0.140568
O O10 0.975419 0.202960 0.283393
O O11 0.965955 0.318600 0.980966
O O12 0.903011 0.401409 0.681482
O O13 0.649340 0.059711 0.789521
O O14 0.214652 0.744715 0.705519
O O15 0.500000 0.500000 0.000000
O O16 0.402085 0.062921 0.622688
O O17 0.500000 0.000000 0.500000
#
# Coordination Sequence:
#
# PCOD9018266 Si02
#       8
#     2   2   2   2   2   2   2   2
#     4  10  21  43  69  93 134 172 216 284 324 394
#     4  12  24  42  70 101 130 178 227 271 339 402
#     4  10  22  48  64  99 141 167 229 280 328 402
#     4  12  25  41  69  95 139 181 217 281 334 389
#     4  11  25  43  67  99 134 174 232 273 327 403
#     4  11  25  44  69  99 134 171 217 279 340 396
#     4  11  22  40  66  97 132 173 227 271 327 399
#     4   9  20  40  66  95 133 169 216 277 325 389
#
# _framework density 22.574155999999999
#
# number of rings (size 3 to 8) (size 9 to 14) (size 15 to 20)
#    0.000    1.250    5.000    0.750    1.750    5.000 
#    0.000    0.000    0.000    0.000    0.000    0.000 
#    0.000    0.000    0.000    0.000    0.000    0.000 
#
# Total GULP energy -89387.996780 kJ/mol
# GULP energy per Si atom -5586.749799 kJ/mol
# Density = 2.252278 g / cm^3
# Si number density = 22.574156 Si / 1000 Ang^3
#
#
#
# Elastic Constant Matrix: (Units=GPa)
#
#
# Indices 1 2 3 4 5 6 
#
# 1 149.6155 33.5837 16.9602 -7.9531 -29.1774 5.2244
# 2 33.5837 67.9039 10.3229 6.0886 -0.7286 8.3243
# 3 16.9602 10.3229 82.6267 -3.3979 -13.3331 8.1007
# 4 -7.9531 6.0886 -3.3979 20.1758 7.2430 6.3321
# 5 -29.1774 -0.7286 -13.3331 7.2430 38.1321 5.1930
# 6 5.2244 8.3243 8.1007 6.3321 5.1930 41.7044
#
#
#
# Elastic Compliance Matrix: (Units=1/GPa)
#
#
# Indices 1 2 3 4 5 6 
#
# 1 0.009215 -0.004583 0.000024 0.003139 0.006585 -0.001541
# 2 -0.004583 0.017974 -0.001813 -0.006222 -0.002423 -0.001415
# 3 0.000024 -0.001813 0.013485 0.002126 0.004727 -0.003172
# 4 0.003139 -0.006222 0.002126 0.057882 -0.006948 -0.007487
# 5 0.006585 -0.002423 0.004727 -0.006948 0.034808 -0.004539
# 6 -0.001541 -0.001415 -0.003172 -0.007487 -0.004539 0.026772
#
#
# Mechanical properties :
#
#
# Convention : Reuss Voigt Hill
#
# Bulk Modulus (GPa) = 35.80329 46.87551 41.33940
# Shear Modulus (GPa) = 27.44385 35.95439 31.69912
#
# Velocity S-wave (km/s) = 3.49050 3.99522 3.75136
# Velocity P-wave (km/s) = 5.66917 6.48788 6.09230
#
# Compressibility (1/GPa) = 0.02793039
#
# Stress axis : x y z
#
# Youngs Moduli (GPa) = 108.52259 55.63496 74.15420
#
# Poissons Ratio (x) = 0.25497 -0.00177
# Poissons Ratio (y) = 0.49735 0.13444
# Poissons Ratio (z) = -0.00259 0.10087
#
# Static dielectric constant tensor:
#      x y z
#    x 1.898260 -0.040800 0.001810 
#    y -0.040800 1.854690 0.008810 
#    z 0.001810 0.008810 1.864490 
# 
# From -- ./inp_files/272630.got.cif
#   From: 2010.05.17/outbox.cif.g08.bks.cpg/sg2_137_cif.got.tgz:272630.got - 2010.06.03 11:33:40.
