data_PCOD9018751
_publ_section_title
;
Structure prediction by ZEFSAII (Michael W. Deem and Ramdas Pophale) SiO2 
 PCOD9018751
Probable space group: P -1
;
_chemical_formula_sum "Si O2"
_cell_formula_units_Z 14
_cell_length_a 17.413700
_cell_length_b 5.219831
_cell_length_c 7.730110
_cell_angle_alpha 116.056286
_cell_angle_beta 99.180337
_cell_angle_gamma 57.929238
_cell_volume 532.384973
_symmetry_space_group_name_H-M "P -1"
_symmetry_group_IT_number 2
_symmetry_cell_setting 'triclinic'
loop_
_space_group_symop_operation_xyz
x,y,z
-x,-y,-z
loop_
_atom_site_type_symbol
_atom_site_label
_atom_site_fract_x
_atom_site_fract_y
_atom_site_fract_z
Si Si1 0.118542 0.604719 0.555231
Si Si2 0.721505 0.300228 0.383351
Si Si3 0.188129 0.382621 0.900662
Si Si4 0.616454 0.836316 0.991684
Si Si5 0.040922 0.646648 0.194791
Si Si6 0.408345 0.648566 0.394958
Si Si7 0.450591 0.384150 0.788173
O O1 0.208291 0.591244 0.506188
O O2 0.144019 0.457139 0.715035
O O3 0.081858 0.474790 0.346403
O O4 0.038200 0.983143 0.675525
O O5 0.682180 0.144033 0.461937
O O6 0.626043 0.595199 0.361821
O O7 0.779214 0.008185 0.177649
O O8 0.281805 0.372187 0.954749
O O9 0.121121 0.617798 0.095025
O O10 0.612951 0.620862 0.770580
O O11 0.554731 0.810015 0.109183
O O12 0.588661 0.221002 0.077884
O O13 0.000000 0.500000 0.000000
O O14 0.500000 0.500000 0.500000
O O15 0.447501 0.768405 0.291064
#
# Coordination Sequence:
#
# PCOD9018751 Si02
#       7
#     2   2   2   2   2   2   2
#     4  11  23  45  69  97 136 177 229 287 350 430
#     4  10  21  44  61  95 135 174 227 282 343 416
#     4  11  23  44  68  98 137 176 230 286 351 417
#     4  11  22  43  68  98 134 185 228 289 353 413
#     4  11  24  44  70  98 136 177 226 288 354 425
#     4  10  22  41  64  97 135 179 232 284 343 411
#     4  10  22  42  68  93 136 179 232 284 348 411
#
# _framework density 26.296759000000002
#
# number of rings (size 3 to 8) (size 9 to 14) (size 15 to 20)
#    0.000    1.429    2.857    2.143    0.000    0.571 
#   15.429    5.000    0.000    0.000    0.000    0.000 
#    0.000    0.000    0.000    0.000    0.000    0.000 
#
# Total GULP energy -78193.311855 kJ/mol
# GULP energy per Si atom -5585.236561 kJ/mol
# Density = 2.623691 g / cm^3
# Si number density = 26.296759 Si / 1000 Ang^3
#
#
#
# Elastic Constant Matrix: (Units=GPa)
#
#
# Indices 1 2 3 4 5 6 
#
# 1 100.3638 21.6560 48.4243 8.4007 -16.5563 -7.8938
# 2 21.6560 93.6475 49.7686 -10.6361 1.4888 3.3167
# 3 48.4243 49.7686 176.2639 -18.4853 23.4152 -11.3543
# 4 8.4007 -10.6361 -18.4853 36.7079 -2.2550 -4.9964
# 5 -16.5563 1.4888 23.4152 -2.2550 59.5210 -4.0330
# 6 -7.8938 3.3167 -11.3543 -4.9964 -4.0330 35.8990
#
#
#
# Elastic Compliance Matrix: (Units=1/GPa)
#
#
# Indices 1 2 3 4 5 6 
#
# 1 0.014060 -0.001549 -0.004644 -0.005432 0.005682 0.001649
# 2 -0.001549 0.013082 -0.003235 0.002243 0.000450 -0.002210
# 3 -0.004644 -0.003235 0.009102 0.004751 -0.004454 0.002317
# 4 -0.005432 0.002243 0.004751 0.031999 -0.001930 0.004338
# 5 0.005682 0.000450 -0.004454 -0.001930 0.020171 0.001797
# 6 0.001649 -0.002210 0.002317 0.004338 0.001797 0.029961
#
#
# Mechanical properties :
#
#
# Convention : Reuss Voigt Hill
#
# Bulk Modulus (GPa) = 57.51089 67.77478 62.64284
# Shear Modulus (GPa) = 34.95869 43.12067 39.03968
#
# Velocity S-wave (km/s) = 3.65004 4.05380 3.85721
# Velocity P-wave (km/s) = 6.29930 6.90942 6.61140
#
# Compressibility (1/GPa) = 0.01738801
#
# Stress axis : x y z
#
# Youngs Moduli (GPa) = 71.12283 76.44321 109.87114
#
# Poissons Ratio (x) = 0.11843 0.51019
# Poissons Ratio (y) = 0.11019 0.35542
# Poissons Ratio (z) = 0.33026 0.24728
#
# Static dielectric constant tensor:
#      x y z
#    x 2.143480 0.005630 -0.004180 
#    y 0.005630 2.151140 -0.098300 
#    z -0.004180 -0.098300 2.263900 
# 
# From -- ./inp_files/323029.got.cif
#   From: 2010.05.17/outbox.cif.g08.bks.cpg/sg2_162_cif.got.tgz:323029.got - 2010.06.03 11:33:40.
