data_PCOD9018601
_publ_section_title
;
Structure prediction by ZEFSAII (Michael W. Deem and Ramdas Pophale) SiO2 
 PCOD9018601
Probable space group: P -1
;
_chemical_formula_sum "Si O2"
_cell_formula_units_Z 16
_cell_length_a 15.059886
_cell_length_b 10.345003
_cell_length_c 15.970683
_cell_angle_alpha 116.502858
_cell_angle_beta 36.415554
_cell_angle_gamma 143.744754
_cell_volume 713.219634
_symmetry_space_group_name_H-M "P -1"
_symmetry_group_IT_number 2
_symmetry_cell_setting 'triclinic'
loop_
_space_group_symop_operation_xyz
x,y,z
-x,-y,-z
loop_
_atom_site_type_symbol
_atom_site_label
_atom_site_fract_x
_atom_site_fract_y
_atom_site_fract_z
Si Si1 0.705835 0.937581 0.734592
Si Si2 0.181906 0.076622 0.957341
Si Si3 0.887634 0.348108 0.338488
Si Si4 0.884528 0.755378 0.799914
Si Si5 0.631202 0.064534 0.285472
Si Si6 0.502796 0.817581 0.034320
Si Si7 0.200370 0.308968 0.349455
Si Si8 0.305619 0.781401 0.881330
O O1 0.723118 0.780182 0.690544
O O2 0.436249 0.771184 0.841206
O O3 0.671518 0.963049 0.862962
O O4 0.970489 0.192097 0.550559
O O5 0.176926 0.903167 0.890745
O O6 0.509016 0.374502 0.787461
O O7 0.097343 0.086504 0.111340
O O8 0.000000 0.000000 0.000000
O O9 0.637052 0.210847 0.541016
O O10 0.898572 0.186150 0.310112
O O11 0.201151 0.649044 0.205373
O O12 0.810811 0.295073 0.284388
O O13 0.912258 0.799476 0.692028
O O14 0.402726 0.571504 0.059514
O O15 0.522447 0.069585 0.292179
O O16 0.662370 0.037267 0.045950
O O17 0.000000 0.500000 0.000000
#
# Coordination Sequence:
#
# PCOD9018601 Si02
#       8
#     2   2   2   2   2   2   2   2
#     4  11  25  45  64  98 138 176 224 269 345 408
#     4  12  23  40  70 103 136 171 224 285 339 389
#     4   9  21  42  68  97 135 166 232 283 331 386
#     4  10  21  43  72  96 130 174 232 275 329 399
#     4  11  23  40  67 104 133 175 225 291 327 393
#     4  10  22  45  70  92 130 181 225 277 330 409
#     4  11  24  42  69  99 132 176 221 284 328 407
#     4  12  27  42  66  94 138 182 224 272 342 407
#
# _framework density 22.433482000000001
#
# number of rings (size 3 to 8) (size 9 to 14) (size 15 to 20)
#    0.750    0.500    2.500    3.000    5.250    0.500 
#    2.250    0.000    0.000    3.000    0.000    0.000 
#    0.000    0.000    0.000    0.000    0.000    0.000 
#
# Total GULP energy -89300.961479 kJ/mol
# GULP energy per Si atom -5581.310092 kJ/mol
# Density = 2.238242 g / cm^3
# Si number density = 22.433482 Si / 1000 Ang^3
#
#
#
# Elastic Constant Matrix: (Units=GPa)
#
#
# Indices 1 2 3 4 5 6 
#
# 1 100.9528 23.1537 22.2280 25.2061 14.1301 21.4663
# 2 23.1537 98.1955 38.8516 11.3598 9.8968 22.7113
# 3 22.2280 38.8516 105.4547 22.4303 12.6982 18.1571
# 4 25.2061 11.3598 22.4303 31.0293 3.3230 1.4798
# 5 14.1301 9.8968 12.6982 3.3230 39.7223 7.8544
# 6 21.4663 22.7113 18.1571 1.4798 7.8544 44.5564
#
#
#
# Elastic Compliance Matrix: (Units=1/GPa)
#
#
# Indices 1 2 3 4 5 6 
#
# 1 0.014489 -0.000792 0.001153 -0.011685 -0.003140 -0.006105
# 2 -0.000792 0.013056 -0.003456 -0.001326 -0.000831 -0.004674
# 3 0.001153 -0.003456 0.013283 -0.008853 -0.002363 -0.003496
# 4 -0.011685 -0.001326 -0.008853 0.048039 0.001713 0.008016
# 5 -0.003140 -0.000831 -0.002363 0.001713 0.027508 -0.002006
# 6 -0.006105 -0.004674 -0.003496 0.008016 -0.002006 0.029279
#
#
# Mechanical properties :
#
#
# Convention : Reuss Voigt Hill
#
# Bulk Modulus (GPa) = 28.87158 52.56331 40.71744
# Shear Modulus (GPa) = 30.60145 37.75292 34.17719
#
# Velocity S-wave (km/s) = 3.69738 4.10675 3.90743
# Velocity P-wave (km/s) = 5.57900 6.78003 6.20862
#
# Compressibility (1/GPa) = 0.03463614
#
# Stress axis : x y z
#
# Youngs Moduli (GPa) = 69.01898 76.59114 75.28638
#
# Poissons Ratio (x) = 0.06067 -0.08677
# Poissons Ratio (y) = 0.05467 0.26021
# Poissons Ratio (z) = -0.07955 0.26472
#
# Static dielectric constant tensor:
#      x y z
#    x 1.903780 -0.066830 0.012380 
#    y -0.066830 1.846850 -0.002760 
#    z 0.012380 -0.002760 1.866560 
# 
# From -- ./inp_files/532598.got.cif
#   From: 2010.05.17/outbox.cif.g08.bks.cpg/sg2_267_cif.got.tgz:532598.got - 2010.06.03 11:33:40.
