data_PCOD9018767
_publ_section_title
;
Structure prediction by ZEFSAII (Michael W. Deem and Ramdas Pophale) SiO2 
 PCOD9018767
Probable space group: P -1
;
_chemical_formula_sum "Si O2"
_cell_formula_units_Z 16
_cell_length_a 6.483175
_cell_length_b 9.071421
_cell_length_c 18.282961
_cell_angle_alpha 57.438062
_cell_angle_beta 99.211680
_cell_angle_gamma 126.133516
_cell_volume 712.106939
_symmetry_space_group_name_H-M "P -1"
_symmetry_group_IT_number 2
_symmetry_cell_setting 'triclinic'
loop_
_space_group_symop_operation_xyz
x,y,z
-x,-y,-z
loop_
_atom_site_type_symbol
_atom_site_label
_atom_site_fract_x
_atom_site_fract_y
_atom_site_fract_z
Si Si1 0.619378 0.635391 0.759728
Si Si2 0.079037 0.018015 0.583157
Si Si3 0.215672 0.728848 0.992978
Si Si4 0.838112 0.724158 0.247611
Si Si5 0.826399 0.060145 0.933007
Si Si6 0.081832 0.862753 0.820234
Si Si7 0.558591 0.077010 0.302981
Si Si8 0.029860 0.334900 0.589037
O O1 0.433195 0.397110 0.778885
O O2 0.437949 0.713625 0.739992
O O3 0.786213 0.663691 0.832778
O O4 0.837109 0.807937 0.668838
O O5 0.131689 0.233834 0.566522
O O6 0.304454 0.987296 0.615665
O O7 0.000000 0.000000 0.500000
O O8 0.160822 0.876371 0.904027
O O9 0.523122 0.841999 0.970377
O O10 0.165400 0.759515 0.065042
O O11 0.000000 0.500000 0.000000
O O12 0.061411 0.835324 0.168544
O O13 0.813972 0.565091 0.351903
O O14 0.891271 0.918994 0.248518
O O15 0.000000 0.000000 0.000000
O O16 0.290114 0.874614 0.777308
O O17 0.257244 0.867927 0.343930
O O18 0.000000 0.500000 0.500000
#
# Coordination Sequence:
#
# PCOD9018767 Si02
#       8
#     2   2   2   2   2   2   2   2
#     4  10  25  41  67  99 127 184 230 274 350 404
#     4  10  23  42  62  94 133 171 229 289 333 409
#     4  11  27  44  73 103 142 181 229 282 345 419
#     4  12  24  46  68  97 143 176 224 291 337 407
#     4  11  26  47  68 108 138 179 231 283 345 412
#     4  11  23  46  66  98 137 179 227 278 339 412
#     4  10  21  44  63  89 136 172 226 281 335 406
#     4  11  25  42  65  99 133 182 227 275 350 398
#
# _framework density 22.468536
#
# number of rings (size 3 to 8) (size 9 to 14) (size 15 to 20)
#    0.000    1.250    5.000    0.750    7.000    3.000 
#    4.500    0.000    0.000    0.000    0.000    0.000 
#    0.000    0.000    0.000    0.000    0.000    0.000 
#
# Total GULP energy -89302.156504 kJ/mol
# GULP energy per Si atom -5581.384781 kJ/mol
# Density = 2.241740 g / cm^3
# Si number density = 22.468536 Si / 1000 Ang^3
#
#
#
# Elastic Constant Matrix: (Units=GPa)
#
#
# Indices 1 2 3 4 5 6 
#
# 1 105.7401 38.1519 18.8511 16.7173 14.8674 10.2259
# 2 38.1519 112.5163 10.9939 9.9053 -6.7004 18.1365
# 3 18.8511 10.9939 76.7957 24.1938 10.4947 -7.2109
# 4 16.7173 9.9053 24.1938 38.0706 2.0883 -0.4098
# 5 14.8674 -6.7004 10.4947 2.0883 23.0606 7.3002
# 6 10.2259 18.1365 -7.2109 -0.4098 7.3002 26.9331
#
#
#
# Elastic Compliance Matrix: (Units=1/GPa)
#
#
# Indices 1 2 3 4 5 6 
#
# 1 0.013113 -0.004851 0.000199 -0.004070 -0.009890 0.000960
# 2 -0.004851 0.013449 -0.003507 0.000064 0.012259 -0.011476
# 3 0.000199 -0.003507 0.019605 -0.010833 -0.012494 0.010757
# 4 -0.004070 0.000064 -0.010833 0.034614 0.005156 -0.002269
# 5 -0.009890 0.012259 -0.012494 0.005156 0.066703 -0.025846
# 6 0.000960 -0.011476 0.010757 -0.002269 -0.025846 0.054343
#
#
# Mechanical properties :
#
#
# Convention : Reuss Voigt Hill
#
# Bulk Modulus (GPa) = 33.50213 47.89401 40.69807
# Shear Modulus (GPa) = 21.92061 32.74987 27.33524
#
# Velocity S-wave (km/s) = 3.12687 3.82198 3.49176
# Velocity P-wave (km/s) = 5.28956 6.39054 5.86594
#
# Compressibility (1/GPa) = 0.02984885
#
# Stress axis : x y z
#
# Youngs Moduli (GPa) = 76.25958 74.35270 51.00772
#
# Poissons Ratio (x) = 0.36071 -0.01017
# Poissons Ratio (y) = 0.36996 0.17891
# Poissons Ratio (z) = -0.01521 0.26079
#
# Static dielectric constant tensor:
#      x y z
#    x 1.890210 0.007730 0.083630 
#    y 0.007730 1.862100 -0.008910 
#    z 0.083630 -0.008910 1.910740 
# 
# From -- ./inp_files/53995.got.cif
#   From: 2010.05.17/outbox.cif.g08.bks.cpg/sg2_27_cif.got.tgz:53995.got - 2010.06.03 11:33:40.
