data_PCOD9018991
_publ_section_title
;
Structure prediction by ZEFSAII (Michael W. Deem and Ramdas Pophale) SiO2 
 PCOD9018991
Probable space group: P -1
;
_chemical_formula_sum "Si O2"
_cell_formula_units_Z 15
_cell_length_a 12.139575
_cell_length_b 9.539640
_cell_length_c 18.008882
_cell_angle_alpha 69.478954
_cell_angle_beta 151.798816
_cell_angle_gamma 88.532883
_cell_volume 604.307984
_symmetry_space_group_name_H-M "P -1"
_symmetry_group_IT_number 2
_symmetry_cell_setting 'triclinic'
loop_
_space_group_symop_operation_xyz
x,y,z
-x,-y,-z
loop_
_atom_site_type_symbol
_atom_site_label
_atom_site_fract_x
_atom_site_fract_y
_atom_site_fract_z
Si Si1 0.295277 0.425267 0.260827
Si Si2 0.016818 0.252316 0.105290
Si Si3 0.786149 0.174117 0.738835
Si Si4 0.634380 0.337129 0.999155
Si Si5 0.450725 0.731973 0.889594
Si Si6 0.612382 0.893475 0.845193
Si Si7 0.000000 0.500000 0.500000
Si Si8 0.766417 0.641034 0.507188
O O1 0.570221 0.317065 0.509892
O O2 0.299566 0.249210 0.274564
O O3 0.899340 0.653372 0.016612
O O4 0.310189 0.518362 0.178800
O O5 0.933968 0.258898 0.139903
O O6 0.114015 0.048360 0.165020
O O7 0.533747 0.305766 0.636770
O O8 0.127367 0.113668 0.958383
O O9 0.752041 0.181478 0.168586
O O10 0.374931 0.370739 0.785397
O O11 0.431656 0.581276 0.865951
O O12 0.384796 0.901062 0.764090
O O13 0.862311 0.555855 0.192385
O O14 0.353710 0.126748 0.602793
O O15 0.176914 0.423066 0.533685
#
# Coordination Sequence:
#
# PCOD9018991 Si02
#       8
#     2   2   2   2   2   2   1   2
#     4  11  24  39  66 100 135 171 216 274 326 392
#     4  11  23  43  64  99 136 171 218 274 327 393
#     4  12  24  38  68  98 135 175 215 270 337 390
#     4  10  21  44  67  91 130 180 212 271 331 381
#     4  10  23  44  68  90 133 179 221 266 324 400
#     4  12  23  40  67 101 126 171 225 268 319 400
#     4  10  24  40  66  94 126 172 214 270 322 390
#     4  11  23  43  67  95 134 178 217 267 336 384
#
# _framework density 24.82178
#
# number of rings (size 3 to 8) (size 9 to 14) (size 15 to 20)
#    0.000    1.067    4.000    2.000    1.867    1.067 
#    0.000   14.667    0.000    0.000    0.000    0.000 
#    0.000    0.000    0.000    0.000    0.000    0.000 
#
# Total GULP energy -83726.612330 kJ/mol
# GULP energy per Si atom -5581.774155 kJ/mol
# Density = 2.476528 g / cm^3
# Si number density = 24.821780 Si / 1000 Ang^3
#
#
#
# Elastic Constant Matrix: (Units=GPa)
#
#
# Indices 1 2 3 4 5 6 
#
# 1 90.6432 14.3344 3.5945 -6.3191 -4.1811 18.4321
# 2 14.3344 98.6036 9.0082 2.3679 -1.1629 9.5100
# 3 3.5945 9.0082 49.8169 -4.7345 -6.8574 0.2710
# 4 -6.3191 2.3679 -4.7345 17.7067 2.1911 -15.7042
# 5 -4.1811 -1.1629 -6.8574 2.1911 25.6630 2.4570
# 6 18.4321 9.5100 0.2710 -15.7042 2.4570 47.6513
#
#
#
# Elastic Compliance Matrix: (Units=1/GPa)
#
#
# Indices 1 2 3 4 5 6 
#
# 1 0.012293 -0.001296 -0.000298 0.000150 0.002288 -0.004563
# 2 -0.001296 0.011046 -0.002373 -0.005876 0.000507 -0.003652
# 3 -0.000298 -0.002373 0.021924 0.008027 0.004743 0.002865
# 4 0.000150 -0.005876 0.008027 0.087386 -0.008459 0.030304
# 5 0.002288 0.000507 0.004743 -0.008459 0.041923 -0.005963
# 6 -0.004563 -0.003652 0.002865 0.030304 -0.005963 0.033758
#
#
# Mechanical properties :
#
#
# Convention : Reuss Voigt Hill
#
# Bulk Modulus (GPa) = 26.78929 32.54864 29.66897
# Shear Modulus (GPa) = 21.86192 32.34596 27.10394
#
# Velocity S-wave (km/s) = 2.97097 3.61380 3.30804
# Velocity P-wave (km/s) = 4.75237 5.52758 5.15457
#
# Compressibility (1/GPa) = 0.03732835
#
# Stress axis : x y z
#
# Youngs Moduli (GPa) = 81.34684 90.52893 45.61164
#
# Poissons Ratio (x) = 0.11736 0.01361
# Poissons Ratio (y) = 0.10545 0.10822
# Poissons Ratio (z) = 0.02428 0.21480
#
# Static dielectric constant tensor:
#      x y z
#    x 1.999360 -0.004710 0.026160 
#    y -0.004710 1.958840 -0.021670 
#    z 0.026160 -0.021670 1.976790 
# 
# From -- ./inp_files/565894.got.cif
#   From: 2010.05.17/outbox.cif.g08.bks.cpg/sg2_283_cif.got.tgz:565894.got - 2010.06.03 11:33:40.
