data_PCOD9018540
_publ_section_title
;
Structure prediction by ZEFSAII (Michael W. Deem and Ramdas Pophale) SiO2 
 PCOD9018540
Probable space group: P -1
;
_chemical_formula_sum "Si O2"
_cell_formula_units_Z 16
_cell_length_a 17.586684
_cell_length_b 8.528682
_cell_length_c 11.725947
_cell_angle_alpha 76.338204
_cell_angle_beta 134.206174
_cell_angle_gamma 138.477011
_cell_volume 667.696525
_symmetry_space_group_name_H-M "P -1"
_symmetry_group_IT_number 2
_symmetry_cell_setting 'triclinic'
loop_
_space_group_symop_operation_xyz
x,y,z
-x,-y,-z
loop_
_atom_site_type_symbol
_atom_site_label
_atom_site_fract_x
_atom_site_fract_y
_atom_site_fract_z
Si Si1 0.549538 0.791506 0.833730
Si Si2 0.718983 0.701335 0.694815
Si Si3 0.320617 0.672077 0.419146
Si Si4 0.198731 0.951526 0.468516
Si Si5 0.037834 0.629441 0.789876
Si Si6 0.029412 0.847208 0.542291
Si Si7 0.367256 0.680514 0.882680
Si Si8 0.628366 0.534812 0.867199
O O1 0.391459 0.679916 0.609783
O O2 0.482458 0.716844 0.907039
O O3 0.573767 0.640802 0.840829
O O4 0.756111 0.146924 0.976352
O O5 0.500000 0.500000 0.500000
O O6 0.720222 0.526091 0.674241
O O7 0.770713 0.751850 0.873092
O O8 0.830564 0.957947 0.679559
O O9 0.130649 0.535067 0.270742
O O10 0.500000 0.000000 0.500000
O O11 0.051468 0.621524 0.340886
O O12 0.164041 0.979591 0.552790
O O13 0.428072 0.198018 0.667767
O O14 0.088965 0.845375 0.723912
O O15 0.824268 0.507376 0.350263
O O16 0.000000 0.000000 0.500000
O O17 0.302190 0.493421 0.955585
O O18 0.500000 0.000000 0.000000
#
# Coordination Sequence:
#
# PCOD9018540 Si02
#       8
#     2   2   2   2   2   2   2   2
#     4  12  25  47  71 103 139 181 235 283 348 417
#     4  10  21  43  71  96 135 188 225 280 352 410
#     4  12  25  46  74 101 143 184 230 288 346 416
#     4  11  22  43  67  97 140 180 232 289 342 416
#     4  12  26  44  71 105 137 184 234 285 352 408
#     4  12  23  42  69 101 139 179 234 288 348 411
#     4  12  25  42  69 105 138 177 233 291 347 408
#     4  11  23  44  71  95 141 187 229 283 352 414
#
# _framework density 23.962983000000001
#
# number of rings (size 3 to 8) (size 9 to 14) (size 15 to 20)
#    0.000    0.500    3.750    6.750    1.750    0.500 
#    0.000    1.250    0.000    0.000    0.000    0.000 
#    0.000    0.000    0.000    0.000    0.000    0.000 
#
# Total GULP energy -89647.811728 kJ/mol
# GULP energy per Si atom -5602.988233 kJ/mol
# Density = 2.390844 g / cm^3
# Si number density = 23.962983 Si / 1000 Ang^3
#
#
#
# Elastic Constant Matrix: (Units=GPa)
#
#
# Indices 1 2 3 4 5 6 
#
# 1 112.7116 24.4764 -5.0777 -2.1073 -15.5337 23.8830
# 2 24.4764 93.9469 -14.9525 -6.9558 -13.3032 13.4816
# 3 -5.0777 -14.9525 62.8402 13.3286 -1.6223 6.6754
# 4 -2.1073 -6.9558 13.3286 37.8124 3.0025 -8.5834
# 5 -15.5337 -13.3032 -1.6223 3.0025 29.3369 7.8145
# 6 23.8830 13.4816 6.6754 -8.5834 7.8145 44.0873
#
#
#
# Elastic Compliance Matrix: (Units=1/GPa)
#
#
# Indices 1 2 3 4 5 6 
#
# 1 0.012243 -0.000346 0.002803 -0.003197 0.009262 -0.009215
# 2 -0.000346 0.013313 0.004218 -0.001067 0.007825 -0.006117
# 3 0.002803 0.004218 0.020171 -0.008833 0.007804 -0.008965
# 4 -0.003197 -0.001067 -0.008833 0.032468 -0.009001 0.011312
# 5 0.009262 0.007825 0.007804 -0.009001 0.048959 -0.019023
# 6 -0.009215 -0.006117 -0.008965 0.011312 -0.019023 0.036476
#
#
# Mechanical properties :
#
#
# Convention : Reuss Voigt Hill
#
# Bulk Modulus (GPa) = 16.92765 30.93234 23.92999
# Shear Modulus (GPa) = 29.41645 39.91750 34.66698
#
# Velocity S-wave (km/s) = 3.50748 4.08585 3.80766
# Velocity P-wave (km/s) = 4.84589 5.93256 5.41655
#
# Compressibility (1/GPa) = 0.05907494
#
# Stress axis : x y z
#
# Youngs Moduli (GPa) = 81.67922 75.11637 49.57679
#
# Poissons Ratio (x) = 0.02602 -0.13896
# Poissons Ratio (y) = 0.02829 -0.20910
# Poissons Ratio (z) = -0.22894 -0.31682
#
# Static dielectric constant tensor:
#      x y z
#    x 1.908790 0.039160 0.027310 
#    y 0.039160 1.939420 0.015060 
#    z 0.027310 0.015060 1.943740 
# 
# From -- ./inp_files/462148.got.cif
#   From: 2010.05.17/outbox.cif.g08.bks.cpg/sg2_232_cif.got.tgz:462148.got - 2010.06.03 11:33:40.
