data_PCOD9018898
_publ_section_title
;
Structure prediction by ZEFSAII (Michael W. Deem and Ramdas Pophale) SiO2 
 PCOD9018898
Probable space group: P -1
;
_chemical_formula_sum "Si O2"
_cell_formula_units_Z 14
_cell_length_a 4.941885
_cell_length_b 13.508043
_cell_length_c 23.970965
_cell_angle_alpha 22.762449
_cell_angle_beta 121.491551
_cell_angle_gamma 119.054561
_cell_volume 527.905117
_symmetry_space_group_name_H-M "P -1"
_symmetry_group_IT_number 2
_symmetry_cell_setting 'triclinic'
loop_
_space_group_symop_operation_xyz
x,y,z
-x,-y,-z
loop_
_atom_site_type_symbol
_atom_site_label
_atom_site_fract_x
_atom_site_fract_y
_atom_site_fract_z
Si Si1 0.822377 0.357103 0.622730
Si Si2 0.629838 0.042506 0.420248
Si Si3 0.848692 0.265158 0.865694
Si Si4 0.686747 0.433950 0.304742
Si Si5 0.240659 0.732046 0.910106
Si Si6 0.069670 0.182056 0.053783
Si Si7 0.837504 0.149849 0.608072
O O1 0.500000 0.500000 0.500000
O O2 0.876184 0.228928 0.635378
O O3 0.068422 0.579687 0.550874
O O4 0.827597 0.115469 0.789341
O O5 0.402447 0.829673 0.536416
O O6 0.499991 0.978707 0.377643
O O7 0.553535 0.328619 0.284280
O O8 0.000000 0.000000 0.500000
O O9 0.966236 0.473373 0.724805
O O10 0.484309 0.328543 0.807076
O O11 0.978000 0.301632 0.923234
O O12 0.000000 0.000000 0.000000
O O13 0.604874 0.684412 0.961946
O O14 0.195766 0.812399 0.929330
O O15 0.110455 0.939665 0.743855
O O16 0.000000 0.500000 0.000000
#
# Coordination Sequence:
#
# PCOD9018898 Si02
#       7
#     2   2   2   2   2   2   2
#     4  10  21  44  66 104 140 184 242 294 361 431
#     4  11  25  48  76 106 146 195 248 312 374 434
#     4  12  27  47  73 105 148 197 243 303 369 443
#     4  11  26  49  70 107 142 190 255 297 372 436
#     4  11  24  44  67 108 139 187 228 292 368 439
#     4  11  25  44  71 101 144 185 239 291 360 433
#     4  10  24  41  72 102 141 186 240 302 364 432
#
# _framework density 26.519918000000001
#
# number of rings (size 3 to 8) (size 9 to 14) (size 15 to 20)
#    0.000    1.143    2.857    1.714    6.000    3.429 
#    0.000    0.000    0.000    0.000    0.000    0.000 
#    0.000    0.000    0.000    0.000    0.000    0.000 
#
# Total GULP energy -78108.976991 kJ/mol
# GULP energy per Si atom -5579.212642 kJ/mol
# Density = 2.645956 g / cm^3
# Si number density = 26.519918 Si / 1000 Ang^3
#
#
#
# Elastic Constant Matrix: (Units=GPa)
#
#
# Indices 1 2 3 4 5 6 
#
# 1 130.5162 20.5326 16.6014 3.0481 -4.6842 2.4096
# 2 20.5326 109.2508 -10.3832 -8.0061 7.9632 14.6961
# 3 16.6014 -10.3832 58.3704 9.0008 -4.5932 -10.3271
# 4 3.0481 -8.0061 9.0008 40.1726 -1.1410 11.1404
# 5 -4.6842 7.9632 -4.5932 -1.1410 44.2653 -2.0176
# 6 2.4096 14.6961 -10.3271 11.1404 -2.0176 32.3055
#
#
#
# Elastic Compliance Matrix: (Units=1/GPa)
#
#
# Indices 1 2 3 4 5 6 
#
# 1 0.008339 -0.001837 -0.002681 -0.000232 0.000906 -0.000507
# 2 -0.001837 0.010806 0.000624 0.003758 -0.002251 -0.006016
# 3 -0.002681 0.000624 0.020806 -0.006782 0.002000 0.009031
# 4 -0.000232 0.003758 -0.006782 0.031220 -0.001270 -0.014706
# 5 0.000906 -0.002251 0.002000 -0.001270 0.023426 0.003497
# 6 -0.000507 -0.006016 0.009031 -0.014706 0.003497 0.041906
#
#
# Mechanical properties :
#
#
# Convention : Reuss Voigt Hill
#
# Bulk Modulus (GPa) = 31.09125 39.07101 35.08113
# Shear Modulus (GPa) = 32.25520 41.44112 36.84816
#
# Velocity S-wave (km/s) = 3.49128 3.95731 3.73158
# Velocity P-wave (km/s) = 5.29162 5.97035 5.64120
#
# Compressibility (1/GPa) = 0.03216339
#
# Stress axis : x y z
#
# Youngs Moduli (GPa) = 119.91578 92.53742 48.06214
#
# Poissons Ratio (x) = 0.16998 0.12887
# Poissons Ratio (y) = 0.22027 -0.02998
# Poissons Ratio (z) = 0.32152 -0.05773
#
# Static dielectric constant tensor:
#      x y z
#    x 2.343200 -0.233710 0.096030 
#    y -0.233710 2.267150 -0.031060 
#    z 0.096030 -0.031060 2.289040 
# 
# From -- ./inp_files/366822.got.cif
#   From: 2010.05.17/outbox.cif.g08.bks.cpg/sg2_184_cif.got.tgz:366822.got - 2010.06.03 11:33:40.
