data_PCOD9018000
_publ_section_title
;
Structure prediction by ZEFSAII (Michael W. Deem and Ramdas Pophale) SiO2 
 PCOD9018000
Probable space group: P -1
;
_chemical_formula_sum "Si O2"
_cell_formula_units_Z 14
_cell_length_a 16.779581
_cell_length_b 12.284311
_cell_length_c 8.946080
_cell_angle_alpha 150.170076
_cell_angle_beta 128.510862
_cell_angle_gamma 42.140055
_cell_volume 614.260249
_symmetry_space_group_name_H-M "P -1"
_symmetry_group_IT_number 2
_symmetry_cell_setting 'triclinic'
loop_
_space_group_symop_operation_xyz
x,y,z
-x,-y,-z
loop_
_atom_site_type_symbol
_atom_site_label
_atom_site_fract_x
_atom_site_fract_y
_atom_site_fract_z
Si Si1 0.299184 0.725561 0.673346
Si Si2 0.351167 0.124310 0.347001
Si Si3 0.167700 0.702732 0.785054
Si Si4 0.725701 0.981440 0.568938
Si Si5 0.491780 0.825518 0.655648
Si Si6 0.970448 0.621311 0.347211
Si Si7 0.908126 0.907460 0.299639
O O1 0.210109 0.723264 0.691408
O O2 0.423176 0.460451 0.521052
O O3 0.220061 0.834856 0.563215
O O4 0.324177 0.947626 0.003214
O O5 0.245957 0.412103 0.579411
O O6 0.448051 0.148691 0.394496
O O7 0.357019 0.008052 0.378322
O O8 0.037668 0.736168 0.657288
O O9 0.212907 0.855451 0.120288
O O10 0.641471 0.084025 0.446941
O O11 0.842389 0.697231 0.354375
O O12 0.500000 0.000000 0.000000
O O13 0.930847 0.770120 0.320801
O O14 0.057581 0.320263 0.053610
O O15 0.000000 0.000000 0.500000
#
# Coordination Sequence:
#
# PCOD9018000 Si02
#       7
#     2   2   2   2   2   2   2
#     4  10  22  43  70  96 132 178 223 272 336 394
#     4  10  23  45  71  91 137 177 222 273 341 384
#     4  10  21  43  67  98 132 177 222 275 328 401
#     4  11  26  43  66 102 135 179 220 275 337 401
#     4  11  27  45  69  99 135 173 230 281 328 402
#     4  11  24  40  69 102 140 172 227 274 333 403
#     4  11  23  40  70 100 138 179 219 279 339 390
#
# _framework density 22.791642
#
# number of rings (size 3 to 8) (size 9 to 14) (size 15 to 20)
#    0.000    1.429    2.857    0.857    4.000    8.571 
#    0.000    0.000    0.000    0.000    0.000    0.000 
#    0.000    0.000    0.000    0.000    0.000    0.000 
#
# Total GULP energy -78056.417141 kJ/mol
# GULP energy per Si atom -5575.458367 kJ/mol
# Density = 2.273977 g / cm^3
# Si number density = 22.791642 Si / 1000 Ang^3
#
#
#
# Elastic Constant Matrix: (Units=GPa)
#
#
# Indices 1 2 3 4 5 6 
#
# 1 77.6940 68.3698 5.6808 13.8699 -9.8307 11.2936
# 2 68.3698 76.0113 100.1169 -67.1698 55.4153 -90.8067
# 3 5.6808 100.1169 83.2849 22.0277 -10.1393 17.9868
# 4 13.8699 -67.1698 22.0277 -4.0491 35.8697 -33.7674
# 5 -9.8307 55.4153 -10.1393 35.8697 -1.1964 39.1239
# 6 11.2936 -90.8067 17.9868 -33.7674 39.1239 -15.4504
#
#
#
# Elastic Compliance Matrix: (Units=1/GPa)
#
#
# Indices 1 2 3 4 5 6 
#
# 1 0.013007 -0.001710 -0.000651 0.002029 -0.004279 0.003531
# 2 -0.001710 0.004729 -0.002718 -0.004547 0.007438 -0.003436
# 3 -0.000651 -0.002718 0.012718 0.002397 -0.008107 0.004536
# 4 0.002029 -0.004547 0.002397 0.026819 0.004237 -0.016888
# 5 -0.004279 0.007438 -0.008107 0.004237 0.029382 0.008862
# 6 0.003531 -0.003436 0.004536 -0.016888 0.008862 0.022684
#
#
# Mechanical properties :
#
#
# Convention : Reuss Voigt Hill
#
# Bulk Modulus (GPa) = 49.27430 65.03615 57.15522
# Shear Modulus (GPa) = 39.60011 0.04901 19.82456
#
# Velocity S-wave (km/s) = 4.17284 0.14679 2.95247
# Velocity P-wave (km/s) = 6.69949 5.35031 6.06254
#
# Compressibility (1/GPa) = 0.02029456
#
# Stress axis : x y z
#
# Youngs Moduli (GPa) = 76.88286 211.46755 78.62952
#
# Poissons Ratio (x) = 0.36169 0.05121
# Poissons Ratio (y) = 0.13150 0.21370
# Poissons Ratio (z) = 0.05008 0.57472
#
# Static dielectric constant tensor:
#      x y z
#    x 2.195600 0.206830 -0.186260 
#    y 0.206830 2.080620 -0.126740 
#    z -0.186260 -0.126740 1.899340 
# 
# From -- ./inp_files/49090.got.cif
#   From: 2010.05.17/outbox.cif.g08.bks.cpg/sg2_25_cif.got.tgz:49090.got - 2010.06.03 11:33:40.
