data_PCOD9018179
_publ_section_title
;
Structure prediction by ZEFSAII (Michael W. Deem and Ramdas Pophale) SiO2 
 PCOD9018179
Probable space group: P -1
;
_chemical_formula_sum "Si O2"
_cell_formula_units_Z 14
_cell_length_a 15.079770
_cell_length_b 9.430432
_cell_length_c 12.276976
_cell_angle_alpha 138.632530
_cell_angle_beta 132.797785
_cell_angle_gamma 30.606768
_cell_volume 584.552037
_symmetry_space_group_name_H-M "P -1"
_symmetry_group_IT_number 2
_symmetry_cell_setting 'triclinic'
loop_
_space_group_symop_operation_xyz
x,y,z
-x,-y,-z
loop_
_atom_site_type_symbol
_atom_site_label
_atom_site_fract_x
_atom_site_fract_y
_atom_site_fract_z
Si Si1 0.835339 0.385916 0.327828
Si Si2 0.118245 0.380685 0.852945
Si Si3 0.232798 0.155416 0.300814
Si Si4 0.137593 0.840307 0.122195
Si Si5 0.432567 0.784279 0.677028
Si Si6 0.509543 0.866696 0.195347
Si Si7 0.668419 0.177422 0.152464
O O1 0.831814 0.608284 0.520740
O O2 0.710574 0.575598 0.227676
O O3 0.744221 0.316431 0.282711
O O4 0.024262 0.065238 0.260679
O O5 0.918580 0.651949 0.806733
O O6 0.224685 0.107635 0.692432
O O7 0.167627 0.188991 0.892605
O O8 0.196861 0.519906 0.005356
O O9 0.257582 0.884381 0.211031
O O10 0.405863 0.020867 0.310656
O O11 0.000000 0.000000 0.000000
O O12 0.500000 0.500000 0.500000
O O13 0.454475 0.703450 0.776239
O O14 0.517057 0.890755 0.761738
O O15 0.427388 0.775139 0.008476
#
# Coordination Sequence:
#
# PCOD9018179 Si02
#       7
#     2   2   2   2   2   2   2
#     4  12  25  43  70 102 137 179 229 278 337 394
#     4   9  23  45  68  95 140 170 229 268 345 399
#     4  11  24  43  69 106 136 177 225 283 339 390
#     4  10  21  43  68  98 136 177 223 276 333 405
#     4  10  23  47  68 100 137 171 227 281 342 399
#     4  12  24  44  68  99 139 180 228 275 334 408
#     4  10  24  44  70  99 135 176 231 271 338 399
#
# _framework density 23.949964000000001
#
# number of rings (size 3 to 8) (size 9 to 14) (size 15 to 20)
#    0.857    0.571    0.000    6.000    0.000    4.000 
#    5.143    0.000    0.000    0.000    0.000    0.000 
#    0.000    0.000    0.000    0.000    0.000    0.000 
#
# Total GULP energy -78305.722031 kJ/mol
# GULP energy per Si atom -5593.265859 kJ/mol
# Density = 2.389545 g / cm^3
# Si number density = 23.949964 Si / 1000 Ang^3
#
#
#
# Elastic Constant Matrix: (Units=GPa)
#
#
# Indices 1 2 3 4 5 6 
#
# 1 103.5212 15.5241 17.8215 12.1709 3.3689 13.9882
# 2 15.5241 95.1585 23.0499 11.3471 -3.0975 21.0484
# 3 17.8215 23.0499 89.4946 25.9093 -5.1157 7.9960
# 4 12.1709 11.3471 25.9093 39.1549 -3.2018 -4.4704
# 5 3.3689 -3.0975 -5.1157 -3.2018 41.1004 18.8438
# 6 13.9882 21.0484 7.9960 -4.4704 18.8438 41.8156
#
#
#
# Elastic Compliance Matrix: (Units=1/GPa)
#
#
# Indices 1 2 3 4 5 6 
#
# 1 0.010710 -0.000321 -0.000774 -0.003120 0.000519 -0.003841
# 2 -0.000321 0.013418 -0.001300 -0.003560 0.004671 -0.008884
# 3 -0.000774 -0.001300 0.014995 -0.009551 0.003090 -0.004367
# 4 -0.003120 -0.003560 -0.009551 0.034728 -0.002944 0.009702
# 5 0.000519 0.004671 0.003090 -0.002944 0.033235 -0.018408
# 6 -0.003841 -0.008884 -0.004367 0.009702 -0.018408 0.039839
#
#
# Mechanical properties :
#
#
# Convention : Reuss Voigt Hill
#
# Bulk Modulus (GPa) = 29.12777 44.55170 36.83973
# Shear Modulus (GPa) = 30.64488 39.86608 35.25548
#
# Velocity S-wave (km/s) = 3.58094 4.08432 3.84089
# Velocity P-wave (km/s) = 5.41164 6.39411 5.92328
#
# Compressibility (1/GPa) = 0.03433150
#
# Stress axis : x y z
#
# Youngs Moduli (GPa) = 93.36939 74.52800 66.68989
#
# Poissons Ratio (x) = 0.02395 0.05161
# Poissons Ratio (y) = 0.03000 0.08672
# Poissons Ratio (z) = 0.07226 0.09691
#
# Static dielectric constant tensor:
#      x y z
#    x 1.922890 -0.038620 -0.015160 
#    y -0.038620 1.942010 -0.005530 
#    z -0.015160 -0.005530 1.872550 
# 
# From -- ./inp_files/538098.got.cif
#   From: 2010.05.17/outbox.cif.g08.bks.cpg/sg2_270_cif.got.tgz:538098.got - 2010.06.03 11:33:40.
