data_PCOD9018447
_publ_section_title
;
Structure prediction by ZEFSAII (Michael W. Deem and Ramdas Pophale) SiO2 
 PCOD9018447
Probable space group: P -1
;
_chemical_formula_sum "Si O2"
_cell_formula_units_Z 16
_cell_length_a 7.471084
_cell_length_b 11.778674
_cell_length_c 12.597448
_cell_angle_alpha 128.968497
_cell_angle_beta 48.538788
_cell_angle_gamma 106.909384
_cell_volume 630.742893
_symmetry_space_group_name_H-M "P -1"
_symmetry_group_IT_number 2
_symmetry_cell_setting 'triclinic'
loop_
_space_group_symop_operation_xyz
x,y,z
-x,-y,-z
loop_
_atom_site_type_symbol
_atom_site_label
_atom_site_fract_x
_atom_site_fract_y
_atom_site_fract_z
Si Si1 0.730651 0.903106 0.983341
Si Si2 0.277551 0.944874 0.484170
Si Si3 0.729845 0.895987 0.635921
Si Si4 0.336191 0.625616 0.285590
Si Si5 0.213570 0.568192 0.907329
Si Si6 0.063761 0.644467 0.609501
Si Si7 0.932527 0.889598 0.129734
Si Si8 0.828197 0.560863 0.374704
O O1 0.809090 0.754405 0.797860
O O2 0.898929 0.002839 0.919733
O O3 0.807514 0.860109 0.050028
O O4 0.457501 0.994527 0.151762
O O5 0.422224 0.773877 0.299895
O O6 0.999565 0.918644 0.565721
O O7 0.312599 0.057548 0.443067
O O8 0.255907 0.027847 0.656362
O O9 0.701512 0.726122 0.560912
O O10 0.551619 0.482746 0.139377
O O11 0.229565 0.690645 0.481301
O O12 0.116358 0.577187 0.277418
O O13 0.264004 0.477170 0.724540
O O14 0.102944 0.741518 0.026786
O O15 0.000000 0.500000 0.000000
O O16 0.196053 0.580318 0.627068
O O17 0.000000 0.500000 0.500000
#
# Coordination Sequence:
#
# PCOD9018447 Si02
#       8
#     2   2   2   2   2   2   2   2
#     4  11  24  43  68 101 133 175 227 287 336 399
#     4  10  22  45  65  98 137 178 227 271 348 412
#     4  10  24  41  71  98 132 183 225 277 341 404
#     4  10  24  43  70  94 134 182 221 287 344 402
#     4  12  27  43  68 102 134 183 233 275 345 415
#     4  10  21  43  70  98 134 177 225 278 352 404
#     4  11  25  43  63 102 140 169 232 282 338 411
#     4  10  23  45  65  99 137 174 231 278 341 413
#
# _framework density 25.366914999999999
#
# number of rings (size 3 to 8) (size 9 to 14) (size 15 to 20)
#    0.000    1.500    2.500    0.750    5.250    4.000 
#    0.000    0.000    0.000    0.000    0.000    0.000 
#    0.000    0.000    0.000    0.000    0.000    0.000 
#
# Total GULP energy -89468.853835 kJ/mol
# GULP energy per Si atom -5591.803365 kJ/mol
# Density = 2.530918 g / cm^3
# Si number density = 25.366915 Si / 1000 Ang^3
#
#
#
# Elastic Constant Matrix: (Units=GPa)
#
#
# Indices 1 2 3 4 5 6 
#
# 1 62.1573 -1.6350 -9.0275 14.5433 0.2531 -15.5253
# 2 -1.6350 92.8099 29.3939 11.9074 -11.2445 -15.8292
# 3 -9.0275 29.3939 112.4990 17.6038 -8.5365 -8.0874
# 4 14.5433 11.9074 17.6038 53.9075 -7.0913 -1.5453
# 5 0.2531 -11.2445 -8.5365 -7.0913 31.1390 6.3800
# 6 -15.5253 -15.8292 -8.0874 -1.5453 6.3800 34.0761
#
#
#
# Elastic Compliance Matrix: (Units=1/GPa)
#
#
# Indices 1 2 3 4 5 6 
#
# 1 0.021073 0.001987 0.002901 -0.007088 -0.002604 0.011379
# 2 0.001987 0.013121 -0.002321 -0.002195 0.002376 0.005905
# 3 0.002901 -0.002321 0.010512 -0.003539 0.000713 0.002445
# 4 -0.007088 -0.002195 -0.003539 0.022546 0.004432 -0.004896
# 5 -0.002604 0.002376 0.000713 0.004432 0.035501 -0.006359
# 6 0.011379 0.005905 0.002445 -0.004896 -0.006359 0.038822
#
#
# Mechanical properties :
#
#
# Convention : Reuss Voigt Hill
#
# Bulk Modulus (GPa) = 20.06376 33.88102 26.97239
# Shear Modulus (GPa) = 32.66834 40.40683 36.53759
#
# Velocity S-wave (km/s) = 3.59253 3.99544 3.79933
# Velocity P-wave (km/s) = 5.01348 5.88813 5.46832
#
# Compressibility (1/GPa) = 0.04984112
#
# Stress axis : x y z
#
# Youngs Moduli (GPa) = 47.45436 76.21182 95.13145
#
# Poissons Ratio (x) = -0.15143 -0.27601
# Poissons Ratio (y) = -0.09429 0.22077
# Poissons Ratio (z) = -0.13768 0.17686
#
# Static dielectric constant tensor:
#      x y z
#    x -3.274750 1.451000 6.994680 
#    y 1.451000 2.086680 -2.405900 
#    z 6.994680 -2.405900 -6.765260 
# 
# From -- ./inp_files/392784.got.cif
#   From: 2010.05.17/outbox.cif.g08.bks.cpg/sg2_197_cif.got.tgz:392784.got - 2010.06.03 11:33:40.
