data_PCOD9018497
_publ_section_title
;
Structure prediction by ZEFSAII (Michael W. Deem and Ramdas Pophale) SiO2 
 PCOD9018497
Probable space group: P -1
;
_chemical_formula_sum "Si O2"
_cell_formula_units_Z 13
_cell_length_a 9.532950
_cell_length_b 7.506988
_cell_length_c 9.477051
_cell_angle_alpha 62.429822
_cell_angle_beta 120.097492
_cell_angle_gamma 116.626240
_cell_volume 499.071366
_symmetry_space_group_name_H-M "P -1"
_symmetry_group_IT_number 2
_symmetry_cell_setting 'triclinic'
loop_
_space_group_symop_operation_xyz
x,y,z
-x,-y,-z
loop_
_atom_site_type_symbol
_atom_site_label
_atom_site_fract_x
_atom_site_fract_y
_atom_site_fract_z
Si Si1 0.914625 0.124018 0.804768
Si Si2 0.783024 0.376300 0.868798
Si Si3 0.927184 0.786984 0.448539
Si Si4 0.801832 0.319535 0.209050
Si Si5 0.500000 0.500000 0.000000
Si Si6 0.367370 0.257318 0.305499
Si Si7 0.584042 0.842604 0.325199
O O1 0.739526 0.967598 0.720465
O O2 0.871850 0.303247 0.809548
O O3 0.030066 0.178365 0.705852
O O4 0.000000 0.000000 0.000000
O O5 0.761631 0.607915 0.766844
O O6 0.586780 0.232109 0.821999
O O7 0.860057 0.325824 0.073068
O O8 0.046032 0.652300 0.616198
O O9 0.726471 0.731649 0.388720
O O10 0.000000 0.000000 0.500000
O O11 0.695244 0.485942 0.095589
O O12 0.671154 0.089789 0.257825
O O13 0.477004 0.378918 0.187988
O O14 0.455333 0.222928 0.508050
#
# Coordination Sequence:
#
# PCOD9018497 Si02
#       7
#     2   2   2   2   1   2   2
#     4  12  25  45  76 108 143 193 243 292 368 430
#     4  11  26  43  73 110 141 190 243 295 358 431
#     4  10  21  43  74 105 140 193 237 295 363 421
#     4  10  21  43  71 103 148 189 236 295 364 418
#     4  10  24  40  68 106 142 190 232 290 362 422
#     4  11  25  46  71 103 151 182 241 302 358 421
#     4  11  22  44  76 100 143 191 240 296 361 428
#
# _framework density 26.048379000000001
#
# number of rings (size 3 to 8) (size 9 to 14) (size 15 to 20)
#    0.000    1.231    3.077    3.692    2.154    5.538 
#    2.769    0.769    0.000    0.000    0.000    0.000 
#    0.000    0.000    0.000    0.000    0.000    0.000 
#
# Total GULP energy -72665.958941 kJ/mol
# GULP energy per Si atom -5589.689149 kJ/mol
# Density = 2.598909 g / cm^3
# Si number density = 26.048379 Si / 1000 Ang^3
#
#
#
# Elastic Constant Matrix: (Units=GPa)
#
#
# Indices 1 2 3 4 5 6 
#
# 1 132.1340 27.4458 46.8541 11.8165 -12.4615 -24.2976
# 2 27.4458 95.3638 34.0114 5.9365 -12.4942 -8.8332
# 3 46.8541 34.0114 166.2244 7.7770 -23.4612 -9.7527
# 4 11.8165 5.9365 7.7770 33.8562 -1.1630 0.9534
# 5 -12.4615 -12.4942 -23.4612 -1.1630 69.9863 -0.0779
# 6 -24.2976 -8.8332 -9.7527 0.9534 -0.0779 40.9001
#
#
#
# Elastic Compliance Matrix: (Units=1/GPa)
#
#
# Indices 1 2 3 4 5 6 
#
# 1 0.009818 -0.001374 -0.001936 -0.002858 0.000812 0.005142
# 2 -0.001374 0.011865 -0.001724 -0.001199 0.001277 0.001365
# 3 -0.001936 -0.001724 0.007203 -0.000622 0.001752 0.000213
# 4 -0.002858 -0.001199 -0.000622 0.030953 -0.000420 -0.002828
# 5 0.000812 0.001277 0.001752 -0.000420 0.015243 0.001215
# 6 0.005142 0.001365 0.000213 -0.002828 0.001215 0.027918
#
#
# Mechanical properties :
#
#
# Convention : Reuss Voigt Hill
#
# Bulk Modulus (GPa) = 53.14259 67.81609 60.47934
# Shear Modulus (GPa) = 41.89663 47.97589 44.93626
#
# Velocity S-wave (km/s) = 4.01486 4.29628 4.15795
# Velocity P-wave (km/s) = 6.47595 7.12052 6.80587
#
# Compressibility (1/GPa) = 0.01881730
#
# Stress axis : x y z
#
# Youngs Moduli (GPa) = 101.85558 84.28157 138.82447
#
# Poissons Ratio (x) = 0.11584 0.26878
# Poissons Ratio (y) = 0.14000 0.23931
# Poissons Ratio (z) = 0.19721 0.14529
#
# Static dielectric constant tensor:
#      x y z
#    x 1.987650 -0.024630 -0.044570 
#    y -0.024630 2.145250 -0.020680 
#    z -0.044570 -0.020680 1.951130 
# 
# From -- ./inp_files/153157.got.cif
#   From: 2010.05.17/outbox.cif.g08.bks.cpg/sg2_77_cif.got.tgz:153157.got - 2010.06.03 11:33:40.
