data_PCOD9018130
_publ_section_title
;
Structure prediction by ZEFSAII (Michael W. Deem and Ramdas Pophale) SiO2 
 PCOD9018130
Probable space group: P -1
;
_chemical_formula_sum "Si O2"
_cell_formula_units_Z 15
_cell_length_a 18.402319
_cell_length_b 14.390602
_cell_length_c 11.583741
_cell_angle_alpha 26.772245
_cell_angle_beta 128.368212
_cell_angle_gamma 147.460737
_cell_volume 623.360107
_symmetry_space_group_name_H-M "P -1"
_symmetry_group_IT_number 2
_symmetry_cell_setting 'triclinic'
loop_
_space_group_symop_operation_xyz
x,y,z
-x,-y,-z
loop_
_atom_site_type_symbol
_atom_site_label
_atom_site_fract_x
_atom_site_fract_y
_atom_site_fract_z
Si Si1 0.363711 0.753284 0.782309
Si Si2 0.891468 0.928427 0.560371
Si Si3 0.385227 0.486101 0.410878
Si Si4 0.879617 0.155659 0.846641
Si Si5 0.607508 0.228608 0.684543
Si Si6 0.937046 0.581180 0.600187
Si Si7 0.000000 0.000000 0.000000
Si Si8 0.423225 0.198415 0.171628
O O1 0.436348 0.669586 0.901458
O O2 0.512336 0.119755 0.595886
O O3 0.329727 0.845985 0.540637
O O4 0.211178 0.422157 0.075990
O O5 0.768891 0.833353 0.465924
O O6 0.000000 0.000000 0.500000
O O7 0.988691 0.244317 0.395685
O O8 0.500000 0.500000 0.500000
O O9 0.350098 0.505531 0.483599
O O10 0.476583 0.844730 0.043885
O O11 0.926019 0.325173 0.830727
O O12 0.000000 0.500000 0.500000
O O13 0.702893 0.919200 0.904333
O O14 0.908407 0.975641 0.036220
O O15 0.757998 0.352892 0.673891
O O16 0.035541 0.888605 0.258998
O O17 0.500000 0.500000 0.000000
#
# Coordination Sequence:
#
# PCOD9018130 Si02
#       8
#     2   2   2   2   2   2   1   2
#     4  10  25  43  70 103 144 186 237 304 360 430
#     4  11  24  46  73 106 148 195 242 297 361 429
#     4  10  23  45  69  97 134 182 237 292 349 418
#     4  10  24  43  65 101 142 180 236 289 366 436
#     4  10  21  43  68  95 133 178 233 285 354 417
#     4  11  23  43  72  98 141 187 235 291 354 434
#     4  10  26  42  68  96 140 186 224 288 368 416
#     4  11  25  42  70 105 141 183 243 300 366 430
#
# _framework density 24.063136
#
# number of rings (size 3 to 8) (size 9 to 14) (size 15 to 20)
#    0.000    1.600    2.667    0.000    9.333    3.200 
#    0.000    2.000    0.000    0.000    0.000    0.000 
#    0.000    0.000    0.000    0.000    0.000    0.000 
#
# Total GULP energy -83719.387154 kJ/mol
# GULP energy per Si atom -5581.292477 kJ/mol
# Density = 2.400837 g / cm^3
# Si number density = 24.063136 Si / 1000 Ang^3
#
#
#
# Elastic Constant Matrix: (Units=GPa)
#
#
# Indices 1 2 3 4 5 6 
#
# 1 213.2581 70.0528 37.9284 -1.7558 14.6450 -20.0856
# 2 70.0528 128.6438 18.7680 -3.6193 16.9236 -18.8990
# 3 37.9284 18.7680 57.2990 -0.0873 -7.2378 2.6469
# 4 -1.7558 -3.6193 -0.0873 29.2069 2.6032 5.7645
# 5 14.6450 16.9236 -7.2378 2.6032 40.6291 -0.2452
# 6 -20.0856 -18.8990 2.6469 5.7645 -0.2452 44.7060
#
#
#
# Elastic Compliance Matrix: (Units=1/GPa)
#
#
# Indices 1 2 3 4 5 6 
#
# 1 0.006506 -0.002402 -0.003873 -0.000163 -0.002011 0.002147
# 2 -0.002402 0.010490 -0.002503 0.000837 -0.003983 0.003374
# 3 -0.003873 -0.002503 0.021820 -0.000247 0.006317 -0.004024
# 4 -0.000163 0.000837 -0.000247 0.035412 -0.002629 -0.004285
# 5 -0.002011 -0.003983 0.006317 -0.002629 0.028276 -0.002467
# 6 0.002147 0.003374 -0.004024 -0.004285 -0.002467 0.025536
#
#
# Mechanical properties :
#
#
# Convention : Reuss Voigt Hill
#
# Bulk Modulus (GPa) = 47.04169 72.52215 59.78192
# Shear Modulus (GPa) = 32.74757 41.07185 36.90971
#
# Velocity S-wave (km/s) = 3.69304 4.13587 3.92071
# Velocity P-wave (km/s) = 6.14626 7.28086 6.73748
#
# Compressibility (1/GPa) = 0.02125774
#
# Stress axis : x y z
#
# Youngs Moduli (GPa) = 153.70081 95.32906 45.83054
#
# Poissons Ratio (x) = 0.22903 0.17751
# Poissons Ratio (y) = 0.36926 0.11473
# Poissons Ratio (z) = 0.59531 0.23864
#
# Static dielectric constant tensor:
#      x y z
#    x 3.950660 -0.431280 0.067430 
#    y -0.431280 1.997200 -0.045510 
#    z 0.067430 -0.045510 1.996230 
# 
# From -- ./inp_files/465745.got.cif
#   From: 2010.05.17/outbox.cif.g08.bks.cpg/sg2_233_cif.got.tgz:465745.got - 2010.06.03 11:33:40.
