data_PCOD9018290
_publ_section_title
;
Structure prediction by ZEFSAII (Michael W. Deem and Ramdas Pophale) SiO2 
 PCOD9018290
Probable space group: P -1
;
_chemical_formula_sum "Si O2"
_cell_formula_units_Z 14
_cell_length_a 10.441859
_cell_length_b 6.380936
_cell_length_c 11.450594
_cell_angle_alpha 96.429196
_cell_angle_beta 128.929289
_cell_angle_gamma 94.310811
_cell_volume 579.229825
_symmetry_space_group_name_H-M "P -1"
_symmetry_group_IT_number 2
_symmetry_cell_setting 'triclinic'
loop_
_space_group_symop_operation_xyz
x,y,z
-x,-y,-z
loop_
_atom_site_type_symbol
_atom_site_label
_atom_site_fract_x
_atom_site_fract_y
_atom_site_fract_z
Si Si1 0.851539 0.802662 0.872459
Si Si2 0.310404 0.871603 0.887767
Si Si3 0.626501 0.108872 0.677403
Si Si4 0.130285 0.558410 0.317467
Si Si5 0.785154 0.714575 0.184404
Si Si6 0.677421 0.433747 0.916242
Si Si7 0.799200 0.479313 0.389574
O O1 0.885270 0.670497 0.768865
O O2 0.810758 0.610551 0.932393
O O3 0.692000 0.916859 0.769834
O O4 0.000000 0.000000 0.000000
O O5 0.280051 0.719774 0.748544
O O6 0.188047 0.039234 0.815381
O O7 0.276628 0.747695 0.982587
O O8 0.500000 0.000000 0.000000
O O9 0.778809 0.255252 0.703796
O O10 0.574120 0.284394 0.747869
O O11 0.500000 0.000000 0.500000
O O12 0.236997 0.549354 0.496633
O O13 0.951101 0.617860 0.248894
O O14 0.749497 0.674248 0.298715
O O15 0.638517 0.593394 0.006831
O O16 0.000000 0.500000 0.500000
#
# Coordination Sequence:
#
# PCOD9018290 Si02
#       7
#     2   2   2   2   2   2   2
#     4  11  23  44  72  98 134 181 227 282 342 407
#     4  11  25  44  68  99 135 184 230 279 346 407
#     4  11  25  42  64 103 138 179 221 278 350 405
#     4  10  23  41  68 101 135 175 226 277 339 411
#     4  10  21  43  69  95 134 175 228 280 332 400
#     4  10  23  42  65  98 133 173 229 274 330 414
#     4   9  22  41  64  99 132 169 229 280 338 401
#
# _framework density 24.170026
#
# number of rings (size 3 to 8) (size 9 to 14) (size 15 to 20)
#    0.000    1.714    0.000    2.571    2.000   16.000 
#    5.143    2.143    0.000    0.000    0.000    0.000 
#    0.000    0.000    0.000    0.000    0.000    0.000 
#
# Total GULP energy -78143.298166 kJ/mol
# GULP energy per Si atom -5581.664155 kJ/mol
# Density = 2.411501 g / cm^3
# Si number density = 24.170026 Si / 1000 Ang^3
#
#
#
# Elastic Constant Matrix: (Units=GPa)
#
#
# Indices 1 2 3 4 5 6 
#
# 1 82.7105 33.0092 39.9259 1.7347 -9.9285 10.3982
# 2 33.0092 160.8821 66.1144 -1.8268 -15.5383 18.0772
# 3 39.9259 66.1144 175.7478 14.8914 -21.3534 12.3428
# 4 1.7347 -1.8268 14.8914 35.3785 13.3362 1.1195
# 5 -9.9285 -15.5383 -21.3534 13.3362 44.2580 -4.8833
# 6 10.3982 18.0772 12.3428 1.1195 -4.8833 23.7691
#
#
#
# Elastic Compliance Matrix: (Units=1/GPa)
#
#
# Indices 1 2 3 4 5 6 
#
# 1 0.014407 -0.001478 -0.002289 -0.000173 0.001250 -0.003725
# 2 -0.001478 0.008066 -0.002488 0.001526 0.000378 -0.004190
# 3 -0.002289 -0.002488 0.008057 -0.004887 0.003945 -0.000250
# 4 -0.000173 0.001526 -0.004887 0.035333 -0.012821 -0.002846
# 5 0.001250 0.000378 0.003945 -0.012821 0.029185 0.003717
# 6 -0.003725 -0.004190 -0.000250 -0.002846 0.003717 0.047915
#
#
# Mechanical properties :
#
#
# Convention : Reuss Voigt Hill
#
# Bulk Modulus (GPa) = 55.49226 77.49327 66.49277
# Shear Modulus (GPa) = 30.96376 39.36719 35.16547
#
# Velocity S-wave (km/s) = 3.58310 4.04017 3.81848
# Velocity P-wave (km/s) = 6.33460 7.34134 6.85647
#
# Compressibility (1/GPa) = 0.01802053
#
# Stress axis : x y z
#
# Youngs Moduli (GPa) = 69.41040 123.97773 124.11969
#
# Poissons Ratio (x) = 0.18325 0.28409
# Poissons Ratio (y) = 0.10259 0.30877
# Poissons Ratio (z) = 0.15887 0.30842
#
# Static dielectric constant tensor:
#      x y z
#    x 1.995880 -0.007190 0.015160 
#    y -0.007190 1.986120 -0.004860 
#    z 0.015160 -0.004860 1.966230 
# 
# From -- ./inp_files/370316.got.cif
#   From: 2010.05.17/outbox.cif.g08.bks.cpg/sg2_186_cif.got.tgz:370316.got - 2010.06.03 11:33:40.
