data_PCOD9018907
_publ_section_title
;
Structure prediction by ZEFSAII (Michael W. Deem and Ramdas Pophale) SiO2 
 PCOD9018907
Probable space group: P -1
;
_chemical_formula_sum "Si O2"
_cell_formula_units_Z 14
_cell_length_a 11.544510
_cell_length_b 10.795307
_cell_length_c 9.467762
_cell_angle_alpha 135.248960
_cell_angle_beta 115.629972
_cell_angle_gamma 39.251702
_cell_volume 507.034919
_symmetry_space_group_name_H-M "P -1"
_symmetry_group_IT_number 2
_symmetry_cell_setting 'triclinic'
loop_
_space_group_symop_operation_xyz
x,y,z
-x,-y,-z
loop_
_atom_site_type_symbol
_atom_site_label
_atom_site_fract_x
_atom_site_fract_y
_atom_site_fract_z
Si Si1 0.713365 0.740432 0.617728
Si Si2 0.445588 0.490741 0.194163
Si Si3 0.197856 0.834508 0.065880
Si Si4 0.922693 0.236311 0.458054
Si Si5 0.795912 0.011309 0.340571
Si Si6 0.686798 0.744093 0.078711
Si Si7 0.936413 0.407416 0.197447
O O1 0.747164 0.525671 0.546565
O O2 0.783541 0.641114 0.415531
O O3 0.862836 0.714091 0.755566
O O4 0.502134 0.023179 0.742080
O O5 0.333178 0.627011 0.097805
O O6 0.370874 0.721398 0.442411
O O7 0.661919 0.273277 0.078559
O O8 0.375460 0.374033 0.125757
O O9 0.067158 0.796370 0.941266
O O10 0.080670 0.096317 0.305006
O O11 0.867161 0.089705 0.335551
O O12 0.031207 0.188505 0.618122
O O13 0.732793 0.885796 0.146965
O O14 0.860836 0.525424 0.097352
#
# Coordination Sequence:
#
# PCOD9018907 Si02
#       7
#     2   2   2   2   2   2   2
#     4  11  23  37  62  98 127 166 216 261 320 391
#     4   9  20  37  65  96 123 167 223 254 319 387
#     4   9  19  39  61  93 129 165 209 273 315 373
#     4  10  22  41  64  94 130 167 219 257 320 389
#     4  10  21  44  66  89 133 177 205 266 320 380
#     4  11  22  41  66  91 128 174 210 264 322 380
#     4  10  22  39  61  94 131 164 211 267 326 372
#
# _framework density 27.611509000000002
#
# number of rings (size 3 to 8) (size 9 to 14) (size 15 to 20)
#    0.000    2.000    1.429    1.286    4.000    3.429 
#    5.143    3.571    0.000    0.000    0.000    0.000 
#    0.000    0.000    0.000    0.000    0.000    0.000 
#
# Total GULP energy -78491.465514 kJ/mol
# GULP energy per Si atom -5606.533251 kJ/mol
# Density = 2.754866 g / cm^3
# Si number density = 27.611509 Si / 1000 Ang^3
#
#
#
# Elastic Constant Matrix: (Units=GPa)
#
#
# Indices 1 2 3 4 5 6 
#
# 1 143.3520 22.9523 58.1008 1.2624 13.3050 -6.7339
# 2 22.9523 77.2613 14.7889 -2.8277 0.6605 4.9291
# 3 58.1008 14.7889 87.9846 11.0001 -0.0740 7.9904
# 4 1.2624 -2.8277 11.0001 37.4163 7.1639 -2.6937
# 5 13.3050 0.6605 -0.0740 7.1639 68.4951 13.2631
# 6 -6.7339 4.9291 7.9904 -2.6937 13.2631 38.6491
#
#
#
# Elastic Compliance Matrix: (Units=1/GPa)
#
#
# Indices 1 2 3 4 5 6 
#
# 1 0.010948 -0.001972 -0.007711 0.002766 -0.003395 0.005111
# 2 -0.001972 0.013886 -0.000995 0.001166 0.000514 -0.002004
# 3 -0.007711 -0.000995 0.018003 -0.006240 0.003449 -0.006557
# 4 0.002766 0.001166 -0.006240 0.029840 -0.004706 0.005318
# 5 -0.003395 0.000514 0.003449 -0.004706 0.017223 -0.007609
# 6 0.005111 -0.002004 -0.006557 0.005318 -0.007609 0.031357
#
#
# Mechanical properties :
#
#
# Convention : Reuss Voigt Hill
#
# Bulk Modulus (GPa) = 46.55312 55.58688 51.07000
# Shear Modulus (GPa) = 33.38411 43.09581 38.23996
#
# Velocity S-wave (km/s) = 3.48093 3.95497 3.72550
# Velocity P-wave (km/s) = 5.74913 6.40556 6.08620
#
# Compressibility (1/GPa) = 0.02148084
#
# Stress axis : x y z
#
# Youngs Moduli (GPa) = 91.34503 72.01749 55.54592
#
# Poissons Ratio (x) = 0.14203 0.42829
# Poissons Ratio (y) = 0.18014 0.05527
# Poissons Ratio (z) = 0.70432 0.07166
#
# Static dielectric constant tensor:
#      x y z
#    x 2.139160 0.005590 0.034480 
#    y 0.005590 2.145250 0.012110 
#    z 0.034480 0.012110 2.141230 
# 
# From -- ./inp_files/256057.got.cif
#   From: 2010.05.17/outbox.cif.g08.bks.cpg/sg2_129_cif.got.tgz:256057.got - 2010.06.03 11:33:40.
