data_PCOD9018985
_publ_section_title
;
Structure prediction by ZEFSAII (Michael W. Deem and Ramdas Pophale) SiO2 
 PCOD9018985
Probable space group: P -1
;
_chemical_formula_sum "Si O2"
_cell_formula_units_Z 14
_cell_length_a 12.432740
_cell_length_b 9.645047
_cell_length_c 9.400729
_cell_angle_alpha 72.271368
_cell_angle_beta 46.077401
_cell_angle_gamma 61.667340
_cell_volume 714.146610
_symmetry_space_group_name_H-M "P -1"
_symmetry_group_IT_number 2
_symmetry_cell_setting 'triclinic'
loop_
_space_group_symop_operation_xyz
x,y,z
-x,-y,-z
loop_
_atom_site_type_symbol
_atom_site_label
_atom_site_fract_x
_atom_site_fract_y
_atom_site_fract_z
Si Si1 0.948624 0.577985 0.675451
Si Si2 0.311385 0.496204 0.882871
Si Si3 0.226068 0.391668 0.694831
Si Si4 0.858140 0.943665 0.688601
Si Si5 0.599104 0.216184 0.334291
Si Si6 0.273617 0.085555 0.887940
Si Si7 0.429916 0.827997 0.304461
O O1 0.896898 0.765325 0.659328
O O2 0.000000 0.500000 0.500000
O O3 0.097951 0.503565 0.669755
O O4 0.803245 0.537177 0.887336
O O5 0.245588 0.481998 0.789737
O O6 0.327940 0.661752 0.829328
O O7 0.485846 0.351245 0.771658
O O8 0.404073 0.306195 0.489697
O O9 0.179941 0.247520 0.838294
O O10 0.696519 0.059813 0.723483
O O11 0.830850 0.945962 0.882153
O O12 0.000000 0.000000 0.500000
O O13 0.645478 0.175008 0.470115
O O14 0.654530 0.059432 0.239546
O O15 0.422225 0.115689 0.818410
#
# Coordination Sequence:
#
# PCOD9018985 Si02
#       7
#     2   2   2   2   2   2   2
#     4  12  28  42  62  93 131 168 205 256 319 370
#     4  10  22  43  68  92 121 172 207 258 307 368
#     4  10  21  44  67  89 129 163 209 255 315 371
#     4  12  28  42  62  93 131 168 205 256 319 370
#     4  10  22  38  72  98 116 160 222 260 296 364
#     4  10  22  43  68  92 121 172 207 258 307 368
#     4  10  21  44  67  89 129 163 209 255 315 371
#
# _framework density 19.603819000000001
#
# number of rings (size 3 to 8) (size 9 to 14) (size 15 to 20)
#    0.000    1.714    2.857    4.286   10.000    0.000 
#    0.000    2.857    0.000    0.000    0.000    0.000 
#    0.000    0.000    0.000    0.000    0.000    0.000 
#
# Total GULP energy -78269.749261 kJ/mol
# GULP energy per Si atom -5590.696376 kJ/mol
# Density = 1.955920 g / cm^3
# Si number density = 19.603819 Si / 1000 Ang^3
#
#
#
# Elastic Constant Matrix: (Units=GPa)
#
#
# Indices 1 2 3 4 5 6 
#
# 1 33.8227 22.2055 -0.9377 -6.4669 7.9837 -23.8077
# 2 22.2055 60.2032 -7.7047 -13.2831 5.1469 -9.4839
# 3 -0.9377 -7.7047 76.7948 -11.5017 -0.2318 7.1275
# 4 -6.4669 -13.2831 -11.5017 36.1623 11.0496 0.7069
# 5 7.9837 5.1469 -0.2318 11.0496 15.0978 -8.5525
# 6 -23.8077 -9.4839 7.1275 0.7069 -8.5525 30.9524
#
#
#
# Elastic Compliance Matrix: (Units=1/GPa)
#
#
# Indices 1 2 3 4 5 6 
#
# 1 0.091724 -0.021523 -0.005279 0.009849 -0.013829 0.061126
# 2 -0.021523 0.027187 0.005638 0.012820 -0.015108 -0.013990
# 3 -0.005279 0.005638 0.015825 0.009814 -0.011361 -0.009341
# 4 0.009849 0.012820 0.009814 0.053257 -0.051996 -0.006340
# 5 -0.013829 -0.015108 -0.011361 -0.051996 0.130513 0.024600
# 6 0.061126 -0.013990 -0.009341 -0.006340 0.024600 0.084130
#
#
# Mechanical properties :
#
#
# Convention : Reuss Voigt Hill
#
# Bulk Modulus (GPa) = 10.82163 21.99412 16.40788
# Shear Modulus (GPa) = 10.50934 26.92632 18.71783
#
# Velocity S-wave (km/s) = 2.31787 3.71013 3.09334
# Velocity P-wave (km/s) = 3.56307 5.44032 4.59851
#
# Compressibility (1/GPa) = 0.09240753
#
# Stress axis : x y z
#
# Youngs Moduli (GPa) = 10.90233 36.78251 63.18934
#
# Poissons Ratio (x) = 0.79166 0.33360
# Poissons Ratio (y) = 0.23465 -0.35625
# Poissons Ratio (z) = 0.05756 -0.20737
#
# Static dielectric constant tensor:
#      x y z
#    x 1.667770 -0.005840 -0.017040 
#    y -0.005840 1.665670 -0.010150 
#    z -0.017040 -0.010150 1.698170 
# 
# From -- ./inp_files/181624.got.cif
#   From: 2010.05.17/outbox.cif.g08.bks.cpg/sg2_91_cif.got.tgz:181624.got - 2010.06.03 11:33:40.
