data_PCOD9018002
_publ_section_title
;
Structure prediction by ZEFSAII (Michael W. Deem and Ramdas Pophale) SiO2 
 PCOD9018002
Probable space group: P -1
;
_chemical_formula_sum "Si O2"
_cell_formula_units_Z 12
_cell_length_a 11.754402
_cell_length_b 12.074728
_cell_length_c 9.705245
_cell_angle_alpha 144.351626
_cell_angle_beta 37.606149
_cell_angle_gamma 135.055033
_cell_volume 481.894899
_symmetry_space_group_name_H-M "P -1"
_symmetry_group_IT_number 2
_symmetry_cell_setting 'triclinic'
loop_
_space_group_symop_operation_xyz
x,y,z
-x,-y,-z
loop_
_atom_site_type_symbol
_atom_site_label
_atom_site_fract_x
_atom_site_fract_y
_atom_site_fract_z
Si Si1 0.205107 0.990853 0.359458
Si Si2 0.776561 0.424244 0.966742
Si Si3 0.159976 0.594138 0.708229
Si Si4 0.383546 0.287323 0.266453
Si Si5 0.470228 0.934277 0.678072
Si Si6 0.333535 0.626060 0.289788
O O1 0.346034 0.133709 0.268772
O O2 0.314490 0.059333 0.469574
O O3 0.198482 0.761283 0.154902
O O4 0.000000 0.000000 0.500000
O O5 0.755761 0.371905 0.771966
O O6 0.952614 0.599168 0.971249
O O7 0.572236 0.452118 0.244207
O O8 0.216644 0.405860 0.532434
O O9 0.315748 0.786854 0.769367
O O10 0.180316 0.554718 0.484958
O O11 0.412599 0.143354 0.966570
O O12 0.428677 0.832429 0.468716
O O13 0.500000 0.500000 0.000000
#
# Coordination Sequence:
#
# PCOD9018002 Si02
#       6
#     2   2   2   2   2   2
#     4  11  23  43  65  97 134 172 220 269 320 390
#     4  11  20  41  69  89 134 172 208 274 322 378
#     4  10  22  42  64  98 129 169 216 270 320 389
#     4  11  22  44  65  93 135 173 212 277 315 383
#     4   9  23  41  65  99 131 168 224 260 332 387
#     4  10  21  43  67  98 134 165 217 275 324 386
#
# _framework density 24.901693999999999
#
# number of rings (size 3 to 8) (size 9 to 14) (size 15 to 20)
#    1.000    0.667    3.333    2.500    0.000    3.333 
#    6.000    2.500    0.000    0.000    0.000    0.000 
#    0.000    0.000    0.000    0.000    0.000    0.000 
#
# Total GULP energy -66896.913018 kJ/mol
# GULP energy per Si atom -5574.742751 kJ/mol
# Density = 2.484502 g / cm^3
# Si number density = 24.901694 Si / 1000 Ang^3
#
#
#
# Elastic Constant Matrix: (Units=GPa)
#
#
# Indices 1 2 3 4 5 6 
#
# 1 94.3477 19.4393 0.0227 1.8272 18.9590 17.1013
# 2 19.4393 168.6009 32.4177 -22.0669 -5.1370 7.9655
# 3 0.0227 32.4177 56.7600 3.1373 3.1392 16.2789
# 4 1.8272 -22.0669 3.1373 51.0658 -2.0627 -4.4225
# 5 18.9590 -5.1370 3.1392 -2.0627 30.0289 -5.1648
# 6 17.1013 7.9655 16.2789 -4.4225 -5.1648 50.4300
#
#
#
# Elastic Compliance Matrix: (Units=1/GPa)
#
#
# Indices 1 2 3 4 5 6 
#
# 1 0.015162 -0.003127 0.004865 -0.003357 -0.012181 -0.007760
# 2 -0.003127 0.007994 -0.005787 0.004330 0.004679 0.002525
# 3 0.004865 -0.005787 0.024582 -0.005407 -0.008729 -0.010039
# 4 -0.003357 0.004330 -0.005407 0.022553 0.005795 0.004771
# 5 -0.012181 0.004679 -0.008729 0.005795 0.045052 0.011332
# 6 -0.007760 0.002525 -0.010039 0.004771 0.011332 0.026882
#
#
# Mechanical properties :
#
#
# Convention : Reuss Voigt Hill
#
# Bulk Modulus (GPa) = 25.22744 47.05199 36.13972
# Shear Modulus (GPa) = 30.57430 44.16023 37.36726
#
# Velocity S-wave (km/s) = 3.50780 4.21572 3.87795
# Velocity P-wave (km/s) = 5.15354 6.52936 5.88182
#
# Compressibility (1/GPa) = 0.03963937
#
# Stress axis : x y z
#
# Youngs Moduli (GPa) = 65.95616 125.08864 40.68025
#
# Poissons Ratio (x) = 0.39120 -0.19790
# Poissons Ratio (y) = 0.20627 0.23541
# Poissons Ratio (z) = -0.32087 0.72386
#
# Static dielectric constant tensor:
#      x y z
#    x 2.046740 0.022650 0.070550 
#    y 0.022650 1.994130 -0.031220 
#    z 0.070550 -0.031220 1.977040 
# 
# From -- ./inp_files/211799.got.cif
#   From: 2010.05.17/outbox.cif.g08.bks.cpg/sg2_106_cif.got.tgz:211799.got - 2010.06.03 11:33:40.
