data_PCOD9018752
_publ_section_title
;
Structure prediction by ZEFSAII (Michael W. Deem and Ramdas Pophale) SiO2 
 PCOD9018752
Probable space group: P -1
;
_chemical_formula_sum "Si O2"
_cell_formula_units_Z 14
_cell_length_a 11.704708
_cell_length_b 13.301405
_cell_length_c 9.049381
_cell_angle_alpha 47.930827
_cell_angle_beta 143.230589
_cell_angle_gamma 129.544839
_cell_volume 610.009074
_symmetry_space_group_name_H-M "P -1"
_symmetry_group_IT_number 2
_symmetry_cell_setting 'triclinic'
loop_
_space_group_symop_operation_xyz
x,y,z
-x,-y,-z
loop_
_atom_site_type_symbol
_atom_site_label
_atom_site_fract_x
_atom_site_fract_y
_atom_site_fract_z
Si Si1 0.719339 0.417036 0.186087
Si Si2 0.944510 0.590411 0.668900
Si Si3 0.705476 0.997067 0.290533
Si Si4 0.604685 0.920867 0.569788
Si Si5 0.725857 0.698859 0.091444
Si Si6 0.959488 0.784891 0.747219
Si Si7 0.784875 0.297000 0.673881
O O1 0.492635 0.339754 0.025383
O O2 0.813065 0.339645 0.489825
O O3 0.842568 0.418079 0.164468
O O4 0.730953 0.572174 0.108422
O O5 0.801077 0.442308 0.632059
O O6 0.930008 0.641895 0.768044
O O7 0.872467 0.697924 0.378337
O O8 0.697439 0.019177 0.435935
O O9 0.771436 0.850848 0.488340
O O10 0.871361 0.110917 0.271120
O O11 0.500000 0.000000 0.000000
O O12 0.744076 0.840606 0.881205
O O13 0.428263 0.802668 0.434033
O O14 0.500000 0.000000 0.500000
O O15 0.050568 0.770216 0.016339
#
# Coordination Sequence:
#
# PCOD9018752 Si02
#       7
#     2   2   2   2   2   2   2
#     4   9  20  38  67  92 132 167 205 276 322 374
#     4  11  23  39  70  98 132 168 211 267 329 395
#     4  11  26  48  64  90 137 177 218 270 311 384
#     4  11  25  42  73  93 126 176 223 271 319 381
#     4   9  20  39  62  97 128 161 218 266 323 371
#     4  11  26  43  68  96 132 179 214 257 332 391
#     4  10  21  44  62 100 130 161 217 269 321 384
#
# _framework density 22.950478
#
# number of rings (size 3 to 8) (size 9 to 14) (size 15 to 20)
#    0.000    1.714    1.429    3.000   10.000    0.000 
#    0.000    2.143    0.000    0.000    0.000    0.000 
#    0.000    0.000    0.000    0.000    0.000    0.000 
#
# Total GULP energy -78335.353743 kJ/mol
# GULP energy per Si atom -5595.382410 kJ/mol
# Density = 2.289824 g / cm^3
# Si number density = 22.950478 Si / 1000 Ang^3
#
#
#
# Elastic Constant Matrix: (Units=GPa)
#
#
# Indices 1 2 3 4 5 6 
#
# 1 115.9826 20.8769 39.7087 -5.3085 4.7580 -11.7113
# 2 20.8769 43.7036 4.0405 -1.9049 7.8528 0.1137
# 3 39.7087 4.0405 137.2668 -13.0668 -1.5693 0.1199
# 4 -5.3085 -1.9049 -13.0668 25.8160 7.9552 0.3345
# 5 4.7580 7.8528 -1.5693 7.9552 34.2886 -3.5065
# 6 -11.7113 0.1137 0.1199 0.3345 -3.5065 26.0180
#
#
#
# Elastic Compliance Matrix: (Units=1/GPa)
#
#
# Indices 1 2 3 4 5 6 
#
# 1 0.011085 -0.004995 -0.003033 0.000342 -0.000100 0.005007
# 2 -0.004995 0.026502 0.000920 0.003429 -0.006466 -0.003284
# 3 -0.003033 0.000920 0.008504 0.003911 -0.000464 -0.001521
# 4 0.000342 0.003429 0.003911 0.044509 -0.011181 -0.001958
# 5 -0.000100 -0.006466 -0.000464 -0.011181 0.033709 0.004672
# 6 0.005007 -0.003284 -0.001521 -0.001958 0.004672 0.041365
#
#
# Mechanical properties :
#
#
# Convention : Reuss Voigt Hill
#
# Bulk Modulus (GPa) = 31.37155 47.35614 39.36385
# Shear Modulus (GPa) = 26.24481 32.71297 29.47889
#
# Velocity S-wave (km/s) = 3.38530 3.77951 3.58782
# Velocity P-wave (km/s) = 5.38324 6.30278 5.86107
#
# Compressibility (1/GPa) = 0.03187602
#
# Stress axis : x y z
#
# Youngs Moduli (GPa) = 90.21467 37.73285 117.59755
#
# Poissons Ratio (x) = 0.18847 0.35662
# Poissons Ratio (y) = 0.45061 -0.10821
# Poissons Ratio (z) = 0.27358 -0.03472
#
# Static dielectric constant tensor:
#      x y z
#    x 1.856800 0.012430 -0.010250 
#    y 0.012430 1.862780 -0.032670 
#    z -0.010250 -0.032670 1.886780 
# 
# From -- ./inp_files/261858.got.cif
#   From: 2010.05.17/outbox.cif.g08.bks.cpg/sg2_131_cif.got.tgz:261858.got - 2010.06.03 11:33:40.
