data_PCOD9018074
_publ_section_title
;
Structure prediction by ZEFSAII (Michael W. Deem and Ramdas Pophale) SiO2 
 PCOD9018074
Probable space group: P -1
;
_chemical_formula_sum "Si O2"
_cell_formula_units_Z 14
_cell_length_a 18.272742
_cell_length_b 18.064883
_cell_length_c 7.619451
_cell_angle_alpha 144.100526
_cell_angle_beta 37.530813
_cell_angle_gamma 157.375220
_cell_volume 555.777236
_symmetry_space_group_name_H-M "P -1"
_symmetry_group_IT_number 2
_symmetry_cell_setting 'triclinic'
loop_
_space_group_symop_operation_xyz
x,y,z
-x,-y,-z
loop_
_atom_site_type_symbol
_atom_site_label
_atom_site_fract_x
_atom_site_fract_y
_atom_site_fract_z
Si Si1 0.984804 0.553493 0.322817
Si Si2 0.342656 0.770162 0.433294
Si Si3 0.624601 0.012201 0.661391
Si Si4 0.727259 0.569814 0.729949
Si Si5 0.223202 0.173411 0.367926
Si Si6 0.393151 0.583408 0.728397
Si Si7 0.708889 0.820830 0.133955
O O1 0.864265 0.373456 0.350918
O O2 0.871276 0.592885 0.593857
O O3 0.207797 0.775969 0.355484
O O4 0.000000 0.500000 0.000000
O O5 0.500000 0.000000 0.500000
O O6 0.467288 0.827287 0.473292
O O7 0.318273 0.639421 0.088960
O O8 0.714617 0.962215 0.486766
O O9 0.500000 0.000000 0.000000
O O10 0.676011 0.470201 0.443817
O O11 0.515635 0.408569 0.908211
O O12 0.803015 0.775608 0.957977
O O13 0.303769 0.381155 0.585972
O O14 0.374174 0.232958 0.329083
O O15 0.221504 0.102229 0.047653
O O16 0.000000 0.000000 0.500000
#
# Coordination Sequence:
#
# PCOD9018074 Si02
#       7
#     2   2   2   2   2   2   2
#     4  12  26  48  75 101 144 196 251 297 363 446
#     4  12  28  47  71 104 142 193 243 304 370 424
#     4  12  25  48  76 103 147 193 242 306 364 433
#     4  10  22  45  73 103 141 189 235 296 372 426
#     4  10  21  43  68 105 143 187 230 290 366 428
#     4  10  23  43  70 101 148 178 233 305 354 431
#     4  10  21  44  69 104 142 180 239 290 357 435
#
# _framework density 25.189945999999999
#
# number of rings (size 3 to 8) (size 9 to 14) (size 15 to 20)
#    0.000    1.143    4.286    0.000    6.000    1.143 
#   10.286    0.000    0.000    0.000    0.000    0.000 
#    0.000    0.000    0.000    0.000    0.000    0.000 
#
# Total GULP energy -78269.758255 kJ/mol
# GULP energy per Si atom -5590.697018 kJ/mol
# Density = 2.513261 g / cm^3
# Si number density = 25.189946 Si / 1000 Ang^3
#
#
#
# Elastic Constant Matrix: (Units=GPa)
#
#
# Indices 1 2 3 4 5 6 
#
# 1 67.0786 22.9155 22.4630 -4.4193 -6.6289 -0.4954
# 2 22.9155 175.9820 37.5555 -29.7765 9.2549 -4.5273
# 3 22.4630 37.5555 150.4751 -8.8422 -1.3786 -18.1175
# 4 -4.4193 -29.7765 -8.8422 44.4191 -5.6111 1.4328
# 5 -6.6289 9.2549 -1.3786 -5.6111 35.7699 -3.2532
# 6 -0.4954 -4.5273 -18.1175 1.4328 -3.2532 33.7633
#
#
#
# Elastic Compliance Matrix: (Units=1/GPa)
#
#
# Indices 1 2 3 4 5 6 
#
# 1 0.016594 -0.001847 -0.002052 0.000469 0.003476 -0.000790
# 2 -0.001847 0.006951 -0.001247 0.004033 -0.001564 -0.000086
# 3 -0.002052 -0.001247 0.007781 0.000465 0.000681 0.004024
# 4 0.000469 0.004033 0.000465 0.025747 0.003101 0.000003
# 5 0.003476 -0.001564 0.000681 0.003101 0.029786 0.002945
# 6 -0.000790 -0.000086 0.004024 0.000003 0.002945 0.032038
#
#
# Mechanical properties :
#
#
# Convention : Reuss Voigt Hill
#
# Bulk Modulus (GPa) = 47.53807 62.15596 54.84701
# Shear Modulus (GPa) = 36.71038 43.49726 40.10382
#
# Velocity S-wave (km/s) = 3.82166 4.15995 3.99439
# Velocity P-wave (km/s) = 6.19566 6.91390 6.56461
#
# Compressibility (1/GPa) = 0.02103577
#
# Stress axis : x y z
#
# Youngs Moduli (GPa) = 60.26098 143.85540 128.51415
#
# Poissons Ratio (x) = 0.26565 0.26372
# Poissons Ratio (y) = 0.11128 0.16025
# Poissons Ratio (z) = 0.12366 0.17938
#
# Static dielectric constant tensor:
#      x y z
#    x 2.111400 -0.005460 -0.025060 
#    y -0.005460 2.056310 -0.055840 
#    z -0.025060 -0.055840 2.056950 
# 
# From -- ./inp_files/349745.got.cif
#   From: 2010.05.17/outbox.cif.g08.bks.cpg/sg2_175_cif.got.tgz:349745.got - 2010.06.03 11:33:40.
