data_PCOD9018780
_publ_section_title
;
Structure prediction by ZEFSAII (Michael W. Deem and Ramdas Pophale) SiO2 
 PCOD9018780
Probable space group: P -1
;
_chemical_formula_sum "Si O2"
_cell_formula_units_Z 15
_cell_length_a 10.129752
_cell_length_b 12.084897
_cell_length_c 10.787144
_cell_angle_alpha 76.145273
_cell_angle_beta 67.362651
_cell_angle_gamma 35.284870
_cell_volume 697.077776
_symmetry_space_group_name_H-M "P -1"
_symmetry_group_IT_number 2
_symmetry_cell_setting 'triclinic'
loop_
_space_group_symop_operation_xyz
x,y,z
-x,-y,-z
loop_
_atom_site_type_symbol
_atom_site_label
_atom_site_fract_x
_atom_site_fract_y
_atom_site_fract_z
Si Si1 0.005358 0.123330 0.408942
Si Si2 0.811089 0.017800 0.886837
Si Si3 0.995013 0.710687 0.035734
Si Si4 0.500000 0.000000 0.000000
Si Si5 0.512387 0.429173 0.882446
Si Si6 0.421138 0.881278 0.502636
Si Si7 0.879432 0.748971 0.348098
Si Si8 0.333848 0.503973 0.409972
O O1 0.786218 0.339971 0.482596
O O2 0.024846 0.109420 0.259042
O O3 0.260459 0.006152 0.404292
O O4 0.000000 0.000000 0.500000
O O5 0.578042 0.084879 0.940637
O O6 0.729910 0.199169 0.868033
O O7 0.946919 0.878490 0.993761
O O8 0.976089 0.687091 0.190666
O O9 0.260361 0.523464 0.935149
O O10 0.774037 0.799994 0.014196
O O11 0.552113 0.490295 0.739032
O O12 0.500000 0.500000 0.000000
O O13 0.672271 0.788020 0.429478
O O14 0.485344 0.708626 0.548610
O O15 0.255563 0.044624 0.625763
O O16 0.103292 0.591857 0.402881
#
# Coordination Sequence:
#
# PCOD9018780 Si02
#       8
#     2   2   2   1   2   2   2   2
#     4  11  23  43  63  90 134 170 218 265 318 390
#     4  10  24  45  65  95 133 172 219 269 324 389
#     4  10  23  41  68  93 130 171 215 272 323 390
#     4   8  22  44  64  92 120 180 210 254 338 362
#     4  12  25  41  65 103 131 171 219 267 330 394
#     4  10  24  39  68  92 127 174 216 270 319 387
#     4  10  21  44  63  95 129 167 216 271 326 379
#     4  11  24  41  65  96 127 170 219 264 327 384
#
# _framework density 21.518401999999998
#
# number of rings (size 3 to 8) (size 9 to 14) (size 15 to 20)
#    0.800    0.800    2.667    1.200    3.733    2.667 
#    2.400    0.000    0.000    0.000    0.000    0.000 
#    0.000    0.000    0.000    0.000    0.000    0.000 
#
# Total GULP energy -83506.418228 kJ/mol
# GULP energy per Si atom -5567.094549 kJ/mol
# Density = 2.146942 g / cm^3
# Si number density = 21.518402 Si / 1000 Ang^3
#
#
#
# Elastic Constant Matrix: (Units=GPa)
#
#
# Indices 1 2 3 4 5 6 
#
# 1 67.5930 12.0182 12.5073 11.5896 -2.8071 -13.7695
# 2 12.0182 107.8608 27.5559 -1.0790 2.2978 10.2063
# 3 12.5073 27.5559 66.1671 11.8311 3.1287 5.6051
# 4 11.5896 -1.0790 11.8311 22.3154 0.1364 -6.2432
# 5 -2.8071 2.2978 3.1287 0.1364 18.1953 1.6863
# 6 -13.7695 10.2063 5.6051 -6.2432 1.6863 39.5056
#
#
#
# Elastic Compliance Matrix: (Units=1/GPa)
#
#
# Indices 1 2 3 4 5 6 
#
# 1 0.018039 -0.002214 -0.001907 -0.006824 0.002892 0.005928
# 2 -0.002214 0.010947 -0.004512 0.003407 -0.000752 -0.002389
# 3 -0.001907 -0.004512 0.019732 -0.010760 -0.002677 -0.003885
# 4 -0.006824 0.003407 -0.010760 0.056240 -0.000720 0.007187
# 5 0.002892 -0.000752 -0.002677 -0.000720 0.056052 -0.000924
# 6 0.005928 -0.002389 -0.003885 0.007187 -0.000924 0.029723
#
#
# Mechanical properties :
#
#
# Convention : Reuss Voigt Hill
#
# Bulk Modulus (GPa) = 31.79293 38.42039 35.10666
# Shear Modulus (GPa) = 22.88534 28.63924 25.76229
#
# Velocity S-wave (km/s) = 3.26471 3.65213 3.46384
# Velocity P-wave (km/s) = 5.38683 5.97307 5.68751
#
# Compressibility (1/GPa) = 0.03145354
#
# Stress axis : x y z
#
# Youngs Moduli (GPa) = 55.43690 91.35217 50.67861
#
# Poissons Ratio (x) = 0.20222 0.09663
# Poissons Ratio (y) = 0.12272 0.22865
# Poissons Ratio (z) = 0.10570 0.41215
#
# Static dielectric constant tensor:
#      x y z
#    x 1.836620 -0.009340 -0.002990 
#    y -0.009340 1.789880 0.002830 
#    z -0.002990 0.002830 1.743360 
# 
# From -- ./inp_files/425611.got.cif
#   From: 2010.05.17/outbox.cif.g08.bks.cpg/sg2_213_cif.got.tgz:425611.got - 2010.06.03 11:33:40.
