data_PCOD9018549
_publ_section_title
;
Structure prediction by ZEFSAII (Michael W. Deem and Ramdas Pophale) SiO2 
 PCOD9018549
Probable space group: P -1
;
_chemical_formula_sum "Si O2"
_cell_formula_units_Z 16
_cell_length_a 17.891010
_cell_length_b 21.788475
_cell_length_c 8.788783
_cell_angle_alpha 142.968813
_cell_angle_beta 141.445955
_cell_angle_gamma 19.611048
_cell_volume 684.839242
_symmetry_space_group_name_H-M "P -1"
_symmetry_group_IT_number 2
_symmetry_cell_setting 'triclinic'
loop_
_space_group_symop_operation_xyz
x,y,z
-x,-y,-z
loop_
_atom_site_type_symbol
_atom_site_label
_atom_site_fract_x
_atom_site_fract_y
_atom_site_fract_z
Si Si1 0.440078 0.935481 0.200924
Si Si2 0.475173 0.778419 0.311894
Si Si3 0.656115 0.467373 0.773626
Si Si4 0.650612 0.866552 0.829068
Si Si5 0.720784 0.526829 0.507105
Si Si6 0.870326 0.484160 0.962043
Si Si7 0.935735 0.900091 0.867538
Si Si8 0.331283 0.675873 0.204562
O O1 0.500000 0.000000 0.500000
O O2 0.356416 0.030403 0.088043
O O3 0.246155 0.010606 0.124663
O O4 0.667816 0.706470 0.113542
O O5 0.550108 0.840952 0.531060
O O6 0.606230 0.657013 0.434351
O O7 0.204930 0.973468 0.257069
O O8 0.538093 0.647092 0.028995
O O9 0.500000 0.500000 0.500000
O O10 0.815451 0.410422 0.795020
O O11 0.744294 0.340050 0.806909
O O12 0.896693 0.658132 0.867713
O O13 0.500000 0.000000 0.000000
O O14 0.866459 0.485873 0.776478
O O15 0.497228 0.643608 0.466640
O O16 0.893185 0.315112 0.314653
O O17 0.100937 0.868294 0.132301
O O18 0.500000 0.500000 0.000000
#
# Coordination Sequence:
#
# PCOD9018549 Si02
#       8
#     2   2   2   2   2   2   2   2
#     4  12  26  46  72 106 144 189 246 296 365 439
#     4  12  25  45  72 105 143 192 242 289 369 430
#     4  12  23  45  73 106 145 187 242 294 357 440
#     4  12  28  48  74 111 148 188 249 308 361 437
#     4  11  25  46  72 103 146 190 244 295 366 430
#     4  12  27  46  77 105 145 199 236 307 372 423
#     4  11  23  44  73 103 141 186 242 298 353 438
#     4  10  21  43  71  97 142 187 230 297 355 419
#
# _framework density 23.363147000000001
#
# number of rings (size 3 to 8) (size 9 to 14) (size 15 to 20)
#    0.000    0.500    6.250    2.250    1.750    2.500 
#    0.000    3.750    0.000    0.000    0.000    0.000 
#    0.000    0.000    0.000    0.000    0.000    0.000 
#
# Total GULP energy -89316.314578 kJ/mol
# GULP energy per Si atom -5582.269661 kJ/mol
# Density = 2.330997 g / cm^3
# Si number density = 23.363147 Si / 1000 Ang^3
#
#
#
# Elastic Constant Matrix: (Units=GPa)
#
#
# Indices 1 2 3 4 5 6 
#
# 1 77.7358 36.4520 25.0334 -2.9303 -7.6694 22.5827
# 2 36.4520 158.4641 28.3906 -32.1561 -4.8409 10.2132
# 3 25.0334 28.3906 89.2851 -23.5565 -1.4434 -1.3807
# 4 -2.9303 -32.1561 -23.5565 42.6614 2.7965 -1.6417
# 5 -7.6694 -4.8409 -1.4434 2.7965 31.1366 -6.1532
# 6 22.5827 10.2132 -1.3807 -1.6417 -6.1532 42.0867
#
#
#
# Elastic Compliance Matrix: (Units=1/GPa)
#
#
# Indices 1 2 3 4 5 6 
#
# 1 0.019255 -0.003781 -0.005670 -0.005185 0.002493 -0.009438
# 2 -0.003781 0.008398 -0.000004 0.006085 -0.000131 0.000209
# 3 -0.005670 -0.000004 0.014964 0.008060 -0.000687 0.003748
# 4 -0.005185 0.006085 0.008060 0.032373 -0.002374 0.002486
# 5 0.002493 -0.000131 -0.000687 -0.002374 0.033581 0.003489
# 6 -0.009438 0.000209 0.003748 0.002486 0.003489 0.029504
#
#
# Mechanical properties :
#
#
# Convention : Reuss Voigt Hill
#
# Bulk Modulus (GPa) = 42.17956 56.13744 49.15850
# Shear Modulus (GPa) = 30.32348 38.88421 34.60385
#
# Velocity S-wave (km/s) = 3.60657 4.08406 3.85272
# Velocity P-wave (km/s) = 5.95283 6.80586 6.39359
#
# Compressibility (1/GPa) = 0.02370817
#
# Stress axis : x y z
#
# Youngs Moduli (GPa) = 51.93323 119.07020 66.82553
#
# Poissons Ratio (x) = 0.45023 0.37890
# Poissons Ratio (y) = 0.19637 0.00025
# Poissons Ratio (z) = 0.29446 0.00045
#
# Static dielectric constant tensor:
#      x y z
#    x 1.958770 0.033490 -0.034320 
#    y 0.033490 1.852330 -0.024370 
#    z -0.034320 -0.024370 1.946300 
# 
# From -- ./inp_files/338205.got.cif
#   From: 2010.05.17/outbox.cif.g08.bks.cpg/sg2_170_cif.got.tgz:338205.got - 2010.06.03 11:33:40.
