data_PCOD9018838
_publ_section_title
;
Structure prediction by ZEFSAII (Michael W. Deem and Ramdas Pophale) SiO2 
 PCOD9018838
Probable space group: P -1
;
_chemical_formula_sum "Si O2"
_cell_formula_units_Z 12
_cell_length_a 15.691686
_cell_length_b 18.579147
_cell_length_c 14.785152
_cell_angle_alpha 158.359662
_cell_angle_beta 161.370352
_cell_angle_gamma 20.990373
_cell_volume 453.879286
_symmetry_space_group_name_H-M "P -1"
_symmetry_group_IT_number 2
_symmetry_cell_setting 'triclinic'
loop_
_space_group_symop_operation_xyz
x,y,z
-x,-y,-z
loop_
_atom_site_type_symbol
_atom_site_label
_atom_site_fract_x
_atom_site_fract_y
_atom_site_fract_z
Si Si1 0.043551 0.869428 0.531124
Si Si2 0.528047 0.700839 0.308808
Si Si3 0.927668 0.709428 0.043002
Si Si4 0.132447 0.056570 0.109497
Si Si5 0.490037 0.755582 0.523430
Si Si6 0.451371 0.338459 0.055825
O O1 0.319708 0.735560 0.716305
O O2 0.009153 0.734286 0.255427
O O3 0.054219 0.089421 0.758716
O O4 0.734182 0.990109 0.414512
O O5 0.719104 0.782283 0.532583
O O6 0.685580 0.693178 0.555401
O O7 0.500000 0.500000 0.000000
O O8 0.174496 0.849228 0.146367
O O9 0.124634 0.464038 0.918104
O O10 0.601369 0.751206 0.733760
O O11 0.399577 0.860819 0.096634
O O12 0.000000 0.000000 0.000000
O O13 0.427173 0.547173 0.218598
#
# Coordination Sequence:
#
# PCOD9018838 Si02
#       6
#     2   2   2   2   2   2
#     4  10  21  44  65 104 146 196 250 310 378 449
#     4  12  27  50  78 109 155 201 256 323 389 462
#     4  10  23  40  71 101 146 198 247 312 379 458
#     4  12  27  50  78 111 153 200 258 323 387 463
#     4  11  24  41  70 104 148 196 251 311 383 453
#     4  11  24  41  70 105 150 192 255 312 380 454
#
# _framework density 26.438746999999999
#
# number of rings (size 3 to 8) (size 9 to 14) (size 15 to 20)
#    0.000    1.000    1.667    4.000    4.667    2.000 
#    3.000    0.000    0.000    0.000    0.000    0.000 
#    0.000    0.000    0.000    0.000    0.000    0.000 
#
# Total GULP energy -66922.397562 kJ/mol
# GULP energy per Si atom -5576.866463 kJ/mol
# Density = 2.637857 g / cm^3
# Si number density = 26.438747 Si / 1000 Ang^3
#
#
#
# Elastic Constant Matrix: (Units=GPa)
#
#
# Indices 1 2 3 4 5 6 
#
# 1 82.3809 12.5663 42.5001 14.3365 0.0713 4.5245
# 2 12.5663 113.0297 15.6585 1.2068 7.5536 -2.5476
# 3 42.5001 15.6585 107.3897 11.5798 13.8927 1.3529
# 4 14.3365 1.2068 11.5798 45.4256 3.3830 -2.8478
# 5 0.0713 7.5536 13.8927 3.3830 45.7486 -4.6147
# 6 4.5245 -2.5476 1.3529 -2.8478 -4.6147 34.9496
#
#
#
# Elastic Compliance Matrix: (Units=1/GPa)
#
#
# Indices 1 2 3 4 5 6 
#
# 1 0.016221 -0.001103 -0.006093 -0.003817 0.002090 -0.001980
# 2 -0.001103 0.009174 -0.000799 0.000445 -0.001231 0.000716
# 3 -0.006093 -0.000799 0.012412 -0.000972 -0.003587 -0.000303
# 4 -0.003817 0.000445 -0.000972 0.023696 -0.001290 0.002325
# 5 0.002090 -0.001231 -0.003587 -0.001290 0.023524 0.002779
# 6 -0.001980 0.000716 -0.000303 0.002325 0.002779 0.029489
#
#
# Mechanical properties :
#
#
# Convention : Reuss Voigt Hill
#
# Bulk Modulus (GPa) = 45.83228 49.36112 47.59670
# Shear Modulus (GPa) = 36.29008 40.69645 38.49326
#
# Velocity S-wave (km/s) = 3.70889 3.92761 3.81982
# Velocity P-wave (km/s) = 5.97613 6.26727 6.12343
#
# Compressibility (1/GPa) = 0.02181868
#
# Stress axis : x y z
#
# Youngs Moduli (GPa) = 61.64726 109.00146 80.56606
#
# Poissons Ratio (x) = 0.12022 0.49086
# Poissons Ratio (y) = 0.06799 0.06437
# Poissons Ratio (z) = 0.37560 0.08708
#
# Static dielectric constant tensor:
#      x y z
#    x 2.260030 0.027500 0.108650 
#    y 0.027500 2.178220 -0.133920 
#    z 0.108650 -0.133920 2.371770 
# 
# From -- ./inp_files/288242.got.cif
#   From: 2010.05.17/outbox.cif.g08.bks.cpg/sg2_145_cif.got.tgz:288242.got - 2010.06.03 11:33:40.
