data_PCOD9018224
_publ_section_title
;
Structure prediction by ZEFSAII (Michael W. Deem and Ramdas Pophale) SiO2 
 PCOD9018224
Probable space group: P -1
;
_chemical_formula_sum "Si O2"
_cell_formula_units_Z 15
_cell_length_a 26.193288
_cell_length_b 14.776543
_cell_length_c 5.391110
_cell_angle_alpha 100.932182
_cell_angle_beta 108.190204
_cell_angle_gamma 19.883015
_cell_volume 638.372041
_symmetry_space_group_name_H-M "P -1"
_symmetry_group_IT_number 2
_symmetry_cell_setting 'triclinic'
loop_
_space_group_symop_operation_xyz
x,y,z
-x,-y,-z
loop_
_atom_site_type_symbol
_atom_site_label
_atom_site_fract_x
_atom_site_fract_y
_atom_site_fract_z
Si Si1 0.795636 0.354009 0.580797
Si Si2 0.500000 0.500000 0.500000
Si Si3 0.602252 0.823341 0.310831
Si Si4 0.092984 0.537136 0.420053
Si Si5 0.907472 0.012600 0.233269
Si Si6 0.406578 0.449266 0.294292
Si Si7 0.948849 0.508948 0.162431
Si Si8 0.279523 0.004073 0.645221
O O1 0.695599 0.574013 0.339537
O O2 0.882283 0.124715 0.476696
O O3 0.664958 0.522653 0.658282
O O4 0.939748 0.191158 0.798599
O O5 0.452909 0.469980 0.515963
O O6 0.377287 0.749853 0.646492
O O7 0.740111 0.677209 0.443524
O O8 0.500000 0.000000 0.500000
O O9 0.500000 0.000000 0.000000
O O10 0.076997 0.515092 0.650163
O O11 0.086779 0.483039 0.141743
O O12 0.952887 0.840138 0.317661
O O13 0.740292 0.281542 0.968124
O O14 0.578205 0.151139 0.263816
O O15 0.826522 0.792495 0.175064
O O16 0.139691 0.225542 0.337426
#
# Coordination Sequence:
#
# PCOD9018224 Si02
#       8
#     2   1   2   2   2   2   2   2
#     4  10  24  42  69 103 142 190 242 302 379 433
#     4   8  20  40  66 108 132 184 254 296 368 418
#     4  11  26  46  71 107 145 185 243 305 367 449
#     4  11  26  43  75 101 143 196 243 302 377 439
#     4  10  23  41  68 104 141 189 242 305 366 448
#     4  10  21  43  69 102 143 189 242 311 358 437
#     4  11  24  49  69 104 148 197 247 300 376 443
#     4   9  23  41  73 103 146 191 252 306 366 435
#
# _framework density 23.497271000000001
#
# number of rings (size 3 to 8) (size 9 to 14) (size 15 to 20)
#    0.800    1.067    0.000    2.000    7.467    3.200 
#    2.400    1.333    0.000    0.000    0.000    0.000 
#    0.000    0.000    0.000    0.000    0.000    0.000 
#
# Total GULP energy -83538.590879 kJ/mol
# GULP energy per Si atom -5569.239392 kJ/mol
# Density = 2.344379 g / cm^3
# Si number density = 23.497271 Si / 1000 Ang^3
#
#
#
# Elastic Constant Matrix: (Units=GPa)
#
#
# Indices 1 2 3 4 5 6 
#
# 1 107.9271 46.7375 50.3956 -0.9510 -18.3515 -17.4669
# 2 46.7375 107.0489 51.3104 -11.9138 -3.1071 7.0227
# 3 50.3956 51.3104 121.0646 -3.9874 -11.1329 -10.5391
# 4 -0.9510 -11.9138 -3.9874 31.8596 -6.5607 16.4473
# 5 -18.3515 -3.1071 -11.1329 -6.5607 27.1623 -2.2454
# 6 -17.4669 7.0227 -10.5391 16.4473 -2.2454 59.2508
#
#
#
# Elastic Compliance Matrix: (Units=1/GPa)
#
#
# Indices 1 2 3 4 5 6 
#
# 1 0.015521 -0.006027 -0.002727 -0.003573 0.008322 0.006112
# 2 -0.006027 0.015422 -0.004615 0.007894 -0.002848 -0.006725
# 3 -0.002727 -0.004615 0.011729 -0.000980 0.002381 0.002192
# 4 -0.003573 0.007894 -0.000980 0.042700 0.007265 -0.013741
# 5 0.008322 -0.002848 0.002381 0.007265 0.045083 0.002906
# 6 0.006112 -0.006725 0.002192 -0.013741 0.002906 0.023791
#
#
# Mechanical properties :
#
#
# Convention : Reuss Voigt Hill
#
# Bulk Modulus (GPa) = 62.75628 70.32532 66.54080
# Shear Modulus (GPa) = 26.83921 36.16103 31.50012
#
# Velocity S-wave (km/s) = 3.38335 3.92720 3.66537
# Velocity P-wave (km/s) = 6.48295 7.11041 6.80392
#
# Compressibility (1/GPa) = 0.01593466
#
# Stress axis : x y z
#
# Youngs Moduli (GPa) = 64.42698 64.84355 85.26128
#
# Poissons Ratio (x) = 0.39078 0.23253
# Poissons Ratio (y) = 0.38827 0.39346
# Poissons Ratio (z) = 0.17571 0.29924
#
# Static dielectric constant tensor:
#      x y z
#    x 1.960730 -0.025670 -0.000990 
#    y -0.025670 1.937120 0.001230 
#    z -0.000990 0.001230 1.853910 
# 
# From -- ./inp_files/127193.got.cif
#   From: 2010.05.17/outbox.cif.g08.bks.cpg/sg2_64_cif.got.tgz:127193.got - 2010.06.03 11:33:40.
