data_PCOD9018744
_publ_section_title
;
Structure prediction by ZEFSAII (Michael W. Deem and Ramdas Pophale) SiO2 
 PCOD9018744
Probable space group: P -1
;
_chemical_formula_sum "Si O2"
_cell_formula_units_Z 16
_cell_length_a 8.696106
_cell_length_b 16.667174
_cell_length_c 7.985517
_cell_angle_alpha 109.312137
_cell_angle_beta 51.044684
_cell_angle_gamma 130.989413
_cell_volume 672.776866
_symmetry_space_group_name_H-M "P -1"
_symmetry_group_IT_number 2
_symmetry_cell_setting 'triclinic'
loop_
_space_group_symop_operation_xyz
x,y,z
-x,-y,-z
loop_
_atom_site_type_symbol
_atom_site_label
_atom_site_fract_x
_atom_site_fract_y
_atom_site_fract_z
Si Si1 0.853222 0.110130 0.011549
Si Si2 0.092210 0.326053 0.836554
Si Si3 0.583348 0.412028 0.726029
Si Si4 0.942262 0.360143 0.314723
Si Si5 0.680694 0.783967 0.994487
Si Si6 0.370243 0.001968 0.430484
Si Si7 0.804716 0.227967 0.638437
Si Si8 0.097914 0.046715 0.281620
O O1 0.012725 0.207991 0.843921
O O2 0.053093 0.141165 0.041279
O O3 0.597305 0.091140 0.221252
O O4 0.767129 0.999143 0.915069
O O5 0.963814 0.341459 0.092001
O O6 0.983790 0.316730 0.720140
O O7 0.386735 0.405360 0.731473
O O8 0.798904 0.528658 0.728992
O O9 0.722763 0.370554 0.508273
O O10 0.435500 0.333487 0.933462
O O11 0.903272 0.272711 0.413690
O O12 0.752275 0.829342 0.785884
O O13 0.462556 0.794895 0.189449
O O14 0.228725 0.880939 0.376957
O O15 0.180761 0.020063 0.646715
O O16 0.500000 0.000000 0.500000
O O17 0.000000 0.000000 0.500000
#
# Coordination Sequence:
#
# PCOD9018744 Si02
#       8
#     2   2   2   2   2   2   2   2
#     4  11  23  43  61  88 131 166 221 257 311 390
#     4  11  24  42  66 100 131 170 212 274 325 383
#     4   9  22  45  72  94 128 165 223 264 323 401
#     4  10  22  47  71  94 127 176 209 269 338 383
#     4  10  21  44  61  88 130 167 206 271 312 374
#     4  12  23  40  65  91 123 182 219 261 322 380
#     4  11  24  41  65  99 135 162 225 274 313 394
#     4  12  25  38  60  91 128 169 212 260 322 373
#
# _framework density 23.782032000000001
#
# number of rings (size 3 to 8) (size 9 to 14) (size 15 to 20)
#    0.000    1.250    2.500    3.000    3.500    3.500 
#    2.250    5.625    0.000    0.000    0.000    0.000 
#    0.000    0.000    0.000    0.000    0.000    0.000 
#
# Total GULP energy -89240.243718 kJ/mol
# GULP energy per Si atom -5577.515232 kJ/mol
# Density = 2.372790 g / cm^3
# Si number density = 23.782032 Si / 1000 Ang^3
#
#
#
# Elastic Constant Matrix: (Units=GPa)
#
#
# Indices 1 2 3 4 5 6 
#
# 1 42.9320 18.1367 29.1804 10.4763 11.8127 8.5698
# 2 18.1367 58.4902 27.8082 -5.9351 -0.2713 12.0269
# 3 29.1804 27.8082 100.8304 -6.9439 -8.8982 13.5312
# 4 10.4763 -5.9351 -6.9439 38.1914 4.1420 2.9334
# 5 11.8127 -0.2713 -8.8982 4.1420 35.5531 2.9630
# 6 8.5698 12.0269 13.5312 2.9334 2.9630 23.4897
#
#
#
# Elastic Compliance Matrix: (Units=1/GPa)
#
#
# Indices 1 2 3 4 5 6 
#
# 1 0.043276 -0.008936 -0.012361 -0.013754 -0.015908 -0.000368
# 2 -0.008936 0.023213 -0.002017 0.006062 0.002648 -0.008554
# 3 -0.012361 -0.002017 0.015828 0.005507 0.007849 -0.005253
# 4 -0.013754 0.006062 0.005507 0.032034 0.002729 -0.005603
# 5 -0.015908 0.002648 0.007849 0.002729 0.035487 -0.004891
# 6 -0.000368 -0.008554 -0.005253 -0.005603 -0.004891 0.051429
#
#
# Mechanical properties :
#
#
# Convention : Reuss Voigt Hill
#
# Bulk Modulus (GPa) = 28.01944 39.16703 33.59323
# Shear Modulus (GPa) = 19.24620 27.92202 23.58411
#
# Velocity S-wave (km/s) = 2.84786 3.43020 3.15251
# Velocity P-wave (km/s) = 4.75616 5.67391 5.23519
#
# Compressibility (1/GPa) = 0.03568951
#
# Stress axis : x y z
#
# Youngs Moduli (GPa) = 23.10742 43.07950 63.17846
#
# Poissons Ratio (x) = 0.38495 0.78097
# Poissons Ratio (y) = 0.20648 0.12742
# Poissons Ratio (z) = 0.28564 0.08688
#
# Static dielectric constant tensor:
#      x y z
#    x 1.863380 0.050150 0.092720 
#    y 0.050150 1.998610 0.016100 
#    z 0.092720 0.016100 1.920060 
# 
# From -- ./inp_files/215341.got.cif
#   From: 2010.05.17/outbox.cif.g08.bks.cpg/sg2_108_cif.got.tgz:215341.got - 2010.06.03 11:33:40.
