data_PCOD9018208
_publ_section_title
;
Structure prediction by ZEFSAII (Michael W. Deem and Ramdas Pophale) SiO2 
 PCOD9018208
Probable space group: P -1
;
_chemical_formula_sum "Si O2"
_cell_formula_units_Z 13
_cell_length_a 16.842484
_cell_length_b 11.087877
_cell_length_c 4.940203
_cell_angle_alpha 62.431948
_cell_angle_beta 74.669467
_cell_angle_gamma 36.091772
_cell_volume 471.034695
_symmetry_space_group_name_H-M "P -1"
_symmetry_group_IT_number 2
_symmetry_cell_setting 'triclinic'
loop_
_space_group_symop_operation_xyz
x,y,z
-x,-y,-z
loop_
_atom_site_type_symbol
_atom_site_label
_atom_site_fract_x
_atom_site_fract_y
_atom_site_fract_z
Si Si1 0.500000 0.000000 0.500000
Si Si2 0.415185 0.400038 0.063578
Si Si3 0.858516 0.239162 0.760298
Si Si4 0.369823 0.758680 0.590674
Si Si5 0.220483 0.366320 0.691467
Si Si6 0.185559 0.990159 0.050282
Si Si7 0.921790 0.516427 0.821490
O O1 0.529129 0.818982 0.843626
O O2 0.635253 0.791402 0.407875
O O3 0.254954 0.600347 0.070147
O O4 0.506914 0.311779 0.340006
O O5 0.427482 0.527344 0.761446
O O6 0.863754 0.379494 0.478983
O O7 0.813338 0.169696 0.696214
O O8 0.000000 0.000000 0.000000
O O9 0.291976 0.917649 0.235005
O O10 0.252069 0.913451 0.773059
O O11 0.218637 0.322532 0.048103
O O12 0.138587 0.376905 0.537135
O O13 0.032347 0.250622 0.943720
O O14 0.000000 0.500000 0.000000
#
# Coordination Sequence:
#
# PCOD9018208 Si02
#       7
#     1   2   2   2   2   2   2
#     4  10  24  46  72 100 144 188 226 282 350 414
#     4   9  22  41  70 101 137 180 230 283 343 410
#     4  10  21  43  69 101 134 173 225 282 343 403
#     4  10  23  44  70 102 133 178 233 286 342 403
#     4  11  26  47  70 102 138 183 228 282 344 416
#     4  11  24  42  74 100 136 178 225 293 340 405
#     4  12  27  44  69 104 137 184 233 280 345 410
#
# _framework density 27.598813
#
# number of rings (size 3 to 8) (size 9 to 14) (size 15 to 20)
#    0.000    1.538    1.538    1.385    6.462   10.462 
#    0.000    6.154    0.000    0.000    0.000    0.000 
#    0.000    0.000    0.000    0.000    0.000    0.000 
#
# Total GULP energy -72501.404981 kJ/mol
# GULP energy per Si atom -5577.031152 kJ/mol
# Density = 2.753600 g / cm^3
# Si number density = 27.598813 Si / 1000 Ang^3
#
#
#
# Elastic Constant Matrix: (Units=GPa)
#
#
# Indices 1 2 3 4 5 6 
#
# 1 86.4281 20.5862 5.1732 -1.2703 1.5827 11.1349
# 2 20.5862 168.5674 54.1512 -11.0430 -8.6932 9.0985
# 3 5.1732 54.1512 99.4179 27.0516 11.1762 5.0209
# 4 -1.2703 -11.0430 27.0516 48.9170 2.7434 -6.6119
# 5 1.5827 -8.6932 11.1762 2.7434 34.0430 -9.6886
# 6 11.1349 9.0985 5.0209 -6.6119 -9.6886 39.4454
#
#
#
# Elastic Compliance Matrix: (Units=1/GPa)
#
#
# Indices 1 2 3 4 5 6 
#
# 1 0.012502 -0.001895 0.001187 -0.001167 -0.002515 -0.004057
# 2 -0.001895 0.008913 -0.006899 0.005716 0.004578 0.001440
# 3 0.001187 -0.006899 0.018144 -0.011781 -0.008264 -0.005058
# 4 -0.001167 0.005716 -0.011781 0.028827 0.004923 0.006552
# 5 -0.002515 0.004578 -0.008264 0.004923 0.035924 0.010355
# 6 -0.004057 0.001440 -0.005058 0.006552 0.010355 0.030450
#
#
# Mechanical properties :
#
#
# Convention : Reuss Voigt Hill
#
# Bulk Modulus (GPa) = 41.07578 57.13717 49.10647
# Shear Modulus (GPa) = 31.62777 42.78128 37.20453
#
# Velocity S-wave (km/s) = 3.38891 3.94142 3.67556
# Velocity P-wave (km/s) = 5.49804 6.43900 5.98703
#
# Compressibility (1/GPa) = 0.02434525
#
# Stress axis : x y z
#
# Youngs Moduli (GPa) = 79.98557 112.19867 55.11391
#
# Poissons Ratio (x) = 0.21265 -0.06542
# Poissons Ratio (y) = 0.15160 0.38021
# Poissons Ratio (z) = -0.09494 0.77401
#
# Static dielectric constant tensor:
#      x y z
#    x 2.286000 -0.034340 0.046500 
#    y -0.034340 2.081270 0.003390 
#    z 0.046500 0.003390 2.087740 
# 
# From -- ./inp_files/108933.got.cif
#   From: 2010.05.17/outbox.cif.g08.bks.cpg/sg2_55_cif.got.tgz:108933.got - 2010.06.03 11:33:40.
