data_PCOD9018713
_publ_section_title
;
Structure prediction by ZEFSAII (Michael W. Deem and Ramdas Pophale) SiO2 
 PCOD9018713
Probable space group: P -1
;
_chemical_formula_sum "Si O2"
_cell_formula_units_Z 16
_cell_length_a 19.902083
_cell_length_b 8.512048
_cell_length_c 5.263746
_cell_angle_alpha 62.871117
_cell_angle_beta 57.856967
_cell_angle_gamma 70.359137
_cell_volume 666.776141
_symmetry_space_group_name_H-M "P -1"
_symmetry_group_IT_number 2
_symmetry_cell_setting 'triclinic'
loop_
_space_group_symop_operation_xyz
x,y,z
-x,-y,-z
loop_
_atom_site_type_symbol
_atom_site_label
_atom_site_fract_x
_atom_site_fract_y
_atom_site_fract_z
Si Si1 0.345437 0.668669 0.790067
Si Si2 0.129052 0.075343 0.951702
Si Si3 0.241743 0.224237 0.975560
Si Si4 0.048214 0.434775 0.700099
Si Si5 0.447789 0.979416 0.370853
Si Si6 0.164425 0.711867 0.351075
Si Si7 0.248091 0.875912 0.459879
Si Si8 0.679916 0.685584 0.738705
O O1 0.319526 0.732084 0.511237
O O2 0.410669 0.796466 0.623281
O O3 0.255949 0.699904 0.073598
O O4 0.372848 0.467084 0.960458
O O5 0.156781 0.182998 0.063119
O O6 0.069911 0.221490 0.819092
O O7 0.205170 0.007648 0.666802
O O8 0.108508 0.884694 0.225323
O O9 0.274584 0.340358 0.601952
O O10 0.261651 0.309004 0.139577
O O11 0.278575 0.016683 0.098100
O O12 0.125920 0.538216 0.489653
O O13 0.000000 0.500000 0.500000
O O14 0.000000 0.500000 0.000000
O O15 0.374028 0.130736 0.349685
O O16 0.500000 0.000000 0.500000
O O17 0.500000 0.000000 0.000000
O O18 0.178783 0.767897 0.570627
#
# Coordination Sequence:
#
# PCOD9018713 Si02
#       8
#     2   2   2   2   2   2   2   2
#     4  11  26  44  76 111 139 188 248 304 360 428
#     4  10  23  44  72 100 147 185 238 298 362 427
#     4  11  21  42  72 108 139 183 237 306 367 410
#     4  12  31  48  69 106 149 195 239 289 365 437
#     4  12  28  48  71 101 155 197 235 290 364 438
#     4  10  25  45  76 106 141 184 245 304 355 428
#     4  10  21  43  76 107 142 182 246 305 369 413
#     4  12  25  42  72 107 144 188 241 299 359 425
#
# _framework density 23.996058000000001
#
# number of rings (size 3 to 8) (size 9 to 14) (size 15 to 20)
#    0.000    1.000    2.500    3.000   12.250    2.000 
#    0.000    0.000    0.000    0.000    0.000    0.000 
#    0.000    0.000    0.000    0.000    0.000    0.000 
#
# Total GULP energy -89262.949202 kJ/mol
# GULP energy per Si atom -5578.934325 kJ/mol
# Density = 2.394144 g / cm^3
# Si number density = 23.996058 Si / 1000 Ang^3
#
#
#
# Elastic Constant Matrix: (Units=GPa)
#
#
# Indices 1 2 3 4 5 6 
#
# 1 102.3855 14.0063 32.8896 13.7780 27.7366 24.5769
# 2 14.0063 57.0362 15.6787 -4.8303 4.3488 10.2296
# 3 32.8896 15.6787 95.0282 0.6348 19.2083 14.1565
# 4 13.7780 -4.8303 0.6348 39.2665 2.5960 -1.2731
# 5 27.7366 4.3488 19.2083 2.5960 48.1995 -7.1873
# 6 24.5769 10.2296 14.1565 -1.2731 -7.1873 33.7098
#
#
#
# Elastic Compliance Matrix: (Units=1/GPa)
#
#
# Indices 1 2 3 4 5 6 
#
# 1 0.017841 -0.000971 -0.001453 -0.006076 -0.011477 -0.014779
# 2 -0.000971 0.019447 -0.001967 0.002699 -0.001233 -0.004529
# 3 -0.001453 -0.001967 0.013073 0.000225 -0.004936 -0.004878
# 4 -0.006076 0.002699 0.000225 0.027933 0.002418 0.005087
# 5 -0.011477 -0.001233 -0.004936 0.002418 0.031941 0.017716
# 6 -0.014779 -0.004529 -0.004878 0.005087 0.017716 0.047832
#
#
# Mechanical properties :
#
#
# Convention : Reuss Voigt Hill
#
# Bulk Modulus (GPa) = 24.04956 42.17767 33.11361
# Shear Modulus (GPa) = 27.66908 37.02685 32.34797
#
# Velocity S-wave (km/s) = 3.39937 3.93241 3.67557
# Velocity P-wave (km/s) = 5.04496 6.18333 5.64293
#
# Compressibility (1/GPa) = 0.04158081
#
# Stress axis : x y z
#
# Youngs Moduli (GPa) = 56.05143 51.42304 76.49112
#
# Poissons Ratio (x) = 0.04992 0.11110
# Poissons Ratio (y) = 0.05441 0.15044
# Poissons Ratio (z) = 0.08142 0.10113
#
# Static dielectric constant tensor:
#      x y z
#    x 1.941920 0.015650 0.012850 
#    y 0.015650 1.997330 0.023930 
#    z 0.012850 0.023930 1.992210 
# 
# From -- ./inp_files/115885.got.cif
#   From: 2010.05.17/outbox.cif.g08.bks.cpg/sg2_58_cif.got.tgz:115885.got - 2010.06.03 11:33:40.
