data_PCOD9018806
_publ_section_title
;
Structure prediction by ZEFSAII (Michael W. Deem and Ramdas Pophale) SiO2 
 PCOD9018806
Probable space group: P -1
;
_chemical_formula_sum "Si O2"
_cell_formula_units_Z 16
_cell_length_a 15.683277
_cell_length_b 6.557256
_cell_length_c 22.126931
_cell_angle_alpha 81.840770
_cell_angle_beta 23.544625
_cell_angle_gamma 68.918316
_cell_volume 732.580307
_symmetry_space_group_name_H-M "P -1"
_symmetry_group_IT_number 2
_symmetry_cell_setting 'triclinic'
loop_
_space_group_symop_operation_xyz
x,y,z
-x,-y,-z
loop_
_atom_site_type_symbol
_atom_site_label
_atom_site_fract_x
_atom_site_fract_y
_atom_site_fract_z
Si Si1 0.950078 0.666963 0.103789
Si Si2 0.445175 0.295985 0.248356
Si Si3 0.773400 0.928431 0.521213
Si Si4 0.461348 0.188048 0.430044
Si Si5 0.610009 0.475190 0.247595
Si Si6 0.701756 0.805571 0.024613
Si Si7 0.736155 0.522648 0.340929
Si Si8 0.207551 0.826012 0.318912
O O1 0.762019 0.583716 0.251760
O O2 0.766687 0.953930 0.233478
O O3 0.077814 0.652012 0.957279
O O4 0.194578 0.452247 0.994234
O O5 0.242457 0.248915 0.412471
O O6 0.572161 0.340662 0.220781
O O7 0.328095 0.538721 0.272032
O O8 0.635655 0.037830 0.099061
O O9 0.707004 0.861755 0.503252
O O10 0.044595 0.890120 0.360464
O O11 0.546043 0.222808 0.670192
O O12 0.468025 0.419385 0.393077
O O13 0.340191 0.255076 0.572262
O O14 0.435726 0.870313 0.164892
O O15 0.972671 0.711565 0.818798
O O16 0.500000 0.500000 0.500000
O O17 0.000000 0.000000 0.500000
#
# Coordination Sequence:
#
# PCOD9018806 Si02
#       8
#     2   2   2   2   2   2   2   2
#     4  10  21  44  64  92 129 166 227 262 313 383
#     4  11  18  37  63  96 127 166 207 264 323 374
#     4  11  23  38  59  96 135 166 204 264 331 381
#     4  11  26  40  65  93 133 178 204 265 334 376
#     4  11  22  40  62 101 133 163 208 271 331 377
#     4  10  23  37  66  94 125 157 230 260 306 371
#     4  10  24  45  66  91 127 175 225 263 308 385
#     4  12  20  38  65  97 131 163 216 269 311 384
#
# _framework density 21.840609000000001
#
# number of rings (size 3 to 8) (size 9 to 14) (size 15 to 20)
#    0.750    0.500    5.000    1.125    3.500    0.500 
#    0.000    0.625    0.000    1.500    0.000    0.000 
#    0.000    0.000    0.000    0.000    0.000    0.000 
#
# Total GULP energy -89085.008025 kJ/mol
# GULP energy per Si atom -5567.813002 kJ/mol
# Density = 2.179090 g / cm^3
# Si number density = 21.840609 Si / 1000 Ang^3
#
#
#
# Elastic Constant Matrix: (Units=GPa)
#
#
# Indices 1 2 3 4 5 6 
#
# 1 86.2133 23.0363 49.4689 6.8466 0.8223 28.9661
# 2 23.0363 62.9939 25.4045 -5.1403 -11.1894 21.0526
# 3 49.4689 25.4045 125.8249 -10.5697 -3.8344 18.3012
# 4 6.8466 -5.1403 -10.5697 42.1367 4.0622 -1.3556
# 5 0.8223 -11.1894 -3.8344 4.0622 30.8095 -5.5454
# 6 28.9661 21.0526 18.3012 -1.3556 -5.5454 34.6766
#
#
#
# Elastic Compliance Matrix: (Units=1/GPa)
#
#
# Indices 1 2 3 4 5 6 
#
# 1 0.020787 -0.001458 -0.006412 -0.005255 -0.003690 -0.013890
# 2 -0.001458 0.021675 -0.002067 0.001497 0.005677 -0.009884
# 3 -0.006412 -0.002067 0.011054 0.003546 0.000508 0.000996
# 4 -0.005255 0.001497 0.003546 0.025913 -0.001873 0.002323
# 5 -0.003690 0.005677 0.000508 -0.001873 0.035832 0.005024
# 6 -0.013890 -0.009884 0.000996 0.002323 0.005024 0.046810
#
#
# Mechanical properties :
#
#
# Convention : Reuss Voigt Hill
#
# Bulk Modulus (GPa) = 29.72327 52.31683 41.02005
# Shear Modulus (GPa) = 25.88535 33.33272 29.60903
#
# Velocity S-wave (km/s) = 3.44640 3.91087 3.68596
# Velocity P-wave (km/s) = 5.42914 6.66327 6.07761
#
# Compressibility (1/GPa) = 0.03364367
#
# Stress axis : x y z
#
# Youngs Moduli (GPa) = 48.10653 46.13591 90.46470
#
# Poissons Ratio (x) = 0.06726 0.58004
# Poissons Ratio (y) = 0.07014 0.18696
# Poissons Ratio (z) = 0.30845 0.09535
#
# Static dielectric constant tensor:
#      x y z
#    x 1.855870 0.020790 -0.024180 
#    y 0.020790 1.864260 -0.062660 
#    z -0.024180 -0.062660 1.870910 
# 
# From -- ./inp_files/620141.got.cif
#   From: 2010.05.17/outbox.cif.g08.bks.cpg/sg2_311_cif.got.tgz:620141.got - 2010.06.03 11:33:40.
