data_PCOD9018048
_publ_section_title
;
Structure prediction by ZEFSAII (Michael W. Deem and Ramdas Pophale) SiO2 
 PCOD9018048
Probable space group: P -1
;
_chemical_formula_sum "Si O2"
_cell_formula_units_Z 13
_cell_length_a 22.472733
_cell_length_b 12.605765
_cell_length_c 5.040717
_cell_angle_alpha 120.207974
_cell_angle_beta 130.106890
_cell_angle_gamma 29.082645
_cell_volume 523.946830
_symmetry_space_group_name_H-M "P -1"
_symmetry_group_IT_number 2
_symmetry_cell_setting 'triclinic'
loop_
_space_group_symop_operation_xyz
x,y,z
-x,-y,-z
loop_
_atom_site_type_symbol
_atom_site_label
_atom_site_fract_x
_atom_site_fract_y
_atom_site_fract_z
Si Si1 0.842198 0.559158 0.254050
Si Si2 0.244026 0.010628 0.817981
Si Si3 0.500000 0.500000 0.000000
Si Si4 0.334059 0.524312 0.896121
Si Si5 0.433077 0.975577 0.126023
Si Si6 0.148058 0.736253 0.106502
Si Si7 0.059949 0.308938 0.152016
O O1 0.919887 0.569633 0.637109
O O2 0.904972 0.483650 0.037423
O O3 0.863909 0.390141 0.180848
O O4 0.681571 0.812039 0.125899
O O5 0.158283 0.131237 0.452156
O O6 0.347660 0.763142 0.837188
O O7 0.132777 0.154728 0.915592
O O8 0.343319 0.001532 0.089138
O O9 0.429488 0.508152 0.044380
O O10 0.442476 0.270379 0.942922
O O11 0.222920 0.638464 0.486434
O O12 0.253441 0.659164 0.102876
O O13 0.500000 0.000000 0.500000
O O14 0.000000 0.000000 0.000000
#
# Coordination Sequence:
#
# PCOD9018048 Si02
#       7
#     2   2   1   2   2   2   2
#     4  10  24  43  72 101 140 177 227 288 338 407
#     4  10  24  42  69  98 135 176 231 279 337 406
#     4  10  26  46  72  98 140 186 228 282 338 412
#     4  11  27  47  71 103 136 185 231 281 345 407
#     4  10  21  43  68 101 134 174 223 281 343 403
#     4  12  28  46  71 104 139 184 229 281 348 411
#     4  10  24  43  68 103 130 180 228 282 341 394
#
# _framework density 24.811677
#
# number of rings (size 3 to 8) (size 9 to 14) (size 15 to 20)
#    0.000    1.538    1.538    0.462    6.462   16.000 
#    0.000    0.000    0.000    0.000    0.000    0.000 
#    0.000    0.000    0.000    0.000    0.000    0.000 
#
# Total GULP energy -72557.615364 kJ/mol
# GULP energy per Si atom -5581.355028 kJ/mol
# Density = 2.475520 g / cm^3
# Si number density = 24.811677 Si / 1000 Ang^3
#
#
#
# Elastic Constant Matrix: (Units=GPa)
#
#
# Indices 1 2 3 4 5 6 
#
# 1 99.1834 58.7956 10.9281 13.5851 -4.1219 0.7513
# 2 58.7956 247.3651 51.7128 -43.3095 -11.2432 3.2812
# 3 10.9281 51.7128 79.2193 -9.2846 -10.9931 3.3329
# 4 13.5851 -43.3095 -9.2846 29.6302 0.1909 3.4738
# 5 -4.1219 -11.2432 -10.9931 0.1909 26.3876 6.2445
# 6 0.7513 3.2812 3.3329 3.4738 6.2445 42.7504
#
#
#
# Elastic Compliance Matrix: (Units=1/GPa)
#
#
# Indices 1 2 3 4 5 6 
#
# 1 0.017000 -0.007419 0.000103 -0.018824 -0.000777 0.001906
# 2 -0.007419 0.009398 -0.002814 0.016479 0.002029 -0.002007
# 3 0.000103 -0.002814 0.015413 0.000853 0.005678 -0.001886
# 4 -0.018824 0.016479 0.000853 0.067556 0.005680 -0.007320
# 5 -0.000777 0.002029 0.005678 0.005680 0.042687 -0.007282
# 6 0.001906 -0.002007 -0.001886 -0.007320 -0.007282 0.025318
#
#
# Mechanical properties :
#
#
# Convention : Reuss Voigt Hill
#
# Bulk Modulus (GPa) = 46.39776 74.29345 60.34561
# Shear Modulus (GPa) = 24.41204 40.04241 32.22723
#
# Velocity S-wave (km/s) = 3.14011 4.02164 3.60790
# Velocity P-wave (km/s) = 5.64691 7.18141 6.45989
#
# Compressibility (1/GPa) = 0.02155276
#
# Stress axis : x y z
#
# Youngs Moduli (GPa) = 58.82191 106.40110 64.87866
#
# Poissons Ratio (x) = 0.78938 -0.00671
# Poissons Ratio (y) = 0.43639 0.18259
# Poissons Ratio (z) = -0.00609 0.29945
#
# Static dielectric constant tensor:
#      x y z
#    x 1.979540 0.052730 -0.064930 
#    y 0.052730 1.945840 -0.072860 
#    z -0.064930 -0.072860 2.168020 
# 
# From -- ./inp_files/118794.got.cif
#   From: 2010.05.17/outbox.cif.g08.bks.cpg/sg2_60_cif.got.tgz:118794.got - 2010.06.03 11:33:40.
