data_PCOD9018422
_publ_section_title
;
Structure prediction by ZEFSAII (Michael W. Deem and Ramdas Pophale) SiO2 
 PCOD9018422
Probable space group: P -1
;
_chemical_formula_sum "Si O2"
_cell_formula_units_Z 16
_cell_length_a 15.586579
_cell_length_b 9.205937
_cell_length_c 16.067566
_cell_angle_alpha 130.221895
_cell_angle_beta 154.833233
_cell_angle_gamma 48.723188
_cell_volume 728.229806
_symmetry_space_group_name_H-M "P -1"
_symmetry_group_IT_number 2
_symmetry_cell_setting 'triclinic'
loop_
_space_group_symop_operation_xyz
x,y,z
-x,-y,-z
loop_
_atom_site_type_symbol
_atom_site_label
_atom_site_fract_x
_atom_site_fract_y
_atom_site_fract_z
Si Si1 0.149976 0.183607 0.359176
Si Si2 0.769282 0.983034 0.981444
Si Si3 0.246465 0.987780 0.203080
Si Si4 0.028727 0.408343 0.901400
Si Si5 0.318870 0.121859 0.668391
Si Si6 0.372325 0.529491 0.140928
Si Si7 0.111508 0.382923 0.727583
Si Si8 0.771333 0.284348 0.497113
O O1 0.265877 0.147985 0.534792
O O2 0.951443 0.091041 0.164371
O O3 0.054986 0.411426 0.346033
O O4 0.279927 0.086724 0.356947
O O5 0.849585 0.813063 0.055051
O O6 0.722690 0.910390 0.820261
O O7 0.561357 0.117385 0.885164
O O8 0.360526 0.759558 0.207904
O O9 0.000000 0.000000 0.000000
O O10 0.823942 0.402749 0.667601
O O11 0.175501 0.517700 0.020699
O O12 0.000000 0.500000 0.000000
O O13 0.178980 0.288606 0.663446
O O14 0.283369 0.914834 0.593784
O O15 0.580981 0.408494 0.322189
O O16 0.312522 0.427040 0.967005
O O17 0.987935 0.250298 0.623189
#
# Coordination Sequence:
#
# PCOD9018422 Si02
#       8
#     2   2   2   2   2   2   2   2
#     4  11  24  45  68  99 135 174 222 277 337 394
#     4  11  23  42  69  98 133 175 219 276 339 390
#     4  10  21  43  70  95 133 173 214 275 337 393
#     4  11  23  41  68  97 138 176 216 281 335 396
#     4  12  26  45  67 101 133 178 230 274 329 399
#     4  11  23  44  67 100 132 177 226 267 339 400
#     4  11  26  45  70  95 136 182 223 278 331 389
#     4  11  26  44  66 100 134 176 229 271 334 397
#
# _framework density 21.971086
#
# number of rings (size 3 to 8) (size 9 to 14) (size 15 to 20)
#    0.000    1.000    5.000    2.250    3.500    4.000 
#    0.000    0.000    0.000    0.000    0.000    0.000 
#    0.000    0.000    0.000    0.000    0.000    0.000 
#
# Total GULP energy -89443.708523 kJ/mol
# GULP energy per Si atom -5590.231783 kJ/mol
# Density = 2.192108 g / cm^3
# Si number density = 21.971086 Si / 1000 Ang^3
#
#
#
# Elastic Constant Matrix: (Units=GPa)
#
#
# Indices 1 2 3 4 5 6 
#
# 1 60.8348 24.2091 24.6623 -4.8594 0.5513 -7.6833
# 2 24.2091 77.0913 43.5202 -13.0075 -12.1652 8.3371
# 3 24.6623 43.5202 117.5093 -12.9370 -9.8291 -2.8595
# 4 -4.8594 -13.0075 -12.9370 24.8658 13.1683 -5.2645
# 5 0.5513 -12.1652 -9.8291 13.1683 31.1071 -0.4496
# 6 -7.6833 8.3371 -2.8595 -5.2645 -0.4496 37.2619
#
#
#
# Elastic Compliance Matrix: (Units=1/GPa)
#
#
# Indices 1 2 3 4 5 6 
#
# 1 0.020794 -0.006255 -0.001907 0.003652 -0.004877 0.005998
# 2 -0.006255 0.019864 -0.005496 0.002426 0.005032 -0.005753
# 3 -0.001907 -0.005496 0.011346 0.002980 0.000239 0.002131
# 4 0.003652 0.002426 0.002980 0.057319 -0.022319 0.008268
# 5 -0.004877 0.005032 0.000239 -0.022319 0.043657 -0.004740
# 6 0.005998 -0.005753 0.002131 0.008268 -0.004740 0.030635
#
#
# Mechanical properties :
#
#
# Convention : Reuss Voigt Hill
#
# Bulk Modulus (GPa) = 40.50779 48.91315 44.71047
# Shear Modulus (GPa) = 22.81429 29.51655 26.16542
#
# Velocity S-wave (km/s) = 3.22588 3.66926 3.45469
# Velocity P-wave (km/s) = 5.68788 6.34524 6.02553
#
# Compressibility (1/GPa) = 0.02468661
#
# Stress axis : x y z
#
# Youngs Moduli (GPa) = 48.09107 50.34179 88.13982
#
# Poissons Ratio (x) = 0.31490 0.16812
# Poissons Ratio (y) = 0.30082 0.48441
# Poissons Ratio (z) = 0.09173 0.27667
#
# Static dielectric constant tensor:
#      x y z
#    x 1.809070 0.049850 -0.037730 
#    y 0.049850 1.831980 -0.009870 
#    z -0.037730 -0.009870 1.868330 
# 
# From -- ./inp_files/308909.got.cif
#   From: 2010.05.17/outbox.cif.g08.bks.cpg/sg2_155_cif.got.tgz:308909.got - 2010.06.03 11:33:40.
