data_PCOD9018032
_publ_section_title
;
Structure prediction by ZEFSAII (Michael W. Deem and Ramdas Pophale) SiO2 
 PCOD9018032
Probable space group: P -1
;
_chemical_formula_sum "Si O2"
_cell_formula_units_Z 14
_cell_length_a 14.987142
_cell_length_b 5.840869
_cell_length_c 21.470994
_cell_angle_alpha 99.852197
_cell_angle_beta 16.564479
_cell_angle_gamma 103.926602
_cell_volume 507.890895
_symmetry_space_group_name_H-M "P -1"
_symmetry_group_IT_number 2
_symmetry_cell_setting 'triclinic'
loop_
_space_group_symop_operation_xyz
x,y,z
-x,-y,-z
loop_
_atom_site_type_symbol
_atom_site_label
_atom_site_fract_x
_atom_site_fract_y
_atom_site_fract_z
Si Si1 0.170394 0.345503 0.955460
Si Si2 0.055118 0.918388 0.390533
Si Si3 0.408580 0.238556 0.913519
Si Si4 0.826762 0.840053 0.418261
Si Si5 0.116923 0.274819 0.758783
Si Si6 0.586100 0.854172 0.330328
Si Si7 0.567467 0.350024 0.005632
O O1 0.429856 0.288144 0.828060
O O2 0.320416 0.342270 0.786112
O O3 0.037639 0.553264 0.086270
O O4 0.856434 0.111213 0.151837
O O5 0.274601 0.742952 0.255856
O O6 0.752004 0.810348 0.541771
O O7 0.256557 0.168306 0.235630
O O8 0.000000 0.000000 0.500000
O O9 0.265645 0.447954 0.046097
O O10 0.177354 0.970600 0.064473
O O11 0.744579 0.087957 0.466564
O O12 0.728897 0.685020 0.412416
O O13 0.188583 0.808387 0.181112
O O14 0.379876 0.204023 0.623744
O O15 0.500000 0.500000 0.000000
#
# Coordination Sequence:
#
# PCOD9018032 Si02
#       7
#     2   2   2   2   2   2   2
#     4  10  21  43  67  99 144 191 239 302 374 431
#     4  12  26  45  72 107 150 190 246 302 373 440
#     4  11  21  42  71  97 142 188 241 291 369 428
#     4  12  23  45  69 106 143 188 248 303 361 438
#     4  11  22  42  72  98 140 193 245 302 362 437
#     4  10  24  41  65 101 145 188 244 302 370 433
#     4  12  24  46  74 105 145 197 242 301 370 435
#
# _framework density 27.564978
#
# number of rings (size 3 to 8) (size 9 to 14) (size 15 to 20)
#    0.000    0.857    4.286    3.000    0.000    1.143 
#    5.143    1.429    0.000    0.000    0.000    0.000 
#    0.000    0.000    0.000    0.000    0.000    0.000 
#
# Total GULP energy -78190.352358 kJ/mol
# GULP energy per Si atom -5585.025168 kJ/mol
# Density = 2.750224 g / cm^3
# Si number density = 27.564978 Si / 1000 Ang^3
#
#
#
# Elastic Constant Matrix: (Units=GPa)
#
#
# Indices 1 2 3 4 5 6 
#
# 1 259.2071 38.8177 51.4550 31.7572 14.3301 -17.4873
# 2 38.8177 130.7136 40.6803 21.5893 7.7453 45.3218
# 3 51.4550 40.6803 60.9527 38.9912 7.0836 4.4134
# 4 31.7572 21.5893 38.9912 42.0962 7.6326 6.4253
# 5 14.3301 7.7453 7.0836 7.6326 42.3951 20.3932
# 6 -17.4873 45.3218 4.4134 6.4253 20.3932 54.1265
#
#
#
# Elastic Compliance Matrix: (Units=1/GPa)
#
#
# Indices 1 2 3 4 5 6 
#
# 1 0.005313 -0.002275 -0.002500 -0.000713 -0.003316 0.005159
# 2 -0.002275 0.016867 -0.013096 0.006557 0.006965 -0.017193
# 3 -0.002500 -0.013096 0.054152 -0.042703 -0.004059 0.012341
# 4 -0.000713 0.006557 -0.042703 0.062004 -0.000449 -0.009430
# 5 -0.003316 0.006965 -0.004059 -0.000449 0.033381 -0.019096
# 6 0.005159 -0.017193 0.012341 -0.009430 -0.019096 0.041847
#
#
# Mechanical properties :
#
#
# Convention : Reuss Voigt Hill
#
# Bulk Modulus (GPa) = 24.63546 79.19771 51.91659
# Shear Modulus (GPa) = 19.02328 49.05157 34.03743
#
# Velocity S-wave (km/s) = 2.62987 4.22298 3.51779
# Velocity P-wave (km/s) = 4.26360 7.25063 5.94769
#
# Compressibility (1/GPa) = 0.04059190
#
# Stress axis : x y z
#
# Youngs Moduli (GPa) = 188.20060 59.28684 18.46656
#
# Poissons Ratio (x) = 0.13485 0.04616
# Poissons Ratio (y) = 0.42808 0.24184
# Poissons Ratio (z) = 0.47042 0.77643
#
# Static dielectric constant tensor:
#      x y z
#    x 2.286740 0.084250 0.044720 
#    y 0.084250 2.267710 0.077750 
#    z 0.044720 0.077750 2.359130 
# 
# From -- ./inp_files/596736.got.cif
#   From: 2010.05.17/outbox.cif.g08.bks.cpg/sg2_299_cif.got.tgz:596736.got - 2010.06.03 11:33:40.
