data_PCOD9018614
_publ_section_title
;
Structure prediction by ZEFSAII (Michael W. Deem and Ramdas Pophale) SiO2 
 PCOD9018614
Probable space group: P -1
;
_chemical_formula_sum "Si O2"
_cell_formula_units_Z 16
_cell_length_a 9.988396
_cell_length_b 8.630237
_cell_length_c 13.551960
_cell_angle_alpha 55.628654
_cell_angle_beta 80.026336
_cell_angle_gamma 114.796339
_cell_volume 732.696371
_symmetry_space_group_name_H-M "P -1"
_symmetry_group_IT_number 2
_symmetry_cell_setting 'triclinic'
loop_
_space_group_symop_operation_xyz
x,y,z
-x,-y,-z
loop_
_atom_site_type_symbol
_atom_site_label
_atom_site_fract_x
_atom_site_fract_y
_atom_site_fract_z
Si Si1 0.975984 0.380509 0.291110
Si Si2 0.812788 0.726771 0.611148
Si Si3 0.001911 0.861717 0.813504
Si Si4 0.665741 0.842171 0.854365
Si Si5 0.912220 0.721171 0.090626
Si Si6 0.186164 0.703983 0.456514
Si Si7 0.302158 0.395377 0.555070
Si Si8 0.549022 0.515373 0.151246
O O1 0.156335 0.452998 0.283707
O O2 0.946101 0.232380 0.248546
O O3 0.976024 0.601159 0.189180
O O4 0.846362 0.232625 0.454400
O O5 0.769312 0.682230 0.518847
O O6 0.637872 0.647349 0.713849
O O7 0.000000 0.000000 0.500000
O O8 0.834598 0.849979 0.812009
O O9 0.949190 0.709786 0.974673
O O10 0.164862 0.140684 0.719820
O O11 0.491381 0.637653 0.887539
O O12 0.718954 0.084613 0.712242
O O13 0.619113 0.771678 0.000997
O O14 0.701738 0.563788 0.180654
O O15 0.000000 0.000000 0.000000
O O16 0.283933 0.597527 0.507755
O O17 0.000000 0.500000 0.500000
O O18 0.500000 0.500000 0.500000
#
# Coordination Sequence:
#
# PCOD9018614 Si02
#       8
#     2   2   2   2   2   2   2   2
#     4  12  24  43  76  99 135 194 245 286 360 439
#     4  12  23  46  74 103 139 189 241 296 354 430
#     4  11  22  46  70  98 144 191 236 293 362 425
#     4  10  21  43  72  99 140 184 239 294 349 438
#     4  11  27  45  70 103 149 189 231 305 368 425
#     4  12  24  43  70 103 140 188 241 294 371 422
#     4  12  27  43  68 105 144 180 237 309 359 418
#     4  10  23  42  72 100 136 184 238 289 357 424
#
# _framework density 21.837149
#
# number of rings (size 3 to 8) (size 9 to 14) (size 15 to 20)
#    0.000    0.750    5.000    1.875    5.250    1.000 
#    2.250    3.125    0.000    0.000    0.000    0.000 
#    0.000    0.000    0.000    0.000    0.000    0.000 
#
# Total GULP energy -89312.241675 kJ/mol
# GULP energy per Si atom -5582.015105 kJ/mol
# Density = 2.178745 g / cm^3
# Si number density = 21.837149 Si / 1000 Ang^3
#
#
#
# Elastic Constant Matrix: (Units=GPa)
#
#
# Indices 1 2 3 4 5 6 
#
# 1 149.3542 33.9139 44.2040 -20.6800 -1.0758 2.8249
# 2 33.9139 67.1118 25.8741 2.9612 -6.1354 -3.2167
# 3 44.2040 25.8741 122.0435 -6.7056 -0.2869 -9.0829
# 4 -20.6800 2.9612 -6.7056 40.6305 -0.6075 -4.5598
# 5 -1.0758 -6.1354 -0.2869 -0.6075 41.2003 -2.2176
# 6 2.8249 -3.2167 -9.0829 -4.5598 -2.2176 35.1769
#
#
#
# Elastic Compliance Matrix: (Units=1/GPa)
#
#
# Indices 1 2 3 4 5 6 
#
# 1 0.008851 -0.003889 -0.002229 0.004291 -0.000360 -0.001108
# 2 -0.003889 0.018309 -0.002588 -0.003588 0.002609 0.001018
# 3 -0.002229 -0.002588 0.009794 0.000957 -0.000222 0.002581
# 4 0.004291 -0.003588 0.000957 0.027572 0.000161 0.003159
# 5 -0.000360 0.002609 -0.000222 0.000161 0.024748 0.001791
# 6 -0.001108 0.001018 0.002581 0.003159 0.001791 0.029799
#
#
# Mechanical properties :
#
#
# Convention : Reuss Voigt Hill
#
# Bulk Modulus (GPa) = 51.17209 60.72150 55.94679
# Shear Modulus (GPa) = 34.96550 39.03605 37.00077
#
# Velocity S-wave (km/s) = 4.00583 4.23259 4.12077
# Velocity P-wave (km/s) = 6.69925 7.19397 6.95102
#
# Compressibility (1/GPa) = 0.01954190
#
# Stress axis : x y z
#
# Youngs Moduli (GPa) = 112.98685 54.61787 102.10307
#
# Poissons Ratio (x) = 0.21238 0.22757
# Poissons Ratio (y) = 0.43935 0.26429
# Poissons Ratio (z) = 0.25183 0.14138
#
# Static dielectric constant tensor:
#      x y z
#    x 1.758100 -0.083620 -0.030090 
#    y -0.083620 1.822590 -0.040840 
#    z -0.030090 -0.040840 1.854620 
# 
# From -- ./inp_files/494388.got.cif
#   From: 2010.05.17/outbox.cif.g08.bks.cpg/sg2_248_cif.got.tgz:494388.got - 2010.06.03 11:33:40.
