data_PCOD9018321
_publ_section_title
;
Structure prediction by ZEFSAII (Michael W. Deem and Ramdas Pophale) SiO2 
 PCOD9018321
Probable space group: P -1
;
_chemical_formula_sum "Si O2"
_cell_formula_units_Z 16
_cell_length_a 8.994686
_cell_length_b 15.999229
_cell_length_c 5.605357
_cell_angle_alpha 64.501295
_cell_angle_beta 116.667278
_cell_angle_gamma 100.631067
_cell_volume 650.597759
_symmetry_space_group_name_H-M "P -1"
_symmetry_group_IT_number 2
_symmetry_cell_setting 'triclinic'
loop_
_space_group_symop_operation_xyz
x,y,z
-x,-y,-z
loop_
_atom_site_type_symbol
_atom_site_label
_atom_site_fract_x
_atom_site_fract_y
_atom_site_fract_z
Si Si1 0.325618 0.296946 0.243258
Si Si2 0.923576 0.899063 0.094843
Si Si3 0.400020 0.994211 0.187095
Si Si4 0.798404 0.393553 0.361915
Si Si5 0.660100 0.211314 0.714640
Si Si6 0.008065 0.799383 0.772468
Si Si7 0.818789 0.596812 0.367081
Si Si8 0.345711 0.483962 0.241932
O O1 0.458736 0.226618 0.541198
O O2 0.140686 0.275893 0.236334
O O3 0.400933 0.398740 0.222446
O O4 0.291615 0.316365 0.911455
O O5 0.993981 0.847540 0.444104
O O6 0.952881 0.853538 0.911306
O O7 0.731587 0.921963 0.990137
O O8 0.000000 0.000000 0.000000
O O9 0.317419 0.892368 0.242094
O O10 0.500000 0.000000 0.500000
O O11 0.500000 0.000000 0.000000
O O12 0.715283 0.299509 0.493688
O O13 0.778054 0.497282 0.335344
O O14 0.992259 0.376759 0.563568
O O15 0.727011 0.420362 0.020733
O O16 0.793932 0.219342 0.018344
O O17 0.798529 0.566126 0.658231
O O18 0.500000 0.500000 0.500000
#
# Coordination Sequence:
#
# PCOD9018321 Si02
#       8
#     2   2   2   2   2   2   2   2
#     4  11  25  46  68 107 151 192 252 314 374 447
#     4  12  26  52  80 107 154 199 248 311 394 464
#     4  12  28  52  79 114 153 198 254 319 390 461
#     4  10  22  43  67 105 139 193 247 306 368 450
#     4  12  25  47  76 107 148 192 255 313 381 457
#     4  12  28  50  79 117 150 198 256 319 380 462
#     4  10  21  43  69  97 149 193 244 303 374 443
#     4  11  23  42  67  98 146 203 246 301 379 448
#
# _framework density 24.592770000000002
#
# number of rings (size 3 to 8) (size 9 to 14) (size 15 to 20)
#    0.000    0.750    2.500    4.500    3.500    2.000 
#   18.000    0.000    0.000    0.000    0.000    0.000 
#    0.000    0.000    0.000    0.000    0.000    0.000 
#
# Total GULP energy -89130.503587 kJ/mol
# GULP energy per Si atom -5570.656474 kJ/mol
# Density = 2.453680 g / cm^3
# Si number density = 24.592770 Si / 1000 Ang^3
#
#
#
# Elastic Constant Matrix: (Units=GPa)
#
#
# Indices 1 2 3 4 5 6 
#
# 1 66.2923 24.6243 36.7847 -0.2618 -0.3256 2.3640
# 2 24.6243 119.9779 42.2660 11.0053 3.5109 23.3876
# 3 36.7847 42.2660 189.3615 -9.6756 10.8128 1.5108
# 4 -0.2618 11.0053 -9.6756 29.6071 3.3885 -1.9106
# 5 -0.3256 3.5109 10.8128 3.3885 48.4761 -7.8113
# 6 2.3640 23.3876 1.5108 -1.9106 -7.8113 46.9437
#
#
#
# Elastic Compliance Matrix: (Units=1/GPa)
#
#
# Indices 1 2 3 4 5 6 
#
# 1 0.017703 -0.002829 -0.002865 0.000200 0.001077 0.000798
# 2 -0.002829 0.011300 -0.002139 -0.005191 -0.000930 -0.005784
# 3 -0.002865 -0.002139 0.006547 0.003127 -0.001399 0.000893
# 4 0.000200 -0.005191 0.003127 0.037229 -0.002342 0.003601
# 5 0.001077 -0.000930 -0.001399 -0.002342 0.021822 0.003990
# 6 0.000798 -0.005784 0.000893 0.003601 0.003990 0.024925
#
#
# Mechanical properties :
#
#
# Convention : Reuss Voigt Hill
#
# Bulk Modulus (GPa) = 50.29121 64.77574 57.53348
# Shear Modulus (GPa) = 35.25559 43.13582 39.19570
#
# Velocity S-wave (km/s) = 3.79037 4.19263 3.99656
# Velocity P-wave (km/s) = 6.29681 7.05932 6.68894
#
# Compressibility (1/GPa) = 0.01988419
#
# Stress axis : x y z
#
# Youngs Moduli (GPa) = 56.48721 88.49651 152.73359
#
# Poissons Ratio (x) = 0.25040 0.43759
# Poissons Ratio (y) = 0.15983 0.32663
# Poissons Ratio (z) = 0.16184 0.18925
#
# Static dielectric constant tensor:
#      x y z
#    x -8.487410 5.129460 2.477040 
#    y 5.129460 -0.535350 -1.072690 
#    z 2.477040 -1.072690 1.558430 
# 
# From -- ./inp_files/46819.got.cif
#   From: 2010.05.17/outbox.cif.g08.bks.cpg/sg2_24_cif.got.tgz:46819.got - 2010.06.03 11:33:40.
