data_PCOD9018305
_publ_section_title
;
Structure prediction by ZEFSAII (Michael W. Deem and Ramdas Pophale) SiO2 
 PCOD9018305
Probable space group: P -1
;
_chemical_formula_sum "Si O2"
_cell_formula_units_Z 14
_cell_length_a 7.279325
_cell_length_b 9.609861
_cell_length_c 12.055151
_cell_angle_alpha 132.746994
_cell_angle_beta 117.239194
_cell_angle_gamma 72.832076
_cell_volume 550.450999
_symmetry_space_group_name_H-M "P -1"
_symmetry_group_IT_number 2
_symmetry_cell_setting 'triclinic'
loop_
_space_group_symop_operation_xyz
x,y,z
-x,-y,-z
loop_
_atom_site_type_symbol
_atom_site_label
_atom_site_fract_x
_atom_site_fract_y
_atom_site_fract_z
Si Si1 0.210958 0.559350 0.790275
Si Si2 0.595709 0.303115 0.866046
Si Si3 0.466186 0.622530 0.359538
Si Si4 0.845790 0.942985 0.700948
Si Si5 0.753877 0.991375 0.450290
Si Si6 0.744327 0.025137 0.071688
Si Si7 0.218185 0.330815 0.263348
O O1 0.307312 0.431677 0.653462
O O2 0.969472 0.524227 0.720290
O O3 0.224729 0.774296 0.869396
O O4 0.342551 0.559300 0.939846
O O5 0.640534 0.384176 0.797864
O O6 0.380521 0.175346 0.737393
O O7 0.761143 0.134312 0.834127
O O8 0.410148 0.449637 0.332670
O O9 0.368935 0.811926 0.488214
O O10 0.744840 0.943993 0.553132
O O11 0.779815 0.768851 0.669772
O O12 0.095666 0.959397 0.773307
O O13 0.000000 0.000000 0.500000
O O14 0.815113 0.847869 0.923545
O O15 0.500000 0.000000 0.000000
#
# Coordination Sequence:
#
# PCOD9018305 Si02
#       7
#     2   2   2   2   2   2   2
#     4  11  22  41  73 104 141 175 231 295 340 407
#     4  11  23  47  68  97 146 187 230 275 349 424
#     4  11  25  43  70 109 135 179 233 297 340 403
#     4  10  21  43  69  96 138 189 228 275 341 425
#     4  11  28  49  71  95 142 196 230 274 353 427
#     4  11  20  38  69 105 142 180 223 282 357 408
#     4  11  22  41  70 106 141 173 234 291 350 395
#
# _framework density 25.433689999999999
#
# number of rings (size 3 to 8) (size 9 to 14) (size 15 to 20)
#    0.000    1.143    4.286    3.000    4.000    0.571 
#    0.000    3.571    0.000    0.000    0.000    0.000 
#    0.000    0.000    0.000    0.000    0.000    0.000 
#
# Total GULP energy -78203.595260 kJ/mol
# GULP energy per Si atom -5585.971090 kJ/mol
# Density = 2.537580 g / cm^3
# Si number density = 25.433690 Si / 1000 Ang^3
#
#
#
# Elastic Constant Matrix: (Units=GPa)
#
#
# Indices 1 2 3 4 5 6 
#
# 1 130.9406 -5.7049 30.5939 7.7286 13.1628 -10.7185
# 2 -5.7049 79.8450 19.0165 6.5957 -9.8878 -2.2873
# 3 30.5939 19.0165 84.4314 -1.0056 -14.3659 -11.6297
# 4 7.7286 6.5957 -1.0056 48.2316 -16.9216 2.4338
# 5 13.1628 -9.8878 -14.3659 -16.9216 48.1583 -0.1778
# 6 -10.7185 -2.2873 -11.6297 2.4338 -0.1778 29.6525
#
#
#
# Elastic Compliance Matrix: (Units=1/GPa)
#
#
# Indices 1 2 3 4 5 6 
#
# 1 0.009618 0.001492 -0.004408 -0.003671 -0.004919 0.002135
# 2 0.001492 0.013719 -0.003484 -0.001970 0.000679 0.000397
# 3 -0.004408 -0.003484 0.015949 0.003596 0.006526 0.004137
# 4 -0.003671 -0.001970 0.003596 0.025499 0.010623 -0.002098
# 5 -0.004919 0.000679 0.006526 0.010623 0.027929 0.000129
# 6 0.002135 0.000397 0.004137 -0.002098 0.000129 0.036322
#
#
# Mechanical properties :
#
#
# Convention : Reuss Voigt Hill
#
# Bulk Modulus (GPa) = 37.75502 42.55867 40.15684
# Shear Modulus (GPa) = 33.18676 41.96257 37.57467
#
# Velocity S-wave (km/s) = 3.61617 4.06628 3.84781
# Velocity P-wave (km/s) = 5.68439 6.23022 5.96355
#
# Compressibility (1/GPa) = 0.02648655
#
# Stress axis : x y z
#
# Youngs Moduli (GPa) = 103.97354 72.89283 62.70053
#
# Poissons Ratio (x) = -0.10877 0.27637
# Poissons Ratio (y) = -0.15515 0.21844
# Poissons Ratio (z) = 0.45829 0.25395
#
# Static dielectric constant tensor:
#      x y z
#    x 2.198380 -0.065710 0.142380 
#    y -0.065710 2.014440 -0.038470 
#    z 0.142380 -0.038470 2.113340 
# 
# From -- ./inp_files/389196.got.cif
#   From: 2010.05.17/outbox.cif.g08.bks.cpg/sg2_195_cif.got.tgz:389196.got - 2010.06.03 11:33:40.
