data_PCOD9018545
_publ_section_title
;
Structure prediction by ZEFSAII (Michael W. Deem and Ramdas Pophale) SiO2 
 PCOD9018545
Probable space group: P -1
;
_chemical_formula_sum "Si O2"
_cell_formula_units_Z 14
_cell_length_a 19.836536
_cell_length_b 9.793032
_cell_length_c 11.771557
_cell_angle_alpha 43.926585
_cell_angle_beta 142.893574
_cell_angle_gamma 152.261399
_cell_volume 641.271193
_symmetry_space_group_name_H-M "P -1"
_symmetry_group_IT_number 2
_symmetry_cell_setting 'triclinic'
loop_
_space_group_symop_operation_xyz
x,y,z
-x,-y,-z
loop_
_atom_site_type_symbol
_atom_site_label
_atom_site_fract_x
_atom_site_fract_y
_atom_site_fract_z
Si Si1 0.130205 0.860731 0.150420
Si Si2 0.558337 0.523909 0.885637
Si Si3 0.743077 0.676848 0.265325
Si Si4 0.514114 0.311623 0.703243
Si Si5 0.167209 0.294553 0.242603
Si Si6 0.078661 0.368049 0.305233
Si Si7 0.843979 0.169963 0.528973
O O1 0.057405 0.570561 0.169774
O O2 0.139130 0.849732 0.303294
O O3 0.312451 0.136771 0.179991
O O4 0.008687 0.880374 0.944994
O O5 0.389781 0.397220 0.783805
O O6 0.532373 0.371781 0.825648
O O7 0.649345 0.530056 0.107652
O O8 0.822312 0.585102 0.480508
O O9 0.900422 0.029259 0.255986
O O10 0.500000 0.500000 0.500000
O O11 0.683482 0.450056 0.794261
O O12 0.338387 0.974674 0.649399
O O13 0.181643 0.433899 0.294574
O O14 0.163629 0.055889 0.404932
O O15 0.000000 0.500000 0.500000
#
# Coordination Sequence:
#
# PCOD9018545 Si02
#       7
#     2   2   2   2   2   2   2
#     4  12  25  42  68 103 136 182 231 271 334 415
#     4  11  22  43  69 100 135 182 228 274 340 403
#     4  10  24  42  67  96 141 180 219 287 335 392
#     4  10  21  43  71  97 131 179 224 279 340 402
#     4  11  23  46  70  98 139 180 222 280 342 399
#     4  11  25  43  68 102 136 181 229 277 340 395
#     4  11  26  44  71 101 136 175 230 280 344 405
#
# _framework density 21.831636
#
# number of rings (size 3 to 8) (size 9 to 14) (size 15 to 20)
#    0.000    1.143    4.286    2.571    6.000    0.571 
#    0.000    2.143    0.000    0.000    0.000    0.000 
#    0.000    0.000    0.000    0.000    0.000    0.000 
#
# Total GULP energy -78298.715955 kJ/mol
# GULP energy per Si atom -5592.765425 kJ/mol
# Density = 2.178195 g / cm^3
# Si number density = 21.831636 Si / 1000 Ang^3
#
#
#
# Elastic Constant Matrix: (Units=GPa)
#
#
# Indices 1 2 3 4 5 6 
#
# 1 78.9980 21.6221 27.7350 2.4191 -3.4913 32.4791
# 2 21.6221 71.8228 20.7609 14.6466 10.7876 28.6394
# 3 27.7350 20.7609 71.1244 20.2827 -11.7767 10.0064
# 4 2.4191 14.6466 20.2827 23.9250 -1.2208 7.1064
# 5 -3.4913 10.7876 -11.7767 -1.2208 37.1475 2.3337
# 6 32.4791 28.6394 10.0064 7.1064 2.3337 37.3370
#
#
#
# Elastic Compliance Matrix: (Units=1/GPa)
#
#
# Indices 1 2 3 4 5 6 
#
# 1 0.024616 0.002153 -0.010353 0.011671 0.000205 -0.022524
# 2 0.002153 0.023924 -0.004925 -0.005924 -0.007414 -0.017312
# 3 -0.010353 -0.004925 0.024967 -0.019520 0.007143 0.009361
# 4 0.011671 -0.005924 -0.019520 0.064520 -0.000457 -0.012628
# 5 0.000205 -0.007414 0.007143 -0.000457 0.031233 0.001729
# 6 -0.022524 -0.017312 0.009361 -0.012628 0.001729 0.059443
#
#
# Mechanical properties :
#
#
# Convention : Reuss Voigt Hill
#
# Bulk Modulus (GPa) = 21.16126 40.24235 30.70180
# Shear Modulus (GPa) = 18.47029 29.80372 24.13700
#
# Velocity S-wave (km/s) = 2.91182 3.69882 3.32866
# Velocity P-wave (km/s) = 4.58464 6.05927 5.37279
#
# Compressibility (1/GPa) = 0.04725618
#
# Stress axis : x y z
#
# Youngs Moduli (GPa) = 40.62341 41.79967 40.05305
#
# Poissons Ratio (x) = -0.08998 0.41466
# Poissons Ratio (y) = -0.08745 0.19727
# Poissons Ratio (z) = 0.42057 0.20587
#
# Static dielectric constant tensor:
#      x y z
#    x 1.795970 0.001410 -0.009850 
#    y 0.001410 1.782850 0.003070 
#    z -0.009850 0.003070 1.809430 
# 
# From -- ./inp_files/175930.got.cif
#   From: 2010.05.17/outbox.cif.g08.bks.cpg/sg2_88_cif.got.tgz:175930.got - 2010.06.03 11:33:40.
