data_PCOD9018908
_publ_section_title
;
Structure prediction by ZEFSAII (Michael W. Deem and Ramdas Pophale) SiO2 
 PCOD9018908
Probable space group: P -1
;
_chemical_formula_sum "Si O2"
_cell_formula_units_Z 12
_cell_length_a 14.592325
_cell_length_b 6.474517
_cell_length_c 7.918067
_cell_angle_alpha 118.206223
_cell_angle_beta 51.286605
_cell_angle_gamma 114.318275
_cell_volume 507.005633
_symmetry_space_group_name_H-M "P -1"
_symmetry_group_IT_number 2
_symmetry_cell_setting 'triclinic'
loop_
_space_group_symop_operation_xyz
x,y,z
-x,-y,-z
loop_
_atom_site_type_symbol
_atom_site_label
_atom_site_fract_x
_atom_site_fract_y
_atom_site_fract_z
Si Si1 0.428765 0.712194 0.136519
Si Si2 0.029336 0.610919 0.824152
Si Si3 0.360284 0.911182 0.613539
Si Si4 0.667720 0.100431 0.994127
Si Si5 0.876526 0.838214 0.522092
Si Si6 0.833556 0.859564 0.175338
O O1 0.347647 0.738182 0.402033
O O2 0.348641 0.718217 0.065540
O O3 0.500000 0.500000 0.000000
O O4 0.537869 0.934394 0.088632
O O5 0.095620 0.426504 0.579040
O O6 0.105560 0.873884 0.847064
O O7 0.000000 0.500000 0.000000
O O8 0.901538 0.668667 0.933748
O O9 0.500000 0.000000 0.500000
O O10 0.300317 0.139482 0.726369
O O11 0.311461 0.796120 0.801775
O O12 0.767959 0.939586 0.774877
O O13 0.849747 0.851106 0.356055
O O14 0.000000 0.000000 0.500000
#
# Coordination Sequence:
#
# PCOD9018908 Si02
#       6
#     2   2   2   2   2   2
#     4  10  22  44  66  93 123 169 216 269 325 376
#     4   9  22  40  65  92 122 176 215 261 323 378
#     4  10  22  42  65  95 129 167 213 267 323 384
#     4  10  23  41  65  91 132 164 213 270 317 389
#     4  11  24  41  63  97 131 169 218 265 323 385
#     4  10  21  44  66  89 136 167 216 271 318 383
#
# _framework density 23.668374
#
# number of rings (size 3 to 8) (size 9 to 14) (size 15 to 20)
#    0.000    2.000    1.667    0.000    9.333    1.333 
#    6.000    0.000    0.000    0.000    0.000    0.000 
#    0.000    0.000    0.000    0.000    0.000    0.000 
#
# Total GULP energy -67009.658709 kJ/mol
# GULP energy per Si atom -5584.138226 kJ/mol
# Density = 2.361450 g / cm^3
# Si number density = 23.668374 Si / 1000 Ang^3
#
#
#
# Elastic Constant Matrix: (Units=GPa)
#
#
# Indices 1 2 3 4 5 6 
#
# 1 133.7458 29.3539 69.5850 6.6416 -19.3038 -37.3167
# 2 29.3539 75.0191 55.5184 25.2837 4.9397 -25.4952
# 3 69.5850 55.5184 182.7216 9.8514 -8.7204 -45.8595
# 4 6.6416 25.2837 9.8514 31.1743 -18.4592 -16.5704
# 5 -19.3038 4.9397 -8.7204 -18.4592 52.0461 -5.4365
# 6 -37.3167 -25.4952 -45.8595 -16.5704 -5.4365 43.7425
#
#
#
# Elastic Compliance Matrix: (Units=1/GPa)
#
#
# Indices 1 2 3 4 5 6 
#
# 1 0.017662 -0.013004 0.003082 0.033206 0.022808 0.026133
# 2 -0.013004 0.043777 -0.014315 -0.067476 -0.038540 -0.030937
# 3 0.003082 -0.014315 0.013111 0.027573 0.016624 0.020543
# 4 0.033206 -0.067476 0.027573 0.181702 0.098119 0.098934
# 5 0.022808 -0.038540 0.016624 0.098119 0.075283 0.060949
# 6 0.026133 -0.030937 0.020543 0.098934 0.060949 0.093714
#
#
# Mechanical properties :
#
#
# Convention : Reuss Voigt Hill
#
# Bulk Modulus (GPa) = 38.34813 77.82235 58.08524
# Shear Modulus (GPa) = 10.36452 41.19454 25.77953
#
# Velocity S-wave (km/s) = 2.09489 4.17644 3.30388
# Velocity P-wave (km/s) = 4.69988 7.49724 6.25689
#
# Compressibility (1/GPa) = 0.02607689
#
# Stress axis : x y z
#
# Youngs Moduli (GPa) = 56.61953 22.84285 76.27057
#
# Poissons Ratio (x) = 0.29704 -0.23508
# Poissons Ratio (y) = 0.73627 1.09183
# Poissons Ratio (z) = -0.17451 0.32700
#
# Static dielectric constant tensor:
#      x y z
#    x 2.087800 0.028100 0.012450 
#    y 0.028100 1.935430 0.001020 
#    z 0.012450 0.001020 1.963670 
# 
# From -- ./inp_files/46052.got.cif
#   From: 2010.05.17/outbox.cif.g08.bks.cpg/sg2_24_cif.got.tgz:46052.got - 2010.06.03 11:33:40.
