data_PCOD9018236
_publ_section_title
;
Structure prediction by ZEFSAII (Michael W. Deem and Ramdas Pophale) SiO2 
 PCOD9018236
Probable space group: P -1
;
_chemical_formula_sum "Si O2"
_cell_formula_units_Z 14
_cell_length_a 12.406615
_cell_length_b 14.550851
_cell_length_c 9.389805
_cell_angle_alpha 57.294488
_cell_angle_beta 44.558752
_cell_angle_gamma 29.472033
_cell_volume 569.230295
_symmetry_space_group_name_H-M "P -1"
_symmetry_group_IT_number 2
_symmetry_cell_setting 'triclinic'
loop_
_space_group_symop_operation_xyz
x,y,z
-x,-y,-z
loop_
_atom_site_type_symbol
_atom_site_label
_atom_site_fract_x
_atom_site_fract_y
_atom_site_fract_z
Si Si1 0.053668 0.220876 0.383385
Si Si2 0.023765 0.933635 0.771773
Si Si3 0.355484 0.733509 0.345116
Si Si4 0.000875 0.268618 0.856698
Si Si5 0.990369 0.385411 0.041024
Si Si6 0.701295 0.039781 0.387570
Si Si7 0.803047 0.525119 0.597231
O O1 0.812321 0.274703 0.539958
O O2 0.131972 0.222799 0.156041
O O3 0.935958 0.385658 0.455352
O O4 0.290939 0.025228 0.413103
O O5 0.254074 0.812066 0.535723
O O6 0.047935 0.022096 0.780184
O O7 0.750004 0.107945 0.791952
O O8 0.066114 0.797322 0.929259
O O9 0.673649 0.537664 0.205229
O O10 0.775245 0.451032 0.811656
O O11 0.232366 0.089370 0.684407
O O12 0.089443 0.309121 0.851531
O O13 0.000000 0.500000 0.000000
O O14 0.461957 0.257503 0.383745
O O15 0.000000 0.500000 0.500000
#
# Coordination Sequence:
#
# PCOD9018236 Si02
#       7
#     2   2   2   2   2   2   2
#     4  10  22  45  71  97 133 191 230 274 346 402
#     4  10  21  43  69 105 132 180 237 282 344 395
#     4  10  22  42  73  99 142 178 232 287 337 412
#     4  11  25  41  67 105 136 175 230 282 347 395
#     4  12  25  44  69 107 141 179 231 285 345 409
#     4  10  24  44  68  99 140 177 226 286 340 413
#     4  11  25  46  68  99 140 186 228 277 347 413
#
# _framework density 24.594615999999998
#
# number of rings (size 3 to 8) (size 9 to 14) (size 15 to 20)
#    0.000    1.429    1.429    2.571    4.000    2.857 
#    2.571    3.571    0.000    0.000    0.000    0.000 
#    0.000    0.000    0.000    0.000    0.000    0.000 
#
# Total GULP energy -78376.037257 kJ/mol
# GULP energy per Si atom -5598.288376 kJ/mol
# Density = 2.453864 g / cm^3
# Si number density = 24.594616 Si / 1000 Ang^3
#
#
#
# Elastic Constant Matrix: (Units=GPa)
#
#
# Indices 1 2 3 4 5 6 
#
# 1 129.3402 29.3539 27.7136 -0.2358 19.3301 17.5893
# 2 29.3539 168.9091 48.3550 -46.0114 15.6419 -20.9886
# 3 27.7136 48.3550 73.4422 -39.0418 21.1721 -20.4113
# 4 -0.2358 -46.0114 -39.0418 41.1199 -9.8707 8.4327
# 5 19.3301 15.6419 21.1721 -9.8707 36.1078 -6.0420
# 6 17.5893 -20.9886 -20.4113 8.4327 -6.0420 43.7193
#
#
#
# Elastic Compliance Matrix: (Units=1/GPa)
#
#
# Indices 1 2 3 4 5 6 
#
# 1 0.013008 -0.003612 -0.011526 -0.013798 -0.004129 -0.010258
# 2 -0.003612 0.009784 0.003157 0.012923 0.000241 0.005165
# 3 -0.011526 0.003157 0.044306 0.040094 -0.007185 0.018111
# 4 -0.013798 0.012923 0.040094 0.073681 0.001169 0.016424
# 5 -0.004129 0.000241 -0.007185 0.001169 0.034838 0.003011
# 6 -0.010258 0.005165 0.018111 0.016424 0.003011 0.035184
#
#
# Mechanical properties :
#
#
# Convention : Reuss Voigt Hill
#
# Bulk Modulus (GPa) = 23.18234 64.72628 43.95431
# Shear Modulus (GPa) = 20.06903 41.94066 31.00484
#
# Velocity S-wave (km/s) = 2.85966 4.13398 3.55439
# Velocity P-wave (km/s) = 4.51107 7.01148 5.89536
#
# Compressibility (1/GPa) = 0.04313629
#
# Stress axis : x y z
#
# Youngs Moduli (GPa) = 76.87703 102.20720 22.57032
#
# Poissons Ratio (x) = 0.36915 0.26014
# Poissons Ratio (y) = 0.27766 -0.07125
# Poissons Ratio (z) = 0.88608 -0.32266
#
# Static dielectric constant tensor:
#      x y z
#    x 1.959080 0.028000 0.002890 
#    y 0.028000 1.948980 -0.016080 
#    z 0.002890 -0.016080 1.971500 
# 
# From -- ./inp_files/272077.got.cif
#   From: 2010.05.17/outbox.cif.g08.bks.cpg/sg2_137_cif.got.tgz:272077.got - 2010.06.03 11:33:40.
