data_PCOD9018836
_publ_section_title
;
Structure prediction by ZEFSAII (Michael W. Deem and Ramdas Pophale) SiO2 
 PCOD9018836
Probable space group: P -1
;
_chemical_formula_sum "Si O2"
_cell_formula_units_Z 16
_cell_length_a 9.456095
_cell_length_b 7.668267
_cell_length_c 13.666701
_cell_angle_alpha 119.491979
_cell_angle_beta 63.237162
_cell_angle_gamma 84.603626
_cell_volume 703.768542
_symmetry_space_group_name_H-M "P -1"
_symmetry_group_IT_number 2
_symmetry_cell_setting 'triclinic'
loop_
_space_group_symop_operation_xyz
x,y,z
-x,-y,-z
loop_
_atom_site_type_symbol
_atom_site_label
_atom_site_fract_x
_atom_site_fract_y
_atom_site_fract_z
Si Si1 0.427672 0.729251 0.481539
Si Si2 0.600429 0.902272 0.841739
Si Si3 0.237857 0.188353 0.578894
Si Si4 0.042675 0.466956 0.363089
Si Si5 0.861918 0.178262 0.247940
Si Si6 0.364705 0.702968 0.819869
Si Si7 0.984530 0.678880 0.134303
Si Si8 0.669539 0.311723 0.938931
O O1 0.587547 0.777960 0.487416
O O2 0.312603 0.710985 0.601939
O O3 0.507861 0.524709 0.329032
O O4 0.300873 0.932577 0.511437
O O5 0.749732 0.659211 0.744257
O O6 0.452375 0.873398 0.815533
O O7 0.500000 0.000000 0.000000
O O8 0.677513 0.076981 0.833713
O O9 0.080826 0.302907 0.584532
O O10 0.161945 0.303914 0.737781
O O11 0.000000 0.500000 0.500000
O O12 0.982811 0.291457 0.281013
O O13 0.813318 0.224586 0.163136
O O14 0.934200 0.920628 0.172877
O O15 0.341782 0.690000 0.939318
O O16 0.164731 0.635690 0.121012
O O17 0.000000 0.500000 0.000000
O O18 0.500000 0.500000 0.000000
#
# Coordination Sequence:
#
# PCOD9018836 Si02
#       8
#     2   2   2   2   2   2   2   2
#     4  10  21  44  65 103 130 173 223 281 344 398
#     4  10  25  45  64  98 137 183 223 279 347 401
#     4  10  24  41  68  97 142 170 222 284 336 410
#     4  12  25  44  70 104 138 182 228 287 343 403
#     4  11  24  43  70  99 134 170 238 280 329 414
#     4  11  23  42  72  95 129 184 222 278 337 401
#     4  11  25  44  68 100 132 179 225 282 340 400
#     4  11  26  45  64  98 139 177 226 275 343 411
#
# _framework density 22.734746999999999
#
# number of rings (size 3 to 8) (size 9 to 14) (size 15 to 20)
#    0.000    1.250    2.500    1.875    7.000    2.500 
#    0.000    1.875    0.000    0.000    0.000    0.000 
#    0.000    0.000    0.000    0.000    0.000    0.000 
#
# Total GULP energy -89457.178239 kJ/mol
# GULP energy per Si atom -5591.073640 kJ/mol
# Density = 2.268300 g / cm^3
# Si number density = 22.734747 Si / 1000 Ang^3
#
#
#
# Elastic Constant Matrix: (Units=GPa)
#
#
# Indices 1 2 3 4 5 6 
#
# 1 83.1009 15.1635 -1.6720 5.0208 2.6039 -9.0210
# 2 15.1635 67.7764 2.0588 11.8758 3.8653 -29.3343
# 3 -1.6720 2.0588 71.2861 6.6159 -3.7408 -19.9064
# 4 5.0208 11.8758 6.6159 33.1869 -0.2153 -5.4364
# 5 2.6039 3.8653 -3.7408 -0.2153 44.5863 2.2533
# 6 -9.0210 -29.3343 -19.9064 -5.4364 2.2533 43.6554
#
#
#
# Elastic Compliance Matrix: (Units=1/GPa)
#
#
# Indices 1 2 3 4 5 6 
#
# 1 0.012665 -0.001931 0.000877 -0.001140 -0.000585 0.001607
# 2 -0.001931 0.023559 0.004418 -0.006285 -0.002438 0.016789
# 3 0.000877 0.004418 0.017207 -0.003413 0.000460 0.010547
# 4 -0.001140 -0.006285 -0.003413 0.032919 0.000582 -0.001945
# 5 -0.000585 -0.002438 0.000460 0.000582 0.022850 -0.002656
# 6 0.001607 0.016789 0.010547 -0.001945 -0.002656 0.039225
#
#
# Mechanical properties :
#
#
# Convention : Reuss Voigt Hill
#
# Bulk Modulus (GPa) = 16.62278 28.14044 22.38161
# Shear Modulus (GPa) = 30.91174 38.05992 34.48583
#
# Velocity S-wave (km/s) = 3.69137 4.09600 3.89894
# Velocity P-wave (km/s) = 5.04933 5.89696 5.48953
#
# Compressibility (1/GPa) = 0.06015841
#
# Stress axis : x y z
#
# Youngs Moduli (GPa) = 78.95556 42.44669 58.11532
#
# Poissons Ratio (x) = 0.08198 -0.05096
# Poissons Ratio (y) = 0.15249 -0.25675
# Poissons Ratio (z) = -0.06923 -0.18753
#
# Static dielectric constant tensor:
#      x y z
#    x 1.863180 -0.014380 -0.005140 
#    y -0.014380 1.844140 0.038470 
#    z -0.005140 0.038470 1.788330 
# 
# From -- ./inp_files/495677.got.cif
#   From: 2010.05.17/outbox.cif.g08.bks.cpg/sg2_248_cif.got.tgz:495677.got - 2010.06.03 11:33:40.
