data_PCOD9018091
_publ_section_title
;
Structure prediction by ZEFSAII (Michael W. Deem and Ramdas Pophale) SiO2 
 PCOD9018091
Probable space group: P -1
;
_chemical_formula_sum "Si O2"
_cell_formula_units_Z 14
_cell_length_a 14.660502
_cell_length_b 9.611851
_cell_length_c 6.879405
_cell_angle_alpha 97.498473
_cell_angle_beta 118.499048
_cell_angle_gamma 125.162594
_cell_volume 575.084473
_symmetry_space_group_name_H-M "P -1"
_symmetry_group_IT_number 2
_symmetry_cell_setting 'triclinic'
loop_
_space_group_symop_operation_xyz
x,y,z
-x,-y,-z
loop_
_atom_site_type_symbol
_atom_site_label
_atom_site_fract_x
_atom_site_fract_y
_atom_site_fract_z
Si Si1 0.444122 0.779479 0.779716
Si Si2 0.899380 0.170118 0.352220
Si Si3 0.078337 0.454444 0.945540
Si Si4 0.141373 0.332776 0.332539
Si Si5 0.685946 0.105333 0.800004
Si Si6 0.429293 0.450018 0.627263
Si Si7 0.365744 0.111135 0.686514
O O1 0.261352 0.579755 0.557645
O O2 0.492159 0.661305 0.797015
O O3 0.521618 0.923268 0.696960
O O4 0.533232 0.900841 0.091269
O O5 0.016202 0.195105 0.347128
O O6 0.775827 0.983291 0.339763
O O7 0.802599 0.158018 0.089790
O O8 0.998615 0.358183 0.639880
O O9 0.075955 0.315882 0.055337
O O10 0.251085 0.676315 0.127129
O O11 0.000000 0.500000 0.000000
O O12 0.248179 0.303124 0.412253
O O13 0.692020 0.022635 0.592441
O O14 0.500000 0.500000 0.500000
O O15 0.458684 0.339451 0.756142
#
# Coordination Sequence:
#
# PCOD9018091 Si02
#       7
#     2   2   2   2   2   2   2
#     4   9  23  40  63  95 126 162 212 254 312 377
#     4  11  23  40  64  95 127 164 218 257 312 379
#     4  12  23  42  68  89 131 171 207 262 322 366
#     4  10  24  41  61 102 125 166 214 255 315 376
#     4  11  22  40  68  95 121 173 214 255 315 375
#     4  10  21  43  68  90 134 166 206 261 314 377
#     4  11  20  40  68  92 123 174 206 256 320 373
#
# _framework density 24.344252999999998
#
# number of rings (size 3 to 8) (size 9 to 14) (size 15 to 20)
#    0.857    0.571    4.286    0.857    0.000    3.429 
#    0.000    4.286    0.000    0.000    0.000    0.000 
#    0.000    0.000    0.000    0.000    0.000    0.000 
#
# Total GULP energy -78206.043657 kJ/mol
# GULP energy per Si atom -5586.145976 kJ/mol
# Density = 2.428884 g / cm^3
# Si number density = 24.344253 Si / 1000 Ang^3
#
#
#
# Elastic Constant Matrix: (Units=GPa)
#
#
# Indices 1 2 3 4 5 6 
#
# 1 96.2183 21.2637 30.4691 -20.8679 -1.8070 30.4624
# 2 21.2637 116.1277 8.0896 -16.8138 -7.8099 35.4576
# 3 30.4691 8.0896 138.9413 -12.2277 -11.0048 19.5094
# 4 -20.8679 -16.8138 -12.2277 44.6258 9.0748 -3.5158
# 5 -1.8070 -7.8099 -11.0048 9.0748 28.4944 -7.2059
# 6 30.4624 35.4576 19.5094 -3.5158 -7.2059 24.2335
#
#
#
# Elastic Compliance Matrix: (Units=1/GPa)
#
#
# Indices 1 2 3 4 5 6 
#
# 1 0.030748 0.015861 0.001936 0.018890 -0.015480 -0.065281
# 2 0.015861 0.026004 0.004285 0.015708 -0.011002 -0.062429
# 3 0.001936 0.004285 0.009010 0.003842 -0.000369 -0.015509
# 4 0.018890 0.015708 0.003842 0.037890 -0.017614 -0.049561
# 5 -0.015480 -0.011002 -0.000369 -0.017614 0.048643 0.047762
# 6 -0.065281 -0.062429 -0.015509 -0.049561 0.047762 0.234166
#
#
# Mechanical properties :
#
#
# Convention : Reuss Voigt Hill
#
# Bulk Modulus (GPa) = 9.09698 52.32579 30.71138
# Shear Modulus (GPa) = 13.19472 38.90174 26.04823
#
# Velocity S-wave (km/s) = 2.33063 4.00182 3.27463
# Velocity P-wave (km/s) = 3.31472 6.54931 5.19042
#
# Compressibility (1/GPa) = 0.10992664
#
# Stress axis : x y z
#
# Youngs Moduli (GPa) = 32.52197 38.45508 110.99111
#
# Poissons Ratio (x) = -0.60994 -0.21491
# Poissons Ratio (y) = -0.51584 -0.47555
# Poissons Ratio (z) = -0.06297 -0.16476
#
# Static dielectric constant tensor:
#      x y z
#    x 1.936850 -0.020400 -0.044910 
#    y -0.020400 1.986080 0.113590 
#    z -0.044910 0.113590 2.139250 
# 
# From -- ./inp_files/95083.got.cif
#   From: 2010.05.17/outbox.cif.g08.bks.cpg/sg2_48_cif.got.tgz:95083.got - 2010.06.03 11:33:40.
