data_PCOD9018858
_publ_section_title
;
Structure prediction by ZEFSAII (Michael W. Deem and Ramdas Pophale) SiO2 
 PCOD9018858
Probable space group: P -1
;
_chemical_formula_sum "Si O2"
_cell_formula_units_Z 14
_cell_length_a 8.137330
_cell_length_b 9.202473
_cell_length_c 21.388570
_cell_angle_alpha 47.058987
_cell_angle_beta 33.513780
_cell_angle_gamma 49.355833
_cell_volume 633.459858
_symmetry_space_group_name_H-M "P -1"
_symmetry_group_IT_number 2
_symmetry_cell_setting 'triclinic'
loop_
_space_group_symop_operation_xyz
x,y,z
-x,-y,-z
loop_
_atom_site_type_symbol
_atom_site_label
_atom_site_fract_x
_atom_site_fract_y
_atom_site_fract_z
Si Si1 0.868626 0.872004 0.632868
Si Si2 0.340971 0.755678 0.630077
Si Si3 0.098666 0.182961 0.627218
Si Si4 0.548418 0.652501 0.993606
Si Si5 0.240860 0.571157 0.232977
Si Si6 0.490148 0.947007 0.192568
Si Si7 0.186059 0.420527 0.863247
O O1 0.800975 0.659549 0.691897
O O2 0.136564 0.820716 0.614741
O O3 0.574263 0.981730 0.736016
O O4 0.000000 0.000000 0.500000
O O5 0.691260 0.709931 0.513688
O O6 0.242245 0.567178 0.746850
O O7 0.275587 0.948094 0.641307
O O8 0.033661 0.293539 0.681070
O O9 0.778485 0.174857 0.699602
O O10 0.863181 0.533355 0.959275
O O11 0.570930 0.859868 0.891205
O O12 0.500000 0.500000 0.000000
O O13 0.286101 0.666728 0.123586
O O14 0.545154 0.583817 0.171421
O O15 0.789480 0.797831 0.113977
#
# Coordination Sequence:
#
# PCOD9018858 Si02
#       7
#     2   2   2   2   2   2   2
#     4  11  24  42  62  99 139 167 217 272 327 392
#     4  10  21  44  65  94 139 172 209 272 336 385
#     4   9  21  39  66  95 125 176 214 264 329 378
#     4  12  23  49  65  91 143 168 221 270 326 388
#     4  11  25  41  66 101 127 174 222 274 315 389
#     4  10  23  44  67  95 129 182 211 268 334 385
#     4  11  24  42  71  96 125 177 224 264 330 384
#
# _framework density 22.100849
#
# number of rings (size 3 to 8) (size 9 to 14) (size 15 to 20)
#    0.000    1.429    4.286    0.429    8.000    4.571 
#    5.143    0.000    0.000    0.000    0.000    0.000 
#    0.000    0.000    0.000    0.000    0.000    0.000 
#
# Total GULP energy -78177.374468 kJ/mol
# GULP energy per Si atom -5584.098176 kJ/mol
# Density = 2.205055 g / cm^3
# Si number density = 22.100849 Si / 1000 Ang^3
#
#
#
# Elastic Constant Matrix: (Units=GPa)
#
#
# Indices 1 2 3 4 5 6 
#
# 1 50.4632 28.4376 13.2232 -7.5652 19.1930 14.2883
# 2 28.4376 130.4058 55.4815 28.2517 21.2053 26.1346
# 3 13.2232 55.4815 96.8891 23.9044 26.8217 14.2004
# 4 -7.5652 28.2517 23.9044 23.6550 6.7710 6.0773
# 5 19.1930 21.2053 26.8217 6.7710 35.5407 1.1125
# 6 14.2883 26.1346 14.2004 6.0773 1.1125 33.6635
#
#
#
# Elastic Compliance Matrix: (Units=1/GPa)
#
#
# Indices 1 2 3 4 5 6 
#
# 1 0.047093 -0.011235 -0.000348 0.040704 -0.025669 -0.017620
# 2 -0.011235 0.015709 -0.003051 -0.019361 0.002772 -0.002736
# 3 -0.000348 -0.003051 0.017811 -0.011135 -0.009227 -0.002681
# 4 0.040704 -0.019361 -0.011135 0.099336 -0.020488 -0.014805
# 5 -0.025669 0.002772 -0.009227 -0.020488 0.050753 0.014657
# 6 -0.017620 -0.002736 -0.002681 -0.014805 0.014657 0.042628
#
#
# Mechanical properties :
#
#
# Convention : Reuss Voigt Hill
#
# Bulk Modulus (GPa) = 19.47675 52.44918 35.96297
# Shear Modulus (GPa) = 15.63910 30.61288 23.12599
#
# Velocity S-wave (km/s) = 2.66301 3.72579 3.23830
# Velocity P-wave (km/s) = 4.27636 6.50323 5.50360
#
# Compressibility (1/GPa) = 0.05134326
#
# Stress axis : x y z
#
# Youngs Moduli (GPa) = 21.23476 63.65917 56.14659
#
# Poissons Ratio (x) = 0.71519 0.01955
# Poissons Ratio (y) = 0.23857 0.17133
# Poissons Ratio (z) = 0.00739 0.19426
#
# Static dielectric constant tensor:
#      x y z
#    x 1.854320 -0.034400 -0.039270 
#    y -0.034400 1.866950 0.054250 
#    z -0.039270 0.054250 1.818110 
# 
# From -- ./inp_files/178547.got.cif
#   From: 2010.05.17/outbox.cif.g08.bks.cpg/sg2_90_cif.got.tgz:178547.got - 2010.06.03 11:33:40.
