data_PCOD9018044
_publ_section_title
;
Structure prediction by ZEFSAII (Michael W. Deem and Ramdas Pophale) SiO2 
 PCOD9018044
Probable space group: P -1
;
_chemical_formula_sum "Si O2"
_cell_formula_units_Z 14
_cell_length_a 5.965802
_cell_length_b 25.944083
_cell_length_c 8.778143
_cell_angle_alpha 31.398418
_cell_angle_beta 122.532374
_cell_angle_gamma 121.276313
_cell_volume 591.152266
_symmetry_space_group_name_H-M "P -1"
_symmetry_group_IT_number 2
_symmetry_cell_setting 'triclinic'
loop_
_space_group_symop_operation_xyz
x,y,z
-x,-y,-z
loop_
_atom_site_type_symbol
_atom_site_label
_atom_site_fract_x
_atom_site_fract_y
_atom_site_fract_z
Si Si1 0.523178 0.354037 0.375813
Si Si2 0.046531 0.737024 0.591943
Si Si3 0.729465 0.045493 0.345445
Si Si4 0.083881 0.208450 0.255165
Si Si5 0.265499 0.543162 0.082037
Si Si6 0.944664 0.578606 0.412753
Si Si7 0.570979 0.146273 0.750129
O O1 0.765810 0.388140 0.488985
O O2 0.573010 0.249943 0.580724
O O3 0.233269 0.322146 0.421253
O O4 0.518443 0.432649 0.035809
O O5 0.149208 0.834039 0.286513
O O6 0.029652 0.772341 0.668194
O O7 0.234606 0.651158 0.867345
O O8 0.869713 0.146752 0.222762
O O9 0.500000 0.000000 0.500000
O O10 0.568083 0.063384 0.086186
O O11 0.000000 0.000000 0.500000
O O12 0.331576 0.147261 0.538636
O O13 0.157623 0.320328 0.936304
O O14 0.254491 0.469774 0.405517
O O15 0.000000 0.500000 0.000000
O O16 0.000000 0.500000 0.500000
#
# Coordination Sequence:
#
# PCOD9018044 Si02
#       7
#     2   2   2   2   2   2   2
#     4   9  20  40  66  94 145 196 244 299 369 434
#     4  10  21  43  68 100 146 199 242 305 376 439
#     4  12  31  54  85 118 147 197 257 321 401 469
#     4  11  25  47  75 109 152 196 254 314 383 457
#     4   9  19  35  59  96 140 191 250 288 358 431
#     4  11  20  39  66 106 147 198 254 303 366 452
#     4  10  24  48  75 107 148 195 242 318 389 453
#
# _framework density 23.682562000000001
#
# number of rings (size 3 to 8) (size 9 to 14) (size 15 to 20)
#    0.000    1.714    2.857    0.000    6.000    3.429 
#    2.571    7.857    0.000    0.000    0.000    0.000 
#    0.000    0.000    0.000    0.000    0.000    0.000 
#
# Total GULP energy -78131.882661 kJ/mol
# GULP energy per Si atom -5580.848761 kJ/mol
# Density = 2.362866 g / cm^3
# Si number density = 23.682562 Si / 1000 Ang^3
#
#
#
# Elastic Constant Matrix: (Units=GPa)
#
#
# Indices 1 2 3 4 5 6 
#
# 1 102.9005 11.2164 59.5786 11.7506 -20.5282 6.3224
# 2 11.2164 102.5969 12.5086 7.5715 11.5508 11.5033
# 3 59.5786 12.5086 140.0657 23.0267 -31.0024 4.0973
# 4 11.7506 7.5715 23.0267 31.8552 -4.4152 10.2481
# 5 -20.5282 11.5508 -31.0024 -4.4152 43.5079 2.2773
# 6 6.3224 11.5033 4.0973 10.2481 2.2773 33.9304
#
#
#
# Elastic Compliance Matrix: (Units=1/GPa)
#
#
# Indices 1 2 3 4 5 6 
#
# 1 0.013386 -0.001034 -0.004798 -0.000223 0.003239 -0.001714
# 2 -0.001034 0.010864 -0.001210 -0.001021 -0.004194 -0.002754
# 3 -0.004798 -0.001210 0.011442 -0.005871 0.005546 0.001323
# 4 -0.000223 -0.001021 -0.005871 0.039541 0.000565 -0.010884
# 5 0.003239 -0.004194 0.005546 0.000565 0.029741 -0.002018
# 6 -0.001714 -0.002754 0.001323 -0.010884 -0.002018 0.033988
#
#
# Mechanical properties :
#
#
# Convention : Reuss Voigt Hill
#
# Bulk Modulus (GPa) = 46.27999 56.90778 51.59388
# Shear Modulus (GPa) = 31.20163 39.34266 35.27215
#
# Velocity S-wave (km/s) = 3.63367 4.08027 3.86343
# Velocity P-wave (km/s) = 6.09827 6.80292 6.46021
#
# Compressibility (1/GPa) = 0.02160761
#
# Stress axis : x y z
#
# Youngs Moduli (GPa) = 74.70712 92.04830 87.39498
#
# Poissons Ratio (x) = 0.09522 0.41929
# Poissons Ratio (y) = 0.07728 0.10575
# Poissons Ratio (z) = 0.35841 0.11138
#
# Static dielectric constant tensor:
#      x y z
#    x 2.070100 0.025250 0.009650 
#    y 0.025250 1.877130 0.007960 
#    z 0.009650 0.007960 1.949410 
# 
# From -- ./inp_files/135225.got.cif
#   From: 2010.05.17/outbox.cif.g08.bks.cpg/sg2_68_cif.got.tgz:135225.got - 2010.06.03 11:33:40.
