data_PCOD9018770
_publ_section_title
;
Structure prediction by ZEFSAII (Michael W. Deem and Ramdas Pophale) SiO2 
 PCOD9018770
Probable space group: P -1
;
_chemical_formula_sum "Si O2"
_cell_formula_units_Z 16
_cell_length_a 8.866334
_cell_length_b 24.211491
_cell_length_c 21.139902
_cell_angle_alpha 22.702336
_cell_angle_beta 29.282219
_cell_angle_gamma 32.025064
_cell_volume 833.939604
_symmetry_space_group_name_H-M "P -1"
_symmetry_group_IT_number 2
_symmetry_cell_setting 'triclinic'
loop_
_space_group_symop_operation_xyz
x,y,z
-x,-y,-z
loop_
_atom_site_type_symbol
_atom_site_label
_atom_site_fract_x
_atom_site_fract_y
_atom_site_fract_z
Si Si1 0.390672 0.908916 0.692639
Si Si2 0.784455 0.394737 0.412777
Si Si3 0.208042 0.928966 0.195770
Si Si4 0.313945 0.425071 0.094756
Si Si5 0.369432 0.947174 0.426582
Si Si6 0.068089 0.563587 0.474847
Si Si7 0.910395 0.907978 0.187086
Si Si8 0.644786 0.598192 0.708644
O O1 0.498306 0.739962 0.813777
O O2 0.500000 0.000000 0.500000
O O3 0.538889 0.954818 0.654434
O O4 0.021908 0.962330 0.787069
O O5 0.747018 0.231098 0.618489
O O6 0.430307 0.495231 0.435855
O O7 0.970718 0.413018 0.259734
O O8 0.040503 0.429486 0.332618
O O9 0.061976 0.918945 0.189587
O O10 0.500000 0.000000 0.000000
O O11 0.500000 0.500000 0.000000
O O12 0.368373 0.520384 0.913664
O O13 0.540248 0.962706 0.281396
O O14 0.498644 0.773804 0.578324
O O15 0.000000 0.000000 0.500000
O O16 0.000000 0.500000 0.500000
O O17 0.009378 0.739032 0.309472
O O18 0.800034 0.539423 0.647524
O O19 0.000000 0.000000 0.000000
#
# Coordination Sequence:
#
# PCOD9018770 Si02
#       8
#     2   2   2   2   2   2   2   2
#     4  11  20  40  61  92 125 161 206 262 303 373
#     4  11  21  43  64  93 130 162 215 261 314 376
#     4  11  24  38  66  97 123 164 217 262 314 371
#     4  10  22  36  65  95 127 158 205 262 314 370
#     4  10  22  41  65  88 126 169 208 258 316 368
#     4  11  25  39  66  93 132 172 204 262 321 373
#     4  10  24  44  59  92 133 161 214 263 309 380
#     4  10  21  44  63  92 128 166 211 262 315 372
#
# _framework density 19.186043000000002
#
# number of rings (size 3 to 8) (size 9 to 14) (size 15 to 20)
#    0.000    1.500    5.000    1.125    3.500    6.000 
#    0.000    1.250    0.000    0.000    0.000    0.000 
#    0.000    0.000    0.000    0.000    0.000    0.000 
#
# Total GULP energy -89172.340408 kJ/mol
# GULP energy per Si atom -5573.271276 kJ/mol
# Density = 1.914237 g / cm^3
# Si number density = 19.186043 Si / 1000 Ang^3
#
#
#
# Elastic Constant Matrix: (Units=GPa)
#
#
# Indices 1 2 3 4 5 6 
#
# 1 51.4984 52.7225 26.6702 2.1964 2.5335 9.6187
# 2 52.7225 162.7295 72.0583 16.5044 1.7459 12.7445
# 3 26.6702 72.0583 152.5162 28.9083 13.1619 14.3911
# 4 2.1964 16.5044 28.9083 36.0985 8.6245 -8.1535
# 5 2.5335 1.7459 13.1619 8.6245 26.1085 2.7463
# 6 9.6187 12.7445 14.3911 -8.1535 2.7463 33.6461
#
#
#
# Elastic Compliance Matrix: (Units=1/GPa)
#
#
# Indices 1 2 3 4 5 6 
#
# 1 0.030142 -0.009366 -0.000805 0.002800 -0.002413 -0.003850
# 2 -0.009366 0.010897 -0.003123 -0.002810 0.002790 -0.001023
# 3 -0.000805 -0.003123 0.010128 -0.007178 -0.001975 -0.004497
# 4 0.002800 -0.002810 -0.007178 0.040440 -0.011302 0.014056
# 5 -0.002413 0.002790 -0.001975 -0.011302 0.043691 -0.005828
# 6 -0.003850 -0.001023 -0.004497 0.014056 -0.005828 0.037015
#
#
# Mechanical properties :
#
#
# Convention : Reuss Voigt Hill
#
# Bulk Modulus (GPa) = 40.68263 74.40511 57.54387
# Shear Modulus (GPa) = 24.14375 33.52349 28.83362
#
# Velocity S-wave (km/s) = 3.55124 4.18459 3.88086
# Velocity P-wave (km/s) = 6.16972 7.88751 7.08090
#
# Compressibility (1/GPa) = 0.02458052
#
# Stress axis : x y z
#
# Youngs Moduli (GPa) = 33.17681 91.76523 98.73527
#
# Poissons Ratio (x) = 0.85943 0.07949
# Poissons Ratio (y) = 0.31072 0.30830
# Poissons Ratio (z) = 0.02671 0.28654
#
# Static dielectric constant tensor:
#      x y z
#    x 1.616310 0.024350 0.051350 
#    y 0.024350 1.646300 0.022880 
#    z 0.051350 0.022880 1.685640 
# 
# From -- ./inp_files/591929.got.cif
#   From: 2010.05.17/outbox.cif.g08.bks.cpg/sg2_296_cif.got.tgz:591929.got - 2010.06.03 11:33:40.
