data_PCOD9018869
_publ_section_title
;
Structure prediction by ZEFSAII (Michael W. Deem and Ramdas Pophale) SiO2 
 PCOD9018869
Probable space group: P -1
;
_chemical_formula_sum "Si O2"
_cell_formula_units_Z 12
_cell_length_a 8.139298
_cell_length_b 12.570761
_cell_length_c 5.202972
_cell_angle_alpha 79.702534
_cell_angle_beta 89.661345
_cell_angle_gamma 68.074635
_cell_volume 484.813777
_symmetry_space_group_name_H-M "P -1"
_symmetry_group_IT_number 2
_symmetry_cell_setting 'triclinic'
loop_
_space_group_symop_operation_xyz
x,y,z
-x,-y,-z
loop_
_atom_site_type_symbol
_atom_site_label
_atom_site_fract_x
_atom_site_fract_y
_atom_site_fract_z
Si Si1 0.160340 0.155294 0.868441
Si Si2 0.883193 0.083268 0.683064
Si Si3 0.134875 0.672005 0.502588
Si Si4 0.343484 0.264608 0.146716
Si Si5 0.704915 0.475129 0.941193
Si Si6 0.494868 0.864846 0.290457
O O1 0.354248 0.081329 0.780569
O O2 0.012953 0.099592 0.894848
O O3 0.067499 0.265934 0.626870
O O4 0.195363 0.211441 0.103225
O O5 0.808523 0.216608 0.516304
O O6 0.710703 0.055978 0.757024
O O7 0.000000 0.000000 0.500000
O O8 0.240806 0.592695 0.298642
O O9 0.176405 0.599511 0.793777
O O10 0.273633 0.401433 0.130619
O O11 0.459326 0.195999 0.410613
O O12 0.460491 0.229739 0.898847
O O13 0.500000 0.500000 0.000000
#
# Coordination Sequence:
#
# PCOD9018869 Si02
#       6
#     2   2   2   2   2   2
#     4   8  24  40  66  96 136 161 223 265 321 382
#     4  10  22  46  71  93 128 176 218 272 330 375
#     4  10  24  39  62  95 130 162 225 259 306 398
#     4  10  22  41  67  95 137 172 205 263 331 378
#     4  12  22  38  66  96 131 175 209 259 326 382
#     4  10  21  44  65  96 137 163 216 267 318 390
#
# _framework density 24.751774000000001
#
# number of rings (size 3 to 8) (size 9 to 14) (size 15 to 20)
#    2.000    0.000    0.000    3.500    2.333    2.000 
#    3.000    4.167    0.000    0.000    0.000    0.000 
#    0.000    0.000    0.000    0.000    0.000    0.000 
#
# Total GULP energy -67093.187918 kJ/mol
# GULP energy per Si atom -5591.098993 kJ/mol
# Density = 2.469544 g / cm^3
# Si number density = 24.751774 Si / 1000 Ang^3
#
#
#
# Elastic Constant Matrix: (Units=GPa)
#
#
# Indices 1 2 3 4 5 6 
#
# 1 174.7114 61.2943 47.8875 -7.5595 2.0981 -11.6799
# 2 61.2943 124.4360 47.5261 16.9993 2.0113 19.6014
# 3 47.8875 47.5261 139.2705 5.7361 33.9950 3.1491
# 4 -7.5595 16.9993 5.7361 49.3201 -10.3692 -1.2827
# 5 2.0981 2.0113 33.9950 -10.3692 24.5692 -3.0879
# 6 -11.6799 19.6014 3.1491 -1.2827 -3.0879 47.6494
#
#
#
# Elastic Compliance Matrix: (Units=1/GPa)
#
#
# Indices 1 2 3 4 5 6 
#
# 1 0.008719 -0.004495 -0.003535 0.004936 0.007203 0.004819
# 2 -0.004495 0.012885 -0.002442 -0.005061 -0.000231 -0.006392
# 3 -0.003535 -0.002442 0.015394 -0.006584 -0.023904 -0.002605
# 4 0.004936 -0.005061 -0.006584 0.028274 0.021777 0.005899
# 5 0.007203 -0.000231 -0.023904 0.021777 0.083557 0.009442
# 6 0.004819 -0.006392 -0.002605 0.005899 0.009442 0.025740
#
#
# Mechanical properties :
#
#
# Convention : Reuss Voigt Hill
#
# Bulk Modulus (GPa) = 62.28669 83.53707 72.91188
# Shear Modulus (GPa) = 24.89257 43.08840 33.99048
#
# Velocity S-wave (km/s) = 3.17470 4.17684 3.70977
# Velocity P-wave (km/s) = 6.21751 7.55543 6.91889
#
# Compressibility (1/GPa) = 0.01605479
#
# Stress axis : x y z
#
# Youngs Moduli (GPa) = 114.69688 77.61035 64.96082
#
# Poissons Ratio (x) = 0.34882 0.22961
# Poissons Ratio (y) = 0.51551 0.15865
# Poissons Ratio (z) = 0.40541 0.18954
#
# Static dielectric constant tensor:
#      x y z
#    x 2.035630 -0.006360 -0.052530 
#    y -0.006360 1.941750 -0.046390 
#    z -0.052530 -0.046390 1.936770 
# 
# From -- ./inp_files/32054.got.cif
#   From: 2010.05.17/outbox.cif.g08.bks.cpg/sg2_17_cif.got.tgz:32054.got - 2010.06.03 11:33:40.
