data_PCOD9018684
_publ_section_title
;
Structure prediction by ZEFSAII (Michael W. Deem and Ramdas Pophale) SiO2 
 PCOD9018684
Probable space group: P -1
;
_chemical_formula_sum "Si O2"
_cell_formula_units_Z 15
_cell_length_a 8.782277
_cell_length_b 8.484994
_cell_length_c 11.078409
_cell_angle_alpha 127.118007
_cell_angle_beta 71.134640
_cell_angle_gamma 108.117089
_cell_volume 615.532156
_symmetry_space_group_name_H-M "P -1"
_symmetry_group_IT_number 2
_symmetry_cell_setting 'triclinic'
loop_
_space_group_symop_operation_xyz
x,y,z
-x,-y,-z
loop_
_atom_site_type_symbol
_atom_site_label
_atom_site_fract_x
_atom_site_fract_y
_atom_site_fract_z
Si Si1 0.317639 0.041131 0.047202
Si Si2 0.229034 0.404082 0.896546
Si Si3 0.855612 0.157146 0.548371
Si Si4 0.797331 0.550942 0.802499
Si Si5 0.182373 0.650035 0.782790
Si Si6 0.417239 0.188921 0.580035
Si Si7 0.500000 0.500000 0.500000
Si Si8 0.949712 0.070261 0.744420
O O1 0.217333 0.981315 0.166764
O O2 0.294933 0.269119 0.132974
O O3 0.238647 0.888510 0.893632
O O4 0.500000 0.000000 0.000000
O O5 0.187891 0.555469 0.873459
O O6 0.384347 0.317533 0.764294
O O7 0.082495 0.216600 0.853661
O O8 0.249912 0.488666 0.063640
O O9 0.761346 0.343654 0.642580
O O10 0.928412 0.179643 0.674004
O O11 0.757153 0.933425 0.472101
O O12 0.985596 0.136013 0.401773
O O13 0.994730 0.611310 0.769963
O O14 0.318771 0.553763 0.629642
O O15 0.492904 0.319252 0.511751
O O16 0.500000 0.000000 0.500000
#
# Coordination Sequence:
#
# PCOD9018684 Si02
#       8
#     2   2   2   2   2   2   1   2
#     4  12  29  42  63 100 150 185 230 297 359 412
#     4  10  21  43  74  99 125 185 240 283 346 428
#     4  10  23  41  74 101 128 179 238 292 340 421
#     4  12  24  43  74 103 133 189 241 289 348 425
#     4  11  23  44  70 101 137 183 232 291 350 425
#     4  10  24  44  69 100 143 187 230 288 354 427
#     4  10  26  42  70 104 140 182 228 290 362 420
#     4  10  21  44  69  98 137 175 230 290 351 418
#
# _framework density 24.369157999999999
#
# number of rings (size 3 to 8) (size 9 to 14) (size 15 to 20)
#    0.000    1.333    2.667    1.600    5.600    3.733 
#    0.000    2.000    0.000    0.000    0.000    0.000 
#    0.000    0.000    0.000    0.000    0.000    0.000 
#
# Total GULP energy -83669.472935 kJ/mol
# GULP energy per Si atom -5577.964862 kJ/mol
# Density = 2.431369 g / cm^3
# Si number density = 24.369158 Si / 1000 Ang^3
#
#
#
# Elastic Constant Matrix: (Units=GPa)
#
#
# Indices 1 2 3 4 5 6 
#
# 1 69.9462 47.7753 43.9406 -10.6785 -33.2925 -10.1272
# 2 47.7753 126.9222 79.6197 -0.7063 -38.5646 -8.8452
# 3 43.9406 79.6197 140.6338 15.9740 -38.4948 0.5291
# 4 -10.6785 -0.7063 15.9740 38.1100 5.9415 -20.9314
# 5 -33.2925 -38.5646 -38.4948 5.9415 38.8103 14.9414
# 6 -10.1272 -8.8452 0.5291 -20.9314 14.9414 26.2871
#
#
#
# Elastic Compliance Matrix: (Units=1/GPa)
#
#
# Indices 1 2 3 4 5 6 
#
# 1 0.022639 -0.004404 0.008766 -0.021333 0.039459 -0.032351
# 2 -0.004404 0.014285 -0.003346 -0.004671 0.010269 -0.006379
# 3 0.008766 -0.003346 -0.016585 0.065120 -0.055279 0.085858
# 4 -0.021333 -0.004671 0.065120 -0.141813 0.142230 -0.204864
# 5 0.039459 0.010269 -0.055279 0.142230 -0.074242 0.175221
# 6 -0.032351 -0.006379 0.085858 -0.204864 0.175221 -0.241017
#
#
# Mechanical properties :
#
#
# Convention : Reuss Voigt Hill
#
# Bulk Modulus (GPa) = 44.70282 75.57481 60.13882
# Shear Modulus (GPa) = -11.59267 31.71925 10.06329
#
# Velocity S-wave (km/s) = -2.18345 3.61170 2.03433
# Velocity P-wave (km/s) = 3.46803 6.96221 5.49998
#
# Compressibility (1/GPa) = 0.02236995
#
# Stress axis : x y z
#
# Youngs Moduli (GPa) = 44.17192 70.00202 -60.29724
#
# Poissons Ratio (x) = 0.30831 0.52854
# Poissons Ratio (y) = 0.19455 -0.20177
# Poissons Ratio (z) = -0.38720 0.23424
#
# Static dielectric constant tensor:
#      x y z
#    x 2.088390 0.057430 -0.033040 
#    y 0.057430 1.920190 0.046940 
#    z -0.033040 0.046940 2.024680 
# 
# From -- ./inp_files/383458.got.cif
#   From: 2010.05.17/outbox.cif.g08.bks.cpg/sg2_192_cif.got.tgz:383458.got - 2010.06.03 11:33:40.
