data_PCOD9018977
_publ_section_title
;
Structure prediction by ZEFSAII (Michael W. Deem and Ramdas Pophale) SiO2 
 PCOD9018977
Probable space group: P -1
;
_chemical_formula_sum "Si O2"
_cell_formula_units_Z 12
_cell_length_a 11.852950
_cell_length_b 11.340513
_cell_length_c 5.655037
_cell_angle_alpha 74.871412
_cell_angle_beta 103.876884
_cell_angle_gamma 49.203495
_cell_volume 459.663929
_symmetry_space_group_name_H-M "P -1"
_symmetry_group_IT_number 2
_symmetry_cell_setting 'triclinic'
loop_
_space_group_symop_operation_xyz
x,y,z
-x,-y,-z
loop_
_atom_site_type_symbol
_atom_site_label
_atom_site_fract_x
_atom_site_fract_y
_atom_site_fract_z
Si Si1 0.635247 0.615154 0.115572
Si Si2 0.580375 0.987898 0.302238
Si Si3 0.033518 0.120501 0.984779
Si Si4 0.015187 0.355115 0.466545
Si Si5 0.683664 0.377903 0.959623
Si Si6 0.424168 0.752713 0.336176
O O1 0.595224 0.678332 0.336338
O O2 0.822730 0.510620 0.160460
O O3 0.659553 0.449795 0.172688
O O4 0.482353 0.820583 0.816525
O O5 0.795728 0.804644 0.488549
O O6 0.500000 0.000000 0.500000
O O7 0.500000 0.000000 0.000000
O O8 0.007417 0.243091 0.700432
O O9 0.879407 0.263545 0.026835
O O10 0.246208 0.960497 0.230776
O O11 0.000000 0.000000 0.000000
O O12 0.000000 0.500000 0.500000
O O13 0.525017 0.580767 0.647935
O O14 0.657779 0.260225 0.922725
#
# Coordination Sequence:
#
# PCOD9018977 Si02
#       6
#     2   2   2   2   2   2
#     4  12  25  43  72 104 148 191 259 312 389 454
#     4  12  30  52  77 112 153 205 262 322 389 466
#     4  10  22  44  71 103 147 194 248 313 382 456
#     4  12  26  47  75 108 154 201 258 322 390 463
#     4  10  23  40  71 103 142 196 245 314 380 457
#     4  10  21  44  67 102 148 189 248 312 382 456
#
# _framework density 26.106030000000001
#
# number of rings (size 3 to 8) (size 9 to 14) (size 15 to 20)
#    0.000    1.000    5.000    0.500    4.667    3.333 
#    0.000    1.667    0.000    0.000    0.000    0.000 
#    0.000    0.000    0.000    0.000    0.000    0.000 
#
# Total GULP energy -66825.138352 kJ/mol
# GULP energy per Si atom -5568.761529 kJ/mol
# Density = 2.604661 g / cm^3
# Si number density = 26.106030 Si / 1000 Ang^3
#
#
#
# Elastic Constant Matrix: (Units=GPa)
#
#
# Indices 1 2 3 4 5 6 
#
# 1 110.7877 89.7866 33.7977 -6.6793 -19.3057 -33.3210
# 2 89.7866 201.0451 60.0181 -29.1268 9.4997 -36.5195
# 3 33.7977 60.0181 75.5928 -25.6311 -3.4252 -24.7314
# 4 -6.6793 -29.1268 -25.6311 46.0025 -5.8382 8.9334
# 5 -19.3057 9.4997 -3.4252 -5.8382 56.3803 -11.3181
# 6 -33.3210 -36.5195 -24.7314 8.9334 -11.3181 80.3281
#
#
#
# Elastic Compliance Matrix: (Units=1/GPa)
#
#
# Indices 1 2 3 4 5 6 
#
# 1 0.018571 -0.007859 -0.000853 -0.002726 0.008425 0.005358
# 2 -0.007859 0.010160 -0.004173 0.002553 -0.004563 -0.000853
# 3 -0.000853 -0.004173 0.021303 0.008793 0.003380 0.003806
# 4 -0.002726 0.002553 0.008793 0.028140 0.002064 -0.000101
# 5 0.008425 -0.004563 0.003380 0.002064 0.022905 0.005458
# 6 0.005358 -0.000853 0.003806 -0.000101 0.005458 0.016236
#
#
# Mechanical properties :
#
#
# Convention : Reuss Voigt Hill
#
# Bulk Modulus (GPa) = 41.21254 83.84781 62.53018
# Shear Modulus (GPa) = 33.07457 50.13040 41.60248
#
# Velocity S-wave (km/s) = 3.56326 4.38683 3.99632
# Velocity P-wave (km/s) = 5.72276 7.60572 6.73041
#
# Compressibility (1/GPa) = 0.02426446
#
# Stress axis : x y z
#
# Youngs Moduli (GPa) = 53.84791 98.42312 46.94089
#
# Poissons Ratio (x) = 0.77349 0.04004
# Poissons Ratio (y) = 0.42318 0.19589
# Poissons Ratio (z) = 0.04594 0.41073
#
# Static dielectric constant tensor:
#      x y z
#    x 2.387180 -0.059850 0.168660 
#    y -0.059850 2.323030 -0.047400 
#    z 0.168660 -0.047400 2.308920 
# 
# From -- ./inp_files/69225.got.cif
#   From: 2010.05.17/outbox.cif.g08.bks.cpg/sg2_35_cif.got.tgz:69225.got - 2010.06.03 11:33:40.
