data_PCOD9018784
_publ_section_title
;
Structure prediction by ZEFSAII (Michael W. Deem and Ramdas Pophale) SiO2 
 PCOD9018784
Probable space group: P -1
;
_chemical_formula_sum "Si O2"
_cell_formula_units_Z 16
_cell_length_a 13.757742
_cell_length_b 5.417722
_cell_length_c 10.540146
_cell_angle_alpha 66.706295
_cell_angle_beta 107.167304
_cell_angle_gamma 82.027776
_cell_volume 659.585642
_symmetry_space_group_name_H-M "P -1"
_symmetry_group_IT_number 2
_symmetry_cell_setting 'triclinic'
loop_
_space_group_symop_operation_xyz
x,y,z
-x,-y,-z
loop_
_atom_site_type_symbol
_atom_site_label
_atom_site_fract_x
_atom_site_fract_y
_atom_site_fract_z
Si Si1 0.281318 0.237655 0.691273
Si Si2 0.594626 0.571542 0.797302
Si Si3 0.907610 0.705025 0.592789
Si Si4 0.417449 0.526568 0.580351
Si Si5 0.692810 0.071530 0.734268
Si Si6 0.766852 0.241210 0.083097
Si Si7 0.117726 0.449232 0.105709
Si Si8 0.121246 0.717966 0.630933
O O1 0.188344 0.261592 0.547997
O O2 0.388589 0.243311 0.662348
O O3 0.239883 0.538068 0.680441
O O4 0.274849 0.020834 0.841714
O O5 0.472071 0.617184 0.705674
O O6 0.624302 0.855474 0.718996
O O7 0.648309 0.292809 0.785936
O O8 0.653359 0.484457 0.972605
O O9 0.882307 0.574154 0.738243
O O10 0.030196 0.559254 0.629425
O O11 0.911944 0.028024 0.533359
O O12 0.500000 0.500000 0.500000
O O13 0.314669 0.746533 0.433477
O O14 0.806826 0.853077 0.850944
O O15 0.857415 0.215823 0.230023
O O16 0.830989 0.315346 0.973231
O O17 0.000000 0.500000 0.000000
#
# Coordination Sequence:
#
# PCOD9018784 Si02
#       8
#     2   2   2   2   2   2   2   2
#     4  11  24  42  68  97 137 187 234 297 362 429
#     4  10  23  44  71 102 140 189 236 300 359 420
#     4  10  22  40  67  94 137 185 241 284 357 423
#     4  10  23  45  71 102 138 185 248 302 357 425
#     4  10  23  43  71 103 146 182 236 301 358 420
#     4  10  24  41  66  97 144 183 227 293 359 426
#     4  11  22  42  70 104 145 187 242 294 361 430
#     4  10  21  44  63  97 139 183 234 289 356 436
#
# _framework density 24.257656000000001
#
# number of rings (size 3 to 8) (size 9 to 14) (size 15 to 20)
#    0.000    1.750    1.250    1.500   10.500    0.500 
#   11.250    3.750    0.000    0.000    0.000    0.000 
#    0.000    0.000    0.000    0.000    0.000    0.000 
#
# Total GULP energy -89082.706776 kJ/mol
# GULP energy per Si atom -5567.669173 kJ/mol
# Density = 2.420244 g / cm^3
# Si number density = 24.257656 Si / 1000 Ang^3
#
#
#
# Elastic Constant Matrix: (Units=GPa)
#
#
# Indices 1 2 3 4 5 6 
#
# 1 98.7125 37.2618 38.2336 -17.5014 -33.6322 23.6974
# 2 37.2618 66.2693 20.7493 -4.8576 -5.6223 12.3403
# 3 38.2336 20.7493 152.0408 -15.4890 -22.8633 19.7780
# 4 -17.5014 -4.8576 -15.4890 22.5108 12.1377 2.2749
# 5 -33.6322 -5.6223 -22.8633 12.1377 48.8213 -5.4946
# 6 23.6974 12.3403 19.7780 2.2749 -5.4946 32.7383
#
#
#
# Elastic Compliance Matrix: (Units=1/GPa)
#
#
# Indices 1 2 3 4 5 6 
#
# 1 0.021109 -0.008132 -0.000231 0.010426 0.009646 -0.011180
# 2 -0.008132 0.019934 -0.001108 -0.000539 -0.003868 -0.001570
# 3 -0.000231 -0.001108 0.008096 0.004571 0.001883 -0.004307
# 4 0.010426 -0.000539 0.004571 0.061318 -0.007747 -0.015666
# 5 0.009646 -0.003868 0.001883 -0.007747 0.029356 -0.001197
# 6 -0.011180 -0.001570 -0.004307 -0.015666 -0.001197 0.042719
#
#
# Mechanical properties :
#
#
# Convention : Reuss Voigt Hill
#
# Bulk Modulus (GPa) = 33.11705 56.61245 44.86475
# Shear Modulus (GPa) = 23.63629 35.53263 29.58446
#
# Velocity S-wave (km/s) = 3.12490 3.83142 3.49606
# Velocity P-wave (km/s) = 5.16738 6.55452 5.90185
#
# Compressibility (1/GPa) = 0.03019593
#
# Stress axis : x y z
#
# Youngs Moduli (GPa) = 47.37403 50.16569 123.52171
#
# Poissons Ratio (x) = 0.40795 0.02858
# Poissons Ratio (y) = 0.38525 0.13683
# Poissons Ratio (z) = 0.01096 0.05557
#
# Static dielectric constant tensor:
#      x y z
#    x 2.036590 -0.043690 0.036380 
#    y -0.043690 2.054610 0.017550 
#    z 0.036380 0.017550 2.002580 
# 
# From -- ./inp_files/441651.got.cif
#   From: 2010.05.17/outbox.cif.g08.bks.cpg/sg2_221_cif.got.tgz:441651.got - 2010.06.03 11:33:40.
