data_PCOD9018261
_publ_section_title
;
Structure prediction by ZEFSAII (Michael W. Deem and Ramdas Pophale) SiO2 
 PCOD9018261
Probable space group: P -1
;
_chemical_formula_sum "Si O2"
_cell_formula_units_Z 16
_cell_length_a 9.828382
_cell_length_b 15.586543
_cell_length_c 11.297583
_cell_angle_alpha 152.025557
_cell_angle_beta 73.064473
_cell_angle_gamma 115.054280
_cell_volume 721.375316
_symmetry_space_group_name_H-M "P -1"
_symmetry_group_IT_number 2
_symmetry_cell_setting 'triclinic'
loop_
_space_group_symop_operation_xyz
x,y,z
-x,-y,-z
loop_
_atom_site_type_symbol
_atom_site_label
_atom_site_fract_x
_atom_site_fract_y
_atom_site_fract_z
Si Si1 0.148968 0.601426 0.660741
Si Si2 0.366005 0.942526 0.869307
Si Si3 0.547702 0.026235 0.358350
Si Si4 0.217689 0.706142 0.042657
Si Si5 0.158217 0.976167 0.584064
Si Si6 0.331274 0.337450 0.356930
Si Si7 0.816853 0.723929 0.422104
Si Si8 0.627544 0.715615 0.229943
O O1 0.229887 0.441776 0.447252
O O2 0.000000 0.500000 0.500000
O O3 0.232195 0.791652 0.792776
O O4 0.151746 0.666400 0.876989
O O5 0.418049 0.863745 0.642920
O O6 0.332923 0.130913 0.060694
O O7 0.500000 0.000000 0.000000
O O8 0.711742 0.043182 0.386081
O O9 0.471132 0.148743 0.604867
O O10 0.403964 0.818128 0.123405
O O11 0.156623 0.843612 0.306076
O O12 0.176150 0.493982 0.856283
O O13 0.987915 0.889144 0.574045
O O14 0.232017 0.204620 0.801905
O O15 0.500000 0.500000 0.500000
O O16 0.268309 0.289037 0.447537
O O17 0.713347 0.754867 0.381591
O O18 0.500000 0.500000 0.000000
#
# Coordination Sequence:
#
# PCOD9018261 Si02
#       8
#     2   2   2   2   2   2   2   2
#     4  11  26  45  68 107 138 179 235 289 353 411
#     4  12  22  44  71  98 136 185 234 286 346 410
#     4  11  23  42  69  96 132 179 229 275 340 421
#     4  10  21  43  69  92 136 180 220 278 342 417
#     4  11  24  42  67 100 135 176 225 280 348 400
#     4  11  24  44  72 100 134 184 238 284 346 424
#     4  11  23  41  64 100 134 169 228 290 341 397
#     4  11  23  42  65  98 135 180 229 273 337 420
#
# _framework density 22.179856000000001
#
# number of rings (size 3 to 8) (size 9 to 14) (size 15 to 20)
#    0.000    1.000    2.500    5.250    5.250    0.500 
#    0.000    0.000    0.000    0.000    0.000    0.000 
#    0.000    0.000    0.000    0.000    0.000    0.000 
#
# Total GULP energy -89345.898226 kJ/mol
# GULP energy per Si atom -5584.118639 kJ/mol
# Density = 2.212937 g / cm^3
# Si number density = 22.179856 Si / 1000 Ang^3
#
#
#
# Elastic Constant Matrix: (Units=GPa)
#
#
# Indices 1 2 3 4 5 6 
#
# 1 159.4887 63.0022 40.0870 5.5230 43.2038 -0.8606
# 2 63.0022 119.5128 33.2549 15.1027 20.2897 13.2113
# 3 40.0870 33.2549 70.4491 22.0574 22.9981 4.8144
# 4 5.5230 15.1027 22.0574 40.9244 -0.0919 2.5180
# 5 43.2038 20.2897 22.9981 -0.0919 39.9655 3.8050
# 6 -0.8606 13.2113 4.8144 2.5180 3.8050 31.9011
#
#
#
# Elastic Compliance Matrix: (Units=1/GPa)
#
#
# Indices 1 2 3 4 5 6 
#
# 1 0.010709 -0.004128 -0.001752 0.000803 -0.008780 0.003247
# 2 -0.004128 0.011957 -0.002300 -0.002336 0.000143 -0.004549
# 3 -0.001752 -0.002300 0.023255 -0.011443 -0.010302 -0.000472
# 4 0.000803 -0.002336 -0.011443 0.031409 0.007032 -0.000602
# 5 -0.008780 0.000143 -0.010302 0.007032 0.040781 -0.004161
# 6 0.003247 -0.004549 -0.000472 -0.000602 -0.004161 0.033933
#
#
# Mechanical properties :
#
#
# Convention : Reuss Voigt Hill
#
# Bulk Modulus (GPa) = 33.82747 69.12654 51.47701
# Shear Modulus (GPa) = 28.04910 36.76532 32.40721
#
# Velocity S-wave (km/s) = 3.56001 4.07578 3.82659
# Velocity P-wave (km/s) = 5.67299 7.30639 6.54087
#
# Compressibility (1/GPa) = 0.02956177
#
# Stress axis : x y z
#
# Youngs Moduli (GPa) = 93.37784 83.63385 43.00063
#
# Poissons Ratio (x) = 0.34521 0.07535
# Poissons Ratio (y) = 0.38542 0.09890
# Poissons Ratio (z) = 0.16363 0.19236
#
# Static dielectric constant tensor:
#      x y z
#    x 1.806610 0.049080 -0.059690 
#    y 0.049080 1.861550 -0.033430 
#    z -0.059690 -0.033430 1.871850 
# 
# From -- ./inp_files/271870.got.cif
#   From: 2010.05.17/outbox.cif.g08.bks.cpg/sg2_136_cif.got.tgz:271870.got - 2010.06.03 11:33:40.
