data_PCOD9018117
_publ_section_title
;
Structure prediction by ZEFSAII (Michael W. Deem and Ramdas Pophale) SiO2 
 PCOD9018117
Probable space group: P -1
;
_chemical_formula_sum "Si O2"
_cell_formula_units_Z 14
_cell_length_a 11.724799
_cell_length_b 10.858465
_cell_length_c 9.316945
_cell_angle_alpha 114.187021
_cell_angle_beta 140.226521
_cell_angle_gamma 49.604177
_cell_volume 568.349084
_symmetry_space_group_name_H-M "P -1"
_symmetry_group_IT_number 2
_symmetry_cell_setting 'triclinic'
loop_
_space_group_symop_operation_xyz
x,y,z
-x,-y,-z
loop_
_atom_site_type_symbol
_atom_site_label
_atom_site_fract_x
_atom_site_fract_y
_atom_site_fract_z
Si Si1 0.122852 0.882391 0.838937
Si Si2 0.871214 0.838741 0.339082
Si Si3 0.172468 0.780669 0.133246
Si Si4 0.783638 0.533058 0.883849
Si Si5 0.572685 0.792535 0.572120
Si Si6 0.034120 0.496217 0.363023
Si Si7 0.570124 0.047727 0.880418
O O1 0.985443 0.903431 0.576633
O O2 0.110823 0.778526 0.906123
O O3 0.019233 0.060982 0.894696
O O4 0.367764 0.822662 0.016399
O O5 0.056037 0.644505 0.412337
O O6 0.670228 0.870275 0.253507
O O7 0.751001 0.924064 0.114907
O O8 0.233496 0.620717 0.203903
O O9 0.356070 0.816514 0.317853
O O10 0.603429 0.694456 0.704227
O O11 0.818409 0.551721 0.092128
O O12 0.000000 0.500000 0.000000
O O13 0.577921 0.944785 0.701186
O O14 0.767376 0.673914 0.594016
O O15 0.000000 0.500000 0.500000
#
# Coordination Sequence:
#
# PCOD9018117 Si02
#       7
#     2   2   2   2   2   2   2
#     4  11  24  43  68  99 145 178 225 291 340 406
#     4  11  24  45  66 105 138 179 234 286 337 409
#     4  11  24  42  67 105 132 179 239 279 339 413
#     4  10  21  43  68  94 134 180 229 276 338 412
#     4  11  23  45  71  99 135 187 231 280 336 420
#     4  11  24  41  68 101 140 175 227 288 346 401
#     4  11  24  45  74  98 137 187 234 274 346 409
#
# _framework density 24.632750999999999
#
# number of rings (size 3 to 8) (size 9 to 14) (size 15 to 20)
#    0.000    1.143    2.857    3.429    4.000    1.714 
#    2.571    1.429    0.000    0.000    0.000    0.000 
#    0.000    0.000    0.000    0.000    0.000    0.000 
#
# Total GULP energy -78250.826974 kJ/mol
# GULP energy per Si atom -5589.344784 kJ/mol
# Density = 2.457669 g / cm^3
# Si number density = 24.632751 Si / 1000 Ang^3
#
#
#
# Elastic Constant Matrix: (Units=GPa)
#
#
# Indices 1 2 3 4 5 6 
#
# 1 107.2443 20.5354 50.0115 11.5751 -0.0633 -2.7811
# 2 20.5354 56.2641 9.7274 14.6169 -0.7278 0.0023
# 3 50.0115 9.7274 151.7477 10.4091 -10.7824 -1.5200
# 4 11.5751 14.6169 10.4091 30.4162 5.5077 -3.0328
# 5 -0.0633 -0.7278 -10.7824 5.5077 48.1995 4.2501
# 6 -2.7811 0.0023 -1.5200 -3.0328 4.2501 39.2659
#
#
#
# Elastic Compliance Matrix: (Units=1/GPa)
#
#
# Indices 1 2 3 4 5 6 
#
# 1 0.011828 -0.003318 -0.003631 -0.001464 -0.000738 0.000664
# 2 -0.003318 0.021416 0.000484 -0.009602 0.001624 -0.001135
# 3 -0.003631 0.000484 0.008036 -0.002006 0.002058 -0.000324
# 4 -0.001464 -0.009602 -0.002006 0.040078 -0.005485 0.003508
# 5 -0.000738 0.001624 0.002058 -0.005485 0.022104 -0.002789
# 6 0.000664 -0.001135 -0.000324 0.003508 -0.002789 0.026075
#
#
# Mechanical properties :
#
#
# Convention : Reuss Voigt Hill
#
# Bulk Modulus (GPa) = 35.27467 52.86718 44.07093
# Shear Modulus (GPa) = 32.91249 39.24176 36.07713
#
# Velocity S-wave (km/s) = 3.65927 3.99566 3.83116
# Velocity P-wave (km/s) = 5.67495 6.54185 6.12376
#
# Compressibility (1/GPa) = 0.02834895
#
# Stress axis : x y z
#
# Youngs Moduli (GPa) = 84.54600 46.69304 124.43927
#
# Poissons Ratio (x) = 0.15495 0.45181
# Poissons Ratio (y) = 0.28056 -0.06017
# Poissons Ratio (z) = 0.30697 -0.02258
#
# Static dielectric constant tensor:
#      x y z
#    x 2.063040 0.019570 -0.011750 
#    y 0.019570 2.009060 -0.001340 
#    z -0.011750 -0.001340 2.004260 
# 
# From -- ./inp_files/222439.got.cif
#   From: 2010.05.17/outbox.cif.g08.bks.cpg/sg2_112_cif.got.tgz:222439.got - 2010.06.03 11:33:40.
