data_PCOD9018315
_publ_section_title
;
Structure prediction by ZEFSAII (Michael W. Deem and Ramdas Pophale) SiO2 
 PCOD9018315
Probable space group: P -1
;
_chemical_formula_sum "Si O2"
_cell_formula_units_Z 16
_cell_length_a 7.696009
_cell_length_b 17.285007
_cell_length_c 5.762569
_cell_angle_alpha 81.613312
_cell_angle_beta 118.191449
_cell_angle_gamma 84.057131
_cell_volume 655.207535
_symmetry_space_group_name_H-M "P -1"
_symmetry_group_IT_number 2
_symmetry_cell_setting 'triclinic'
loop_
_space_group_symop_operation_xyz
x,y,z
-x,-y,-z
loop_
_atom_site_type_symbol
_atom_site_label
_atom_site_fract_x
_atom_site_fract_y
_atom_site_fract_z
Si Si1 0.503914 0.158455 0.052517
Si Si2 0.770238 0.788959 0.534981
Si Si3 0.538241 0.588583 0.514303
Si Si4 0.834623 0.906717 0.871296
Si Si5 0.098032 0.618975 0.197339
Si Si6 0.872272 0.059576 0.574863
Si Si7 0.038819 0.385873 0.392551
Si Si8 0.649329 0.692022 0.882097
O O1 0.363054 0.120040 0.151650
O O2 0.720453 0.118456 0.292109
O O3 0.469237 0.254234 0.020568
O O4 0.390699 0.150797 0.745409
O O5 0.896548 0.842907 0.732844
O O6 0.921020 0.711970 0.553850
O O7 0.620938 0.746117 0.611178
O O8 0.500000 0.500000 0.500000
O O9 0.315787 0.640915 0.307460
O O10 0.733534 0.597158 0.482576
O O11 0.594639 0.610047 0.803887
O O12 0.786116 0.997587 0.713721
O O13 0.994527 0.899197 0.184172
O O14 0.081183 0.581574 0.463207
O O15 0.063789 0.583149 0.934102
O O16 0.889079 0.682452 0.062107
O O17 0.000000 0.000000 0.500000
#
# Coordination Sequence:
#
# PCOD9018315 Si02
#       8
#     2   2   2   2   2   2   2   2
#     4  11  21  41  68  87 124 172 213 278 335 391
#     4   9  19  39  66  88 124 172 216 277 340 392
#     4  10  23  43  70 103 140 184 230 284 350 416
#     4  10  23  41  61  88 127 169 216 266 338 407
#     4  10  21  43  69  97 138 182 226 285 349 408
#     4  11  25  41  59  94 129 164 217 271 330 411
#     4  10  23  43  68 101 143 177 236 289 341 417
#     4   9  22  40  63  94 129 166 225 279 333 409
#
# _framework density 24.419744999999999
#
# number of rings (size 3 to 8) (size 9 to 14) (size 15 to 20)
#    0.000    2.250    1.250    1.125    0.000   13.500 
#    2.250    8.125    0.000    0.000    0.000    0.000 
#    0.000    0.000    0.000    0.000    0.000    0.000 
#
# Total GULP energy -89096.565136 kJ/mol
# GULP energy per Si atom -5568.535321 kJ/mol
# Density = 2.436416 g / cm^3
# Si number density = 24.419745 Si / 1000 Ang^3
#
#
#
# Elastic Constant Matrix: (Units=GPa)
#
#
# Indices 1 2 3 4 5 6 
#
# 1 96.7598 27.5055 47.9330 22.7093 9.5692 5.1147
# 2 27.5055 88.5718 54.7908 31.5780 19.5366 -12.1790
# 3 47.9330 54.7908 140.4551 35.8565 -0.7224 -19.1640
# 4 22.7093 31.5780 35.8565 11.8774 3.1311 11.8081
# 5 9.5692 19.5366 -0.7224 3.1311 41.0491 -4.1864
# 6 5.1147 -12.1790 -19.1640 11.8081 -4.1864 19.2124
#
#
#
# Elastic Compliance Matrix: (Units=1/GPa)
#
#
# Indices 1 2 3 4 5 6 
#
# 1 0.014504 -0.000302 -0.004886 -0.003822 -0.003787 -0.007402
# 2 -0.000302 0.012526 -0.010588 0.015204 -0.008641 -0.013768
# 3 -0.004886 -0.010588 0.008742 0.014137 0.004812 -0.004331
# 4 -0.003822 0.015204 0.014137 -0.045084 0.002754 0.053066
# 5 -0.003787 -0.008641 0.004812 0.002754 0.029753 0.005121
# 6 -0.007402 -0.013768 -0.004331 0.053066 0.005121 0.009473
#
#
# Mechanical properties :
#
#
# Convention : Reuss Voigt Hill
#
# Bulk Modulus (GPa) = 236.91751 65.13837 151.02794
# Shear Modulus (GPa) = 79.52779 27.46493 53.49636
#
# Velocity S-wave (km/s) = 5.71294 3.35730 4.68557
# Velocity P-wave (km/s) = 11.86366 6.46227 9.55268
#
# Compressibility (1/GPa) = 0.00422088
#
# Stress axis : x y z
#
# Youngs Moduli (GPa) = 68.94794 79.83587 114.38954
#
# Poissons Ratio (x) = 0.02409 0.55888
# Poissons Ratio (y) = 0.02080 1.21113
# Poissons Ratio (z) = 0.33686 0.84528
#
# Static dielectric constant tensor:
#      x y z
#    x 2.012840 -0.018340 -0.106370 
#    y -0.018340 2.069390 0.010000 
#    z -0.106370 0.010000 2.110010 
# 
# From -- ./inp_files/52996.got.cif
#   From: 2010.05.17/outbox.cif.g08.bks.cpg/sg2_27_cif.got.tgz:52996.got - 2010.06.03 11:33:40.
