data_PCOD9018665
_publ_section_title
;
Structure prediction by ZEFSAII (Michael W. Deem and Ramdas Pophale) SiO2 
 PCOD9018665
Probable space group: P -1
;
_chemical_formula_sum "Si O2"
_cell_formula_units_Z 14
_cell_length_a 10.903885
_cell_length_b 11.600712
_cell_length_c 5.010937
_cell_angle_alpha 114.007727
_cell_angle_beta 110.478086
_cell_angle_gamma 63.291129
_cell_volume 506.289079
_symmetry_space_group_name_H-M "P -1"
_symmetry_group_IT_number 2
_symmetry_cell_setting 'triclinic'
loop_
_space_group_symop_operation_xyz
x,y,z
-x,-y,-z
loop_
_atom_site_type_symbol
_atom_site_label
_atom_site_fract_x
_atom_site_fract_y
_atom_site_fract_z
Si Si1 0.967872 0.660327 0.453993
Si Si2 0.441003 0.390610 0.138848
Si Si3 0.433351 0.885396 0.348188
Si Si4 0.725408 0.008155 0.180313
Si Si5 0.781612 0.697147 0.876612
Si Si6 0.728064 0.401905 0.232417
Si Si7 0.076893 0.882500 0.750042
O O1 0.132097 0.568227 0.539321
O O2 0.981860 0.800078 0.499225
O O3 0.875407 0.688824 0.677995
O O4 0.116962 0.379941 0.877540
O O5 0.479856 0.259619 0.845920
O O6 0.339284 0.516534 0.006692
O O7 0.349245 0.355006 0.267470
O O8 0.591022 0.410137 0.313407
O O9 0.500000 0.000000 0.500000
O O10 0.390757 0.887935 0.624046
O O11 0.304479 0.954958 0.117366
O O12 0.855798 0.055397 0.368348
O O13 0.726249 0.857215 0.065580
O O14 0.807767 0.241022 0.113603
O O15 0.000000 0.000000 0.000000
#
# Coordination Sequence:
#
# PCOD9018665 Si02
#       7
#     2   2   2   2   2   2   2
#     4  10  25  46  70 107 142 190 241 291 371 429
#     4  11  24  45  77 105 153 189 251 299 366 438
#     4  12  25  41  69 103 148 185 234 303 365 423
#     4  12  24  42  69 108 144 186 244 298 364 423
#     4  12  25  43  76 108 142 188 242 310 358 422
#     4   9  23  50  71 108 146 204 237 300 368 441
#     4  10  21  43  74 101 143 189 246 291 357 439
#
# _framework density 27.652184999999999
#
# number of rings (size 3 to 8) (size 9 to 14) (size 15 to 20)
#    0.857    0.286    4.286    1.286    0.000    4.000 
#    0.000    2.143    0.000    0.000    0.000    0.000 
#    0.000    0.000    0.000    0.000    0.000    0.000 
#
# Total GULP energy -78323.471617 kJ/mol
# GULP energy per Si atom -5594.533687 kJ/mol
# Density = 2.758925 g / cm^3
# Si number density = 27.652185 Si / 1000 Ang^3
#
#
#
# Elastic Constant Matrix: (Units=GPa)
#
#
# Indices 1 2 3 4 5 6 
#
# 1 203.8589 48.0994 55.8320 -6.1309 -7.8340 14.8049
# 2 48.0994 122.6642 -2.9923 -11.5929 -0.7088 -4.9795
# 3 55.8320 -2.9923 82.3149 -11.7197 0.6526 -12.6970
# 4 -6.1309 -11.5929 -11.7197 32.5377 -7.5232 2.3399
# 5 -7.8340 -0.7088 0.6526 -7.5232 58.0764 4.1999
# 6 14.8049 -4.9795 -12.6970 2.3399 4.1999 68.8797
#
#
#
# Elastic Compliance Matrix: (Units=1/GPa)
#
#
# Indices 1 2 3 4 5 6 
#
# 1 0.007521 -0.003342 -0.005892 -0.001436 0.001068 -0.002961
# 2 -0.003342 0.010012 0.003511 0.004066 0.000018 0.001950
# 3 -0.005892 0.003511 0.017864 0.006127 -0.000494 0.004635
# 4 -0.001436 0.004066 0.006127 0.035096 0.004313 0.000277
# 5 0.001068 0.000018 -0.000494 0.004313 0.018040 -0.001566
# 6 -0.002961 0.001950 0.004635 0.000277 -0.001566 0.016236
#
#
# Mechanical properties :
#
#
# Convention : Reuss Voigt Hill
#
# Bulk Modulus (GPa) = 41.75619 67.85738 54.80678
# Shear Modulus (GPa) = 40.25778 52.42536 46.34157
#
# Velocity S-wave (km/s) = 3.81972 4.35890 4.09818
# Velocity P-wave (km/s) = 5.88107 7.06585 6.50051
#
# Compressibility (1/GPa) = 0.02394855
#
# Stress axis : x y z
#
# Youngs Moduli (GPa) = 132.96926 99.87875 55.97915
#
# Poissons Ratio (x) = 0.33384 0.32983
# Poissons Ratio (y) = 0.44444 -0.19652
# Poissons Ratio (z) = 0.78347 -0.35063
#
# Static dielectric constant tensor:
#      x y z
#    x 2.370660 0.027020 0.129290 
#    y 0.027020 2.195220 0.119950 
#    z 0.129290 0.119950 2.274060 
# 
# From -- ./inp_files/64229.got.cif
#   From: 2010.05.17/outbox.cif.g08.bks.cpg/sg2_33_cif.got.tgz:64229.got - 2010.06.03 11:33:40.
