data_PCOD9018068
_publ_section_title
;
Structure prediction by ZEFSAII (Michael W. Deem and Ramdas Pophale) SiO2 
 PCOD9018068
Probable space group: P -1
;
_chemical_formula_sum "Si O2"
_cell_formula_units_Z 14
_cell_length_a 11.569787
_cell_length_b 11.643217
_cell_length_c 5.644316
_cell_angle_alpha 77.765636
_cell_angle_beta 123.891954
_cell_angle_gamma 101.767407
_cell_volume 613.362309
_symmetry_space_group_name_H-M "P -1"
_symmetry_group_IT_number 2
_symmetry_cell_setting 'triclinic'
loop_
_space_group_symop_operation_xyz
x,y,z
-x,-y,-z
loop_
_atom_site_type_symbol
_atom_site_label
_atom_site_fract_x
_atom_site_fract_y
_atom_site_fract_z
Si Si1 0.409961 0.825908 0.599401
Si Si2 0.036959 0.593291 0.794964
Si Si3 0.756659 0.539970 0.252364
Si Si4 0.317320 0.021346 0.069164
Si Si5 0.488315 0.594923 0.649900
Si Si6 0.800623 0.197384 0.262057
Si Si7 0.971224 0.929810 0.243827
O O1 0.337706 0.931368 0.347731
O O2 0.454724 0.729211 0.506374
O O3 0.315058 0.758718 0.720302
O O4 0.544124 0.893785 0.847907
O O5 0.145013 0.535329 0.766759
O O6 0.129791 0.717457 0.900023
O O7 0.883460 0.613774 0.508048
O O8 0.000000 0.500000 0.000000
O O9 0.646923 0.463533 0.332282
O O10 0.641679 0.604428 0.946180
O O11 0.270628 0.928437 0.852162
O O12 0.193743 0.101540 0.935387
O O13 0.500000 0.500000 0.500000
O O14 0.931604 0.174337 0.586190
O O15 0.000000 0.000000 0.500000
O O16 0.000000 0.000000 0.000000
#
# Coordination Sequence:
#
# PCOD9018068 Si02
#       7
#     2   2   2   2   2   2   2
#     4  11  23  43  68 101 141 184 240 290 362 447
#     4  11  24  43  70 102 137 186 244 298 368 434
#     4  10  24  43  64  99 134 179 241 296 356 428
#     4  10  24  40  70 105 136 188 232 292 366 446
#     4  11  24  43  69  97 142 187 236 299 361 428
#     4  11  23  42  72  99 144 190 229 306 369 442
#     4  10  21  43  68 104 145 186 247 298 369 443
#
# _framework density 22.825009000000001
#
# number of rings (size 3 to 8) (size 9 to 14) (size 15 to 20)
#    0.000    1.429    2.857    1.286    6.000    0.000 
#    0.000    2.857    0.000    0.000    0.000    0.000 
#    0.000    0.000    0.000    0.000    0.000    0.000 
#
# Total GULP energy -77992.664901 kJ/mol
# GULP energy per Si atom -5570.904636 kJ/mol
# Density = 2.277306 g / cm^3
# Si number density = 22.825009 Si / 1000 Ang^3
#
#
#
# Elastic Constant Matrix: (Units=GPa)
#
#
# Indices 1 2 3 4 5 6 
#
# 1 160.6863 50.2244 53.2108 4.9585 20.2032 17.9961
# 2 50.2244 97.8199 26.4313 4.8349 6.5343 12.8233
# 3 53.2108 26.4313 80.1598 13.0696 18.4233 26.6657
# 4 4.9585 4.8349 13.0696 6.9449 10.2930 -14.2707
# 5 20.2032 6.5343 18.4233 10.2930 42.2285 5.9274
# 6 17.9961 12.8233 26.6657 -14.2707 5.9274 18.8680
#
#
#
# Elastic Compliance Matrix: (Units=1/GPa)
#
#
# Indices 1 2 3 4 5 6 
#
# 1 0.008815 -0.003080 -0.003186 -0.002094 -0.001427 -0.002947
# 2 -0.003080 0.012250 -0.003142 0.003580 -0.000179 0.001816
# 3 -0.003186 -0.003142 0.010214 0.023437 -0.009778 0.011537
# 4 -0.002094 0.003580 0.023437 -0.030912 0.006015 -0.058829
# 5 -0.001427 -0.000179 -0.009778 0.006015 0.025530 0.011830
# 6 -0.002947 0.001816 0.011537 -0.058829 0.011830 -0.009940
#
#
# Mechanical properties :
#
#
# Convention : Reuss Voigt Hill
#
# Bulk Modulus (GPa) = 80.23289 66.48877 73.36083
# Shear Modulus (GPa) = 128.44178 27.52825 77.98501
#
# Velocity S-wave (km/s) = 7.50963 3.47660 5.85155
# Velocity P-wave (km/s) = 10.50811 6.73117 8.82409
#
# Compressibility (1/GPa) = 0.01246372
#
# Stress axis : x y z
#
# Youngs Moduli (GPa) = 113.44055 81.63280 97.90124
#
# Poissons Ratio (x) = 0.25143 0.31196
# Poissons Ratio (y) = 0.34939 0.30756
# Poissons Ratio (z) = 0.36147 0.25645
#
# Static dielectric constant tensor:
#      x y z
#    x 1.865020 -0.022570 -0.049730 
#    y -0.022570 1.873030 -0.001230 
#    z -0.049730 -0.001230 1.965570 
# 
# From -- ./inp_files/69480.got.cif
#   From: 2010.05.17/outbox.cif.g08.bks.cpg/sg2_35_cif.got.tgz:69480.got - 2010.06.03 11:33:40.
