data_PCOD9018229
_publ_section_title
;
Structure prediction by ZEFSAII (Michael W. Deem and Ramdas Pophale) SiO2 
 PCOD9018229
Probable space group: P -1
;
_chemical_formula_sum "Si O2"
_cell_formula_units_Z 16
_cell_length_a 15.217349
_cell_length_b 11.572194
_cell_length_c 14.711666
_cell_angle_alpha 38.481875
_cell_angle_beta 28.346668
_cell_angle_gamma 57.831190
_cell_volume 649.197003
_symmetry_space_group_name_H-M "P -1"
_symmetry_group_IT_number 2
_symmetry_cell_setting 'triclinic'
loop_
_space_group_symop_operation_xyz
x,y,z
-x,-y,-z
loop_
_atom_site_type_symbol
_atom_site_label
_atom_site_fract_x
_atom_site_fract_y
_atom_site_fract_z
Si Si1 0.102005 0.450428 0.301277
Si Si2 0.977643 0.478401 0.871586
Si Si3 0.295578 0.828593 0.041552
Si Si4 0.797193 0.983014 0.313255
Si Si5 0.303606 0.188006 0.299612
Si Si6 0.295088 0.148105 0.719714
Si Si7 0.442896 0.583421 0.409745
Si Si8 0.100250 0.156637 0.224590
O O1 0.199158 0.659739 0.148528
O O2 0.275795 0.380004 0.169768
O O3 0.014268 0.484152 0.267036
O O4 0.903607 0.251968 0.659309
O O5 0.222544 0.583458 0.621944
O O6 0.875462 0.610279 0.924454
O O7 0.842189 0.215841 0.164083
O O8 0.485417 0.809974 0.926328
O O9 0.383615 0.061172 0.771532
O O10 0.687748 0.810655 0.599812
O O11 0.671485 0.907520 0.378402
O O12 0.034707 0.020310 0.054488
O O13 0.081809 0.966419 0.610439
O O14 0.380989 0.399880 0.501801
O O15 0.500000 0.500000 0.500000
O O16 0.664922 0.799624 0.043251
O O17 0.000000 0.000000 0.500000
#
# Coordination Sequence:
#
# PCOD9018229 Si02
#       8
#     2   2   2   2   2   2   2   2
#     4  11  24  46  67 105 143 171 229 285 356 419
#     4  11  25  45  74  99 141 182 227 288 357 406
#     4  11  25  41  74 101 135 185 224 283 356 417
#     4  10  22  43  71 101 137 174 228 297 343 407
#     4  12  26  44  69 100 141 181 232 291 342 410
#     4  10  21  43  69 104 132 181 235 278 350 417
#     4  11  28  46  73 103 143 188 234 288 346 417
#     4  12  28  47  68 103 142 184 244 285 340 429
#
# _framework density 24.645831999999999
#
# number of rings (size 3 to 8) (size 9 to 14) (size 15 to 20)
#    0.000    1.000    3.750    1.875    5.250    3.000 
#    0.000    0.000    0.000    0.000    0.000    0.000 
#    0.000    0.000    0.000    0.000    0.000    0.000 
#
# Total GULP energy -89669.465441 kJ/mol
# GULP energy per Si atom -5604.341590 kJ/mol
# Density = 2.458974 g / cm^3
# Si number density = 24.645832 Si / 1000 Ang^3
#
#
#
# Elastic Constant Matrix: (Units=GPa)
#
#
# Indices 1 2 3 4 5 6 
#
# 1 95.8302 -5.0941 15.1323 6.2847 2.2740 -16.8688
# 2 -5.0941 72.2166 -10.3542 -2.3038 -14.3789 -13.4952
# 3 15.1323 -10.3542 58.7499 18.2347 -10.5320 -1.2439
# 4 6.2847 -2.3038 18.2347 30.2021 -6.1442 -9.1467
# 5 2.2740 -14.3789 -10.5320 -6.1442 31.5532 -3.8185
# 6 -16.8688 -13.4952 -1.2439 -9.1467 -3.8185 39.1571
#
#
#
# Elastic Compliance Matrix: (Units=1/GPa)
#
#
# Indices 1 2 3 4 5 6 
#
# 1 0.011957 0.001458 -0.003130 0.001210 -0.000304 0.005807
# 2 0.001458 0.018683 0.003994 0.003868 0.011612 0.009230
# 3 -0.003130 0.003994 0.023617 -0.012210 0.007387 -0.001353
# 4 0.001210 0.003868 -0.012210 0.046135 0.008162 0.013039
# 5 -0.000304 0.011612 0.007387 0.008162 0.042288 0.010136
# 6 0.005807 0.009230 -0.001353 0.013039 0.010136 0.035212
#
#
# Mechanical properties :
#
#
# Convention : Reuss Voigt Hill
#
# Bulk Modulus (GPa) = 16.97784 25.12940 21.05362
# Shear Modulus (GPa) = 25.92286 35.32333 30.62310
#
# Velocity S-wave (km/s) = 3.24669 3.78992 3.52877
# Velocity P-wave (km/s) = 4.57803 5.41938 5.01637
#
# Compressibility (1/GPa) = 0.05890029
#
# Stress axis : x y z
#
# Youngs Moduli (GPa) = 83.63365 53.52498 42.34310
#
# Poissons Ratio (x) = -0.07804 0.13252
# Poissons Ratio (y) = -0.12194 -0.16911
# Poissons Ratio (z) = 0.26175 -0.21376
#
# Static dielectric constant tensor:
#      x y z
#    x 1.934100 0.006230 -0.034090 
#    y 0.006230 1.971550 -0.009760 
#    z -0.034090 -0.009760 1.953020 
# 
# From -- ./inp_files/434251.got.cif
#   From: 2010.05.17/outbox.cif.g08.bks.cpg/sg2_218_cif.got.tgz:434251.got - 2010.06.03 11:33:40.
