data_PCOD9018671
_publ_section_title
;
Structure prediction by ZEFSAII (Michael W. Deem and Ramdas Pophale) SiO2 
 PCOD9018671
Probable space group: P -1
;
_chemical_formula_sum "Si O2"
_cell_formula_units_Z 16
_cell_length_a 30.264280
_cell_length_b 8.233527
_cell_length_c 5.260987
_cell_angle_alpha 92.324793
_cell_angle_beta 85.065728
_cell_angle_gamma 30.164158
_cell_volume 638.751038
_symmetry_space_group_name_H-M "P -1"
_symmetry_group_IT_number 2
_symmetry_cell_setting 'triclinic'
loop_
_space_group_symop_operation_xyz
x,y,z
-x,-y,-z
loop_
_atom_site_type_symbol
_atom_site_label
_atom_site_fract_x
_atom_site_fract_y
_atom_site_fract_z
Si Si1 0.106436 0.987732 0.744520
Si Si2 0.564721 0.414658 0.255236
Si Si3 0.064064 0.654749 0.068134
Si Si4 0.303306 0.798754 0.164190
Si Si5 0.467947 0.229791 0.327731
Si Si6 0.390507 0.045608 0.057694
Si Si7 0.802480 0.178832 0.795298
Si Si8 0.158666 0.455448 0.530974
O O1 0.133886 0.014109 0.496814
O O2 0.144943 0.686610 0.624599
O O3 0.150649 0.898170 0.982622
O O4 0.999226 0.299890 0.860332
O O5 0.551546 0.525224 0.548012
O O6 0.611987 0.093859 0.152686
O O7 0.629940 0.340062 0.086109
O O8 0.462733 0.752439 0.212408
O O9 0.096351 0.610882 0.326594
O O10 0.138739 0.412754 0.791821
O O11 0.000000 0.000000 0.000000
O O12 0.369977 0.491942 0.300165
O O13 0.228132 0.907662 0.133887
O O14 0.256362 0.096856 0.353090
O O15 0.552286 0.987104 0.086905
O O16 0.500000 0.000000 0.500000
O O17 0.289288 0.424493 0.192158
#
# Coordination Sequence:
#
# PCOD9018671 Si02
#       8
#     2   2   2   2   2   2   2   2
#     4  11  24  43  69 100 132 176 222 281 335 411
#     4  10  22  41  65  87 134 165 244 278 340 393
#     4  10  21  43  74 103 133 173 226 281 345 409
#     4  11  27  41  63 102 133 184 225 284 342 402
#     4  11  23  40  67  89 138 180 231 275 347 404
#     4  10  23  40  62  98 121 183 225 294 330 398
#     4  12  26  41  65  97 144 174 226 272 346 405
#     4  11  23  43  75 101 134 175 231 283 337 407
#
# _framework density 25.048884000000001
#
# number of rings (size 3 to 8) (size 9 to 14) (size 15 to 20)
#    0.000    1.250    0.000    6.375    8.750    2.000 
#    0.000    3.750    0.000    0.000    0.000    0.000 
#    0.000    0.000    0.000    0.000    0.000    0.000 
#
# Total GULP energy -89523.855713 kJ/mol
# GULP energy per Si atom -5595.240982 kJ/mol
# Density = 2.499187 g / cm^3
# Si number density = 25.048884 Si / 1000 Ang^3
#
#
#
# Elastic Constant Matrix: (Units=GPa)
#
#
# Indices 1 2 3 4 5 6 
#
# 1 93.6755 12.5757 22.3241 -16.5220 -2.3015 -7.9225
# 2 12.5757 45.1607 11.7558 -10.3732 -8.2512 -0.4395
# 3 22.3241 11.7558 101.8213 -5.9837 -11.7313 -15.1864
# 4 -16.5220 -10.3732 -5.9837 36.2238 1.6488 7.3371
# 5 -2.3015 -8.2512 -11.7313 1.6488 52.6722 2.8589
# 6 -7.9225 -0.4395 -15.1864 7.3371 2.8589 37.6785
#
#
#
# Elastic Compliance Matrix: (Units=1/GPa)
#
#
# Indices 1 2 3 4 5 6 
#
# 1 0.012304 -0.001891 -0.002133 0.004565 -0.000423 0.000848
# 2 -0.001891 0.025268 -0.002108 0.006368 0.003339 -0.002446
# 3 -0.002133 -0.002108 0.011321 -0.000617 0.001897 0.004066
# 4 0.004565 0.006368 -0.000617 0.032524 0.000344 -0.005574
# 5 -0.000423 0.003339 0.001897 0.000344 0.019949 -0.000866
# 6 0.000848 -0.002446 0.004066 -0.005574 -0.000866 0.029480
#
#
# Mechanical properties :
#
#
# Convention : Reuss Voigt Hill
#
# Bulk Modulus (GPa) = 27.30233 37.10763 32.20498
# Shear Modulus (GPa) = 32.19163 38.24835 35.21999
#
# Velocity S-wave (km/s) = 3.58879 3.91186 3.75380
# Velocity P-wave (km/s) = 5.30055 5.93715 5.62786
#
# Compressibility (1/GPa) = 0.03662691
#
# Stress axis : x y z
#
# Youngs Moduli (GPa) = 81.27443 39.57603 88.33183
#
# Poissons Ratio (x) = 0.07485 0.18842
# Poissons Ratio (y) = 0.15371 0.18625
# Poissons Ratio (z) = 0.17337 0.08345
#
# Static dielectric constant tensor:
#      x y z
#    x 2.035590 -0.002800 -0.000200 
#    y -0.002800 1.992810 -0.023050 
#    z -0.000200 -0.023050 1.991210 
# 
# From -- ./inp_files/85101.got.cif
#   From: 2010.05.17/outbox.cif.g08.bks.cpg/sg2_43_cif.got.tgz:85101.got - 2010.06.03 11:33:40.
