data_PCOD9018220
_publ_section_title
;
Structure prediction by ZEFSAII (Michael W. Deem and Ramdas Pophale) SiO2 
 PCOD9018220
Probable space group: P -1
;
_chemical_formula_sum "Si O2"
_cell_formula_units_Z 14
_cell_length_a 9.492534
_cell_length_b 9.813241
_cell_length_c 8.317153
_cell_angle_alpha 84.308396
_cell_angle_beta 67.954804
_cell_angle_gamma 56.571227
_cell_volume 593.495568
_symmetry_space_group_name_H-M "P -1"
_symmetry_group_IT_number 2
_symmetry_cell_setting 'triclinic'
loop_
_space_group_symop_operation_xyz
x,y,z
-x,-y,-z
loop_
_atom_site_type_symbol
_atom_site_label
_atom_site_fract_x
_atom_site_fract_y
_atom_site_fract_z
Si Si1 0.018777 0.420706 0.756091
Si Si2 0.685321 0.551894 0.507195
Si Si3 0.315619 0.763854 0.473348
Si Si4 0.656753 0.118977 0.891900
Si Si5 0.396625 0.414958 0.110426
Si Si6 0.092763 0.249338 0.051600
Si Si7 0.820969 0.159060 0.131224
O O1 0.159417 0.410265 0.567173
O O2 0.134020 0.270089 0.848092
O O3 0.824958 0.447549 0.800444
O O4 0.953268 0.592839 0.849514
O O5 0.535628 0.645269 0.419299
O O6 0.749034 0.361653 0.500583
O O7 0.570452 0.626923 0.709769
O O8 0.278486 0.862827 0.312389
O O9 0.233125 0.865513 0.663586
O O10 0.245037 0.073370 0.085556
O O11 0.441113 0.264787 0.987630
O O12 0.703412 0.189576 0.018961
O O13 0.500000 0.500000 0.000000
O O14 0.894200 0.274140 0.119346
O O15 0.000000 0.000000 0.000000
#
# Coordination Sequence:
#
# PCOD9018220 Si02
#       7
#     2   2   2   2   2   2   2
#     4  11  25  44  68 100 145 192 235 297 361 428
#     4  11  24  43  68 105 146 185 241 292 354 427
#     4  11  23  41  73 104 144 184 241 292 349 422
#     4  11  24  43  72 108 138 189 243 296 347 424
#     4  12  24  44  76 104 137 191 246 294 357 430
#     4  10  24  42  68  98 146 184 239 289 364 414
#     4  10  21  43  69 102 140 183 232 290 350 419
#
# _framework density 23.589053
#
# number of rings (size 3 to 8) (size 9 to 14) (size 15 to 20)
#    0.000    1.143    4.286    1.286    4.000    2.857 
#    0.000    2.143    0.000    0.000    0.000    0.000 
#    0.000    0.000    0.000    0.000    0.000    0.000 
#
# Total GULP energy -77953.701137 kJ/mol
# GULP energy per Si atom -5568.121510 kJ/mol
# Density = 2.353536 g / cm^3
# Si number density = 23.589053 Si / 1000 Ang^3
#
#
#
# Elastic Constant Matrix: (Units=GPa)
#
#
# Indices 1 2 3 4 5 6 
#
# 1 73.3424 5.2036 37.7849 -22.3221 -5.1918 19.7390
# 2 5.2036 125.2091 63.6457 -28.2860 9.2665 -8.7492
# 3 37.7849 63.6457 175.5180 -28.4865 10.1806 -1.1142
# 4 -22.3221 -28.2860 -28.4865 38.1171 6.7953 2.5897
# 5 -5.1918 9.2665 10.1806 6.7953 29.4307 -10.5854
# 6 19.7390 -8.7492 -1.1142 2.5897 -10.5854 19.7541
#
#
#
# Elastic Compliance Matrix: (Units=1/GPa)
#
#
# Indices 1 2 3 4 5 6 
#
# 1 0.034324 0.004737 -0.004172 0.026394 -0.016101 -0.044523
# 2 0.004737 0.011999 -0.003379 0.010425 -0.005614 -0.003985
# 3 -0.004172 -0.003379 0.008195 0.001448 -0.002208 0.001762
# 4 0.026394 0.010425 0.001448 0.058686 -0.028789 -0.044795
# 5 -0.016101 -0.005614 -0.002208 -0.028789 0.057628 0.048133
# 6 -0.044523 -0.003985 0.001762 -0.044795 0.048133 0.125111
#
#
# Mechanical properties :
#
#
# Convention : Reuss Voigt Hill
#
# Bulk Modulus (GPa) = 20.45349 65.25978 42.85664
# Shear Modulus (GPa) = 15.72987 35.28939 25.50963
#
# Velocity S-wave (km/s) = 2.58510 3.87202 3.29206
# Velocity P-wave (km/s) = 4.19523 6.90763 5.71469
#
# Compressibility (1/GPa) = 0.04889141
#
# Stress axis : x y z
#
# Youngs Moduli (GPa) = 29.13428 83.33741 122.02687
#
# Poissons Ratio (x) = -0.39479 0.50910
# Poissons Ratio (y) = -0.13802 0.41229
# Poissons Ratio (z) = 0.12155 0.28157
#
# Static dielectric constant tensor:
#      x y z
#    x 0.387080 -0.539830 -0.424110 
#    y -0.539830 2.173700 0.081980 
#    z -0.424110 0.081980 1.913040 
# 
# From -- ./inp_files/171211.got.cif
#   From: 2010.05.17/outbox.cif.g08.bks.cpg/sg2_86_cif.got.tgz:171211.got - 2010.06.03 11:33:40.
