data_PCOD9018273
_publ_section_title
;
Structure prediction by ZEFSAII (Michael W. Deem and Ramdas Pophale) SiO2 
 PCOD9018273
Probable space group: P -1
;
_chemical_formula_sum "Si O2"
_cell_formula_units_Z 14
_cell_length_a 18.956668
_cell_length_b 6.791596
_cell_length_c 4.935822
_cell_angle_alpha 74.209294
_cell_angle_beta 67.969872
_cell_angle_gamma 84.609621
_cell_volume 566.816156
_symmetry_space_group_name_H-M "P -1"
_symmetry_group_IT_number 2
_symmetry_cell_setting 'triclinic'
loop_
_space_group_symop_operation_xyz
x,y,z
-x,-y,-z
loop_
_atom_site_type_symbol
_atom_site_label
_atom_site_fract_x
_atom_site_fract_y
_atom_site_fract_z
Si Si1 0.831669 0.065494 0.526382
Si Si2 0.049314 0.425645 0.204404
Si Si3 0.415949 0.006433 0.005090
Si Si4 0.221973 0.378481 0.003683
Si Si5 0.329800 0.132879 0.600753
Si Si6 0.930098 0.014226 0.879779
Si Si7 0.297541 0.725799 0.101410
O O1 0.799459 0.840392 0.744053
O O2 0.865083 0.030409 0.195129
O O3 0.764237 0.225346 0.598079
O O4 0.893914 0.143482 0.633055
O O5 0.139050 0.483766 0.042669
O O6 0.000000 0.500000 0.500000
O O7 0.054115 0.184315 0.251353
O O8 0.000000 0.500000 0.000000
O O9 0.361576 0.112475 0.264243
O O10 0.380702 0.778311 0.084737
O O11 0.402236 0.133586 0.701900
O O12 0.500000 0.000000 0.000000
O O13 0.275153 0.522444 0.054558
O O14 0.270709 0.308836 0.698097
O O15 0.292083 0.916254 0.826385
O O16 0.000000 0.000000 0.000000
#
# Coordination Sequence:
#
# PCOD9018273 Si02
#       7
#     2   2   2   2   2   2   2
#     4  10  23  41  61  91 119 165 208 266 301 372
#     4  11  25  40  57  89 121 161 210 264 308 350
#     4  10  21  43  69  94 131 161 199 256 312 372
#     4  10  22  44  64  91 128 168 211 261 308 376
#     4   9  22  42  65  95 126 163 207 248 313 371
#     4  11  24  41  63  81 124 161 213 258 325 357
#     4   9  23  38  69  91 124 164 212 244 317 368
#
# _framework density 24.699365
#
# number of rings (size 3 to 8) (size 9 to 14) (size 15 to 20)
#    0.857    1.143    0.000    2.571   10.000    1.143 
#   10.286    1.429    0.000    0.000    0.000    0.000 
#    0.000    0.000    0.000    0.000    0.000    0.000 
#
# Total GULP energy -78108.476309 kJ/mol
# GULP energy per Si atom -5579.176879 kJ/mol
# Density = 2.464315 g / cm^3
# Si number density = 24.699365 Si / 1000 Ang^3
#
#
#
# Elastic Constant Matrix: (Units=GPa)
#
#
# Indices 1 2 3 4 5 6 
#
# 1 194.5619 37.7327 27.0966 7.6844 -1.5233 30.2638
# 2 37.7327 105.5867 18.5766 28.3755 -8.7717 20.2963
# 3 27.0966 18.5766 101.8033 29.3573 11.7847 8.6381
# 4 7.6844 28.3755 29.3573 33.1320 0.3969 7.7158
# 5 -1.5233 -8.7717 11.7847 0.3969 40.6592 1.5790
# 6 30.2638 20.2963 8.6381 7.7158 1.5790 40.6658
#
#
#
# Elastic Compliance Matrix: (Units=1/GPa)
#
#
# Indices 1 2 3 4 5 6 
#
# 1 0.006250 -0.001836 -0.001814 0.002625 0.000488 -0.003867
# 2 -0.001836 0.014071 0.001373 -0.011995 0.002833 -0.003782
# 3 -0.001814 0.001373 0.014367 -0.013515 -0.003816 0.000325
# 4 0.002625 -0.011995 -0.013515 0.052532 0.001035 -0.003103
# 5 0.000488 0.002833 -0.003816 0.001035 0.026405 -0.002188
# 6 -0.003867 -0.003782 0.000325 -0.003103 -0.002188 0.029961
#
#
# Mechanical properties :
#
#
# Convention : Reuss Voigt Hill
#
# Bulk Modulus (GPa) = 33.18419 63.19596 48.19008
# Shear Modulus (GPa) = 31.60857 44.12778 37.86818
#
# Velocity S-wave (km/s) = 3.58122 4.23140 3.91981
# Velocity P-wave (km/s) = 5.52852 7.03666 6.32768
#
# Compressibility (1/GPa) = 0.03013483
#
# Stress axis : x y z
#
# Youngs Moduli (GPa) = 159.99911 71.06594 69.60541
#
# Poissons Ratio (x) = 0.13047 0.12625
# Poissons Ratio (y) = 0.29374 -0.09557
# Poissons Ratio (z) = 0.29021 -0.09758
#
# Static dielectric constant tensor:
#      x y z
#    x 2.071550 0.037780 0.042490 
#    y 0.037780 2.063730 -0.065800 
#    z 0.042490 -0.065800 1.964660 
# 
# From -- ./inp_files/115151.got.cif
#   From: 2010.05.17/outbox.cif.g08.bks.cpg/sg2_58_cif.got.tgz:115151.got - 2010.06.03 11:33:40.
