data_PCOD9018322
_publ_section_title
;
Structure prediction by ZEFSAII (Michael W. Deem and Ramdas Pophale) SiO2 
 PCOD9018322
Probable space group: P -1
;
_chemical_formula_sum "Si O2"
_cell_formula_units_Z 12
_cell_length_a 8.338996
_cell_length_b 8.997275
_cell_length_c 8.352243
_cell_angle_alpha 86.977303
_cell_angle_beta 117.883898
_cell_angle_gamma 115.031472
_cell_volume 493.561494
_symmetry_space_group_name_H-M "P -1"
_symmetry_group_IT_number 2
_symmetry_cell_setting 'triclinic'
loop_
_space_group_symop_operation_xyz
x,y,z
-x,-y,-z
loop_
_atom_site_type_symbol
_atom_site_label
_atom_site_fract_x
_atom_site_fract_y
_atom_site_fract_z
Si Si1 0.611212 0.389645 0.605041
Si Si2 0.662123 0.472249 0.973209
Si Si3 0.944102 0.845096 0.100181
Si Si4 0.264301 0.833089 0.492772
Si Si5 0.059118 0.649007 0.707075
Si Si6 0.177132 0.003729 0.698979
O O1 0.500000 0.500000 0.500000
O O2 0.574138 0.227964 0.490568
O O3 0.846899 0.508379 0.672943
O O4 0.579415 0.364158 0.780665
O O5 0.829832 0.658524 0.988914
O O6 0.767734 0.389979 0.138416
O O7 0.500000 0.500000 0.000000
O O8 0.144731 0.862065 0.287740
O O9 0.792284 0.858307 0.164453
O O10 0.000000 0.000000 0.000000
O O11 0.332060 0.980689 0.648766
O O12 0.093948 0.684759 0.530907
O O13 0.089582 0.830480 0.766354
O O14 0.000000 0.000000 0.500000
#
# Coordination Sequence:
#
# PCOD9018322 Si02
#       6
#     2   2   2   2   2   2
#     4  12  24  38  66 100 135 174 229 281 327 400
#     4  12  27  42  70 103 135 177 230 283 334 395
#     4  11  22  41  69 100 137 178 224 274 342 404
#     4   9  21  37  69  97 129 178 223 277 336 396
#     4  10  21  43  69  98 130 178 232 273 339 395
#     4   8  19  36  66  92 128 173 216 266 342 392
#
# _framework density 24.313082000000001
#
# number of rings (size 3 to 8) (size 9 to 14) (size 15 to 20)
#    1.000    0.667    1.667    3.000    4.667    0.000 
#    0.000    0.833    3.667    5.000    0.000    0.000 
#    0.000    0.000    0.000    0.000    0.000    0.000 
#
# Total GULP energy -66999.933958 kJ/mol
# GULP energy per Si atom -5583.327830 kJ/mol
# Density = 2.425774 g / cm^3
# Si number density = 24.313082 Si / 1000 Ang^3
#
#
#
# Elastic Constant Matrix: (Units=GPa)
#
#
# Indices 1 2 3 4 5 6 
#
# 1 119.2225 26.9587 42.8287 -8.7931 -19.2931 -36.6667
# 2 26.9587 117.4010 38.4474 -12.4067 -6.6780 -23.6581
# 3 42.8287 38.4474 97.2089 -21.8635 -16.2655 -23.0031
# 4 -8.7931 -12.4067 -21.8635 60.2444 -21.2569 -9.7851
# 5 -19.2931 -6.6780 -16.2655 -21.2569 40.5969 -1.8961
# 6 -36.6667 -23.6581 -23.0031 -9.7851 -1.8961 58.8851
#
#
#
# Elastic Compliance Matrix: (Units=1/GPa)
#
#
# Indices 1 2 3 4 5 6 
#
# 1 0.013918 0.000410 -0.000312 0.007559 0.010996 0.010319
# 2 0.000410 0.010477 -0.002108 0.003182 0.002939 0.004265
# 3 -0.000312 -0.002108 0.018449 0.012516 0.013856 0.008692
# 4 0.007559 0.003182 0.012516 0.035942 0.028780 0.017774
# 5 0.010996 0.002939 0.013856 0.028780 0.051892 0.019894
# 6 0.010319 0.004265 0.008692 0.017774 0.019894 0.032111
#
#
# Mechanical properties :
#
#
# Convention : Reuss Voigt Hill
#
# Bulk Modulus (GPa) = 25.75761 61.14466 43.45113
# Shear Modulus (GPa) = 27.81669 46.98511 37.40090
#
# Velocity S-wave (km/s) = 3.38613 4.40079 3.92638
# Velocity P-wave (km/s) = 5.08969 7.14326 6.20206
#
# Compressibility (1/GPa) = 0.03882348
#
# Stress axis : x y z
#
# Youngs Moduli (GPa) = 71.85106 95.44919 54.20449
#
# Poissons Ratio (x) = -0.03914 0.01693
# Poissons Ratio (y) = -0.02947 0.11424
# Poissons Ratio (z) = 0.02244 0.20117
#
# Static dielectric constant tensor:
#      x y z
#    x 1.988810 -0.108730 -0.109440 
#    y -0.108730 2.130780 0.144570 
#    z -0.109440 0.144570 1.959700 
# 
# From -- ./inp_files/158875.got.cif
#   From: 2010.05.17/outbox.cif.g08.bks.cpg/sg2_80_cif.got.tgz:158875.got - 2010.06.03 11:33:40.
