data_PCOD9018811
_publ_section_title
;
Structure prediction by ZEFSAII (Michael W. Deem and Ramdas Pophale) SiO2 
 PCOD9018811
Probable space group: P -1
;
_chemical_formula_sum "Si O2"
_cell_formula_units_Z 10
_cell_length_a 8.325111
_cell_length_b 8.826676
_cell_length_c 11.892407
_cell_angle_alpha 104.768121
_cell_angle_beta 144.473433
_cell_angle_gamma 92.129387
_cell_volume 442.053211
_symmetry_space_group_name_H-M "P -1"
_symmetry_group_IT_number 2
_symmetry_cell_setting 'triclinic'
loop_
_space_group_symop_operation_xyz
x,y,z
-x,-y,-z
loop_
_atom_site_type_symbol
_atom_site_label
_atom_site_fract_x
_atom_site_fract_y
_atom_site_fract_z
Si Si1 0.736303 0.305308 0.309172
Si Si2 0.682558 0.744704 0.754610
Si Si3 0.419369 0.651307 0.353259
Si Si4 0.908639 0.912430 0.552503
Si Si5 0.936721 0.789646 0.127082
O O1 0.611792 0.245098 0.353641
O O2 0.000000 0.500000 0.500000
O O3 0.859293 0.173955 0.304606
O O4 0.429182 0.296628 0.074261
O O5 0.659448 0.750647 0.609741
O O6 0.633405 0.546194 0.712678
O O7 0.954412 0.851677 0.017614
O O8 0.573982 0.751040 0.346069
O O9 0.109449 0.668021 0.206139
O O10 0.000000 0.000000 0.500000
O O11 0.921594 0.056062 0.675418
#
# Coordination Sequence:
#
# PCOD9018811 Si02
#       5
#     2   2   2   2   2
#     4  10  21  44  64  93 129 168 213 264 315 380
#     4   9  22  40  70  89 132 166 223 255 320 378
#     4  11  21  44  65  95 129 173 215 264 312 394
#     4  12  24  42  65  98 134 167 212 271 323 378
#     4  10  23  41  66  94 130 170 216 258 331 376
#
# _framework density 22.621711999999999
#
# number of rings (size 3 to 8) (size 9 to 14) (size 15 to 20)
#    1.200    0.400    2.000    3.000    0.000    0.800 
#    7.200    9.000    0.000    0.000    0.000    0.000 
#    0.000    0.000    0.000    0.000    0.000    0.000 
#
# Total GULP energy -55746.487852 kJ/mol
# GULP energy per Si atom -5574.648785 kJ/mol
# Density = 2.257022 g / cm^3
# Si number density = 22.621712 Si / 1000 Ang^3
#
#
#
# Elastic Constant Matrix: (Units=GPa)
#
#
# Indices 1 2 3 4 5 6 
#
# 1 84.5954 26.1410 -2.1854 -5.9955 5.3168 -15.7478
# 2 26.1410 41.6328 21.6732 -1.2216 12.6219 -2.9700
# 3 -2.1854 21.6732 45.1181 -11.5952 -3.0162 -0.9538
# 4 -5.9955 -1.2216 -11.5952 18.6436 -3.8160 2.1720
# 5 5.3168 12.6219 -3.0162 -3.8160 50.5380 -12.2037
# 6 -15.7478 -2.9700 -0.9538 2.1720 -12.2037 52.0545
#
#
#
# Elastic Compliance Matrix: (Units=1/GPa)
#
#
# Indices 1 2 3 4 5 6 
#
# 1 0.021781 -0.024351 0.017867 0.017339 0.007765 0.006624
# 2 -0.024351 0.066905 -0.043647 -0.034017 -0.021231 -0.007907
# 3 0.017867 -0.043647 0.055582 0.040184 0.016873 0.006212
# 4 0.017339 -0.034017 0.040184 0.084851 0.016534 0.004377
# 5 0.007765 -0.021231 0.016873 0.016534 0.028314 0.007395
# 6 0.006624 -0.007907 0.006212 0.004377 0.007395 0.022428
#
#
# Mechanical properties :
#
#
# Convention : Reuss Voigt Hill
#
# Bulk Modulus (GPa) = 22.72291 29.17822 25.95056
# Shear Modulus (GPa) = 12.66491 32.62838 22.64665
#
# Velocity S-wave (km/s) = 2.36870 3.80195 3.16745
# Velocity P-wave (km/s) = 4.18897 5.67445 4.98733
#
# Compressibility (1/GPa) = 0.04400846
#
# Stress axis : x y z
#
# Youngs Moduli (GPa) = 45.91127 14.94655 17.99129
#
# Poissons Ratio (x) = 0.36396 -0.32146
# Poissons Ratio (y) = 1.11796 0.78526
# Poissons Ratio (z) = -0.82031 0.65237
#
# Static dielectric constant tensor:
#      x y z
#    x 1.832490 0.028060 -0.022750 
#    y 0.028060 1.826620 -0.000330 
#    z -0.022750 -0.000330 1.889290 
# 
# From -- ./inp_files/129331.got.cif
#   From: 2010.05.17/outbox.cif.g08.bks.cpg/sg2_65_cif.got.tgz:129331.got - 2010.06.03 11:33:40.
