data_PCOD9018581
_publ_section_title
;
Structure prediction by ZEFSAII (Michael W. Deem and Ramdas Pophale) SiO2 
 PCOD9018581
Probable space group: P -1
;
_chemical_formula_sum "Si O2"
_cell_formula_units_Z 16
_cell_length_a 8.098738
_cell_length_b 20.253597
_cell_length_c 13.943972
_cell_angle_alpha 21.333713
_cell_angle_beta 108.783653
_cell_angle_gamma 98.519913
_cell_volume 707.155152
_symmetry_space_group_name_H-M "P -1"
_symmetry_group_IT_number 2
_symmetry_cell_setting 'triclinic'
loop_
_space_group_symop_operation_xyz
x,y,z
-x,-y,-z
loop_
_atom_site_type_symbol
_atom_site_label
_atom_site_fract_x
_atom_site_fract_y
_atom_site_fract_z
Si Si1 0.147351 0.267766 0.360512
Si Si2 0.215352 0.459050 0.626745
Si Si3 0.944862 0.082229 0.272603
Si Si4 0.666077 0.934594 0.702135
Si Si5 0.699845 0.250807 0.637204
Si Si6 0.733392 0.853376 0.237027
Si Si7 0.466447 0.709435 0.661502
Si Si8 0.655485 0.528381 0.576314
O O1 0.188942 0.227845 0.534298
O O2 0.343718 0.252392 0.369876
O O3 0.083215 0.097156 0.544255
O O4 0.000000 0.500000 0.000000
O O5 0.184134 0.626987 0.474100
O O6 0.338356 0.470600 0.540492
O O7 0.000000 0.500000 0.500000
O O8 0.333155 0.242296 0.991575
O O9 0.118800 0.137214 0.201384
O O10 0.000000 0.000000 0.500000
O O11 0.756516 0.294714 0.941184
O O12 0.500000 0.000000 0.500000
O O13 0.650932 0.117783 0.518687
O O14 0.626914 0.279107 0.476114
O O15 0.518709 0.356959 0.535072
O O16 0.808625 0.012982 0.000318
O O17 0.772779 0.662197 0.437860
O O18 0.500000 0.000000 0.000000
O O19 0.500000 0.500000 0.000000
#
# Coordination Sequence:
#
# PCOD9018581 Si02
#       8
#     2   2   2   2   2   2   2   2
#     4  12  25  45  73 107 145 185 246 303 357 437
#     4  12  26  47  71 108 150 187 241 301 368 429
#     4  12  27  45  74 107 144 193 250 303 365 435
#     4  12  28  50  73 104 150 195 242 305 376 436
#     4  11  25  46  76 106 143 197 244 296 366 446
#     4  10  21  43  72 102 140 179 244 284 353 426
#     4  12  26  48  74 108 146 194 241 299 375 442
#     4  11  23  46  76 105 144 186 249 295 362 439
#
# _framework density 22.625869000000002
#
# number of rings (size 3 to 8) (size 9 to 14) (size 15 to 20)
#    0.000    0.500    3.750    4.875    7.000    0.000 
#    4.500    1.250    0.000    0.000    0.000    0.000 
#    0.000    0.000    0.000    0.000    0.000    0.000 
#
# Total GULP energy -89397.627032 kJ/mol
# GULP energy per Si atom -5587.351690 kJ/mol
# Density = 2.257437 g / cm^3
# Si number density = 22.625869 Si / 1000 Ang^3
#
#
#
# Elastic Constant Matrix: (Units=GPa)
#
#
# Indices 1 2 3 4 5 6 
#
# 1 59.1074 1.3539 -1.2832 12.4815 -4.2533 2.0862
# 2 1.3539 160.8119 67.3329 0.0746 -3.9606 2.6817
# 3 -1.2832 67.3329 186.1891 2.5515 -28.6640 -0.7778
# 4 12.4815 0.0746 2.5515 52.0330 0.4935 -12.8585
# 5 -4.2533 -3.9606 -28.6640 0.4935 33.5849 4.1287
# 6 2.0862 2.6817 -0.7778 -12.8585 4.1287 38.6899
#
#
#
# Elastic Compliance Matrix: (Units=1/GPa)
#
#
# Indices 1 2 3 4 5 6 
#
# 1 0.018412 -0.000374 0.000856 -0.005248 0.003472 -0.003064
# 2 -0.000374 0.007418 -0.002942 0.000159 -0.001646 -0.000325
# 3 0.000856 -0.002942 0.007397 -0.000772 0.006161 -0.000608
# 4 -0.005248 0.000159 -0.000772 0.022522 -0.002622 0.008022
# 5 0.003472 -0.001646 0.006161 -0.002622 0.035889 -0.004651
# 6 -0.003064 -0.000325 -0.000608 0.008022 -0.004651 0.029184
#
#
# Mechanical properties :
#
#
# Convention : Reuss Voigt Hill
#
# Bulk Modulus (GPa) = 35.32826 60.10174 47.71500
# Shear Modulus (GPa) = 36.98768 47.44187 42.21477
#
# Velocity S-wave (km/s) = 4.04759 4.58405 4.32415
# Velocity P-wave (km/s) = 6.12307 7.39182 6.78716
#
# Compressibility (1/GPa) = 0.02830595
#
# Stress axis : x y z
#
# Youngs Moduli (GPa) = 54.31320 134.80080 135.18336
#
# Poissons Ratio (x) = 0.05046 -0.11570
# Poissons Ratio (y) = 0.02033 0.39775
# Poissons Ratio (z) = -0.04649 0.39662
#
# Static dielectric constant tensor:
#      x y z
#    x 1.968160 0.006600 0.065770 
#    y 0.006600 1.899820 -0.047500 
#    z 0.065770 -0.047500 1.816630 
# 
# From -- ./inp_files/508085.got.cif
#   From: 2010.05.17/outbox.cif.g08.bks.cpg/sg2_255_cif.got.tgz:508085.got - 2010.06.03 11:33:40.
