data_PCOD9018562
_publ_section_title
;
Structure prediction by ZEFSAII (Michael W. Deem and Ramdas Pophale) SiO2 
 PCOD9018562
Probable space group: P -1
;
_chemical_formula_sum "Si O2"
_cell_formula_units_Z 12
_cell_length_a 8.429849
_cell_length_b 16.948788
_cell_length_c 7.680659
_cell_angle_alpha 136.364578
_cell_angle_beta 53.057426
_cell_angle_gamma 139.495652
_cell_volume 488.690267
_symmetry_space_group_name_H-M "P -1"
_symmetry_group_IT_number 2
_symmetry_cell_setting 'triclinic'
loop_
_space_group_symop_operation_xyz
x,y,z
-x,-y,-z
loop_
_atom_site_type_symbol
_atom_site_label
_atom_site_fract_x
_atom_site_fract_y
_atom_site_fract_z
Si Si1 0.207253 0.805131 0.902210
Si Si2 0.889203 0.894667 0.070860
Si Si3 0.424005 0.051278 0.404152
Si Si4 0.885802 0.436520 0.251341
Si Si5 0.385335 0.342985 0.385413
Si Si6 0.111175 0.712246 0.332222
O O1 0.068371 0.860573 0.981320
O O2 0.311678 0.894950 0.156937
O O3 0.443962 0.856452 0.710264
O O4 0.031802 0.637605 0.793900
O O5 0.787042 0.942985 0.363767
O O6 0.666584 0.750298 0.899013
O O7 0.000000 0.000000 0.000000
O O8 0.651792 0.134846 0.523086
O O9 0.606910 0.366084 0.385187
O O10 0.034607 0.601185 0.366467
O O11 0.860089 0.363328 0.966759
O O12 0.500000 0.500000 0.500000
O O13 0.120461 0.283225 0.542819
#
# Coordination Sequence:
#
# PCOD9018562 Si02
#       6
#     2   2   2   2   2   2
#     4  11  27  44  64 100 138 175 222 275 331 391
#     4  12  27  46  69  96 133 180 225 275 334 395
#     4  11  25  44  66  98 137 175 224 274 330 393
#     4  10  23  42  71  98 133 173 220 274 327 393
#     4  10  22  42  68  97 128 171 220 269 329 394
#     4  10  21  43  71  99 131 176 221 267 331 396
#
# _framework density 24.555429
#
# number of rings (size 3 to 8) (size 9 to 14) (size 15 to 20)
#    0.000    1.333    3.333    0.500    7.000    3.333 
#    0.000    0.833    0.000    0.000    0.000    0.000 
#    0.000    0.000    0.000    0.000    0.000    0.000 
#
# Total GULP energy -67046.815393 kJ/mol
# GULP energy per Si atom -5587.234616 kJ/mol
# Density = 2.449954 g / cm^3
# Si number density = 24.555429 Si / 1000 Ang^3
#
#
#
# Elastic Constant Matrix: (Units=GPa)
#
#
# Indices 1 2 3 4 5 6 
#
# 1 104.2623 51.9269 20.0984 -4.8563 -10.2696 -10.1228
# 2 51.9269 131.9652 45.5755 8.5007 -18.3893 -20.6838
# 3 20.0984 45.5755 102.9277 -16.2996 -7.4924 -1.8916
# 4 -4.8563 8.5007 -16.2996 42.4070 11.8496 -5.0591
# 5 -10.2696 -18.3893 -7.4924 11.8496 38.7458 5.7875
# 6 -10.1228 -20.6838 -1.8916 -5.0591 5.7875 29.2723
#
#
#
# Elastic Compliance Matrix: (Units=1/GPa)
#
#
# Indices 1 2 3 4 5 6 
#
# 1 0.012208 -0.004840 0.000193 0.002595 -0.000007 0.001264
# 2 -0.004840 0.013287 -0.005437 -0.006081 0.005037 0.005316
# 3 0.000193 -0.005437 0.012943 0.006403 -0.001763 -0.001483
# 4 0.002595 -0.006081 0.006403 0.031242 -0.011206 0.004630
# 5 -0.000007 0.005037 -0.001763 -0.011206 0.032005 -0.004821
# 6 0.001264 0.005316 -0.001483 0.004630 -0.004821 0.040013
#
#
# Mechanical properties :
#
#
# Convention : Reuss Voigt Hill
#
# Bulk Modulus (GPa) = 54.73356 63.81741 59.27549
# Shear Modulus (GPa) = 29.76987 36.85533 33.31260
#
# Velocity S-wave (km/s) = 3.48566 3.87835 3.68724
# Velocity P-wave (km/s) = 6.20790 6.78977 6.50535
#
# Compressibility (1/GPa) = 0.01827033
#
# Stress axis : x y z
#
# Youngs Moduli (GPa) = 81.91672 75.26182 77.25888
#
# Poissons Ratio (x) = 0.36429 -0.01493
# Poissons Ratio (y) = 0.39650 0.42004
# Poissons Ratio (z) = -0.01583 0.40918
#
# Static dielectric constant tensor:
#      x y z
#    x 2.039260 -0.016600 -0.021020 
#    y -0.016600 1.941230 -0.008290 
#    z -0.021020 -0.008290 1.964300 
# 
# From -- ./inp_files/211232.got.cif
#   From: 2010.05.17/outbox.cif.g08.bks.cpg/sg2_106_cif.got.tgz:211232.got - 2010.06.03 11:33:40.
