data_PCOD9018604
_publ_section_title
;
Structure prediction by ZEFSAII (Michael W. Deem and Ramdas Pophale) SiO2 
 PCOD9018604
Probable space group: P -1
;
_chemical_formula_sum "Si O2"
_cell_formula_units_Z 16
_cell_length_a 13.252180
_cell_length_b 9.354069
_cell_length_c 10.043883
_cell_angle_alpha 116.804537
_cell_angle_beta 48.344593
_cell_angle_gamma 123.548004
_cell_volume 768.268055
_symmetry_space_group_name_H-M "P -1"
_symmetry_group_IT_number 2
_symmetry_cell_setting 'triclinic'
loop_
_space_group_symop_operation_xyz
x,y,z
-x,-y,-z
loop_
_atom_site_type_symbol
_atom_site_label
_atom_site_fract_x
_atom_site_fract_y
_atom_site_fract_z
Si Si1 0.347427 0.331469 0.213207
Si Si2 0.842164 0.511011 0.032031
Si Si3 0.664807 0.406637 0.893657
Si Si4 0.344296 0.849813 0.609110
Si Si5 0.875462 0.300840 0.511534
Si Si6 0.355734 0.498619 0.556431
Si Si7 0.958176 0.948778 0.667819
Si Si8 0.120126 0.792887 0.992831
O O1 0.343307 0.482998 0.182066
O O2 0.324733 0.380325 0.403934
O O3 0.213577 0.161797 0.222338
O O4 0.501406 0.313853 0.050395
O O5 0.769838 0.552730 0.244659
O O6 0.833354 0.315306 0.980855
O O7 0.755782 0.525615 0.983965
O O8 0.008973 0.639966 0.934486
O O9 0.755739 0.292395 0.724298
O O10 0.227085 0.767254 0.557910
O O11 0.378914 0.689866 0.568179
O O12 0.256070 0.900964 0.825963
O O13 0.500000 0.000000 0.500000
O O14 0.000000 0.500000 0.500000
O O15 0.957137 0.171106 0.409843
O O16 0.500000 0.500000 0.500000
O O17 0.000000 0.000000 0.500000
O O18 0.971057 0.105219 0.819723
#
# Coordination Sequence:
#
# PCOD9018604 Si02
#       8
#     2   2   2   2   2   2   2   2
#     4  11  24  41  69 101 136 175 238 280 339 419
#     4  10  21  43  72  97 132 184 233 279 342 415
#     4  11  22  41  71 100 130 183 230 286 336 413
#     4  11  26  43  66 104 144 177 223 294 355 407
#     4  12  24  47  70  98 138 187 233 280 343 417
#     4  11  21  43  69  99 134 181 229 282 343 418
#     4  12  26  45  68 102 139 181 229 291 345 409
#     4  10  24  43  68  99 139 178 231 284 344 418
#
# _framework density 20.826063000000001
#
# number of rings (size 3 to 8) (size 9 to 14) (size 15 to 20)
#    0.000    1.000    3.750    2.250    1.750    4.500 
#    0.000    1.250    0.000    0.000    0.000    0.000 
#    0.000    0.000    0.000    0.000    0.000    0.000 
#
# Total GULP energy -89352.062073 kJ/mol
# GULP energy per Si atom -5584.503880 kJ/mol
# Density = 2.077866 g / cm^3
# Si number density = 20.826063 Si / 1000 Ang^3
#
#
#
# Elastic Constant Matrix: (Units=GPa)
#
#
# Indices 1 2 3 4 5 6 
#
# 1 130.8064 28.3357 39.6219 4.8877 3.0564 -4.0258
# 2 28.3357 52.8018 39.2774 12.2949 -4.8432 -1.5269
# 3 39.6219 39.2774 135.8740 5.5660 -8.1227 -6.3923
# 4 4.8877 12.2949 5.5660 21.6456 1.6363 -4.2129
# 5 3.0564 -4.8432 -8.1227 1.6363 39.3297 1.9917
# 6 -4.0258 -1.5269 -6.3923 -4.2129 1.9917 19.2275
#
#
#
# Elastic Compliance Matrix: (Units=1/GPa)
#
#
# Indices 1 2 3 4 5 6 
#
# 1 0.009033 -0.004065 -0.001532 0.001072 -0.001638 0.001464
# 2 -0.004065 0.030025 -0.006863 -0.015511 0.003469 -0.004506
# 3 -0.001532 -0.006863 0.009898 0.002159 0.001087 0.002785
# 4 0.001072 -0.015511 0.002159 0.057024 -0.004562 0.012677
# 5 -0.001638 0.003469 0.001087 -0.004562 0.026570 -0.003458
# 6 0.001464 -0.004506 0.002785 0.012677 -0.003458 0.056019
#
#
# Mechanical properties :
#
#
# Convention : Reuss Voigt Hill
#
# Bulk Modulus (GPa) = 41.60539 59.32803 50.46671
# Shear Modulus (GPa) = 22.57311 30.19037 26.38174
#
# Velocity S-wave (km/s) = 3.29582 3.81155 3.56303
# Velocity P-wave (km/s) = 5.87402 6.92241 6.41965
#
# Compressibility (1/GPa) = 0.02403534
#
# Stress axis : x y z
#
# Youngs Moduli (GPa) = 110.70769 33.30507 101.03058
#
# Poissons Ratio (x) = 0.13540 0.15476
# Poissons Ratio (y) = 0.45008 0.69339
# Poissons Ratio (z) = 0.16958 0.22858
#
# Static dielectric constant tensor:
#      x y z
#    x 1.756020 0.015660 0.031690 
#    y 0.015660 1.783820 0.020390 
#    z 0.031690 0.020390 1.825960 
# 
# From -- ./inp_files/244912.got.cif
#   From: 2010.05.17/outbox.cif.g08.bks.cpg/sg2_123_cif.got.tgz:244912.got - 2010.06.03 11:33:40.
