data_PCOD9018001
_publ_section_title
;
Structure prediction by ZEFSAII (Michael W. Deem and Ramdas Pophale) SiO2 
 PCOD9018001
Probable space group: P -1
;
_chemical_formula_sum "Si O2"
_cell_formula_units_Z 16
_cell_length_a 17.098134
_cell_length_b 19.976891
_cell_length_c 9.669001
_cell_angle_alpha 137.460673
_cell_angle_beta 41.936974
_cell_angle_gamma 159.800877
_cell_volume 751.319568
_symmetry_space_group_name_H-M "P -1"
_symmetry_group_IT_number 2
_symmetry_cell_setting 'triclinic'
loop_
_space_group_symop_operation_xyz
x,y,z
-x,-y,-z
loop_
_atom_site_type_symbol
_atom_site_label
_atom_site_fract_x
_atom_site_fract_y
_atom_site_fract_z
Si Si1 0.974436 0.482574 0.707548
Si Si2 0.728272 0.421657 0.151004
Si Si3 0.215915 0.019443 0.116433
Si Si4 0.864671 0.884319 0.857580
Si Si5 0.034866 0.697630 0.743267
Si Si6 0.947792 0.152538 0.631608
Si Si7 0.453640 0.759264 0.584753
Si Si8 0.552726 0.431269 0.888512
O O1 0.933701 0.546597 0.759053
O O2 0.253876 0.673944 0.639463
O O3 0.879154 0.312116 0.505853
O O4 0.858779 0.423763 0.915009
O O5 0.477567 0.247406 0.143489
O O6 0.893131 0.635806 0.238795
O O7 0.671801 0.367352 0.303189
O O8 0.098361 0.002379 0.130222
O O9 0.087670 0.924353 0.288810
O O10 0.213391 0.904533 0.890295
O O11 0.937543 0.837187 0.614143
O O12 0.596378 0.686480 0.955472
O O13 0.000000 0.000000 0.000000
O O14 0.822395 0.608094 0.830473
O O15 0.688497 0.986859 0.664634
O O16 0.520157 0.710843 0.335233
O O17 0.500000 0.500000 0.000000
#
# Coordination Sequence:
#
# PCOD9018001 Si02
#       8
#     2   2   2   2   2   2   2   2
#     4  10  21  43  67  98 133 174 229 271 336 400
#     4  11  23  43  67  97 133 180 224 267 341 405
#     4  11  25  44  68  99 140 174 224 277 340 398
#     4  12  24  42  69 101 132 178 226 275 338 403
#     4  10  22  42  69  96 133 178 217 283 337 396
#     4  11  24  45  66  98 141 175 223 276 336 401
#     4  10  23  42  66  98 133 175 223 281 329 398
#     4  11  22  42  70  98 136 172 226 283 337 395
#
# _framework density 21.295866
#
# number of rings (size 3 to 8) (size 9 to 14) (size 15 to 20)
#    0.000    1.250    2.500    3.000    0.000    2.500 
#    2.250    0.000    0.000    0.000    0.000    0.000 
#    0.000    0.000    0.000    0.000    0.000    0.000 
#
# Total GULP energy -89441.216703 kJ/mol
# GULP energy per Si atom -5590.076044 kJ/mol
# Density = 2.124740 g / cm^3
# Si number density = 21.295866 Si / 1000 Ang^3
#
#
#
# Elastic Constant Matrix: (Units=GPa)
#
#
# Indices 1 2 3 4 5 6 
#
# 1 77.4063 7.0538 26.7199 7.4726 3.6155 13.6031
# 2 7.0538 87.4744 41.4238 11.5352 10.9467 -0.7258
# 3 26.7199 41.4238 149.8039 -12.8260 13.3932 -2.5441
# 4 7.4726 11.5352 -12.8260 32.8075 2.3005 6.3603
# 5 3.6155 10.9467 13.3932 2.3005 26.9658 -0.8059
# 6 13.6031 -0.7258 -2.5441 6.3603 -0.8059 14.1927
#
#
#
# Elastic Compliance Matrix: (Units=1/GPa)
#
#
# Indices 1 2 3 4 5 6 
#
# 1 0.017226 0.000641 -0.003633 -0.002370 -0.001045 -0.016126
# 2 0.000641 0.014936 -0.004555 -0.007437 -0.003178 0.002486
# 3 -0.003633 -0.004555 0.009368 0.005869 -0.002753 0.002142
# 4 -0.002370 -0.007437 0.005869 0.039021 -0.003347 -0.014734
# 5 -0.001045 -0.003178 -0.002753 -0.003347 0.040291 0.004134
# 6 -0.016126 0.002486 0.002142 -0.014734 0.004134 0.093264
#
#
# Mechanical properties :
#
#
# Convention : Reuss Voigt Hill
#
# Bulk Modulus (GPa) = 37.82704 51.67552 44.75128
# Shear Modulus (GPa) = 21.00721 30.75899 25.88310
#
# Velocity S-wave (km/s) = 3.14418 3.80460 3.49005
# Velocity P-wave (km/s) = 5.56618 6.60441 6.10739
#
# Compressibility (1/GPa) = 0.02643611
#
# Stress axis : x y z
#
# Youngs Moduli (GPa) = 58.05150 66.95070 106.74648
#
# Poissons Ratio (x) = -0.04290 0.38782
# Poissons Ratio (y) = -0.03720 0.48622
# Poissons Ratio (z) = 0.21090 0.30496
#
# Static dielectric constant tensor:
#      x y z
#    x 1.787200 0.032900 0.020820 
#    y 0.032900 1.778740 0.011080 
#    z 0.020820 0.011080 1.762950 
# 
# From -- ./inp_files/338190.got.cif
#   From: 2010.05.17/outbox.cif.g08.bks.cpg/sg2_170_cif.got.tgz:338190.got - 2010.06.03 11:33:40.
