data_PCOD9018554
_publ_section_title
;
Structure prediction by ZEFSAII (Michael W. Deem and Ramdas Pophale) SiO2 
 PCOD9018554
Probable space group: P -1
;
_chemical_formula_sum "Si O2"
_cell_formula_units_Z 14
_cell_length_a 15.235758
_cell_length_b 5.627412
_cell_length_c 9.327518
_cell_angle_alpha 72.651987
_cell_angle_beta 59.486769
_cell_angle_gamma 84.701374
_cell_volume 655.931820
_symmetry_space_group_name_H-M "P -1"
_symmetry_group_IT_number 2
_symmetry_cell_setting 'triclinic'
loop_
_space_group_symop_operation_xyz
x,y,z
-x,-y,-z
loop_
_atom_site_type_symbol
_atom_site_label
_atom_site_fract_x
_atom_site_fract_y
_atom_site_fract_z
Si Si1 0.739389 0.184096 0.358612
Si Si2 0.721421 0.226959 0.690410
Si Si3 0.584989 0.803230 0.467963
Si Si4 0.691643 0.660033 0.831626
Si Si5 0.898253 0.431543 0.689716
Si Si6 0.053313 0.739306 0.997713
Si Si7 0.402229 0.464096 0.762395
O O1 0.666735 0.344548 0.295062
O O2 0.747895 0.288865 0.492796
O O3 0.682589 0.907789 0.456219
O O4 0.844359 0.193023 0.188126
O O5 0.668520 0.947911 0.781741
O O6 0.662719 0.444155 0.777219
O O7 0.825544 0.229259 0.697659
O O8 0.521055 0.558796 0.625872
O O9 0.615471 0.774881 0.282070
O O10 0.500000 0.000000 0.500000
O O11 0.815956 0.644051 0.736128
O O12 0.637482 0.572099 0.039463
O O13 0.926103 0.342558 0.841025
O O14 0.000000 0.500000 0.500000
O O15 0.000000 0.500000 0.000000
O O16 0.000000 0.000000 0.000000
#
# Coordination Sequence:
#
# PCOD9018554 Si02
#       7
#     2   2   2   2   2   2   2
#     4  11  23  43  68  96 139 173 230 277 338 394
#     4  10  25  40  65  95 130 180 214 272 340 390
#     4   9  22  38  72 101 129 172 223 288 335 398
#     4  10  24  42  67  93 133 177 219 270 338 395
#     4  10  24  44  64  92 136 177 225 271 339 386
#     4  12  29  42  68 103 132 179 233 279 326 400
#     4  10  21  43  71  98 132 174 235 271 342 398
#
# _framework density 21.343681
#
# number of rings (size 3 to 8) (size 9 to 14) (size 15 to 20)
#    0.857    0.857    1.429    0.857   14.000    0.571 
#    0.000    1.429    0.000    0.000    0.000    0.000 
#    0.000    0.000    0.000    0.000    0.000    0.000 
#
# Total GULP energy -78038.665797 kJ/mol
# GULP energy per Si atom -5574.190414 kJ/mol
# Density = 2.129510 g / cm^3
# Si number density = 21.343681 Si / 1000 Ang^3
#
#
#
# Elastic Constant Matrix: (Units=GPa)
#
#
# Indices 1 2 3 4 5 6 
#
# 1 70.7444 37.2973 41.4498 13.6878 2.4238 21.6327
# 2 37.2973 147.6762 60.0292 18.8965 3.7957 14.7404
# 3 41.4498 60.0292 166.2326 41.3688 12.5988 18.3799
# 4 13.6878 18.8965 41.3688 36.1484 -3.5540 5.5957
# 5 2.4238 3.7957 12.5988 -3.5540 37.3129 6.2705
# 6 21.6327 14.7404 18.3799 5.5957 6.2705 33.0994
#
#
#
# Elastic Compliance Matrix: (Units=1/GPa)
#
#
# Indices 1 2 3 4 5 6 
#
# 1 0.020797 -0.002934 -0.002686 -0.001437 0.001540 -0.010843
# 2 -0.002934 0.008523 -0.002062 -0.000890 0.000034 -0.000589
# 3 -0.002686 -0.002062 0.010272 -0.009953 -0.003931 -0.000602
# 4 -0.001437 -0.000890 -0.009953 0.041060 0.007714 -0.001541
# 5 0.001540 0.000034 -0.003931 0.007714 0.029729 -0.005775
# 6 -0.010843 -0.000589 -0.000602 -0.001541 -0.005775 0.039250
#
#
# Mechanical properties :
#
#
# Convention : Reuss Voigt Hill
#
# Bulk Modulus (GPa) = 41.27757 73.57843 57.42800
# Shear Modulus (GPa) = 28.88983 37.70393 33.29688
#
# Velocity S-wave (km/s) = 3.68306 4.20755 3.95401
# Velocity P-wave (km/s) = 6.12111 7.62579 6.91450
#
# Compressibility (1/GPa) = 0.02422623
#
# Stress axis : x y z
#
# Youngs Moduli (GPa) = 48.08369 117.33574 97.35562
#
# Poissons Ratio (x) = 0.34425 0.26154
# Poissons Ratio (y) = 0.14107 0.20076
# Poissons Ratio (z) = 0.12918 0.24196
#
# Static dielectric constant tensor:
#      x y z
#    x 1.913850 -0.097600 -0.043170 
#    y -0.097600 1.966990 -0.014620 
#    z -0.043170 -0.014620 1.765320 
# 
# From -- ./inp_files/321198.got.cif
#   From: 2010.05.17/outbox.cif.g08.bks.cpg/sg2_161_cif.got.tgz:321198.got - 2010.06.03 11:33:40.
