data_PCOD9018803
_publ_section_title
;
Structure prediction by ZEFSAII (Michael W. Deem and Ramdas Pophale) SiO2 
 PCOD9018803
Probable space group: P -1
;
_chemical_formula_sum "Si O2"
_cell_formula_units_Z 14
_cell_length_a 6.323757
_cell_length_b 13.454599
_cell_length_c 22.243482
_cell_angle_alpha 21.730197
_cell_angle_beta 120.227250
_cell_angle_gamma 118.541449
_cell_volume 605.119516
_symmetry_space_group_name_H-M "P -1"
_symmetry_group_IT_number 2
_symmetry_cell_setting 'triclinic'
loop_
_space_group_symop_operation_xyz
x,y,z
-x,-y,-z
loop_
_atom_site_type_symbol
_atom_site_label
_atom_site_fract_x
_atom_site_fract_y
_atom_site_fract_z
Si Si1 0.489060 0.184381 0.453352
Si Si2 0.134346 0.393396 0.021997
Si Si3 0.658922 0.663303 0.131027
Si Si4 0.633518 0.294418 0.219041
Si Si5 0.211102 0.751708 0.196762
Si Si6 0.934649 0.139130 0.750733
Si Si7 0.662146 0.399470 0.465826
O O1 0.498994 0.484939 0.256486
O O2 0.708871 0.223844 0.511420
O O3 0.500000 0.000000 0.500000
O O4 0.319365 0.986453 0.582813
O O5 0.392532 0.298625 0.139841
O O6 0.005800 0.144130 0.109810
O O7 0.160395 0.618479 0.847852
O O8 0.000000 0.500000 0.000000
O O9 0.603597 0.526706 0.134976
O O10 0.955659 0.647072 0.190040
O O11 0.642793 0.984623 0.956751
O O12 0.134781 0.857971 0.191712
O O13 0.391572 0.508062 0.362186
O O14 0.708418 0.247139 0.619289
O O15 0.155448 0.346623 0.653855
#
# Coordination Sequence:
#
# PCOD9018803 Si02
#       7
#     2   2   2   2   2   2   2
#     4  10  21  44  64  91 136 177 212 273 325 388
#     4  11  24  42  72  99 127 177 222 274 340 388
#     4  10  22  43  67  96 139 172 216 279 322 402
#     4  10  22  45  65  93 140 168 219 281 325 391
#     4  11  23  43  69  97 134 175 222 271 338 389
#     4  11  23  45  66  97 136 164 230 283 318 399
#     4  11  24  42  69  97 127 183 218 275 338 384
#
# _framework density 23.135925
#
# number of rings (size 3 to 8) (size 9 to 14) (size 15 to 20)
#    0.000    1.429    4.286    0.429    2.000    0.571 
#   12.857    1.429    0.000    0.000    0.000    0.000 
#    0.000    0.000    0.000    0.000    0.000    0.000 
#
# Total GULP energy -78026.332518 kJ/mol
# GULP energy per Si atom -5573.309466 kJ/mol
# Density = 2.308327 g / cm^3
# Si number density = 23.135925 Si / 1000 Ang^3
#
#
#
# Elastic Constant Matrix: (Units=GPa)
#
#
# Indices 1 2 3 4 5 6 
#
# 1 41.6719 9.9432 35.3304 -7.0791 -17.4158 -19.7146
# 2 9.9432 134.4335 20.0858 -17.9431 -12.0627 -9.8195
# 3 35.3304 20.0858 109.4639 -19.1755 -34.3414 -5.3394
# 4 -7.0791 -17.9431 -19.1755 41.8615 1.5729 -3.3305
# 5 -17.4158 -12.0627 -34.3414 1.5729 43.1938 16.2578
# 6 -19.7146 -9.8195 -5.3394 -3.3305 16.2578 30.8198
#
#
#
# Elastic Compliance Matrix: (Units=1/GPa)
#
#
# Indices 1 2 3 4 5 6 
#
# 1 0.052257 0.001267 -0.015864 0.004953 -0.004080 0.033771
# 2 0.001267 0.008263 -0.000911 0.003573 0.000726 0.003288
# 3 -0.015864 -0.000911 0.018540 0.003834 0.013119 -0.013732
# 4 0.004953 0.003573 0.003834 0.028458 0.002469 0.006744
# 5 -0.004080 0.000726 0.013119 0.002469 0.039914 -0.020894
# 6 0.033771 0.003288 -0.013732 0.006744 -0.020894 0.064468
#
#
# Mechanical properties :
#
#
# Convention : Reuss Voigt Hill
#
# Bulk Modulus (GPa) = 20.81383 46.25424 33.53403
# Shear Modulus (GPa) = 19.31010 37.85569 28.58290
#
# Velocity S-wave (km/s) = 2.89214 4.04942 3.51869
# Velocity P-wave (km/s) = 4.49094 6.47299 5.57082
#
# Compressibility (1/GPa) = 0.04804499
#
# Stress axis : x y z
#
# Youngs Moduli (GPa) = 19.13603 121.01689 53.93643
#
# Poissons Ratio (x) = -0.15331 0.85565
# Poissons Ratio (y) = -0.02424 0.04913
# Poissons Ratio (z) = 0.30357 0.11023
#
# Static dielectric constant tensor:
#      x y z
#    x 1.923240 0.016940 -0.001140 
#    y 0.016940 1.878150 -0.007020 
#    z -0.001140 -0.007020 1.943590 
# 
# From -- ./inp_files/604735.got.cif
#   From: 2010.05.17/outbox.cif.g08.bks.cpg/sg2_303_cif.got.tgz:604735.got - 2010.06.03 11:33:40.
