data_PCOD9018945
_publ_section_title
;
Structure prediction by ZEFSAII (Michael W. Deem and Ramdas Pophale) SiO2 
 PCOD9018945
Probable space group: P -1
;
_chemical_formula_sum "Si O2"
_cell_formula_units_Z 16
_cell_length_a 12.662225
_cell_length_b 18.457832
_cell_length_c 7.942615
_cell_angle_alpha 93.441605
_cell_angle_beta 115.620445
_cell_angle_gamma 144.784134
_cell_volume 585.671753
_symmetry_space_group_name_H-M "P -1"
_symmetry_group_IT_number 2
_symmetry_cell_setting 'triclinic'
loop_
_space_group_symop_operation_xyz
x,y,z
-x,-y,-z
loop_
_atom_site_type_symbol
_atom_site_label
_atom_site_fract_x
_atom_site_fract_y
_atom_site_fract_z
Si Si1 0.358759 0.019931 0.960837
Si Si2 0.582553 0.374801 0.891469
Si Si3 0.757226 0.311172 0.989590
Si Si4 0.474020 0.289532 0.431155
Si Si5 0.133877 0.815708 0.282955
Si Si6 0.387962 0.087872 0.338446
Si Si7 0.659704 0.548442 0.463157
Si Si8 0.169534 0.257096 0.666755
O O1 0.633634 0.182250 0.026696
O O2 0.537881 0.145650 0.274875
O O3 0.071980 0.792436 0.771968
O O4 0.098020 0.925172 0.684286
O O5 0.400795 0.265742 0.570279
O O6 0.356397 0.291743 0.850220
O O7 0.680781 0.349733 0.999604
O O8 0.901904 0.610991 0.102149
O O9 0.583120 0.200834 0.669114
O O10 0.150298 0.527426 0.276424
O O11 0.263184 0.096187 0.212673
O O12 0.525003 0.389517 0.368085
O O13 0.056286 0.815455 0.399603
O O14 0.500000 0.000000 0.500000
O O15 0.091251 0.858739 0.133246
O O16 0.500000 0.500000 0.500000
O O17 0.573203 0.542226 0.231546
#
# Coordination Sequence:
#
# PCOD9018945 Si02
#       8
#     2   2   2   2   2   2   2   2
#     4  10  24  43  68 101 140 183 237 290 351 423
#     4  11  23  42  73  96 147 193 228 296 358 424
#     4  11  24  45  68 105 143 185 238 291 360 418
#     4  11  22  42  70  99 143 189 230 298 355 418
#     4  12  24  44  72 105 139 186 244 293 352 427
#     4  11  23  42  67 106 137 183 237 289 355 413
#     4  10  21  44  66  96 141 184 235 288 353 419
#     4  10  24  45  68 103 140 191 236 288 363 421
#
# _framework density 27.31906
#
# number of rings (size 3 to 8) (size 9 to 14) (size 15 to 20)
#    0.750    0.500    2.500    4.125    0.000    3.500 
#    2.250    5.625    0.000    0.000    0.000    0.000 
#    0.000    0.000    0.000    0.000    0.000    0.000 
#
# Total GULP energy -89171.996126 kJ/mol
# GULP energy per Si atom -5573.249758 kJ/mol
# Density = 2.725688 g / cm^3
# Si number density = 27.319060 Si / 1000 Ang^3
#
#
#
# Elastic Constant Matrix: (Units=GPa)
#
#
# Indices 1 2 3 4 5 6 
#
# 1 199.1857 69.2126 49.1009 -4.5987 10.0493 -16.9586
# 2 69.2126 172.8631 27.2042 5.9550 -10.6730 -4.4025
# 3 49.1009 27.2042 50.3698 4.4512 -15.1692 -13.7855
# 4 -4.5987 5.9550 4.4512 39.8636 8.6305 -5.3062
# 5 10.0493 -10.6730 -15.1692 8.6305 31.3856 -3.8500
# 6 -16.9586 -4.4025 -13.7855 -5.3062 -3.8500 52.2121
#
#
#
# Elastic Compliance Matrix: (Units=1/GPa)
#
#
# Indices 1 2 3 4 5 6 
#
# 1 0.009547 -0.002859 -0.011741 0.005192 -0.011197 -0.000538
# 2 -0.002859 0.007215 0.000297 -0.002361 0.004140 -0.000176
# 3 -0.011741 0.000297 0.043199 -0.011337 0.028911 0.008597
# 4 0.005192 -0.002361 -0.011337 0.030909 -0.016392 0.000426
# 5 -0.011197 0.004140 0.028911 -0.016392 0.056172 0.006822
# 6 -0.000538 -0.000176 0.008597 0.000426 0.006822 0.021779
#
#
# Mechanical properties :
#
#
# Convention : Reuss Voigt Hill
#
# Bulk Modulus (GPa) = 31.89118 79.27266 55.58192
# Shear Modulus (GPa) = 24.05257 43.15231 33.60244
#
# Velocity S-wave (km/s) = 2.97043 3.97869 3.51094
# Velocity P-wave (km/s) = 4.84392 7.08428 6.06838
#
# Compressibility (1/GPa) = 0.03135663
#
# Stress axis : x y z
#
# Youngs Moduli (GPa) = 104.74635 138.59572 23.14862
#
# Poissons Ratio (x) = 0.39620 0.27178
# Poissons Ratio (y) = 0.29944 -0.00687
# Poissons Ratio (z) = 1.22978 -0.04115
#
# Static dielectric constant tensor:
#      x y z
#    x 2.189440 0.035750 -0.050050 
#    y 0.035750 2.187140 0.027010 
#    z -0.050050 0.027010 2.309760 
# 
# From -- ./inp_files/278019.got.cif
#   From: 2010.05.17/outbox.cif.g08.bks.cpg/sg2_140_cif.got.tgz:278019.got - 2010.06.03 11:33:40.
