data_PCOD9018683
_publ_section_title
;
Structure prediction by ZEFSAII (Michael W. Deem and Ramdas Pophale) SiO2 
 PCOD9018683
Probable space group: P -1
;
_chemical_formula_sum "Si O2"
_cell_formula_units_Z 14
_cell_length_a 12.472933
_cell_length_b 15.205928
_cell_length_c 8.922267
_cell_angle_alpha 31.314362
_cell_angle_beta 132.917558
_cell_angle_gamma 124.423369
_cell_volume 643.488434
_symmetry_space_group_name_H-M "P -1"
_symmetry_group_IT_number 2
_symmetry_cell_setting 'triclinic'
loop_
_space_group_symop_operation_xyz
x,y,z
-x,-y,-z
loop_
_atom_site_type_symbol
_atom_site_label
_atom_site_fract_x
_atom_site_fract_y
_atom_site_fract_z
Si Si1 0.071385 0.835042 0.231406
Si Si2 0.591669 0.226798 0.421054
Si Si3 0.336916 0.469130 0.734966
Si Si4 0.857213 0.747333 0.907416
Si Si5 0.086690 0.517719 0.904795
Si Si6 0.654338 0.404913 0.760060
Si Si7 0.591833 0.014997 0.218796
O O1 0.247426 0.828603 0.402189
O O2 0.029791 0.674965 0.523247
O O3 0.996919 0.814844 0.028303
O O4 0.000000 0.000000 0.000000
O O5 0.615273 0.358215 0.390219
O O6 0.510075 0.062804 0.637250
O O7 0.478042 0.337702 0.048756
O O8 0.281765 0.520175 0.443383
O O9 0.225121 0.379990 0.871543
O O10 0.738833 0.894774 0.536075
O O11 0.905967 0.644766 0.956753
O O12 0.247626 0.557132 0.059433
O O13 0.000000 0.500000 0.000000
O O14 0.500000 0.500000 0.500000
O O15 0.632989 0.206214 0.008460
O O16 0.500000 0.000000 0.000000
#
# Coordination Sequence:
#
# PCOD9018683 Si02
#       7
#     2   2   2   2   2   2   2
#     4  12  26  46  69 102 140 183 230 280 346 425
#     4  10  22  41  73  98 134 178 235 275 341 407
#     4  10  21  43  74  98 131 184 233 280 340 408
#     4  11  25  46  73  97 136 188 232 281 346 418
#     4  12  27  45  67 100 140 179 232 285 348 406
#     4  12  25  42  68 106 140 174 228 291 345 403
#     4  11  23  42  69 102 134 176 230 289 342 394
#
# _framework density 21.756413999999999
#
# number of rings (size 3 to 8) (size 9 to 14) (size 15 to 20)
#    0.000    0.857    2.857    3.857    4.000    3.429 
#    0.000    5.714    0.000    0.000    0.000    0.000 
#    0.000    0.000    0.000    0.000    0.000    0.000 
#
# Total GULP energy -78383.724647 kJ/mol
# GULP energy per Si atom -5598.837475 kJ/mol
# Density = 2.170690 g / cm^3
# Si number density = 21.756414 Si / 1000 Ang^3
#
#
#
# Elastic Constant Matrix: (Units=GPa)
#
#
# Indices 1 2 3 4 5 6 
#
# 1 125.9474 24.7519 58.6712 -13.6678 21.7178 -7.3974
# 2 24.7519 112.1593 50.2995 4.8719 16.8276 -21.8643
# 3 58.6712 50.2995 140.4660 -7.3718 12.9209 -14.2604
# 4 -13.6678 4.8719 -7.3718 39.8455 -6.0042 2.7503
# 5 21.7178 16.8276 12.9209 -6.0042 28.8740 3.2056
# 6 -7.3974 -21.8643 -14.2604 2.7503 3.2056 31.9009
#
#
#
# Elastic Compliance Matrix: (Units=1/GPa)
#
#
# Indices 1 2 3 4 5 6 
#
# 1 0.011143 0.000590 -0.003970 0.001879 -0.006749 0.001729
# 2 0.000590 0.013660 -0.003634 -0.004069 -0.008634 0.009093
# 3 -0.003970 -0.003634 0.010171 0.000994 0.000650 0.000984
# 4 0.001879 -0.004069 0.000994 0.027800 0.006848 -0.004993
# 5 -0.006749 -0.008634 0.000650 0.006848 0.047266 -0.012532
# 6 0.001729 0.009093 0.000984 -0.004993 -0.012532 0.040110
#
#
# Mechanical properties :
#
#
# Convention : Reuss Voigt Hill
#
# Bulk Modulus (GPa) = 47.74494 71.77979 59.76236
# Shear Modulus (GPa) = 29.21222 36.44739 32.82980
#
# Velocity S-wave (km/s) = 3.66825 4.09742 3.88876
# Velocity P-wave (km/s) = 6.31936 7.44642 6.90592
#
# Compressibility (1/GPa) = 0.02094463
#
# Stress axis : x y z
#
# Youngs Moduli (GPa) = 89.74392 73.20504 98.31717
#
# Poissons Ratio (x) = -0.04316 0.39035
# Poissons Ratio (y) = -0.05291 0.35729
# Poissons Ratio (z) = 0.35631 0.26603
#
# Static dielectric constant tensor:
#      x y z
#    x 1.887880 -0.053430 0.073230 
#    y -0.053430 1.944920 -0.055090 
#    z 0.073230 -0.055090 1.870940 
# 
# From -- ./inp_files/158111.got.cif
#   From: 2010.05.17/outbox.cif.g08.bks.cpg/sg2_80_cif.got.tgz:158111.got - 2010.06.03 11:33:40.
