data_PCOD9018781
_publ_section_title
;
Structure prediction by ZEFSAII (Michael W. Deem and Ramdas Pophale) SiO2 
 PCOD9018781
Probable space group: P -1
;
_chemical_formula_sum "Si O2"
_cell_formula_units_Z 16
_cell_length_a 14.990797
_cell_length_b 15.267546
_cell_length_c 5.482988
_cell_angle_alpha 69.823682
_cell_angle_beta 62.451669
_cell_angle_gamma 39.015745
_cell_volume 700.201587
_symmetry_space_group_name_H-M "P -1"
_symmetry_group_IT_number 2
_symmetry_cell_setting 'triclinic'
loop_
_space_group_symop_operation_xyz
x,y,z
-x,-y,-z
loop_
_atom_site_type_symbol
_atom_site_label
_atom_site_fract_x
_atom_site_fract_y
_atom_site_fract_z
Si Si1 0.439771 0.612902 0.767072
Si Si2 0.258221 0.644879 0.576853
Si Si3 0.559916 0.883861 0.836087
Si Si4 0.000035 0.330232 0.134836
Si Si5 0.878835 0.598109 0.776533
Si Si6 0.836776 0.098950 0.720546
Si Si7 0.284916 0.073743 0.716204
Si Si8 0.732424 0.095705 0.343993
O O1 0.290138 0.673298 0.769298
O O2 0.584436 0.515856 0.500953
O O3 0.403914 0.745593 0.731876
O O4 0.500000 0.500000 0.000000
O O5 0.235665 0.748031 0.324319
O O6 0.121417 0.668290 0.689476
O O7 0.696518 0.722357 0.888668
O O8 0.643006 0.880524 0.512281
O O9 0.407985 0.944536 0.866139
O O10 0.500000 0.000000 0.000000
O O11 0.086134 0.318945 0.263547
O O12 0.128602 0.203108 0.916460
O O13 0.918788 0.480041 0.000036
O O14 0.000000 0.500000 0.500000
O O15 0.757790 0.101886 0.588835
O O16 0.846092 0.044358 0.025771
O O17 0.000000 0.000000 0.500000
O O18 0.277780 0.007291 0.567616
#
# Coordination Sequence:
#
# PCOD9018781 Si02
#       8
#     2   2   2   2   2   2   2   2
#     4  10  21  44  63  95 139 179 227 288 343 426
#     4  10  23  40  68  95 135 181 231 285 356 412
#     4  11  24  44  69  96 139 186 224 297 355 422
#     4  11  24  43  69 102 134 177 236 290 350 424
#     4  11  24  45  68  99 140 176 230 293 352 422
#     4  11  23  43  64  99 138 179 224 291 347 419
#     4  11  25  43  68 102 135 182 241 286 359 427
#     4  11  25  41  70  98 138 181 234 286 348 422
#
# _framework density 22.850560999999999
#
# number of rings (size 3 to 8) (size 9 to 14) (size 15 to 20)
#    0.000    1.250    3.750    1.125    1.750    6.000 
#    0.000    0.000    0.000    0.000    0.000    0.000 
#    0.000    0.000    0.000    0.000    0.000    0.000 
#
# Total GULP energy -89098.672873 kJ/mol
# GULP energy per Si atom -5568.667055 kJ/mol
# Density = 2.279855 g / cm^3
# Si number density = 22.850561 Si / 1000 Ang^3
#
#
#
# Elastic Constant Matrix: (Units=GPa)
#
#
# Indices 1 2 3 4 5 6 
#
# 1 88.5533 28.5411 13.1457 -2.6851 -11.2485 14.8255
# 2 28.5411 130.2424 -4.8513 20.9948 -3.2830 -0.0796
# 3 13.1457 -4.8513 56.6460 1.6210 -4.9793 0.7675
# 4 -2.6851 20.9948 1.6210 38.6999 3.5169 3.2649
# 5 -11.2485 -3.2830 -4.9793 3.5169 22.8674 5.7323
# 6 14.8255 -0.0796 0.7675 3.2649 5.7323 38.0968
#
#
#
# Elastic Compliance Matrix: (Units=1/GPa)
#
#
# Indices 1 2 3 4 5 6 
#
# 1 0.015275 -0.003790 -0.003192 0.003174 0.007618 -0.007306
# 2 -0.003790 0.009503 0.001857 -0.005684 0.000302 0.001899
# 3 -0.003192 0.001857 0.018877 -0.002345 0.003014 0.000613
# 4 0.003174 -0.005684 -0.002345 0.029836 -0.003546 -0.003223
# 5 0.007618 0.000302 0.003014 -0.003546 0.051341 -0.010446
# 6 -0.007306 0.001899 0.000613 -0.003223 -0.010446 0.030932
#
#
# Mechanical properties :
#
#
# Convention : Reuss Voigt Hill
#
# Bulk Modulus (GPa) = 29.93588 38.79031 34.36310
# Shear Modulus (GPa) = 28.22483 35.83990 32.03237
#
# Velocity S-wave (km/s) = 3.51834 3.96466 3.74815
# Velocity P-wave (km/s) = 5.44372 6.16202 5.81398
#
# Compressibility (1/GPa) = 0.03340473
#
# Stress axis : x y z
#
# Youngs Moduli (GPa) = 65.46547 105.23268 52.97465
#
# Poissons Ratio (x) = 0.39887 0.16908
# Poissons Ratio (y) = 0.24814 -0.09837
# Poissons Ratio (z) = 0.20895 -0.19541
#
# Static dielectric constant tensor:
#      x y z
#    x 2.047350 0.041570 0.260080 
#    y 0.041570 2.045020 0.259370 
#    z 0.260080 0.259370 2.535330 
# 
# From -- ./inp_files/97655.got.cif
#   From: 2010.05.17/outbox.cif.g08.bks.cpg/sg2_49_cif.got.tgz:97655.got - 2010.06.03 11:33:40.
