data_PCOD9018502
_publ_section_title
;
Structure prediction by ZEFSAII (Michael W. Deem and Ramdas Pophale) SiO2 
 PCOD9018502
Probable space group: P -1
;
_chemical_formula_sum "Si O2"
_cell_formula_units_Z 16
_cell_length_a 10.161194
_cell_length_b 9.106262
_cell_length_c 9.657586
_cell_angle_alpha 46.549529
_cell_angle_beta 113.235102
_cell_angle_gamma 114.887544
_cell_volume 580.956119
_symmetry_space_group_name_H-M "P -1"
_symmetry_group_IT_number 2
_symmetry_cell_setting 'triclinic'
loop_
_space_group_symop_operation_xyz
x,y,z
-x,-y,-z
loop_
_atom_site_type_symbol
_atom_site_label
_atom_site_fract_x
_atom_site_fract_y
_atom_site_fract_z
Si Si1 0.863914 0.073877 0.470564
Si Si2 0.373835 0.520558 0.138345
Si Si3 0.680804 0.602284 0.100590
Si Si4 0.954137 0.532844 0.614314
Si Si5 0.649346 0.147515 0.527412
Si Si6 0.223115 0.158100 0.761854
Si Si7 0.570238 0.809265 0.394765
Si Si8 0.892532 0.309644 0.993144
O O1 0.792446 0.057686 0.609050
O O2 0.922888 0.318448 0.339047
O O3 0.882054 0.065395 0.165905
O O4 0.000000 0.000000 0.500000
O O5 0.518691 0.638554 0.041753
O O6 0.407101 0.378567 0.371800
O O7 0.268455 0.658291 0.059660
O O8 0.291489 0.391304 0.055278
O O9 0.670406 0.374312 0.315438
O O10 0.783211 0.772021 0.128171
O O11 0.831763 0.666049 0.462817
O O12 0.912228 0.337757 0.818977
O O13 0.000000 0.500000 0.500000
O O14 0.592117 0.166321 0.647935
O O15 0.711464 0.987795 0.384567
O O16 0.389909 0.193064 0.748812
O O17 0.500000 0.000000 0.500000
O O18 0.000000 0.500000 0.000000
#
# Coordination Sequence:
#
# PCOD9018502 Si02
#       8
#     2   2   2   2   2   2   2   2
#     4  11  20  39  69  98 143 190 241 304 365 451
#     4  10  23  46  72 102 145 193 251 304 375 463
#     4  10  24  45  72 104 149 198 245 316 378 448
#     4  12  28  48  69 110 150 191 255 315 377 450
#     4   9  21  37  67 105 136 189 252 301 370 442
#     4  12  26  47  76 109 152 198 249 322 385 443
#     4  10  21  43  71 105 141 194 249 306 373 446
#     4  12  29  47  76 109 148 205 254 309 387 458
#
# _framework density 27.540804999999999
#
# number of rings (size 3 to 8) (size 9 to 14) (size 15 to 20)
#    0.000    1.250    2.500    1.500    8.750    4.000 
#    2.250    2.500    0.000    0.000    0.000    0.000 
#    0.000    0.000    0.000    0.000    0.000    0.000 
#
# Total GULP energy -89263.101362 kJ/mol
# GULP energy per Si atom -5578.943835 kJ/mol
# Density = 2.747812 g / cm^3
# Si number density = 27.540805 Si / 1000 Ang^3
#
#
#
# Elastic Constant Matrix: (Units=GPa)
#
#
# Indices 1 2 3 4 5 6 
#
# 1 165.8706 34.5578 21.7749 0.2810 -13.9503 -50.5389
# 2 34.5578 134.0163 50.6522 5.4355 -13.9614 6.5908
# 3 21.7749 50.6522 118.7720 -1.8470 -28.8574 -13.1398
# 4 0.2810 5.4355 -1.8470 34.8002 -2.2393 -14.1124
# 5 -13.9503 -13.9614 -28.8574 -2.2393 30.2214 18.2734
# 6 -50.5389 6.5908 -13.1398 -14.1124 18.2734 59.0655
#
#
#
# Elastic Compliance Matrix: (Units=1/GPa)
#
#
# Indices 1 2 3 4 5 6 
#
# 1 0.009857 -0.003728 0.000299 0.004796 -0.003217 0.011057
# 2 -0.003728 0.010870 -0.003950 -0.004705 0.003756 -0.007568
# 3 0.000299 -0.003950 0.012606 0.002322 0.009927 0.000984
# 4 0.004796 -0.004705 0.002322 0.035314 -0.004107 0.014853
# 5 -0.003217 0.003756 0.009927 -0.004107 0.053744 -0.018572
# 6 0.011057 -0.007568 0.000984 0.014853 -0.018572 0.036750
#
#
# Mechanical properties :
#
#
# Convention : Reuss Voigt Hill
#
# Bulk Modulus (GPa) = 53.83635 70.29207 62.06421
# Shear Modulus (GPa) = 27.76383 45.59570 36.67977
#
# Velocity S-wave (km/s) = 3.17850 4.07328 3.65339
# Velocity P-wave (km/s) = 5.74985 6.90655 6.35457
#
# Compressibility (1/GPa) = 0.01857481
#
# Stress axis : x y z
#
# Youngs Moduli (GPa) = 101.45448 91.99279 79.32587
#
# Poissons Ratio (x) = 0.34296 -0.02372
# Poissons Ratio (y) = 0.37824 0.31334
# Poissons Ratio (z) = -0.03034 0.36338
#
# Static dielectric constant tensor:
#      x y z
#    x 2.201170 0.108320 0.131440 
#    y 0.108320 2.005790 -0.091520 
#    z 0.131440 -0.091520 2.126130 
# 
# From -- ./inp_files/237168.got.cif
#   From: 2010.05.17/outbox.cif.g08.bks.cpg/sg2_119_cif.got.tgz:237168.got - 2010.06.03 11:33:40.
