data_PCOD9018875
_publ_section_title
;
Structure prediction by ZEFSAII (Michael W. Deem and Ramdas Pophale) SiO2 
 PCOD9018875
Probable space group: P -1
;
_chemical_formula_sum "Si O2"
_cell_formula_units_Z 16
_cell_length_a 11.400447
_cell_length_b 14.682839
_cell_length_c 13.152230
_cell_angle_alpha 137.334494
_cell_angle_beta 146.274998
_cell_angle_gamma 67.005142
_cell_volume 670.565212
_symmetry_space_group_name_H-M "P -1"
_symmetry_group_IT_number 2
_symmetry_cell_setting 'triclinic'
loop_
_space_group_symop_operation_xyz
x,y,z
-x,-y,-z
loop_
_atom_site_type_symbol
_atom_site_label
_atom_site_fract_x
_atom_site_fract_y
_atom_site_fract_z
Si Si1 0.968683 0.433082 0.262062
Si Si2 0.707656 0.195586 0.488039
Si Si3 0.572332 0.367776 0.084170
Si Si4 0.580079 0.828819 0.554535
Si Si5 0.169714 0.440808 0.902337
Si Si6 0.387583 0.306689 0.242254
Si Si7 0.955351 0.124428 0.934942
Si Si8 0.693156 0.902999 0.181803
O O1 0.717587 0.399813 0.110345
O O2 0.026723 0.562874 0.322378
O O3 0.912423 0.264717 0.042079
O O4 0.201522 0.502259 0.567485
O O5 0.585526 0.133265 0.460767
O O6 0.565715 0.275431 0.412105
O O7 0.014213 0.339611 0.808600
O O8 0.648367 0.044689 0.250760
O O9 0.327796 0.376002 0.916232
O O10 0.464524 0.190545 0.907153
O O11 0.820457 0.853314 0.810742
O O12 0.382035 0.634454 0.232158
O O13 0.702732 0.944948 0.638762
O O14 0.500000 0.500000 0.500000
O O15 0.094229 0.176880 0.968400
O O16 0.385995 0.238211 0.074015
O O17 0.000000 0.000000 0.500000
#
# Coordination Sequence:
#
# PCOD9018875 Si02
#       8
#     2   2   2   2   2   2   2   2
#     4  11  24  42  69  95 132 183 228 287 355 419
#     4  11  24  43  68 102 136 183 233 288 353 419
#     4  11  24  45  65  97 140 177 231 290 353 417
#     4  10  23  40  69  98 138 182 230 292 352 411
#     4  12  23  42  68 102 136 180 238 290 348 421
#     4  11  25  44  74 103 141 185 237 288 351 427
#     4  10  21  44  65  97 136 180 230 286 350 418
#     4  12  25  43  68 100 142 182 229 293 354 409
#
# _framework density 23.860468999999998
#
# number of rings (size 3 to 8) (size 9 to 14) (size 15 to 20)
#    0.000    1.000    2.500    4.125    1.750    3.500 
#    2.250    0.000    0.000    0.000    0.000    0.000 
#    0.000    0.000    0.000    0.000    0.000    0.000 
#
# Total GULP energy -89441.051284 kJ/mol
# GULP energy per Si atom -5590.065705 kJ/mol
# Density = 2.380616 g / cm^3
# Si number density = 23.860469 Si / 1000 Ang^3
#
#
#
# Elastic Constant Matrix: (Units=GPa)
#
#
# Indices 1 2 3 4 5 6 
#
# 1 119.6221 31.0408 47.3597 23.7917 32.7462 -5.2667
# 2 31.0408 115.0467 27.0794 22.4648 5.6112 -23.6247
# 3 47.3597 27.0794 89.3341 16.8846 23.7502 -4.3939
# 4 23.7917 22.4648 16.8846 41.6326 1.7305 0.8153
# 5 32.7462 5.6112 23.7502 1.7305 42.1648 6.0009
# 6 -5.2667 -23.6247 -4.3939 0.8153 6.0009 37.9646
#
#
#
# Elastic Compliance Matrix: (Units=1/GPa)
#
#
# Indices 1 2 3 4 5 6 
#
# 1 0.013494 -0.000827 -0.003465 -0.005552 -0.008535 0.002425
# 2 -0.000827 0.011894 -0.001540 -0.005428 -0.000899 0.007367
# 3 -0.003465 -0.001540 0.015824 -0.003382 -0.006081 0.001426
# 4 -0.005552 -0.005428 -0.003382 0.031343 0.006542 -0.006247
# 5 -0.008535 -0.000899 -0.006081 0.006542 0.034772 -0.008084
# 6 0.002425 0.007367 0.001426 -0.006247 -0.008084 0.032838
#
#
# Mechanical properties :
#
#
# Convention : Reuss Voigt Hill
#
# Bulk Modulus (GPa) = 33.84294 59.44028 46.64161
# Shear Modulus (GPa) = 30.92568 38.92062 34.92315
#
# Velocity S-wave (km/s) = 3.60405 4.04316 3.82991
# Velocity P-wave (km/s) = 5.61546 6.83827 6.25681
#
# Compressibility (1/GPa) = 0.02954826
#
# Stress axis : x y z
#
# Youngs Moduli (GPa) = 74.10972 84.07403 63.19617
#
# Poissons Ratio (x) = 0.06950 0.21898
# Poissons Ratio (y) = 0.06127 0.09731
# Poissons Ratio (z) = 0.25680 0.12946
#
# Static dielectric constant tensor:
#      x y z
#    x 1.924490 0.031510 0.006250 
#    y 0.031510 1.902690 -0.032570 
#    z 0.006250 -0.032570 1.936000 
# 
# From -- ./inp_files/522551.got.cif
#   From: 2010.05.17/outbox.cif.g08.bks.cpg/sg2_262_cif.got.tgz:522551.got - 2010.06.03 11:33:40.
