data_PCOD9018984
_publ_section_title
;
Structure prediction by ZEFSAII (Michael W. Deem and Ramdas Pophale) SiO2 
 PCOD9018984
Probable space group: P -1
;
_chemical_formula_sum "Si O2"
_cell_formula_units_Z 14
_cell_length_a 7.717742
_cell_length_b 16.024279
_cell_length_c 9.158234
_cell_angle_alpha 44.997874
_cell_angle_beta 46.349086
_cell_angle_gamma 72.409729
_cell_volume 539.853148
_symmetry_space_group_name_H-M "P -1"
_symmetry_group_IT_number 2
_symmetry_cell_setting 'triclinic'
loop_
_space_group_symop_operation_xyz
x,y,z
-x,-y,-z
loop_
_atom_site_type_symbol
_atom_site_label
_atom_site_fract_x
_atom_site_fract_y
_atom_site_fract_z
Si Si1 0.744366 0.878182 0.415552
Si Si2 0.683905 0.273634 0.915060
Si Si3 0.460971 0.456076 0.738926
Si Si4 0.952695 0.838612 0.058429
Si Si5 0.049729 0.739317 0.825616
Si Si6 0.260545 0.523423 0.027156
Si Si7 0.847937 0.238649 0.573350
O O1 0.509319 0.803814 0.750061
O O2 0.731813 0.842771 0.294368
O O3 0.982501 0.843816 0.378557
O O4 0.820774 0.027418 0.203423
O O5 0.673621 0.412660 0.741353
O O6 0.961984 0.272475 0.791157
O O7 0.630352 0.216418 0.852182
O O8 0.500000 0.500000 0.500000
O O9 0.386294 0.554102 0.755045
O O10 0.212910 0.328988 0.026316
O O11 0.974587 0.819814 0.895107
O O12 0.226013 0.794338 0.512023
O O13 0.142886 0.632948 0.979731
O O14 0.025891 0.388126 0.314320
O O15 0.500000 0.500000 0.000000
#
# Coordination Sequence:
#
# PCOD9018984 Si02
#       7
#     2   2   2   2   2   2   2
#     4  10  21  44  67  89 127 173 215 262 318 372
#     4  11  20  42  66  91 125 173 210 260 318 377
#     4  11  22  39  63  92 131 170 206 260 322 381
#     4  10  24  40  68  93 126 169 221 262 312 380
#     4  11  22  41  60  99 128 164 211 267 317 380
#     4  11  22  39  64  92 128 167 212 261 317 385
#     4  10  22  41  66  92 131 166 210 263 322 379
#
# _framework density 25.932977999999999
#
# number of rings (size 3 to 8) (size 9 to 14) (size 15 to 20)
#    0.000    1.429    2.857    4.714    0.000    2.857 
#    2.571    5.714    0.000    0.000    0.000    0.000 
#    0.000    0.000    0.000    0.000    0.000    0.000 
#
# Total GULP energy -78077.175245 kJ/mol
# GULP energy per Si atom -5576.941089 kJ/mol
# Density = 2.587395 g / cm^3
# Si number density = 25.932978 Si / 1000 Ang^3
#
#
#
# Elastic Constant Matrix: (Units=GPa)
#
#
# Indices 1 2 3 4 5 6 
#
# 1 87.4452 28.9818 14.5254 -0.3822 -2.1686 -2.4717
# 2 28.9818 171.0471 42.6761 42.6610 5.9253 23.0724
# 3 14.5254 42.6761 121.4967 42.4507 19.5412 22.8063
# 4 -0.3822 42.6610 42.4507 59.8327 7.4264 22.3699
# 5 -2.1686 5.9253 19.5412 7.4264 24.6844 12.9218
# 6 -2.4717 23.0724 22.8063 22.3699 12.9218 41.7778
#
#
#
# Elastic Compliance Matrix: (Units=1/GPa)
#
#
# Indices 1 2 3 4 5 6 
#
# 1 0.012722 -0.002533 -0.002114 0.002670 0.001926 0.001281
# 2 -0.002533 0.007787 -0.000620 -0.004498 0.000768 -0.001941
# 3 -0.002114 -0.000620 0.012580 -0.007435 -0.007591 -0.000321
# 4 0.002670 -0.004498 -0.007435 0.028351 0.003710 -0.009628
# 5 0.001926 0.000768 -0.007591 0.003710 0.053005 -0.014547
# 6 0.001281 -0.001941 -0.000321 -0.009628 -0.014547 0.034914
#
#
# Mechanical properties :
#
#
# Convention : Reuss Voigt Hill
#
# Bulk Modulus (GPa) = 44.33653 61.37285 52.85469
# Shear Modulus (GPa) = 29.86630 44.84602 37.35616
#
# Velocity S-wave (km/s) = 3.39731 4.16300 3.79949
# Velocity P-wave (km/s) = 5.70286 6.84286 6.29871
#
# Compressibility (1/GPa) = 0.02255477
#
# Stress axis : x y z
#
# Youngs Moduli (GPa) = 78.60286 128.41125 79.49125
#
# Poissons Ratio (x) = 0.32533 0.16805
# Poissons Ratio (y) = 0.19914 0.04928
# Poissons Ratio (z) = 0.16617 0.07961
#
# Static dielectric constant tensor:
#      x y z
#    x 2.083140 0.066740 -0.014480 
#    y 0.066740 2.064440 0.121830 
#    z -0.014480 0.121830 2.407020 
# 
# From -- ./inp_files/199266.got.cif
#   From: 2010.05.17/outbox.cif.g08.bks.cpg/sg2_100_cif.got.tgz:199266.got - 2010.06.03 11:33:40.
