data_PCOD9018609
_publ_section_title
;
Structure prediction by ZEFSAII (Michael W. Deem and Ramdas Pophale) SiO2 
 PCOD9018609
Probable space group: P -1
;
_chemical_formula_sum "Si O2"
_cell_formula_units_Z 15
_cell_length_a 10.646719
_cell_length_b 9.589082
_cell_length_c 8.364798
_cell_angle_alpha 87.217604
_cell_angle_beta 129.143448
_cell_angle_gamma 77.083768
_cell_volume 624.917017
_symmetry_space_group_name_H-M "P -1"
_symmetry_group_IT_number 2
_symmetry_cell_setting 'triclinic'
loop_
_space_group_symop_operation_xyz
x,y,z
-x,-y,-z
loop_
_atom_site_type_symbol
_atom_site_label
_atom_site_fract_x
_atom_site_fract_y
_atom_site_fract_z
Si Si1 0.049651 0.356206 0.655726
Si Si2 0.566353 0.461805 0.732320
Si Si3 0.500000 0.000000 0.000000
Si Si4 0.307055 0.844308 0.070272
Si Si5 0.763332 0.915972 0.747596
Si Si6 0.593335 0.755385 0.850945
Si Si7 0.934341 0.367874 0.893478
Si Si8 0.965615 0.883545 0.597865
O O1 0.063926 0.231827 0.544247
O O2 0.000000 0.500000 0.500000
O O3 0.908521 0.379163 0.681258
O O4 0.226251 0.313976 0.901758
O O5 0.500000 0.500000 0.500000
O O6 0.541710 0.315595 0.795829
O O7 0.527249 0.616877 0.780010
O O8 0.768312 0.395780 0.863473
O O9 0.627757 0.035206 0.971368
O O10 0.472626 0.873904 0.864663
O O11 0.265707 0.923817 0.206574
O O12 0.139552 0.836526 0.844496
O O13 0.627305 0.836429 0.709271
O O14 0.807941 0.921405 0.595981
O O15 0.934915 0.794693 0.961592
O O16 0.000000 0.500000 0.000000
O O17 0.000000 0.000000 0.500000
#
# Coordination Sequence:
#
# PCOD9018609 Si02
#       8
#     2   2   1   2   2   2   2   2
#     4  11  23  37  67 106 130 175 222 289 352 403
#     4  12  26  43  71 105 136 190 242 280 349 429
#     4  10  24  48  70  88 138 194 220 278 362 414
#     4  11  25  46  69 100 146 187 230 296 352 422
#     4  10  21  43  72  98 136 187 229 292 361 409
#     4  10  23  48  69  96 141 184 230 283 357 424
#     4  11  20  42  73  94 141 181 226 292 350 418
#     4  12  23  37  67 110 137 164 233 300 349 405
#
# _framework density 24.003188000000002
#
# number of rings (size 3 to 8) (size 9 to 14) (size 15 to 20)
#    0.000    1.067    4.000    4.400    1.867    2.667 
#    4.800    1.333    0.000    0.000    0.000    0.000 
#    0.000    0.000    0.000    0.000    0.000    0.000 
#
# Total GULP energy -83514.381506 kJ/mol
# GULP energy per Si atom -5567.625434 kJ/mol
# Density = 2.394856 g / cm^3
# Si number density = 24.003188 Si / 1000 Ang^3
#
#
#
# Elastic Constant Matrix: (Units=GPa)
#
#
# Indices 1 2 3 4 5 6 
#
# 1 67.5912 8.1006 4.4017 3.6123 -44.5515 -10.4770
# 2 8.1006 155.2694 64.2461 21.2892 -31.2370 -17.7197
# 3 4.4017 64.2461 94.5905 3.1137 -21.1827 5.1245
# 4 3.6123 21.2892 3.1137 44.8364 -2.2102 -19.3054
# 5 -44.5515 -31.2370 -21.1827 -2.2102 40.5317 11.2861
# 6 -10.4770 -17.7197 5.1245 -19.3054 11.2861 29.2821
#
#
#
# Elastic Compliance Matrix: (Units=1/GPa)
#
#
# Indices 1 2 3 4 5 6 
#
# 1 0.093631 0.013907 0.016591 -0.018684 0.127541 -0.022463
# 2 0.013907 0.012856 -0.004313 -0.005169 0.022231 0.001534
# 3 0.016591 -0.004313 0.020393 -0.005949 0.029579 -0.015566
# 4 -0.018684 -0.005169 -0.005949 0.037455 -0.033629 0.028883
# 5 0.127541 0.022231 0.029579 -0.033629 0.209238 -0.048907
# 6 -0.022463 0.001534 -0.015566 0.028883 -0.048907 0.067659
#
#
# Mechanical properties :
#
#
# Convention : Reuss Voigt Hill
#
# Bulk Modulus (GPa) = 5.57885 52.32755 28.95320
# Shear Modulus (GPa) = 11.14551 38.97689 25.06120
#
# Velocity S-wave (km/s) = 2.15718 4.03404 3.23473
# Velocity P-wave (km/s) = 2.92127 6.59890 5.10291
#
# Compressibility (1/GPa) = 0.17924855
#
# Stress axis : x y z
#
# Youngs Moduli (GPa) = 10.68025 77.78593 49.03715
#
# Poissons Ratio (x) = -1.08179 -0.81357
# Poissons Ratio (y) = -0.14853 0.21152
# Poissons Ratio (z) = -0.17719 0.33553
#
# Static dielectric constant tensor:
#      x y z
#    x 1.945400 0.054660 0.013220 
#    y 0.054660 2.072140 -0.158540 
#    z 0.013220 -0.158540 1.983570 
# 
# From -- ./inp_files/239387.got.cif
#   From: 2010.05.17/outbox.cif.g08.bks.cpg/sg2_120_cif.got.tgz:239387.got - 2010.06.03 11:33:40.
