data_PCOD9018077
_publ_section_title
;
Structure prediction by ZEFSAII (Michael W. Deem and Ramdas Pophale) SiO2 
 PCOD9018077
Probable space group: P -1
;
_chemical_formula_sum "Si O2"
_cell_formula_units_Z 14
_cell_length_a 11.712372
_cell_length_b 11.978740
_cell_length_c 5.304926
_cell_angle_alpha 71.318297
_cell_angle_beta 60.778648
_cell_angle_gamma 65.186712
_cell_volume 583.300449
_symmetry_space_group_name_H-M "P -1"
_symmetry_group_IT_number 2
_symmetry_cell_setting 'triclinic'
loop_
_space_group_symop_operation_xyz
x,y,z
-x,-y,-z
loop_
_atom_site_type_symbol
_atom_site_label
_atom_site_fract_x
_atom_site_fract_y
_atom_site_fract_z
Si Si1 0.089989 0.481647 0.669185
Si Si2 0.323131 0.592658 0.384770
Si Si3 0.768238 0.022583 0.837291
Si Si4 0.193637 0.205864 0.647148
Si Si5 0.514522 0.878981 0.735378
Si Si6 0.439395 0.663880 0.690599
Si Si7 0.993990 0.105491 0.726587
O O1 0.174905 0.577334 0.529534
O O2 0.185844 0.337671 0.672594
O O3 0.000000 0.500000 0.500000
O O4 0.000000 0.500000 0.000000
O O5 0.344678 0.674475 0.538115
O O6 0.424808 0.451980 0.430106
O O7 0.370315 0.627517 0.039087
O O8 0.875887 0.957848 0.550634
O O9 0.780013 0.910228 0.104557
O O10 0.841560 0.124610 0.771904
O O11 0.603440 0.086786 0.946526
O O12 0.323000 0.173487 0.335773
O O13 0.041098 0.216499 0.703182
O O14 0.477563 0.783194 0.654600
O O15 0.500000 0.000000 0.500000
O O16 0.000000 0.000000 0.000000
#
# Coordination Sequence:
#
# PCOD9018077 Si02
#       7
#     2   2   2   2   2   2   2
#     4  12  27  45  70 103 137 184 243 294 357 419
#     4  10  22  44  70  97 134 185 237 282 353 406
#     4   9  20  39  66  97 132 181 229 275 360 428
#     4  10  22  42  64  95 138 177 228 300 351 417
#     4  10  21  43  68 106 139 178 233 290 362 416
#     4  10  21  44  70  99 136 181 227 295 344 421
#     4   9  19  39  63  91 137 177 223 274 342 434
#
# _framework density 24.001356000000001
#
# number of rings (size 3 to 8) (size 9 to 14) (size 15 to 20)
#    0.000    2.000    1.429    0.857    2.000    2.857 
#   18.000    0.000    0.000    0.000    0.000    0.000 
#    0.000    0.000    0.000    0.000    0.000    0.000 
#
# Total GULP energy -78161.101377 kJ/mol
# GULP energy per Si atom -5582.935813 kJ/mol
# Density = 2.394673 g / cm^3
# Si number density = 24.001356 Si / 1000 Ang^3
#
#
#
# Elastic Constant Matrix: (Units=GPa)
#
#
# Indices 1 2 3 4 5 6 
#
# 1 119.4256 12.2117 69.5159 -19.1279 -13.8957 9.7882
# 2 12.2117 74.1063 18.9807 -15.4526 -12.8317 4.4674
# 3 69.5159 18.9807 123.2668 -4.6848 -27.5998 -1.6408
# 4 -19.1279 -15.4526 -4.6848 29.3959 5.3662 -18.1407
# 5 -13.8957 -12.8317 -27.5998 5.3662 42.7005 -0.3147
# 6 9.7882 4.4674 -1.6408 -18.1407 -0.3147 35.4254
#
#
#
# Elastic Compliance Matrix: (Units=1/GPa)
#
#
# Indices 1 2 3 4 5 6 
#
# 1 0.014314 0.001395 -0.008254 0.009056 -0.001395 0.000112
# 2 0.001395 0.016288 -0.002284 0.010346 0.002593 0.002775
# 3 -0.008254 -0.002284 0.014410 -0.005034 0.006580 0.000717
# 4 0.009056 0.010346 -0.005034 0.062746 -0.004876 0.028048
# 5 -0.001395 0.002593 0.006580 -0.004876 0.028596 -0.001880
# 6 0.000112 0.002775 0.000717 0.028048 -0.001880 0.042227
#
#
# Mechanical properties :
#
#
# Convention : Reuss Voigt Hill
#
# Bulk Modulus (GPa) = 37.41546 57.57949 47.49748
# Shear Modulus (GPa) = 24.29814 35.91036 30.10425
#
# Velocity S-wave (km/s) = 3.18522 3.87225 3.54541
# Velocity P-wave (km/s) = 5.39910 6.63585 6.04917
#
# Compressibility (1/GPa) = 0.02672692
#
# Stress axis : x y z
#
# Youngs Moduli (GPa) = 69.86044 61.39439 69.39394
#
# Poissons Ratio (x) = -0.08567 0.57278
# Poissons Ratio (y) = -0.09748 0.15852
# Poissons Ratio (z) = 0.57663 0.14025
#
# Static dielectric constant tensor:
#      x y z
#    x 2.023130 -0.008650 -0.005690 
#    y -0.008650 1.969060 0.028980 
#    z -0.005690 0.028980 1.873470 
# 
# From -- ./inp_files/68856.got.cif
#   From: 2010.05.17/outbox.cif.g08.bks.cpg/sg2_35_cif.got.tgz:68856.got - 2010.06.03 11:33:40.
