data_PCOD9018575
_publ_section_title
;
Structure prediction by ZEFSAII (Michael W. Deem and Ramdas Pophale) SiO2 
 PCOD9018575
Probable space group: P -1
;
_chemical_formula_sum "Si O2"
_cell_formula_units_Z 14
_cell_length_a 18.360040
_cell_length_b 4.834763
_cell_length_c 13.408684
_cell_angle_alpha 72.100854
_cell_angle_beta 27.638603
_cell_angle_gamma 79.883484
_cell_volume 512.679954
_symmetry_space_group_name_H-M "P -1"
_symmetry_group_IT_number 2
_symmetry_cell_setting 'triclinic'
loop_
_space_group_symop_operation_xyz
x,y,z
-x,-y,-z
loop_
_atom_site_type_symbol
_atom_site_label
_atom_site_fract_x
_atom_site_fract_y
_atom_site_fract_z
Si Si1 0.299516 0.706290 0.676083
Si Si2 0.585881 0.475135 0.265337
Si Si3 0.017657 0.296246 0.877913
Si Si4 0.357481 0.295205 0.406963
Si Si5 0.776187 0.798912 0.632028
Si Si6 0.153733 0.834289 0.323573
Si Si7 0.113472 0.979965 0.141562
O O1 0.418123 0.513973 0.511360
O O2 0.362051 0.781818 0.705134
O O3 0.112946 0.543748 0.930469
O O4 0.322283 0.984576 0.544587
O O5 0.533547 0.443839 0.217768
O O6 0.735258 0.745131 0.075015
O O7 0.204329 0.431648 0.612198
O O8 0.938533 0.196352 0.877144
O O9 0.000000 0.000000 0.000000
O O10 0.343294 0.252294 0.310783
O O11 0.836633 0.492965 0.612566
O O12 0.721164 0.938760 0.783480
O O13 0.937865 0.043762 0.375287
O O14 0.167036 0.809825 0.190891
O O15 0.000000 0.000000 0.500000
#
# Coordination Sequence:
#
# PCOD9018575 Si02
#       7
#     2   2   2   2   2   2   2
#     4  10  24  41  62  92 140 180 227 272 337 416
#     4  11  25  39  65  97 138 183 225 273 354 412
#     4   9  21  40  63  90 131 169 227 273 331 398
#     4  10  23  44  64  97 135 179 229 286 345 401
#     4  10  23  44  73 101 134 176 234 295 343 404
#     4  10  21  43  72 101 134 174 235 289 344 409
#     4  10  22  40  64 102 126 177 226 277 341 412
#
# _framework density 27.307485
#
# number of rings (size 3 to 8) (size 9 to 14) (size 15 to 20)
#    0.000    2.000    0.000    2.143   12.000    6.286 
#    2.571    1.429    0.000    0.000    0.000    0.000 
#    0.000    0.000    0.000    0.000    0.000    0.000 
#
# Total GULP energy -78129.928409 kJ/mol
# GULP energy per Si atom -5580.709172 kJ/mol
# Density = 2.724533 g / cm^3
# Si number density = 27.307485 Si / 1000 Ang^3
#
#
#
# Elastic Constant Matrix: (Units=GPa)
#
#
# Indices 1 2 3 4 5 6 
#
# 1 245.1270 49.5872 63.4705 -23.7711 -11.8856 -19.0072
# 2 49.5872 103.8424 24.3113 -12.3787 -4.7633 -15.2249
# 3 63.4705 24.3113 53.4571 -15.0229 -6.7467 4.4598
# 4 -23.7711 -12.3787 -15.0229 28.6247 -1.4553 -9.0955
# 5 -11.8856 -4.7633 -6.7467 -1.4553 40.3109 -11.8987
# 6 -19.0072 -15.2249 4.4598 -9.0955 -11.8987 29.8409
#
#
#
# Elastic Compliance Matrix: (Units=1/GPa)
#
#
# Indices 1 2 3 4 5 6 
#
# 1 0.007458 0.000481 -0.007823 0.005481 0.003919 0.009398
# 2 0.000481 0.013491 -0.004938 0.007764 0.004792 0.012205
# 3 -0.007823 -0.004938 0.032459 0.004848 -0.000559 -0.011099
# 4 0.005481 0.007764 0.004848 0.055366 0.013953 0.029167
# 5 0.003919 0.004792 -0.000559 0.013953 0.033636 0.022690
# 6 0.009398 0.012205 -0.011099 0.029167 0.022690 0.065320
#
#
# Mechanical properties :
#
#
# Convention : Reuss Voigt Hill
#
# Bulk Modulus (GPa) = 34.66507 75.24051 54.95279
# Shear Modulus (GPa) = 20.66909 37.42579 29.04744
#
# Velocity S-wave (km/s) = 2.75417 3.70609 3.26501
# Velocity P-wave (km/s) = 4.77869 6.77690 5.86354
#
# Compressibility (1/GPa) = 0.02884748
#
# Stress axis : x y z
#
# Youngs Moduli (GPa) = 134.08217 74.12271 30.80831
#
# Poissons Ratio (x) = -0.03567 0.24102
# Poissons Ratio (y) = -0.06452 0.15214
# Poissons Ratio (z) = 1.04894 0.36605
#
# Static dielectric constant tensor:
#      x y z
#    x 2.307440 0.082600 0.103010 
#    y 0.082600 2.186990 0.065330 
#    z 0.103010 0.065330 2.297170 
# 
# From -- ./inp_files/536147.got.cif
#   From: 2010.05.17/outbox.cif.g08.bks.cpg/sg2_269_cif.got.tgz:536147.got - 2010.06.03 11:33:40.
