data_PCOD9018715
_publ_section_title
;
Structure prediction by ZEFSAII (Michael W. Deem and Ramdas Pophale) SiO2 
 PCOD9018715
Probable space group: P -1
;
_chemical_formula_sum "Si O2"
_cell_formula_units_Z 10
_cell_length_a 8.803496
_cell_length_b 11.851922
_cell_length_c 7.521283
_cell_angle_alpha 59.102183
_cell_angle_beta 125.886154
_cell_angle_gamma 143.611621
_cell_volume 375.773430
_symmetry_space_group_name_H-M "P -1"
_symmetry_group_IT_number 2
_symmetry_cell_setting 'triclinic'
loop_
_space_group_symop_operation_xyz
x,y,z
-x,-y,-z
loop_
_atom_site_type_symbol
_atom_site_label
_atom_site_fract_x
_atom_site_fract_y
_atom_site_fract_z
Si Si1 0.859284 0.061087 0.214172
Si Si2 0.821405 0.822191 0.160000
Si Si3 0.460544 0.958720 0.715818
Si Si4 0.930001 0.585170 0.510794
Si Si5 0.771625 0.498912 0.834144
O O1 0.643231 0.972345 0.295052
O O2 0.095328 0.290399 0.203261
O O3 0.921948 0.940988 0.316171
O O4 0.690741 0.016517 0.953396
O O5 0.890906 0.703485 0.287304
O O6 0.492230 0.654745 0.096036
O O7 0.000000 0.000000 0.000000
O O8 0.195171 0.735827 0.692604
O O9 0.500000 0.000000 0.500000
O O10 0.696618 0.458074 0.604100
O O11 0.000000 0.500000 0.500000
O O12 0.000000 0.500000 0.000000
#
# Coordination Sequence:
#
# PCOD9018715 Si02
#       5
#     2   2   2   2   2
#     4  10  24  47  72 111 159 205 271 327 395 487
#     4  12  27  50  81 120 161 215 269 335 408 477
#     4  10  21  43  76 110 153 209 259 325 403 471
#     4  11  27  48  77 121 161 211 271 334 409 489
#     4  11  26  50  83 115 162 215 262 340 408 476
#
# _framework density 26.611782000000002
#
# number of rings (size 3 to 8) (size 9 to 14) (size 15 to 20)
#    0.000    1.200    0.000    5.400    8.400    4.000 
#    7.200    0.000    0.000    0.000    0.000    0.000 
#    0.000    0.000    0.000    0.000    0.000    0.000 
#
# Total GULP energy -55758.408980 kJ/mol
# GULP energy per Si atom -5575.840898 kJ/mol
# Density = 2.655121 g / cm^3
# Si number density = 26.611782 Si / 1000 Ang^3
#
#
#
# Elastic Constant Matrix: (Units=GPa)
#
#
# Indices 1 2 3 4 5 6 
#
# 1 185.4575 54.1434 52.0046 -13.5007 0.1007 -13.5823
# 2 54.1434 161.2922 16.6320 -27.7256 6.3127 -5.7815
# 3 52.0046 16.6320 96.2412 -19.4365 -2.0266 16.3905
# 4 -13.5007 -27.7256 -19.4365 54.5677 -0.9340 -5.9765
# 5 0.1007 6.3127 -2.0266 -0.9340 69.4477 -4.2496
# 6 -13.5823 -5.7815 16.3905 -5.9765 -4.2496 66.8045
#
#
#
# Elastic Compliance Matrix: (Units=1/GPa)
#
#
# Indices 1 2 3 4 5 6 
#
# 1 0.007246 -0.002014 -0.004033 -0.000416 0.000188 0.002263
# 2 -0.002014 0.007469 0.000419 0.003480 -0.000592 0.000408
# 3 -0.004033 0.000419 0.013915 0.003753 0.000189 -0.003850
# 4 -0.000416 0.003480 0.003753 0.021465 0.000157 0.001226
# 5 0.000188 -0.000592 0.000189 0.000157 0.014514 0.000878
# 6 0.002263 0.000408 -0.003850 0.001226 0.000878 0.016575
#
#
# Mechanical properties :
#
#
# Convention : Reuss Voigt Hill
#
# Bulk Modulus (GPa) = 57.56080 76.50565 67.03323
# Shear Modulus (GPa) = 50.89944 59.51136 55.20540
#
# Velocity S-wave (km/s) = 4.37815 4.73406 4.55958
# Velocity P-wave (km/s) = 6.87272 7.66113 7.27761
#
# Compressibility (1/GPa) = 0.01737293
#
# Stress axis : x y z
#
# Youngs Moduli (GPa) = 137.99868 133.88693 71.86440
#
# Poissons Ratio (x) = 0.26970 0.28983
# Poissons Ratio (y) = 0.27798 -0.03009
# Poissons Ratio (z) = 0.55656 -0.05605
#
# Static dielectric constant tensor:
#      x y z
#    x 2.589050 0.239850 0.038030 
#    y 0.239850 2.234900 -0.124790 
#    z 0.038030 -0.124790 2.557150 
# 
# From -- ./inp_files/168141.got.cif
#   From: 2010.05.17/outbox.cif.g08.bks.cpg/sg2_85_cif.got.tgz:168141.got - 2010.06.03 11:33:40.
