data_PCOD9018828
_publ_section_title
;
Structure prediction by ZEFSAII (Michael W. Deem and Ramdas Pophale) SiO2 
 PCOD9018828
Probable space group: P -1
;
_chemical_formula_sum "Si O2"
_cell_formula_units_Z 14
_cell_length_a 15.646905
_cell_length_b 7.075384
_cell_length_c 6.782383
_cell_angle_alpha 63.864821
_cell_angle_beta 97.265875
_cell_angle_gamma 56.143305
_cell_volume 485.174879
_symmetry_space_group_name_H-M "P -1"
_symmetry_group_IT_number 2
_symmetry_cell_setting 'triclinic'
loop_
_space_group_symop_operation_xyz
x,y,z
-x,-y,-z
loop_
_atom_site_type_symbol
_atom_site_label
_atom_site_fract_x
_atom_site_fract_y
_atom_site_fract_z
Si Si1 0.777267 0.611023 0.324309
Si Si2 0.864653 0.771091 0.564469
Si Si3 0.500000 0.000000 0.000000
Si Si4 0.259156 0.693479 0.234887
Si Si5 0.565414 0.694817 0.848741
Si Si6 0.609443 0.341575 0.374119
Si Si7 0.000000 0.000000 0.500000
Si Si8 0.016295 0.188705 0.103398
O O1 0.849706 0.695213 0.381678
O O2 0.761821 0.484615 0.567357
O O3 0.642001 0.879124 0.100072
O O4 0.858074 0.346423 0.319236
O O5 0.947309 0.828195 0.638136
O O6 0.734478 0.063218 0.447616
O O7 0.917108 0.505821 0.847810
O O8 0.497150 0.984871 0.263860
O O9 0.310038 0.545924 0.106839
O O10 0.359086 0.665145 0.390087
O O11 0.135762 0.019133 0.095204
O O12 0.480044 0.675920 0.728270
O O13 0.572237 0.625730 0.123737
O O14 0.015901 0.991485 0.765985
#
# Coordination Sequence:
#
# PCOD9018828 Si02
#       8
#     2   2   1   2   2   2   1   2
#     4  11  24  44  66 101 143 180 239 289 354 423
#     4  10  21  44  65  97 140 175 230 301 340 426
#     4  12  24  44  64 106 136 180 236 290 346 424
#     4  10  22  43  67  97 135 182 232 289 356 417
#     4  11  23  41  69  94 139 187 227 292 349 423
#     4  10  21  44  64  98 137 180 236 286 352 423
#     4  10  24  46  72  98 138 190 228 298 344 424
#     4   9  22  45  69 100 136 176 245 287 352 424
#
# _framework density 28.855571000000001
#
# number of rings (size 3 to 8) (size 9 to 14) (size 15 to 20)
#    0.000    1.714    2.857    0.429    0.000    5.714 
#   10.286    1.429    0.000    0.000    0.000    0.000 
#    0.000    0.000    0.000    0.000    0.000    0.000 
#
# Total GULP energy -78056.420795 kJ/mol
# GULP energy per Si atom -5575.458628 kJ/mol
# Density = 2.878989 g / cm^3
# Si number density = 28.855571 Si / 1000 Ang^3
#
#
#
# Elastic Constant Matrix: (Units=GPa)
#
#
# Indices 1 2 3 4 5 6 
#
# 1 129.8931 59.6750 89.6041 13.4394 29.7602 -0.0393
# 2 59.6750 254.0624 84.1741 2.1586 4.8128 -36.8948
# 3 89.6041 84.1741 117.5202 -6.5415 15.7145 -7.9363
# 4 13.4394 2.1586 -6.5415 68.4984 15.8278 7.3880
# 5 29.7602 4.8128 15.7145 15.8278 61.2830 6.6604
# 6 -0.0393 -36.8948 -7.9363 7.3880 6.6604 57.4366
#
#
#
# Elastic Compliance Matrix: (Units=1/GPa)
#
#
# Indices 1 2 3 4 5 6 
#
# 1 0.018790 0.000312 -0.014232 -0.003960 -0.004397 -0.000734
# 2 0.000312 0.005734 -0.004247 -0.001089 0.000422 0.003188
# 3 -0.014232 -0.004247 0.022646 0.005083 0.000156 -0.000281
# 4 -0.003960 -0.001089 0.005083 0.016887 -0.003464 -0.001770
# 5 -0.004397 0.000422 0.000156 -0.003464 0.019440 -0.001519
# 6 -0.000734 0.003188 -0.000281 -0.001770 -0.001519 0.019823
#
#
# Mechanical properties :
#
#
# Convention : Reuss Voigt Hill
#
# Bulk Modulus (GPa) = 92.28482 107.59800 99.94141
# Shear Modulus (GPa) = 34.90055 55.31177 45.10616
#
# Velocity S-wave (km/s) = 3.48155 4.38293 3.95798
# Velocity P-wave (km/s) = 6.94353 7.93618 7.45639
#
# Compressibility (1/GPa) = 0.01083602
#
# Stress axis : x y z
#
# Youngs Moduli (GPa) = 53.21985 174.40216 44.15887
#
# Poissons Ratio (x) = -0.05446 0.62848
# Poissons Ratio (y) = -0.01662 0.18753
# Poissons Ratio (z) = 0.75744 0.74064
#
# Static dielectric constant tensor:
#      x y z
#    x 2.337580 0.023450 0.041070 
#    y 0.023450 2.263310 0.038290 
#    z 0.041070 0.038290 2.409270 
# 
# From -- ./inp_files/27698.got.cif
#   From: 2010.05.17/outbox.cif.g08.bks.cpg/sg2_14_cif.got.tgz:27698.got - 2010.06.03 11:33:40.
