data_PCOD9018932
_publ_section_title
;
Structure prediction by ZEFSAII (Michael W. Deem and Ramdas Pophale) SiO2 
 PCOD9018932
Probable space group: P -1
;
_chemical_formula_sum "Si O2"
_cell_formula_units_Z 16
_cell_length_a 8.978971
_cell_length_b 14.280704
_cell_length_c 8.628307
_cell_angle_alpha 63.101307
_cell_angle_beta 127.514462
_cell_angle_gamma 94.661509
_cell_volume 752.547090
_symmetry_space_group_name_H-M "P -1"
_symmetry_group_IT_number 2
_symmetry_cell_setting 'triclinic'
loop_
_space_group_symop_operation_xyz
x,y,z
-x,-y,-z
loop_
_atom_site_type_symbol
_atom_site_label
_atom_site_fract_x
_atom_site_fract_y
_atom_site_fract_z
Si Si1 0.200929 0.918791 0.743747
Si Si2 0.925189 0.592118 0.015201
Si Si3 0.470855 0.246320 0.431910
Si Si4 0.660379 0.421051 0.555857
Si Si5 0.483299 0.998480 0.305577
Si Si6 0.782602 0.237924 0.378174
Si Si7 0.898353 0.958023 0.108350
Si Si8 0.821014 0.471827 0.317870
O O1 0.223347 0.798891 0.776780
O O2 0.358016 0.964321 0.718793
O O3 0.191475 0.944944 0.899273
O O4 0.000000 0.000000 0.500000
O O5 0.800682 0.546501 0.098728
O O6 0.121778 0.608174 0.208975
O O7 0.761400 0.696252 0.768526
O O8 0.000000 0.500000 0.000000
O O9 0.583683 0.316734 0.549807
O O10 0.501900 0.128327 0.614393
O O11 0.581812 0.239423 0.340332
O O12 0.500000 0.500000 0.500000
O O13 0.664494 0.482199 0.347735
O O14 0.500000 0.000000 0.500000
O O15 0.279828 0.075098 0.058275
O O16 0.841073 0.349401 0.360150
O O17 0.947998 0.141080 0.637107
O O18 0.000000 0.000000 0.000000
O O19 0.000000 0.500000 0.500000
#
# Coordination Sequence:
#
# PCOD9018932 Si02
#       8
#     2   2   2   2   2   2   2   2
#     4  10  22  43  64  98 132 170 221 279 325 406
#     4  11  23  43  68  97 132 177 224 276 338 396
#     4  11  23  42  69  98 137 178 223 272 340 398
#     4  10  21  44  66  94 134 167 225 283 330 396
#     4  12  23  42  68  97 138 173 225 275 333 406
#     4  10  21  44  67  97 133 172 225 274 337 395
#     4  11  22  43  70  96 135 177 218 274 337 395
#     4   9  22  42  67  93 131 171 218 278 328 394
#
# _framework density 21.261127999999999
#
# number of rings (size 3 to 8) (size 9 to 14) (size 15 to 20)
#    0.000    1.500    3.750    1.125    0.000    7.000 
#    6.750    0.000    0.000    0.000    0.000    0.000 
#    0.000    0.000    0.000    0.000    0.000    0.000 
#
# Total GULP energy -89271.448769 kJ/mol
# GULP energy per Si atom -5579.465548 kJ/mol
# Density = 2.121274 g / cm^3
# Si number density = 21.261128 Si / 1000 Ang^3
#
#
#
# Elastic Constant Matrix: (Units=GPa)
#
#
# Indices 1 2 3 4 5 6 
#
# 1 122.2759 53.1954 35.8869 14.0006 9.7523 -9.6079
# 2 53.1954 107.2357 12.0669 12.1932 -8.7114 -9.0179
# 3 35.8869 12.0669 89.9746 6.7589 13.9295 -10.6686
# 4 14.0006 12.1932 6.7589 29.8240 -3.4663 -4.8195
# 5 9.7523 -8.7114 13.9295 -3.4663 40.9695 5.1763
# 6 -9.6079 -9.0179 -10.6686 -4.8195 5.1763 39.9428
#
#
#
# Elastic Compliance Matrix: (Units=1/GPa)
#
#
# Indices 1 2 3 4 5 6 
#
# 1 0.012239 -0.005560 -0.003291 -0.002972 -0.003340 0.000884
# 2 -0.005560 0.012663 0.000208 -0.002050 0.003664 0.000855
# 3 -0.003291 0.000208 0.013575 -0.001595 -0.004334 0.003250
# 4 -0.002972 -0.002050 -0.001595 0.036932 0.003638 0.002381
# 5 -0.003340 0.003664 -0.004334 0.003638 0.028315 -0.004364
# 6 0.000884 0.000855 0.003250 0.002381 -0.004364 0.027162
#
#
# Mechanical properties :
#
#
# Convention : Reuss Voigt Hill
#
# Bulk Modulus (GPa) = 47.19197 57.97606 52.58402
# Shear Modulus (GPa) = 32.20893 36.70308 34.45600
#
# Velocity S-wave (km/s) = 3.89642 4.15938 4.03005
# Velocity P-wave (km/s) = 6.51823 7.09895 6.81478
#
# Compressibility (1/GPa) = 0.02119005
#
# Stress axis : x y z
#
# Youngs Moduli (GPa) = 81.70577 78.97256 73.66429
#
# Poissons Ratio (x) = 0.43909 0.24242
# Poissons Ratio (y) = 0.45429 -0.01529
# Poissons Ratio (z) = 0.26888 -0.01639
#
# Static dielectric constant tensor:
#      x y z
#    x 1.721100 -0.003010 0.000880 
#    y -0.003010 1.805510 0.039190 
#    z 0.000880 0.039190 1.794150 
# 
# From -- ./inp_files/201068.got.cif
#   From: 2010.05.17/outbox.cif.g08.bks.cpg/sg2_101_cif.got.tgz:201068.got - 2010.06.03 11:33:40.
