data_PCOD9018080
_publ_section_title
;
Structure prediction by ZEFSAII (Michael W. Deem and Ramdas Pophale) SiO2 
 PCOD9018080
Probable space group: P -1
;
_chemical_formula_sum "Si O2"
_cell_formula_units_Z 14
_cell_length_a 14.077551
_cell_length_b 7.364855
_cell_length_c 10.983744
_cell_angle_alpha 123.008386
_cell_angle_beta 37.739504
_cell_angle_gamma 110.240868
_cell_volume 576.475318
_symmetry_space_group_name_H-M "P -1"
_symmetry_group_IT_number 2
_symmetry_cell_setting 'triclinic'
loop_
_space_group_symop_operation_xyz
x,y,z
-x,-y,-z
loop_
_atom_site_type_symbol
_atom_site_label
_atom_site_fract_x
_atom_site_fract_y
_atom_site_fract_z
Si Si1 0.670350 0.857626 0.240179
Si Si2 0.142502 0.994408 0.696551
Si Si3 0.064906 0.824473 0.257376
Si Si4 0.601040 0.403106 0.244125
Si Si5 0.062488 0.509382 0.576573
Si Si6 0.413082 0.353428 0.197012
Si Si7 0.519619 0.169222 0.788158
O O1 0.659653 0.619687 0.213854
O O2 0.642816 0.862523 0.124314
O O3 0.500000 0.000000 0.500000
O O4 0.822362 0.935768 0.174213
O O5 0.093398 0.754468 0.660610
O O6 0.321336 0.986302 0.465057
O O7 0.036629 0.125207 0.745802
O O8 0.244424 0.781696 0.007011
O O9 0.042713 0.595157 0.259474
O O10 0.000000 0.000000 0.500000
O O11 0.500000 0.500000 0.500000
O O12 0.467399 0.329335 0.269342
O O13 0.231514 0.357875 0.361276
O O14 0.000000 0.500000 0.500000
O O15 0.450301 0.592236 0.203878
O O16 0.509027 0.182199 0.947115
#
# Coordination Sequence:
#
# PCOD9018080 Si02
#       7
#     2   2   2   2   2   2   2
#     4   9  20  42  71 103 147 193 246 306 375 444
#     4  10  21  43  68 107 148 193 248 307 380 442
#     4  12  26  48  75 108 151 197 253 315 369 446
#     4  11  26  48  71 108 155 195 245 310 377 449
#     4  11  24  43  73 106 146 192 251 314 377 438
#     4   9  19  38  70  99 134 192 246 293 371 429
#     4   8  16  36  72 100 136 186 247 308 351 438
#
# _framework density 24.285513000000002
#
# number of rings (size 3 to 8) (size 9 to 14) (size 15 to 20)
#    0.000    2.000    1.429    1.714    8.000    0.571 
#    7.714    2.143    0.000    0.000    0.000    0.000 
#    0.000    0.000    0.000    0.000    0.000    0.000 
#
# Total GULP energy -78049.785522 kJ/mol
# GULP energy per Si atom -5574.984680 kJ/mol
# Density = 2.423024 g / cm^3
# Si number density = 24.285513 Si / 1000 Ang^3
#
#
#
# Elastic Constant Matrix: (Units=GPa)
#
#
# Indices 1 2 3 4 5 6 
#
# 1 187.6736 21.7359 70.8701 -0.7810 -4.8061 27.9681
# 2 21.7359 118.9691 10.6528 -12.0445 -0.6276 0.8065
# 3 70.8701 10.6528 151.6382 1.7213 -4.6634 4.5297
# 4 -0.7810 -12.0445 1.7213 25.8937 -0.5725 4.1601
# 5 -4.8061 -0.6276 -4.6634 -0.5725 33.1539 2.8187
# 6 27.9681 0.8065 4.5297 4.1601 2.8187 37.0058
#
#
#
# Elastic Compliance Matrix: (Units=1/GPa)
#
#
# Indices 1 2 3 4 5 6 
#
# 1 0.007511 -0.000947 -0.003258 0.000901 0.001091 -0.005442
# 2 -0.000947 0.009022 -0.000239 0.004174 0.000066 0.000074
# 3 -0.003258 -0.000239 0.008115 -0.000986 0.000516 0.001546
# 4 0.000901 0.004174 -0.000986 0.041551 0.001249 -0.005418
# 5 0.001091 0.000066 0.000516 0.001249 0.030702 -0.003368
# 6 -0.005442 0.000074 0.001546 -0.005418 -0.003368 0.031810
#
#
# Mechanical properties :
#
#
# Convention : Reuss Voigt Hill
#
# Bulk Modulus (GPa) = 63.44760 73.86650 68.65705
# Shear Modulus (GPa) = 35.00105 42.87884 38.93994
#
# Velocity S-wave (km/s) = 3.80047 4.20648 4.00862
# Velocity P-wave (km/s) = 6.74096 7.35354 7.05390
#
# Compressibility (1/GPa) = 0.01576104
#
# Stress axis : x y z
#
# Youngs Moduli (GPa) = 133.13906 110.83666 123.22893
#
# Poissons Ratio (x) = 0.10493 0.40148
# Poissons Ratio (y) = 0.12604 0.02945
# Poissons Ratio (z) = 0.43376 0.02648
#
# Static dielectric constant tensor:
#      x y z
#    x 1.903150 0.014340 0.061350 
#    y 0.014340 1.953350 0.021300 
#    z 0.061350 0.021300 2.096010 
# 
# From -- ./inp_files/331218.got.cif
#   From: 2010.05.17/outbox.cif.g08.bks.cpg/sg2_166_cif.got.tgz:331218.got - 2010.06.03 11:33:40.
