data_PCOD9018929
_publ_section_title
;
Structure prediction by ZEFSAII (Michael W. Deem and Ramdas Pophale) SiO2 
 PCOD9018929
Probable space group: P -1
;
_chemical_formula_sum "Si O2"
_cell_formula_units_Z 15
_cell_length_a 9.138692
_cell_length_b 11.729601
_cell_length_c 15.315688
_cell_angle_alpha 38.159504
_cell_angle_beta 118.183532
_cell_angle_gamma 140.806747
_cell_volume 600.193800
_symmetry_space_group_name_H-M "P -1"
_symmetry_group_IT_number 2
_symmetry_cell_setting 'triclinic'
loop_
_space_group_symop_operation_xyz
x,y,z
-x,-y,-z
loop_
_atom_site_type_symbol
_atom_site_label
_atom_site_fract_x
_atom_site_fract_y
_atom_site_fract_z
Si Si1 0.404129 0.413247 0.290572
Si Si2 0.075032 0.133489 0.750386
Si Si3 0.369906 0.296752 0.003536
Si Si4 0.000000 0.500000 0.500000
Si Si5 0.047282 0.464188 0.174176
Si Si6 0.389211 0.984171 0.567423
Si Si7 0.771364 0.079558 0.161349
Si Si8 0.653318 0.150001 0.725077
O O1 0.638125 0.624951 0.291934
O O2 0.222350 0.431251 0.249738
O O3 0.303326 0.124582 0.449181
O O4 0.524089 0.526922 0.159654
O O5 0.992578 0.265563 0.618377
O O6 0.066018 0.968285 0.774263
O O7 0.916908 0.936344 0.908318
O O8 0.427748 0.125639 0.115899
O O9 0.500000 0.500000 0.000000
O O10 0.944762 0.406689 0.645795
O O11 0.841993 0.318930 0.277789
O O12 0.878566 0.276808 0.155412
O O13 0.196238 0.770630 0.006206
O O14 0.500000 0.000000 0.500000
O O15 0.603380 0.160617 0.600038
O O16 0.486389 0.831395 0.259899
#
# Coordination Sequence:
#
# PCOD9018929 Si02
#       8
#     2   2   2   1   2   2   2   2
#     4  12  23  44  63 103 141 175 223 298 336 403
#     4  11  25  41  68 102 139 178 227 284 356 394
#     4  11  23  41  72  96 132 185 231 276 339 417
#     4  10  22  46  60  96 136 178 222 274 344 424
#     4  10  23  44  67  99 138 175 237 277 335 420
#     4  11  24  41  67  99 135 179 223 287 342 397
#     4  10  22  43  72  96 130 186 229 278 332 424
#     4  10  21  44  66  94 132 174 229 271 334 414
#
# _framework density 24.99193
#
# number of rings (size 3 to 8) (size 9 to 14) (size 15 to 20)
#    0.000    1.333    2.667    2.400    5.600    2.133 
#    2.400    0.000    0.000    0.000    0.000    0.000 
#    0.000    0.000    0.000    0.000    0.000    0.000 
#
# Total GULP energy -83717.154705 kJ/mol
# GULP energy per Si atom -5581.143647 kJ/mol
# Density = 2.493505 g / cm^3
# Si number density = 24.991930 Si / 1000 Ang^3
#
#
#
# Elastic Constant Matrix: (Units=GPa)
#
#
# Indices 1 2 3 4 5 6 
#
# 1 165.5175 4.3975 34.7885 -4.3846 -11.8707 -4.9018
# 2 4.3975 28.9659 5.4709 5.2491 -15.1367 -7.7979
# 3 34.7885 5.4709 104.7021 -2.0007 -13.9793 -9.2870
# 4 -4.3846 5.2491 -2.0007 20.3662 5.0382 -9.0582
# 5 -11.8707 -15.1367 -13.9793 5.0382 44.3597 5.8798
# 6 -4.9018 -7.7979 -9.2870 -9.0582 5.8798 30.3438
#
#
#
# Elastic Compliance Matrix: (Units=1/GPa)
#
#
# Indices 1 2 3 4 5 6 
#
# 1 0.006578 -0.000287 -0.001981 0.001384 0.000796 0.000642
# 2 -0.000287 0.047358 0.000030 -0.014515 0.017148 0.004477
# 3 -0.001981 0.000030 0.010808 0.001359 0.002341 0.002948
# 4 0.001384 -0.014515 0.001359 0.065269 -0.014102 0.019126
# 5 0.000796 0.017148 0.002341 -0.014102 0.031621 -0.005085
# 6 0.000642 0.004477 0.002948 0.019126 -0.005085 0.041807
#
#
# Mechanical properties :
#
#
# Convention : Reuss Voigt Hill
#
# Bulk Modulus (GPa) = 16.59256 43.16659 29.87957
# Shear Modulus (GPa) = 21.92933 35.98252 28.95593
#
# Velocity S-wave (km/s) = 2.96540 3.79854 3.40753
# Velocity P-wave (km/s) = 4.28700 6.04552 5.24055
#
# Compressibility (1/GPa) = 0.06026799
#
# Stress axis : x y z
#
# Youngs Moduli (GPa) = 152.01217 21.11589 92.52784
#
# Poissons Ratio (x) = 0.00605 0.18331
# Poissons Ratio (y) = 0.04357 -0.00277
# Poissons Ratio (z) = 0.30116 -0.00063
#
# Static dielectric constant tensor:
#      x y z
#    x 1.738610 -0.284430 0.133460 
#    y -0.284430 1.754440 0.157540 
#    z 0.133460 0.157540 1.864460 
# 
# From -- ./inp_files/207873.got.cif
#   From: 2010.05.17/outbox.cif.g08.bks.cpg/sg2_104_cif.got.tgz:207873.got - 2010.06.03 11:33:40.
