data_PCOD9018631
_publ_section_title
;
Structure prediction by ZEFSAII (Michael W. Deem and Ramdas Pophale) SiO2 
 PCOD9018631
Probable space group: P -1
;
_chemical_formula_sum "Si O2"
_cell_formula_units_Z 15
_cell_length_a 19.170221
_cell_length_b 5.280565
_cell_length_c 11.109664
_cell_angle_alpha 96.345310
_cell_angle_beta 152.014737
_cell_angle_gamma 85.220486
_cell_volume 524.246205
_symmetry_space_group_name_H-M "P -1"
_symmetry_group_IT_number 2
_symmetry_cell_setting 'triclinic'
loop_
_space_group_symop_operation_xyz
x,y,z
-x,-y,-z
loop_
_atom_site_type_symbol
_atom_site_label
_atom_site_fract_x
_atom_site_fract_y
_atom_site_fract_z
Si Si1 0.402629 0.242070 0.326677
Si Si2 0.060707 0.738603 0.885163
Si Si3 0.285978 0.310106 0.390708
Si Si4 0.417716 0.961339 0.109567
Si Si5 0.874111 0.270324 0.289679
Si Si6 0.000000 0.000000 0.000000
Si Si7 0.573409 0.305575 0.194090
Si Si8 0.892820 0.201920 0.576382
O O1 0.500000 0.500000 0.500000
O O2 0.271652 0.297975 0.223214
O O3 0.351933 0.169739 0.112093
O O4 0.500000 0.000000 0.500000
O O5 0.125593 0.783474 0.117555
O O6 0.964153 0.482731 0.708823
O O7 0.139788 0.779071 0.878598
O O8 0.965496 0.003787 0.768325
O O9 0.368937 0.547714 0.591770
O O10 0.417377 0.111898 0.606104
O O11 0.130665 0.229374 0.205276
O O12 0.450164 0.101882 0.041378
O O13 0.301203 0.722249 0.937251
O O14 0.915580 0.107839 0.467424
O O15 0.000000 0.500000 0.500000
O O16 0.725002 0.216533 0.361514
O O17 0.500000 0.500000 0.000000
#
# Coordination Sequence:
#
# PCOD9018631 Si02
#       8
#     2   2   2   2   2   1   2   2
#     4  10  21  43  73 104 146 191 249 310 373 454
#     4  11  25  48  72 110 146 200 245 323 374 458
#     4  11  24  46  70 111 148 200 250 313 379 460
#     4  11  24  46  75 108 153 200 253 322 388 454
#     4  10  24  48  77 109 147 200 260 317 379 460
#     4  12  24  46  76 106 158 194 256 304 390 448
#     4  12  26  43  74 107 151 199 254 312 383 461
#     4  11  25  48  73 104 155 193 259 307 382 446
#
# _framework density 28.612511999999999
#
# number of rings (size 3 to 8) (size 9 to 14) (size 15 to 20)
#    0.000    1.067    2.667    2.800    1.867    1.600 
#    7.200    4.000    0.000    0.000    0.000    0.000 
#    0.000    0.000    0.000    0.000    0.000    0.000 
#
# Total GULP energy -83724.465065 kJ/mol
# GULP energy per Si atom -5581.631004 kJ/mol
# Density = 2.854739 g / cm^3
# Si number density = 28.612512 Si / 1000 Ang^3
#
#
#
# Elastic Constant Matrix: (Units=GPa)
#
#
# Indices 1 2 3 4 5 6 
#
# 1 250.3683 49.2585 51.8050 23.8061 3.5568 12.9552
# 2 49.2585 91.5511 56.0650 25.7256 17.5360 18.3196
# 3 51.8050 56.0650 142.5897 9.5677 23.6338 12.2636
# 4 23.8061 25.7256 9.5677 42.3675 0.5192 -7.1316
# 5 3.5568 17.5360 23.6338 0.5192 63.5747 24.0058
# 6 12.9552 18.3196 12.2636 -7.1316 24.0058 50.5658
#
#
#
# Elastic Compliance Matrix: (Units=1/GPa)
#
#
# Indices 1 2 3 4 5 6 
#
# 1 0.004702 -0.001261 -0.001149 -0.001829 0.000976 -0.001191
# 2 -0.001261 0.019787 -0.005906 -0.011095 -0.000568 -0.006708
# 3 -0.001149 -0.005906 0.009893 0.002299 -0.002606 0.001596
# 4 -0.001829 -0.011095 0.002299 0.032411 -0.001422 0.009177
# 5 0.000976 -0.000568 -0.002606 -0.001422 0.020306 -0.009253
# 6 -0.001191 -0.006708 0.001596 0.009177 -0.009253 0.027812
#
#
# Mechanical properties :
#
#
# Convention : Reuss Voigt Hill
#
# Bulk Modulus (GPa) = 56.34030 88.75178 72.54604
# Shear Modulus (GPa) = 36.37446 53.12696 44.75071
#
# Velocity S-wave (km/s) = 3.56937 4.31370 3.95907
# Velocity P-wave (km/s) = 6.05976 7.47640 6.80505
#
# Compressibility (1/GPa) = 0.01774928
#
# Stress axis : x y z
#
# Youngs Moduli (GPa) = 212.69368 50.53828 101.07730
#
# Poissons Ratio (x) = 0.06371 0.11615
# Poissons Ratio (y) = 0.26814 0.59701
# Poissons Ratio (z) = 0.24442 0.29850
#
# Static dielectric constant tensor:
#      x y z
#    x 2.856710 -0.016430 -0.553880 
#    y -0.016430 2.316950 -0.128590 
#    z -0.553880 -0.128590 2.538940 
# 
# From -- ./inp_files/468159.got.cif
#   From: 2010.05.17/outbox.cif.g08.bks.cpg/sg2_235_cif.got.tgz:468159.got - 2010.06.03 11:33:40.
