data_PCOD9018857
_publ_section_title
;
Structure prediction by ZEFSAII (Michael W. Deem and Ramdas Pophale) SiO2 
 PCOD9018857
Probable space group: P -1
;
_chemical_formula_sum "Si O2"
_cell_formula_units_Z 16
_cell_length_a 7.900433
_cell_length_b 14.482367
_cell_length_c 14.428499
_cell_angle_alpha 27.789716
_cell_angle_beta 116.312349
_cell_angle_gamma 115.462015
_cell_volume 687.109830
_symmetry_space_group_name_H-M "P -1"
_symmetry_group_IT_number 2
_symmetry_cell_setting 'triclinic'
loop_
_space_group_symop_operation_xyz
x,y,z
-x,-y,-z
loop_
_atom_site_type_symbol
_atom_site_label
_atom_site_fract_x
_atom_site_fract_y
_atom_site_fract_z
Si Si1 0.101805 0.206502 0.141176
Si Si2 0.041455 0.768725 0.717558
Si Si3 0.482465 0.327378 0.866501
Si Si4 0.637045 0.244632 0.506821
Si Si5 0.478402 0.839529 0.771766
Si Si6 0.003803 0.254783 0.473758
Si Si7 0.214434 0.952762 0.098210
Si Si8 0.837073 0.356676 0.800376
O O1 0.329936 0.193498 0.209725
O O2 0.034698 0.300329 0.138258
O O3 0.995365 0.982335 0.307698
O O4 0.033951 0.306234 0.941721
O O5 0.266573 0.760520 0.762577
O O6 0.949129 0.685595 0.673919
O O7 0.000000 0.000000 0.500000
O O8 0.428532 0.551901 0.652103
O O9 0.683882 0.317944 0.877264
O O10 0.490532 0.263628 0.031374
O O11 0.340939 0.160067 0.931529
O O12 0.792066 0.286327 0.427442
O O13 0.734894 0.135049 0.712016
O O14 0.481097 0.077632 0.577757
O O15 0.138322 0.410327 0.427727
O O16 0.229621 0.785236 0.173569
O O17 0.000000 0.000000 0.000000
#
# Coordination Sequence:
#
# PCOD9018857 Si02
#       8
#     2   2   2   2   2   2   2   2
#     4  10  22  42  67  91 134 176 210 272 320 375
#     4  10  22  40  66  99 128 171 222 264 324 385
#     4  11  24  41  65  96 128 172 212 267 327 382
#     4  10  23  41  66  95 128 170 215 264 322 385
#     4  10  21  44  65  94 136 172 216 267 322 381
#     4  10  23  40  62  95 125 169 217 260 324 377
#     4  11  24  43  68  93 127 170 217 265 327 388
#     4  12  24  41  65  94 132 167 216 269 320 388
#
# _framework density 23.285941000000001
#
# number of rings (size 3 to 8) (size 9 to 14) (size 15 to 20)
#    0.000    1.500    1.250    4.125    3.500    8.500 
#    0.000    1.250    0.000    0.000    0.000    0.000 
#    0.000    0.000    0.000    0.000    0.000    0.000 
#
# Total GULP energy -89437.441010 kJ/mol
# GULP energy per Si atom -5589.840063 kJ/mol
# Density = 2.323294 g / cm^3
# Si number density = 23.285941 Si / 1000 Ang^3
#
#
#
# Elastic Constant Matrix: (Units=GPa)
#
#
# Indices 1 2 3 4 5 6 
#
# 1 99.4303 31.4063 16.9153 -7.5849 -3.6940 -0.5586
# 2 31.4063 80.2068 10.2848 -15.1728 4.7026 -8.5817
# 3 16.9153 10.2848 63.8643 -14.4107 -4.5965 0.9747
# 4 -7.5849 -15.1728 -14.4107 33.1320 -2.4081 -6.3007
# 5 -3.6940 4.7026 -4.5965 -2.4081 27.6133 -0.8838
# 6 -0.5586 -8.5817 0.9747 -6.3007 -0.8838 38.2192
#
#
#
# Elastic Compliance Matrix: (Units=1/GPa)
#
#
# Indices 1 2 3 4 5 6 
#
# 1 0.011968 -0.004672 -0.002367 -0.000448 0.001937 -0.000843
# 2 -0.004672 0.016299 -0.000053 0.007073 -0.002643 0.004698
# 3 -0.002367 -0.000053 0.018289 0.007801 0.003444 0.000853
# 4 -0.000448 0.007073 0.007801 0.038461 0.003638 0.007807
# 5 0.001937 -0.002643 0.003444 0.003638 0.037841 0.000822
# 6 -0.000843 0.004698 0.000853 0.007807 0.000822 0.028492
#
#
# Mechanical properties :
#
#
# Convention : Reuss Voigt Hill
#
# Bulk Modulus (GPa) = 30.88949 40.07936 35.48442
# Shear Modulus (GPa) = 28.35689 32.11922 30.23806
#
# Velocity S-wave (km/s) = 3.49344 3.71798 3.60746
# Velocity P-wave (km/s) = 5.43749 5.97330 5.71168
#
# Compressibility (1/GPa) = 0.03237347
#
# Stress axis : x y z
#
# Youngs Moduli (GPa) = 83.55277 61.35192 54.67843
#
# Poissons Ratio (x) = 0.28661 0.12940
# Poissons Ratio (y) = 0.39032 0.00292
# Poissons Ratio (z) = 0.19774 0.00328
#
# Static dielectric constant tensor:
#      x y z
#    x 1.861260 -0.010400 0.003740 
#    y -0.010400 1.909840 -0.024330 
#    z 0.003740 -0.024330 1.903060 
# 
# From -- ./inp_files/503732.got.cif
#   From: 2010.05.17/outbox.cif.g08.bks.cpg/sg2_252_cif.got.tgz:503732.got - 2010.06.03 11:33:40.
