data_PCOD9018340
_publ_section_title
;
Structure prediction by ZEFSAII (Michael W. Deem and Ramdas Pophale) SiO2 
 PCOD9018340
Probable space group: P -1
;
_chemical_formula_sum "Si O2"
_cell_formula_units_Z 12
_cell_length_a 8.481114
_cell_length_b 5.316900
_cell_length_c 11.607720
_cell_angle_alpha 83.557201
_cell_angle_beta 118.601608
_cell_angle_gamma 109.803663
_cell_volume 431.584710
_symmetry_space_group_name_H-M "P -1"
_symmetry_group_IT_number 2
_symmetry_cell_setting 'triclinic'
loop_
_space_group_symop_operation_xyz
x,y,z
-x,-y,-z
loop_
_atom_site_type_symbol
_atom_site_label
_atom_site_fract_x
_atom_site_fract_y
_atom_site_fract_z
Si Si1 0.639656 0.300167 0.158098
Si Si2 0.982795 0.255891 0.418454
Si Si3 0.769026 0.146210 0.997568
Si Si4 0.688090 0.324300 0.584543
Si Si5 0.523162 0.553173 0.702618
Si Si6 0.109043 0.965929 0.186687
O O1 0.596916 0.513618 0.218659
O O2 0.788390 0.200823 0.285870
O O3 0.732904 0.362839 0.061029
O O4 0.439245 0.067354 0.085149
O O5 0.162355 0.377820 0.391402
O O6 0.000000 0.500000 0.500000
O O7 0.000000 0.000000 0.500000
O O8 0.906514 0.004955 0.114195
O O9 0.867043 0.217573 0.903503
O O10 0.549248 0.322202 0.642759
O O11 0.570856 0.284784 0.427135
O O12 0.822128 0.153099 0.671309
O O13 0.731543 0.748558 0.796513
#
# Coordination Sequence:
#
# PCOD9018340 Si02
#       6
#     2   2   2   2   2   2
#     4  10  21  44  67 103 146 187 244 295 365 431
#     4  12  28  48  76 111 148 190 243 310 378 437
#     4   9  21  41  72  99 145 195 238 300 349 442
#     4  11  24  41  68 102 140 190 237 305 367 436
#     4  10  22  40  66 102 139 184 240 302 367 434
#     4  10  21  43  69  99 142 188 244 292 366 428
#
# _framework density 27.804504999999999
#
# number of rings (size 3 to 8) (size 9 to 14) (size 15 to 20)
#    0.000    1.667    1.667    1.500    4.667    5.333 
#    0.000   15.000    0.000    0.000    0.000    0.000 
#    0.000    0.000    0.000    0.000    0.000    0.000 
#
# Total GULP energy -67244.579435 kJ/mol
# GULP energy per Si atom -5603.714953 kJ/mol
# Density = 2.774122 g / cm^3
# Si number density = 27.804505 Si / 1000 Ang^3
#
#
#
# Elastic Constant Matrix: (Units=GPa)
#
#
# Indices 1 2 3 4 5 6 
#
# 1 179.7799 42.4198 84.2875 20.6063 -22.9658 -5.3895
# 2 42.4198 95.2812 39.6447 -3.6690 10.6220 -11.3828
# 3 84.2875 39.6447 153.8563 7.3799 44.3346 -16.5171
# 4 20.6063 -3.6690 7.3799 34.9272 -12.0176 2.2576
# 5 -22.9658 10.6220 44.3346 -12.0176 86.5555 20.8769
# 6 -5.3895 -11.3828 -16.5171 2.2576 20.8769 35.7626
#
#
#
# Elastic Compliance Matrix: (Units=1/GPa)
#
#
# Indices 1 2 3 4 5 6 
#
# 1 0.012630 -0.003938 -0.010381 -0.000963 0.011642 -0.010880
# 2 -0.003938 0.013312 0.000523 0.001762 -0.004204 0.006228
# 3 -0.010381 0.000523 0.019458 -0.005302 -0.017961 0.018409
# 4 -0.000963 0.001762 -0.005302 0.034342 0.009340 -0.009653
# 5 0.011642 -0.004204 -0.017961 0.009340 0.032237 -0.027287
# 6 -0.010880 0.006228 0.018409 -0.009653 -0.027287 0.053346
#
#
# Mechanical properties :
#
#
# Convention : Reuss Voigt Hill
#
# Bulk Modulus (GPa) = 56.15837 84.62460 70.39148
# Shear Modulus (GPa) = 25.14425 48.95342 37.04884
#
# Velocity S-wave (km/s) = 3.01046 4.20054 3.65427
# Velocity P-wave (km/s) = 5.68553 7.35035 6.57088
#
# Compressibility (1/GPa) = 0.01780678
#
# Stress axis : x y z
#
# Youngs Moduli (GPa) = 79.17639 75.12257 51.39248
#
# Poissons Ratio (x) = 0.29586 0.53350
# Poissons Ratio (y) = 0.31183 -0.02687
# Poissons Ratio (z) = 0.82193 -0.03928
#
# Static dielectric constant tensor:
#      x y z
#    x 2.180370 -0.037370 -0.079640 
#    y -0.037370 2.132030 0.035720 
#    z -0.079640 0.035720 2.168170 
# 
# From -- ./inp_files/372128.got.cif
#   From: 2010.05.17/outbox.cif.g08.bks.cpg/sg2_187_cif.got.tgz:372128.got - 2010.06.03 11:33:40.
