data_PCOD9018480
_publ_section_title
;
Structure prediction by ZEFSAII (Michael W. Deem and Ramdas Pophale) SiO2 
 PCOD9018480
Probable space group: P -1
;
_chemical_formula_sum "Si O2"
_cell_formula_units_Z 13
_cell_length_a 8.586954
_cell_length_b 8.949556
_cell_length_c 8.496603
_cell_angle_alpha 73.921470
_cell_angle_beta 106.027621
_cell_angle_gamma 123.496770
_cell_volume 516.987377
_symmetry_space_group_name_H-M "P -1"
_symmetry_group_IT_number 2
_symmetry_cell_setting 'triclinic'
loop_
_space_group_symop_operation_xyz
x,y,z
-x,-y,-z
loop_
_atom_site_type_symbol
_atom_site_label
_atom_site_fract_x
_atom_site_fract_y
_atom_site_fract_z
Si Si1 0.425104 0.711131 0.147614
Si Si2 0.413776 0.341818 0.319842
Si Si3 0.591521 0.944520 0.403820
Si Si4 0.000000 0.500000 0.000000
Si Si5 0.838060 0.574030 0.331440
Si Si6 0.212610 0.167736 0.988628
Si Si7 0.964645 0.312206 0.331218
O O1 0.424709 0.534775 0.272616
O O2 0.437724 0.836231 0.258667
O O3 0.619099 0.829166 0.068246
O O4 0.232357 0.638836 0.019914
O O5 0.336552 0.189092 0.476653
O O6 0.633880 0.402879 0.357950
O O7 0.311152 0.243674 0.160392
O O8 0.500000 0.000000 0.500000
O O9 0.769683 0.127045 0.339014
O O10 0.968563 0.645781 0.841253
O O11 0.817025 0.687871 0.156515
O O12 0.961094 0.496963 0.313097
O O13 0.918080 0.682779 0.484110
O O14 0.000000 0.000000 0.000000
#
# Coordination Sequence:
#
# PCOD9018480 Si02
#       7
#     2   2   2   1   2   2   2
#     4  11  27  47  76 110 153 204 257 310 380 462
#     4  11  22  48  74 106 149 201 255 309 383 455
#     4  12  26  46  72 114 158 200 253 319 378 454
#     4  12  26  48  70 114 150 196 252 310 384 454
#     4  10  21  43  71 101 143 198 248 296 380 447
#     4  11  24  47  79 111 151 198 258 322 378 455
#     4  11  24  42  70 103 148 198 244 310 375 448
#
# _framework density 25.145682999999998
#
# number of rings (size 3 to 8) (size 9 to 14) (size 15 to 20)
#    0.000    0.923    1.538    6.000    2.154    4.308 
#    2.769    4.615    0.000    0.000    0.000    0.000 
#    0.000    0.000    0.000    0.000    0.000    0.000 
#
# Total GULP energy -72502.273944 kJ/mol
# GULP energy per Si atom -5577.097996 kJ/mol
# Density = 2.508845 g / cm^3
# Si number density = 25.145683 Si / 1000 Ang^3
#
#
#
# Elastic Constant Matrix: (Units=GPa)
#
#
# Indices 1 2 3 4 5 6 
#
# 1 100.8541 37.6343 0.9095 13.4325 -8.9149 14.5001
# 2 37.6343 129.1465 39.7795 6.7078 -21.2002 32.2292
# 3 0.9095 39.7795 96.8590 2.2857 3.3855 12.4779
# 4 13.4325 6.7078 2.2857 50.0973 7.1070 -7.2337
# 5 -8.9149 -21.2002 3.3855 7.1070 26.3619 -2.5944
# 6 14.5001 32.2292 12.4779 -7.2337 -2.5944 44.0805
#
#
#
# Elastic Compliance Matrix: (Units=1/GPa)
#
#
# Indices 1 2 3 4 5 6 
#
# 1 0.011997 -0.002567 0.001314 -0.003712 0.002539 -0.002901
# 2 -0.002567 0.014087 -0.005042 -0.003726 0.011328 -0.007973
# 3 0.001314 -0.005042 0.012635 0.000431 -0.005405 -0.000570
# 4 -0.003712 -0.003726 0.000431 0.023894 -0.010045 0.007153
# 5 0.002539 0.011328 -0.005405 -0.010045 0.050689 -0.006253
# 6 -0.002901 -0.007973 -0.000570 0.007153 -0.006253 0.030436
#
#
# Mechanical properties :
#
#
# Convention : Reuss Voigt Hill
#
# Bulk Modulus (GPa) = 38.27200 53.72292 45.99746
# Shear Modulus (GPa) = 30.29593 40.67705 35.48649
#
# Velocity S-wave (km/s) = 3.47481 4.02637 3.76072
# Velocity P-wave (km/s) = 5.59931 6.55947 6.09831
#
# Compressibility (1/GPa) = 0.02612876
#
# Stress axis : x y z
#
# Youngs Moduli (GPa) = 83.35100 70.98683 79.14540
#
# Poissons Ratio (x) = 0.18225 -0.10403
# Poissons Ratio (y) = 0.21399 0.39908
# Poissons Ratio (z) = -0.10955 0.35794
#
# Static dielectric constant tensor:
#      x y z
#    x 2.117490 -0.014730 -0.012580 
#    y -0.014730 1.953440 0.005750 
#    z -0.012580 0.005750 1.946690 
# 
# From -- ./inp_files/157749.got.cif
#   From: 2010.05.17/outbox.cif.g08.bks.cpg/sg2_79_cif.got.tgz:157749.got - 2010.06.03 11:33:40.
