data_PCOD9018566
_publ_section_title
;
Structure prediction by ZEFSAII (Michael W. Deem and Ramdas Pophale) SiO2 
 PCOD9018566
Probable space group: P -1
;
_chemical_formula_sum "Si O2"
_cell_formula_units_Z 16
_cell_length_a 9.039011
_cell_length_b 15.471019
_cell_length_c 16.772505
_cell_angle_alpha 38.069363
_cell_angle_beta 149.942497
_cell_angle_gamma 136.062951
_cell_volume 718.684221
_symmetry_space_group_name_H-M "P -1"
_symmetry_group_IT_number 2
_symmetry_cell_setting 'triclinic'
loop_
_space_group_symop_operation_xyz
x,y,z
-x,-y,-z
loop_
_atom_site_type_symbol
_atom_site_label
_atom_site_fract_x
_atom_site_fract_y
_atom_site_fract_z
Si Si1 0.496434 0.220651 0.516049
Si Si2 0.852532 0.138923 0.223419
Si Si3 0.631786 0.469342 0.497363
Si Si4 0.850709 0.406850 0.924058
Si Si5 0.862377 0.019583 0.658847
Si Si6 0.194290 0.680585 0.571340
Si Si7 0.240813 0.259390 0.098097
Si Si8 0.695208 0.937082 0.862873
O O1 0.615761 0.303674 0.590177
O O2 0.620628 0.311039 0.430789
O O3 0.604096 0.066349 0.672296
O O4 0.139238 0.205980 0.359005
O O5 0.572596 0.086390 0.183068
O O6 0.768030 0.255673 0.037269
O O7 0.987377 0.016008 0.327731
O O8 0.500000 0.500000 0.500000
O O9 0.421282 0.529031 0.289372
O O10 0.962291 0.546495 0.580098
O O11 0.000000 0.500000 0.000000
O O12 0.065104 0.378010 0.969901
O O13 0.973074 0.180048 0.614336
O O14 0.500000 0.000000 0.500000
O O15 0.923628 0.891801 0.837043
O O16 0.434269 0.708414 0.733755
O O17 0.280728 0.213568 0.059218
O O18 0.000000 0.000000 0.000000
#
# Coordination Sequence:
#
# PCOD9018566 Si02
#       8
#     2   2   2   2   2   2   2   2
#     4  12  23  48  70  99 143 188 241 286 365 432
#     4  11  23  43  77 100 135 191 236 294 354 425
#     4  12  30  43  68 107 145 186 237 298 358 427
#     4  11  23  48  74 101 143 187 244 289 356 437
#     4   9  16  36  69 100 124 168 234 284 340 417
#     4  11  21  43  72 100 133 186 236 286 358 429
#     4  10  21  43  72 100 136 180 237 293 354 424
#     4  12  29  43  68 110 150 180 238 306 362 416
#
# _framework density 22.262907999999999
#
# number of rings (size 3 to 8) (size 9 to 14) (size 15 to 20)
#    0.000    1.000    6.250    1.500    7.000    0.000 
#    0.000    3.750    0.000    0.000    0.000    0.000 
#    0.000    0.000    0.000    0.000    0.000    0.000 
#
# Total GULP energy -89323.540110 kJ/mol
# GULP energy per Si atom -5582.721257 kJ/mol
# Density = 2.221224 g / cm^3
# Si number density = 22.262908 Si / 1000 Ang^3
#
#
#
# Elastic Constant Matrix: (Units=GPa)
#
#
# Indices 1 2 3 4 5 6 
#
# 1 144.3339 52.9547 23.4574 20.4299 28.7519 -7.4521
# 2 52.9547 84.0331 24.4879 11.9749 20.6909 -9.1595
# 3 23.4574 24.4879 77.7370 10.1821 3.5971 -1.8810
# 4 20.4299 11.9749 10.1821 31.4925 -1.7249 8.3668
# 5 28.7519 20.6909 3.5971 -1.7249 30.3718 -1.3631
# 6 -7.4521 -9.1595 -1.8810 8.3668 -1.3631 44.1405
#
#
#
# Elastic Compliance Matrix: (Units=1/GPa)
#
#
# Indices 1 2 3 4 5 6 
#
# 1 0.011035 -0.003496 -0.000942 -0.006529 -0.008231 0.002081
# 2 -0.003496 0.018505 -0.003598 -0.005104 -0.008991 0.003786
# 3 -0.000942 -0.003598 0.014577 -0.002726 0.001475 0.000278
# 4 -0.006529 -0.005104 -0.002726 0.042091 0.011927 -0.009888
# 5 -0.008231 -0.008991 0.001475 0.011927 0.047166 -0.003997
# 6 0.002081 0.003786 0.000278 -0.009888 -0.003997 0.025555
#
#
# Mechanical properties :
#
#
# Convention : Reuss Voigt Hill
#
# Bulk Modulus (GPa) = 35.65668 56.43379 46.04523
# Shear Modulus (GPa) = 27.12216 34.88123 31.00169
#
# Velocity S-wave (km/s) = 3.49415 3.96256 3.73571
# Velocity P-wave (km/s) = 5.68593 6.80732 6.27174
#
# Compressibility (1/GPa) = 0.02804524
#
# Stress axis : x y z
#
# Youngs Moduli (GPa) = 90.61892 54.03835 68.59928
#
# Poissons Ratio (x) = 0.18889 0.06465
# Poissons Ratio (y) = 0.31676 0.24685
# Poissons Ratio (z) = 0.08540 0.19445
#
# Static dielectric constant tensor:
#      x y z
#    x 1.882710 -0.051510 -0.023520 
#    y -0.051510 1.852430 -0.046290 
#    z -0.023520 -0.046290 1.854300 
# 
# From -- ./inp_files/299591.got.cif
#   From: 2010.05.17/outbox.cif.g08.bks.cpg/sg2_150_cif.got.tgz:299591.got - 2010.06.03 11:33:40.
