data_PCOD9018835
_publ_section_title
;
Structure prediction by ZEFSAII (Michael W. Deem and Ramdas Pophale) SiO2 
 PCOD9018835
Probable space group: P -1
;
_chemical_formula_sum "Si O2"
_cell_formula_units_Z 14
_cell_length_a 13.594863
_cell_length_b 13.776183
_cell_length_c 8.785076
_cell_angle_alpha 96.489322
_cell_angle_beta 107.437899
_cell_angle_gamma 23.137006
_cell_volume 555.783182
_symmetry_space_group_name_H-M "P -1"
_symmetry_group_IT_number 2
_symmetry_cell_setting 'triclinic'
loop_
_space_group_symop_operation_xyz
x,y,z
-x,-y,-z
loop_
_atom_site_type_symbol
_atom_site_label
_atom_site_fract_x
_atom_site_fract_y
_atom_site_fract_z
Si Si1 0.118069 0.126272 0.795821
Si Si2 0.459712 0.117796 0.175375
Si Si3 0.934393 0.714016 0.922137
Si Si4 0.654491 0.328192 0.885182
Si Si5 0.427512 0.370523 0.579038
Si Si6 0.389110 0.988499 0.443711
Si Si7 0.299660 0.793859 0.622041
O O1 0.857718 0.352145 0.597159
O O2 0.260348 0.108457 0.834580
O O3 0.295966 0.875742 0.774396
O O4 0.056600 0.195149 0.958341
O O5 0.344913 0.110973 0.150858
O O6 0.565769 0.075206 0.371224
O O7 0.204068 0.408076 0.036912
O O8 0.913185 0.751524 0.738144
O O9 0.499737 0.367521 0.759755
O O10 0.556834 0.491454 0.735440
O O11 0.500000 0.500000 0.000000
O O12 0.000000 0.000000 0.000000
O O13 0.423325 0.259864 0.595765
O O14 0.658850 0.192799 0.521609
O O15 0.500000 0.000000 0.500000
O O16 0.000000 0.000000 0.500000
#
# Coordination Sequence:
#
# PCOD9018835 Si02
#       7
#     2   2   2   2   2   2   2
#     4  12  23  42  73 102 145 194 260 302 399 458
#     4  10  21  44  65 101 146 195 247 313 379 462
#     4  10  22  41  70 101 144 194 251 310 378 456
#     4  12  30  50  79 117 156 196 271 339 396 472
#     4  12  26  48  76 103 154 204 255 322 400 471
#     4  10  22  45  71 103 149 196 248 315 383 462
#     4  12  26  49  77 106 145 207 258 321 402 479
#
# _framework density 25.189679000000002
#
# number of rings (size 3 to 8) (size 9 to 14) (size 15 to 20)
#    0.000    0.857    4.286    1.714    4.000    1.143 
#    2.571    1.429    0.000    0.000    0.000    0.000 
#    0.000    0.000    0.000    0.000    0.000    0.000 
#
# Total GULP energy -78129.360767 kJ/mol
# GULP energy per Si atom -5580.668626 kJ/mol
# Density = 2.513235 g / cm^3
# Si number density = 25.189679 Si / 1000 Ang^3
#
#
#
# Elastic Constant Matrix: (Units=GPa)
#
#
# Indices 1 2 3 4 5 6 
#
# 1 -124.6605 -51.7254 -19.5647 -180.2618 113.9589 72.7172
# 2 -51.7254 50.7062 43.0826 -60.4323 53.7881 40.5628
# 3 -19.5647 43.0826 208.2949 -21.6413 35.9700 30.0949
# 4 -180.2618 -60.4323 -21.6413 -99.2499 95.7263 58.7169
# 5 113.9589 53.7881 35.9700 95.7263 2.3084 -33.1809
# 6 72.7172 40.5628 30.0949 58.7169 -33.1809 31.8221
#
#
#
# Elastic Compliance Matrix: (Units=1/GPa)
#
#
# Indices 1 2 3 4 5 6 
#
# 1 0.008248 -0.005521 0.000147 -0.005799 0.004168 0.003097
# 2 -0.005521 0.017625 -0.003833 -0.002758 -0.001401 -0.002598
# 3 0.000147 -0.003833 0.005821 -0.000494 -0.000800 -0.000878
# 4 -0.005799 -0.002758 -0.000494 0.010021 0.005388 0.004362
# 5 0.004168 -0.001401 -0.000800 0.005388 0.013874 -0.002455
# 6 0.003097 -0.002598 -0.000878 0.004362 -0.002455 0.017884
#
#
# Mechanical properties :
#
#
# Convention : Reuss Voigt Hill
#
# Bulk Modulus (GPa) = 75.29828 8.65840 41.97834
# Shear Modulus (GPa) = 51.91350 -2.18734 24.86308
#
# Velocity S-wave (km/s) = 4.54464 -0.93286 3.14512
# Velocity P-wave (km/s) = 7.58260 1.51143 5.46718
#
# Compressibility (1/GPa) = 0.01328052
#
# Stress axis : x y z
#
# Youngs Moduli (GPa) = 121.23927 56.73732 171.78260
#
# Poissons Ratio (x) = 0.31324 -0.02525
# Poissons Ratio (y) = 0.66935 0.65846
# Poissons Ratio (z) = -0.01782 0.21748
#
# Static dielectric constant tensor:
#      x y z
#    x 2.398040 -0.562760 -0.397560 
#    y -0.562760 2.851960 0.551350 
#    z -0.397560 0.551350 2.392140 
# 
# From -- ./inp_files/313574.got.cif
#   From: 2010.05.17/outbox.cif.g08.bks.cpg/sg2_157_cif.got.tgz:313574.got - 2010.06.03 11:33:40.
