data_PCOD9018643
_publ_section_title
;
Structure prediction by ZEFSAII (Michael W. Deem and Ramdas Pophale) SiO2 
 PCOD9018643
Probable space group: P -1
;
_chemical_formula_sum "Si O2"
_cell_formula_units_Z 16
_cell_length_a 14.068002
_cell_length_b 9.196403
_cell_length_c 13.906329
_cell_angle_alpha 82.277916
_cell_angle_beta 33.702885
_cell_angle_gamma 104.443642
_cell_volume 745.860350
_symmetry_space_group_name_H-M "P -1"
_symmetry_group_IT_number 2
_symmetry_cell_setting 'triclinic'
loop_
_space_group_symop_operation_xyz
x,y,z
-x,-y,-z
loop_
_atom_site_type_symbol
_atom_site_label
_atom_site_fract_x
_atom_site_fract_y
_atom_site_fract_z
Si Si1 0.069885 0.378388 0.159958
Si Si2 0.270431 0.057934 0.518170
Si Si3 0.094536 0.008878 0.022033
Si Si4 0.260489 0.610086 0.802509
Si Si5 0.994747 0.316579 0.771348
Si Si6 0.456393 0.607571 0.451664
Si Si7 0.739470 0.691630 0.818509
Si Si8 0.998059 0.884384 0.395178
O O1 0.205927 0.369382 0.127352
O O2 0.063241 0.546551 0.177841
O O3 0.191451 0.437086 0.948301
O O4 0.824496 0.161027 0.389604
O O5 0.526697 0.206704 0.329180
O O6 0.205123 0.120580 0.473608
O O7 0.090903 0.031763 0.745328
O O8 0.340596 0.216763 0.796881
O O9 0.114241 0.846801 0.039606
O O10 0.000000 0.000000 0.000000
O O11 0.369975 0.673031 0.598488
O O12 0.000000 0.500000 0.000000
O O13 0.260692 0.451825 0.558078
O O14 0.948953 0.211765 0.718396
O O15 0.500000 0.500000 0.500000
O O16 0.916021 0.771186 0.574705
O O17 0.500000 0.500000 0.000000
O O18 0.785655 0.887416 0.791163
#
# Coordination Sequence:
#
# PCOD9018643 Si02
#       8
#     2   2   2   2   2   2   2   2
#     4  11  25  41  62  97 136 173 214 276 339 387
#     4  10  22  41  66  92 131 176 226 274 321 397
#     4  11  21  39  64  88 122 178 234 267 315 378
#     4  12  24  40  60  93 137 179 221 269 325 385
#     4  11  24  41  59  98 135 166 218 275 325 395
#     4  12  22  39  65  90 126 183 229 269 313 386
#     4  10  21  43  73  94 121 166 218 270 334 403
#     4   9  21  42  68  96 122 164 219 271 328 398
#
# _framework density 21.451734999999999
#
# number of rings (size 3 to 8) (size 9 to 14) (size 15 to 20)
#    0.000    1.250    3.750    2.250    0.000    5.000 
#    0.000    0.625    0.000    0.000    0.000    0.000 
#    0.000    0.000    0.000    0.000    0.000    0.000 
#
# Total GULP energy -89136.097543 kJ/mol
# GULP energy per Si atom -5571.006096 kJ/mol
# Density = 2.140291 g / cm^3
# Si number density = 21.451735 Si / 1000 Ang^3
#
#
#
# Elastic Constant Matrix: (Units=GPa)
#
#
# Indices 1 2 3 4 5 6 
#
# 1 88.7467 4.3314 33.0119 -15.9681 8.6486 4.7012
# 2 4.3314 89.2147 31.1160 -19.1689 -8.0577 -1.7555
# 3 33.0119 31.1160 106.3513 -35.0190 -16.7779 -2.0173
# 4 -15.9681 -19.1689 -35.0190 38.1075 11.4129 -0.8641
# 5 8.6486 -8.0577 -16.7779 11.4129 41.8226 -14.8493
# 6 4.7012 -1.7555 -2.0173 -0.8641 -14.8493 35.6636
#
#
#
# Elastic Compliance Matrix: (Units=1/GPa)
#
#
# Indices 1 2 3 4 5 6 
#
# 1 0.014890 0.001121 -0.004765 0.004688 -0.007964 -0.005380
# 2 0.001121 0.013084 -0.002624 0.004601 0.000169 0.000530
# 3 -0.004765 -0.002624 0.015762 0.009583 0.005590 0.003950
# 4 0.004688 0.004601 0.009583 0.041816 -0.008492 -0.002372
# 5 -0.007964 0.000169 0.005590 -0.008492 0.035867 0.016103
# 6 -0.005380 0.000530 0.003950 -0.002372 0.016103 0.035646
#
#
# Mechanical properties :
#
#
# Convention : Reuss Voigt Hill
#
# Bulk Modulus (GPa) = 32.05126 46.80349 39.42737
# Shear Modulus (GPa) = 27.77751 37.50898 32.64325
#
# Velocity S-wave (km/s) = 3.60235 4.18608 3.90514
# Velocity P-wave (km/s) = 5.68121 6.72531 6.22519
#
# Compressibility (1/GPa) = 0.03120002
#
# Stress axis : x y z
#
# Youngs Moduli (GPa) = 67.15786 76.42877 63.44364
#
# Poissons Ratio (x) = -0.08568 0.30230
# Poissons Ratio (y) = -0.07529 0.16650
# Poissons Ratio (z) = 0.32000 0.20058
#
# Static dielectric constant tensor:
#      x y z
#    x 1.780580 0.069160 -0.037600 
#    y 0.069160 2.009440 0.141860 
#    z -0.037600 0.141860 1.959790 
# 
# From -- ./inp_files/529623.got.cif
#   From: 2010.05.17/outbox.cif.g08.bks.cpg/sg2_265_cif.got.tgz:529623.got - 2010.06.03 11:33:40.
