data_PCOD9018810
_publ_section_title
;
Structure prediction by ZEFSAII (Michael W. Deem and Ramdas Pophale) SiO2 
 PCOD9018810
Probable space group: P -1
;
_chemical_formula_sum "Si O2"
_cell_formula_units_Z 16
_cell_length_a 12.794772
_cell_length_b 26.909921
_cell_length_c 8.771886
_cell_angle_alpha 65.567503
_cell_angle_beta 53.889035
_cell_angle_gamma 20.163885
_cell_volume 727.744940
_symmetry_space_group_name_H-M "P -1"
_symmetry_group_IT_number 2
_symmetry_cell_setting 'triclinic'
loop_
_space_group_symop_operation_xyz
x,y,z
-x,-y,-z
loop_
_atom_site_type_symbol
_atom_site_label
_atom_site_fract_x
_atom_site_fract_y
_atom_site_fract_z
Si Si1 0.209642 0.701330 0.502943
Si Si2 0.159826 0.023041 0.259091
Si Si3 0.350882 0.769271 0.284190
Si Si4 0.292785 0.055814 0.842019
Si Si5 0.623975 0.766764 0.975197
Si Si6 0.912217 0.743655 0.187043
Si Si7 0.407248 0.917059 0.674387
Si Si8 0.354367 0.542654 0.775351
O O1 0.398144 0.685304 0.340371
O O2 0.373442 0.597007 0.628451
O O3 0.280017 0.637527 0.372003
O O4 0.746598 0.891928 0.691003
O O5 0.781911 0.168969 0.505177
O O6 0.275590 0.923205 0.192533
O O7 0.528264 0.890821 0.219441
O O8 0.138949 0.078061 0.079672
O O9 0.684950 0.678435 0.060699
O O10 0.984308 0.932254 0.282324
O O11 0.327662 0.005696 0.722285
O O12 0.046889 0.209054 0.866745
O O13 0.491628 0.838525 0.830692
O O14 0.991454 0.657713 0.850681
O O15 0.774749 0.770459 0.427478
O O16 0.249599 0.585121 0.988517
#
# Coordination Sequence:
#
# PCOD9018810 Si02
#       8
#     2   2   2   2   2   2   2   2
#     4  11  20  35  58  79 108 141 180 219 265 318
#     4   9  17  30  52  80 104 135 172 224 262 310
#     4  11  21  32  56  82 109 139 182 216 268 318
#     4  11  17  32  57  80 112 133 177 223 271 306
#     4  10  20  36  52  79 113 143 171 223 268 316
#     4  10  17  30  54  82 103 138 175 224 262 310
#     4  10  20  31  54  80 109 142 174 219 268 316
#     4  10  22  37  56  78 111 141 178 219 270 313
#
# _framework density 21.985724999999999
#
# number of rings (size 3 to 8) (size 9 to 14) (size 15 to 20)
#    0.000    1.750    6.250    2.250    0.000    0.500 
#    0.000    0.625    0.000    0.750    0.000    0.000 
#    0.000    0.000    0.000    0.000    0.000    0.000 
#
# Total GULP energy -89365.104347 kJ/mol
# GULP energy per Si atom -5585.319022 kJ/mol
# Density = 2.193568 g / cm^3
# Si number density = 21.985725 Si / 1000 Ang^3
#
#
#
# Elastic Constant Matrix: (Units=GPa)
#
#
# Indices 1 2 3 4 5 6 
#
# 1 73.2672 31.9984 58.8135 -22.5418 -1.6463 17.2462
# 2 31.9984 60.8677 46.3902 -7.4408 -3.8312 20.7887
# 3 58.8135 46.3902 138.4389 -11.5901 20.4874 14.7512
# 4 -22.5418 -7.4408 -11.5901 26.8104 9.9801 0.6298
# 5 -1.6463 -3.8312 20.4874 9.9801 43.8717 -7.1532
# 6 17.2462 20.7887 14.7512 0.6298 -7.1532 34.4982
#
#
#
# Elastic Compliance Matrix: (Units=1/GPa)
#
#
# Indices 1 2 3 4 5 6 
#
# 1 0.032068 -0.003549 -0.009081 0.022998 -0.001861 -0.010815
# 2 -0.003549 0.027858 -0.007129 0.000562 0.003672 -0.011214
# 3 -0.009081 -0.007129 0.014368 -0.000706 -0.007318 0.001188
# 4 0.022998 0.000562 -0.000706 0.062671 -0.015610 -0.015915
# 5 -0.001861 0.003672 -0.007318 -0.015610 0.031423 0.008647
# 6 -0.010815 -0.011214 0.001188 -0.015915 0.008647 0.042727
#
#
# Mechanical properties :
#
#
# Convention : Reuss Voigt Hill
#
# Bulk Modulus (GPa) = 28.75569 60.77530 44.76550
# Shear Modulus (GPa) = 19.06766 30.06083 24.56425
#
# Velocity S-wave (km/s) = 2.94815 3.70170 3.34620
# Velocity P-wave (km/s) = 4.96955 6.78035 5.94431
#
# Compressibility (1/GPa) = 0.03477572
#
# Stress axis : x y z
#
# Youngs Moduli (GPa) = 31.18362 35.89665 69.60111
#
# Poissons Ratio (x) = 0.12739 0.63206
# Poissons Ratio (y) = 0.11067 0.49617
# Poissons Ratio (z) = 0.28318 0.25590
#
# Static dielectric constant tensor:
#      x y z
#    x 1.839530 -0.014730 -0.020370 
#    y -0.014730 1.830440 0.027170 
#    z -0.020370 0.027170 1.828350 
# 
# From -- ./inp_files/320862.got.cif
#   From: 2010.05.17/outbox.cif.g08.bks.cpg/sg2_161_cif.got.tgz:320862.got - 2010.06.03 11:33:40.
