data_PCOD9018435
_publ_section_title
;
Structure prediction by ZEFSAII (Michael W. Deem and Ramdas Pophale) SiO2 
 PCOD9018435
Probable space group: P -1
;
_chemical_formula_sum "Si O2"
_cell_formula_units_Z 15
_cell_length_a 13.833553
_cell_length_b 8.773426
_cell_length_c 9.136894
_cell_angle_alpha 70.321661
_cell_angle_beta 48.579609
_cell_angle_gamma 97.951377
_cell_volume 672.842255
_symmetry_space_group_name_H-M "P -1"
_symmetry_group_IT_number 2
_symmetry_cell_setting 'triclinic'
loop_
_space_group_symop_operation_xyz
x,y,z
-x,-y,-z
loop_
_atom_site_type_symbol
_atom_site_label
_atom_site_fract_x
_atom_site_fract_y
_atom_site_fract_z
Si Si1 0.634466 0.293675 0.256340
Si Si2 0.188265 0.373578 0.535741
Si Si3 0.721672 0.986728 0.277285
Si Si4 0.102995 0.662158 0.462046
Si Si5 0.428709 0.587142 0.435023
Si Si6 0.267164 0.070793 0.041767
Si Si7 0.000000 0.000000 0.000000
Si Si8 0.172250 0.322209 0.222815
O O1 0.453686 0.157978 0.462563
O O2 0.663015 0.364916 0.372629
O O3 0.716451 0.175046 0.189951
O O4 0.699179 0.474561 0.029702
O O5 0.182964 0.565943 0.491099
O O6 0.340354 0.435170 0.449162
O O7 0.054521 0.208710 0.813231
O O8 0.181260 0.320431 0.390278
O O9 0.767247 0.926687 0.097159
O O10 0.854012 0.996904 0.237599
O O11 0.000000 0.500000 0.500000
O O12 0.984454 0.694276 0.657787
O O13 0.215194 0.861002 0.210458
O O14 0.500000 0.500000 0.500000
O O15 0.556241 0.781447 0.174407
O O16 0.187805 0.158673 0.185777
#
# Coordination Sequence:
#
# PCOD9018435 Si02
#       8
#     2   2   2   2   2   2   1   2
#     4  10  21  43  70  97 129 183 227 269 339 401
#     4  11  25  44  68  96 136 176 225 279 338 400
#     4  10  22  41  68  94 136 183 223 274 335 407
#     4  10  22  42  65  97 134 175 220 277 338 397
#     4  11  23  44  68 100 133 181 220 278 332 402
#     4  11  22  41  69  95 137 177 224 271 338 399
#     4  12  24  42  66  96 134 174 222 284 336 396
#     4  11  22  40  71  99 131 176 224 280 334 399
#
# _framework density 22.293486999999999
#
# number of rings (size 3 to 8) (size 9 to 14) (size 15 to 20)
#    0.000    1.333    1.333    6.000    0.000    1.067 
#    4.800    1.333    0.000    0.000    0.000    0.000 
#    0.000    0.000    0.000    0.000    0.000    0.000 
#
# Total GULP energy -83529.813551 kJ/mol
# GULP energy per Si atom -5568.654237 kJ/mol
# Density = 2.224275 g / cm^3
# Si number density = 22.293487 Si / 1000 Ang^3
#
#
#
# Elastic Constant Matrix: (Units=GPa)
#
#
# Indices 1 2 3 4 5 6 
#
# 1 46.8377 21.0608 2.5890 4.5182 -0.0632 -21.4634
# 2 21.0608 113.6730 43.6785 -2.6223 13.3522 -20.0108
# 3 2.5890 43.6785 121.2797 -26.3726 5.7396 -13.1350
# 4 4.5182 -2.6223 -26.3726 50.4488 -0.9077 4.3582
# 5 -0.0632 13.3522 5.7396 -0.9077 23.7259 -8.4319
# 6 -21.4634 -20.0108 -13.1350 4.3582 -8.4319 31.1379
#
#
#
# Elastic Compliance Matrix: (Units=1/GPa)
#
#
# Indices 1 2 3 4 5 6 
#
# 1 0.035661 -0.004184 0.002127 -0.004381 0.011159 0.026424
# 2 -0.004184 0.012067 -0.004108 -0.001406 -0.005175 0.001933
# 3 0.002127 -0.004108 0.011083 0.005145 0.000909 0.003027
# 4 -0.004381 -0.001406 0.005145 0.023272 -0.001500 -0.005417
# 5 0.011159 -0.005175 0.000909 -0.001500 0.051535 0.018914
# 6 0.026424 0.001933 0.003027 -0.005417 0.018914 0.058728
#
#
# Mechanical properties :
#
#
# Convention : Reuss Voigt Hill
#
# Bulk Modulus (GPa) = 21.51492 46.27189 33.89341
# Shear Modulus (GPa) = 22.70979 35.36000 29.03489
#
# Velocity S-wave (km/s) = 3.19513 3.98692 3.61278
# Velocity P-wave (km/s) = 4.82530 6.48035 5.71308
#
# Compressibility (1/GPa) = 0.04647936
#
# Stress axis : x y z
#
# Youngs Moduli (GPa) = 28.04196 82.87386 90.22855
#
# Poissons Ratio (x) = 0.34678 -0.19189
# Poissons Ratio (y) = 0.11734 0.37064
# Poissons Ratio (z) = -0.05964 0.34043
#
# Static dielectric constant tensor:
#      x y z
#    x 2.939500 0.152540 -0.136240 
#    y 0.152540 1.908900 -0.042800 
#    z -0.136240 -0.042800 1.979760 
# 
# From -- ./inp_files/294753.got.cif
#   From: 2010.05.17/outbox.cif.g08.bks.cpg/sg2_148_cif.got.tgz:294753.got - 2010.06.03 11:33:40.
