data_PCOD9018466
_publ_section_title
;
Structure prediction by ZEFSAII (Michael W. Deem and Ramdas Pophale) SiO2 
 PCOD9018466
Probable space group: P -1
;
_chemical_formula_sum "Si O2"
_cell_formula_units_Z 16
_cell_length_a 16.171558
_cell_length_b 6.856272
_cell_length_c 9.407177
_cell_angle_alpha 73.056357
_cell_angle_beta 50.596338
_cell_angle_gamma 98.384058
_cell_volume 689.442184
_symmetry_space_group_name_H-M "P -1"
_symmetry_group_IT_number 2
_symmetry_cell_setting 'triclinic'
loop_
_space_group_symop_operation_xyz
x,y,z
-x,-y,-z
loop_
_atom_site_type_symbol
_atom_site_label
_atom_site_fract_x
_atom_site_fract_y
_atom_site_fract_z
Si Si1 0.691527 0.873605 0.495441
Si Si2 0.446717 0.880764 0.804775
Si Si3 0.045250 0.595302 0.202734
Si Si4 0.618796 0.733723 0.284149
Si Si5 0.982725 0.780996 0.478299
Si Si6 0.720139 0.475528 0.707084
Si Si7 0.276645 0.566041 0.838751
Si Si8 0.186403 0.657937 0.634000
O O1 0.581863 0.922259 0.654120
O O2 0.681674 0.842319 0.342727
O O3 0.681755 0.647835 0.630137
O O4 0.806283 0.101870 0.372847
O O5 0.394670 0.765896 0.733366
O O6 0.421153 0.098973 0.791642
O O7 0.372271 0.693808 0.043685
O O8 0.984993 0.373229 0.416845
O O9 0.055425 0.801636 0.248390
O O10 0.948706 0.539656 0.196024
O O11 0.167485 0.595046 0.022598
O O12 0.500000 0.500000 0.500000
O O13 0.705646 0.659911 0.114659
O O14 0.844244 0.636591 0.615901
O O15 0.000000 0.000000 0.500000
O O16 0.748867 0.331446 0.587390
O O17 0.255338 0.586672 0.692428
#
# Coordination Sequence:
#
# PCOD9018466 Si02
#       8
#     2   2   2   2   2   2   2   2
#     4  12  24  44  70 102 140 183 236 287 360 416
#     4  12  26  44  72 104 135 186 240 288 349 421
#     4  10  23  42  67 103 137 182 234 284 353 413
#     4  12  25  45  73 100 140 191 237 286 353 418
#     4  10  21  43  70  99 142 186 225 287 352 417
#     4  11  25  45  68 106 142 179 232 291 359 415
#     4  12  23  45  70 102 140 184 239 290 341 427
#     4  11  24  44  70  98 147 183 223 296 357 412
#
# _framework density 23.207167999999999
#
# number of rings (size 3 to 8) (size 9 to 14) (size 15 to 20)
#    0.000    0.750    5.000    2.625    0.000    2.500 
#    0.000    0.625    0.000    0.000    0.000    0.000 
#    0.000    0.000    0.000    0.000    0.000    0.000 
#
# Total GULP energy -89519.680829 kJ/mol
# GULP energy per Si atom -5594.980052 kJ/mol
# Density = 2.315435 g / cm^3
# Si number density = 23.207168 Si / 1000 Ang^3
#
#
#
# Elastic Constant Matrix: (Units=GPa)
#
#
# Indices 1 2 3 4 5 6 
#
# 1 88.4867 26.3896 21.7447 3.1228 -0.4611 -5.4360
# 2 26.3896 145.1551 34.7066 21.1788 -4.9552 -3.9997
# 3 21.7447 34.7066 76.8012 20.8030 -10.9749 -1.7314
# 4 3.1228 21.1788 20.8030 34.0297 -8.1377 10.0486
# 5 -0.4611 -4.9552 -10.9749 -8.1377 32.7255 2.3031
# 6 -5.4360 -3.9997 -1.7314 10.0486 2.3031 52.4519
#
#
#
# Elastic Compliance Matrix: (Units=1/GPa)
#
#
# Indices 1 2 3 4 5 6 
#
# 1 0.012622 -0.001729 -0.003301 0.001483 -0.000880 0.000822
# 2 -0.001729 0.008357 -0.002212 -0.004201 -0.000631 0.001218
# 3 -0.003301 -0.002212 0.017887 -0.008960 0.003273 0.001653
# 4 0.001483 -0.004201 -0.008960 0.041694 0.007365 -0.008773
# 5 -0.000880 -0.000631 0.003273 0.007365 0.033584 -0.002917
# 6 0.000822 0.001218 0.001653 -0.008773 -0.002917 0.021107
#
#
# Mechanical properties :
#
#
# Convention : Reuss Voigt Hill
#
# Bulk Modulus (GPa) = 41.01468 52.90278 46.95873
# Shear Modulus (GPa) = 31.67336 39.01489 35.34412
#
# Velocity S-wave (km/s) = 3.69834 4.10464 3.90678
# Velocity P-wave (km/s) = 5.99572 6.73123 6.37409
#
# Compressibility (1/GPa) = 0.02438151
#
# Stress axis : x y z
#
# Youngs Moduli (GPa) = 79.22941 119.65505 55.90700
#
# Poissons Ratio (x) = 0.20689 0.18455
# Poissons Ratio (y) = 0.13700 0.12367
# Poissons Ratio (z) = 0.26154 0.26468
#
# Static dielectric constant tensor:
#      x y z
#    x 1.865470 0.005170 -0.007640 
#    y 0.005170 1.905530 0.013630 
#    z -0.007640 0.013630 1.904590 
# 
# From -- ./inp_files/84252.got.cif
#   From: 2010.05.17/outbox.cif.g08.bks.cpg/sg2_43_cif.got.tgz:84252.got - 2010.06.03 11:33:40.
