data_PCOD9018129
_publ_section_title
;
Structure prediction by ZEFSAII (Michael W. Deem and Ramdas Pophale) SiO2 
 PCOD9018129
Probable space group: P -1
;
_chemical_formula_sum "Si O2"
_cell_formula_units_Z 12
_cell_length_a 24.330124
_cell_length_b 17.265605
_cell_length_c 8.264930
_cell_angle_alpha 146.217709
_cell_angle_beta 141.268684
_cell_angle_gamma 14.173918
_cell_volume 464.173725
_symmetry_space_group_name_H-M "P -1"
_symmetry_group_IT_number 2
_symmetry_cell_setting 'triclinic'
loop_
_space_group_symop_operation_xyz
x,y,z
-x,-y,-z
loop_
_atom_site_type_symbol
_atom_site_label
_atom_site_fract_x
_atom_site_fract_y
_atom_site_fract_z
Si Si1 0.245671 0.895217 0.536352
Si Si2 0.555495 0.529770 0.043375
Si Si3 0.943874 0.782154 0.028043
Si Si4 0.268993 0.428894 0.915085
Si Si5 0.735559 0.822682 0.046930
Si Si6 0.654275 0.663440 0.419655
O O1 0.500000 0.500000 0.500000
O O2 0.103176 0.051653 0.635218
O O3 0.260289 0.805127 0.238602
O O4 0.209157 0.114008 0.803174
O O5 0.653504 0.537469 0.322844
O O6 0.500000 0.500000 0.000000
O O7 0.302801 0.921830 0.064026
O O8 0.134958 0.394573 0.863965
O O9 0.044284 0.719946 0.000912
O O10 0.266621 0.505745 0.868499
O O11 0.457758 0.222608 0.108766
O O12 0.393852 0.101290 0.580404
O O13 0.781398 0.618453 0.685911
#
# Coordination Sequence:
#
# PCOD9018129 Si02
#       6
#     2   2   2   2   2   2
#     4  10  23  42  63  97 139 169 212 275 330 378
#     4  11  26  47  64  95 138 172 213 281 338 381
#     4  11  23  40  69  99 124 178 229 263 322 396
#     4   9  20  39  71  96 129 161 229 266 312 381
#     4  10  21  43  68  95 132 175 223 269 312 395
#     4   9  22  44  67  91 137 172 215 265 328 382
#
# _framework density 25.85239
#
# number of rings (size 3 to 8) (size 9 to 14) (size 15 to 20)
#    1.000    1.000    0.000    3.000    2.333    2.000 
#    0.000   15.000    0.000    0.000    0.000    0.000 
#    0.000    0.000    0.000    0.000    0.000    0.000 
#
# Total GULP energy -66945.793192 kJ/mol
# GULP energy per Si atom -5578.816099 kJ/mol
# Density = 2.579355 g / cm^3
# Si number density = 25.852390 Si / 1000 Ang^3
#
#
#
# Elastic Constant Matrix: (Units=GPa)
#
#
# Indices 1 2 3 4 5 6 
#
# 1 172.0170 16.3063 76.1410 3.0436 2.6059 -13.1236
# 2 16.3063 102.0031 18.7055 -3.0326 9.9672 -5.2815
# 3 76.1410 18.7055 81.8217 -6.2744 10.1711 -11.2193
# 4 3.0436 -3.0326 -6.2744 20.2868 -9.0295 1.8557
# 5 2.6059 9.9672 10.1711 -9.0295 50.8215 13.9365
# 6 -13.1236 -5.2815 -11.2193 1.8557 13.9365 50.0155
#
#
#
# Elastic Compliance Matrix: (Units=1/GPa)
#
#
# Indices 1 2 3 4 5 6 
#
# 1 0.010324 0.000016 -0.009949 -0.004430 0.000536 0.000494
# 2 0.000016 0.010421 -0.001987 -0.000056 -0.001990 0.001215
# 3 -0.009949 -0.001987 0.023296 0.006580 -0.003450 0.003122
# 4 -0.004430 -0.000056 0.006580 0.057014 0.010337 -0.004688
# 5 0.000536 -0.001990 -0.003450 0.010337 0.024798 -0.008137
# 6 0.000494 0.001215 0.003122 -0.004688 -0.008137 0.023393
#
#
# Mechanical properties :
#
#
# Convention : Reuss Voigt Hill
#
# Bulk Modulus (GPa) = 49.50661 64.23859 56.87260
# Shear Modulus (GPa) = 27.80549 40.53736 34.17142
#
# Velocity S-wave (km/s) = 3.28311 3.96413 3.63959
# Velocity P-wave (km/s) = 5.79336 6.77161 6.30150
#
# Compressibility (1/GPa) = 0.02019932
#
# Stress axis : x y z
#
# Youngs Moduli (GPa) = 96.86446 95.95742 42.92589
#
# Poissons Ratio (x) = -0.00150 0.42708
# Poissons Ratio (y) = -0.00151 0.08530
# Poissons Ratio (z) = 0.96372 0.19069
#
# Static dielectric constant tensor:
#      x y z
#    x 1.995630 0.011180 -0.022490 
#    y 0.011180 2.218990 0.062650 
#    z -0.022490 0.062650 2.069150 
# 
# From -- ./inp_files/346808.got.cif
#   From: 2010.05.17/outbox.cif.g08.bks.cpg/sg2_174_cif.got.tgz:346808.got - 2010.06.03 11:33:40.
