data_PCOD9018324
_publ_section_title
;
Structure prediction by ZEFSAII (Michael W. Deem and Ramdas Pophale) SiO2 
 PCOD9018324
Probable space group: P -1
;
_chemical_formula_sum "Si O2"
_cell_formula_units_Z 14
_cell_length_a 11.821116
_cell_length_b 14.138663
_cell_length_c 11.752238
_cell_angle_alpha 147.834097
_cell_angle_beta 133.726229
_cell_angle_gamma 29.438630
_cell_volume 505.943695
_symmetry_space_group_name_H-M "P -1"
_symmetry_group_IT_number 2
_symmetry_cell_setting 'triclinic'
loop_
_space_group_symop_operation_xyz
x,y,z
-x,-y,-z
loop_
_atom_site_type_symbol
_atom_site_label
_atom_site_fract_x
_atom_site_fract_y
_atom_site_fract_z
Si Si1 0.113922 0.270853 0.998347
Si Si2 0.231399 0.732436 0.957033
Si Si3 0.519304 0.432704 0.256952
Si Si4 0.693207 0.024751 0.562914
Si Si5 0.937097 0.506488 0.335818
Si Si6 0.133779 0.832828 0.570386
Si Si7 0.612773 0.841215 0.139378
O O1 0.312110 0.156451 0.930392
O O2 0.100312 0.070949 0.792332
O O3 0.142526 0.327453 0.201900
O O4 0.862397 0.556429 0.072742
O O5 0.422868 0.534055 0.790368
O O6 0.167550 0.603903 0.844652
O O7 0.322110 0.802105 0.180049
O O8 0.000000 0.000000 0.000000
O O9 0.269591 0.672324 0.385926
O O10 0.700083 0.349532 0.392025
O O11 0.545766 0.199656 0.018566
O O12 0.767734 0.799136 0.466837
O O13 0.530979 0.061853 0.394673
O O14 0.903504 0.914954 0.515066
O O15 0.000000 0.500000 0.500000
#
# Coordination Sequence:
#
# PCOD9018324 Si02
#       7
#     2   2   2   2   2   2   2
#     4  10  21  43  69  98 131 187 219 271 343 411
#     4  12  22  43  67  95 136 184 223 275 344 404
#     4  11  24  41  64 105 140 168 228 295 323 396
#     4  11  23  43  70  96 131 187 222 268 342 416
#     4  11  20  36  68  98 124 170 233 270 314 408
#     4  11  22  42  72  98 133 182 230 277 336 396
#     4  10  24  42  66 103 139 169 231 286 331 404
#
# _framework density 27.671064000000001
#
# number of rings (size 3 to 8) (size 9 to 14) (size 15 to 20)
#    0.000    1.143    4.286    2.571    0.000    4.571 
#    2.571    4.286    0.000    0.000    0.000    0.000 
#    0.000    0.000    0.000    0.000    0.000    0.000 
#
# Total GULP energy -78606.340526 kJ/mol
# GULP energy per Si atom -5614.738609 kJ/mol
# Density = 2.760808 g / cm^3
# Si number density = 27.671064 Si / 1000 Ang^3
#
#
#
# Elastic Constant Matrix: (Units=GPa)
#
#
# Indices 1 2 3 4 5 6 
#
# 1 180.4898 25.6708 70.9400 -0.0352 -26.9724 17.6405
# 2 25.6708 86.1846 33.2988 -11.1654 -17.5433 6.5628
# 3 70.9400 33.2988 228.2986 -10.9362 -17.5145 21.5805
# 4 -0.0352 -11.1654 -10.9362 49.7788 19.6016 -3.7301
# 5 -26.9724 -17.5433 -17.5145 19.6016 67.1649 0.8003
# 6 17.6405 6.5628 21.5805 -3.7301 0.8003 47.0735
#
#
#
# Elastic Compliance Matrix: (Units=1/GPa)
#
#
# Indices 1 2 3 4 5 6 
#
# 1 0.006925 -0.000951 -0.001721 -0.001757 0.002619 -0.001857
# 2 -0.000951 0.013119 -0.001292 0.001728 0.002213 -0.000781
# 3 -0.001721 -0.001292 0.005296 0.000689 0.000170 -0.001551
# 4 -0.001757 0.001728 0.000689 0.023525 -0.006965 0.002084
# 5 0.002619 0.002213 0.000170 -0.006965 0.018622 -0.002236
# 6 -0.001857 -0.000781 -0.001551 0.002084 -0.002236 0.022963
#
#
# Mechanical properties :
#
#
# Convention : Reuss Voigt Hill
#
# Bulk Modulus (GPa) = 57.42750 83.86581 70.64665
# Shear Modulus (GPa) = 47.99370 57.14101 52.56735
#
# Velocity S-wave (km/s) = 4.16917 4.54917 4.36331
# Velocity P-wave (km/s) = 6.63134 7.61362 7.13939
#
# Compressibility (1/GPa) = 0.01741326
#
# Stress axis : x y z
#
# Youngs Moduli (GPa) = 144.41451 76.22472 188.82179
#
# Poissons Ratio (x) = 0.07248 0.32490
# Poissons Ratio (y) = 0.13732 0.24389
# Poissons Ratio (z) = 0.24849 0.09845
#
# Static dielectric constant tensor:
#      x y z
#    x 2.069940 -0.018400 -0.052100 
#    y -0.018400 2.242780 0.095310 
#    z -0.052100 0.095310 2.132270 
# 
# From -- ./inp_files/433549.got.cif
#   From: 2010.05.17/outbox.cif.g08.bks.cpg/sg2_217_cif.got.tgz:433549.got - 2010.06.03 11:33:40.
