data_PCOD9018486
_publ_section_title
;
Structure prediction by ZEFSAII (Michael W. Deem and Ramdas Pophale) SiO2 
 PCOD9018486
Probable space group: P -1
;
_chemical_formula_sum "Si O2"
_cell_formula_units_Z 14
_cell_length_a 8.984912
_cell_length_b 7.684424
_cell_length_c 16.094992
_cell_angle_alpha 55.999916
_cell_angle_beta 67.386131
_cell_angle_gamma 109.828780
_cell_volume 586.456102
_symmetry_space_group_name_H-M "P -1"
_symmetry_group_IT_number 2
_symmetry_cell_setting 'triclinic'
loop_
_space_group_symop_operation_xyz
x,y,z
-x,-y,-z
loop_
_atom_site_type_symbol
_atom_site_label
_atom_site_fract_x
_atom_site_fract_y
_atom_site_fract_z
Si Si1 0.910466 0.585018 0.333300
Si Si2 0.340806 0.429074 0.321298
Si Si3 0.280732 0.731734 0.381602
Si Si4 0.558187 0.798518 0.887941
Si Si5 0.043647 0.473013 0.093969
Si Si6 0.965002 0.181593 0.344662
Si Si7 0.819025 0.671571 0.164193
O O1 0.716229 0.383777 0.501096
O O2 0.908144 0.348922 0.357228
O O3 0.826412 0.672801 0.261240
O O4 0.184246 0.900886 0.209735
O O5 0.368215 0.666068 0.306252
O O6 0.571790 0.520468 0.230586
O O7 0.221249 0.370632 0.275136
O O8 0.186696 0.139724 0.493079
O O9 0.000000 0.500000 0.500000
O O10 0.398753 0.068332 0.250663
O O11 0.500000 0.500000 0.000000
O O12 0.321712 0.703326 0.988655
O O13 0.948652 0.186212 0.247137
O O14 0.910599 0.535289 0.151095
O O15 0.000000 0.500000 0.000000
O O16 0.000000 0.000000 0.000000
#
# Coordination Sequence:
#
# PCOD9018486 Si02
#       7
#     2   2   2   2   2   2   2
#     4  10  24  46  69 105 141 187 237 290 350 418
#     4  11  23  44  74 108 139 188 229 295 357 418
#     4  10  21  43  71 102 139 175 242 283 342 425
#     4  11  25  42  73 101 139 187 234 294 346 418
#     4  11  28  45  64 103 140 184 236 290 352 420
#     4  10  24  43  74 101 142 185 243 282 355 418
#     4  11  27  44  69 105 149 180 233 295 359 414
#
# _framework density 23.872205999999998
#
# number of rings (size 3 to 8) (size 9 to 14) (size 15 to 20)
#    0.000    1.429    2.857    0.857    8.000    6.286 
#    0.000    0.000    0.000    0.000    0.000    0.000 
#    0.000    0.000    0.000    0.000    0.000    0.000 
#
# Total GULP energy -78046.552710 kJ/mol
# GULP energy per Si atom -5574.753765 kJ/mol
# Density = 2.381787 g / cm^3
# Si number density = 23.872206 Si / 1000 Ang^3
#
#
#
# Elastic Constant Matrix: (Units=GPa)
#
#
# Indices 1 2 3 4 5 6 
#
# 1 127.5306 36.3267 57.1184 6.9495 16.5537 -10.1997
# 2 36.3267 79.3865 32.3180 0.3304 11.1471 -8.1300
# 3 57.1184 32.3180 121.8712 9.2724 40.9539 0.0785
# 4 6.9495 0.3304 9.2724 22.6312 -7.2936 6.6550
# 5 16.5537 11.1471 40.9539 -7.2936 70.9214 14.0213
# 6 -10.1997 -8.1300 0.0785 6.6550 14.0213 25.8036
#
#
#
# Elastic Compliance Matrix: (Units=1/GPa)
#
#
# Indices 1 2 3 4 5 6 
#
# 1 0.011123 -0.002824 -0.003667 -0.003925 -0.001495 0.005343
# 2 -0.002824 0.015490 -0.002316 -0.000188 -0.001358 0.004558
# 3 -0.003667 -0.002316 0.014197 -0.008959 -0.008870 0.004908
# 4 -0.003925 -0.000188 -0.008959 0.063021 0.018068 -0.027655
# 5 -0.001495 -0.001358 -0.008870 0.018068 0.025499 -0.019508
# 6 0.005343 0.004558 0.004908 -0.027655 -0.019508 0.060020
#
#
# Mechanical properties :
#
#
# Convention : Reuss Voigt Hill
#
# Bulk Modulus (GPa) = 43.10950 64.47939 53.79444
# Shear Modulus (GPa) = 23.28865 37.40624 30.34744
#
# Velocity S-wave (km/s) = 3.12678 3.96275 3.56932
# Velocity P-wave (km/s) = 5.57972 6.92869 6.29047
#
# Compressibility (1/GPa) = 0.02319674
#
# Stress axis : x y z
#
# Youngs Moduli (GPa) = 89.90288 64.55770 70.43531
#
# Poissons Ratio (x) = 0.18229 0.25827
# Poissons Ratio (y) = 0.25386 0.16316
# Poissons Ratio (z) = 0.32966 0.14954
#
# Static dielectric constant tensor:
#      x y z
#    x 1.941020 0.132160 0.095920 
#    y 0.132160 1.968420 0.026630 
#    z 0.095920 0.026630 1.932970 
# 
# From -- ./inp_files/556848.got.cif
#   From: 2010.05.17/outbox.cif.g08.bks.cpg/sg2_279_cif.got.tgz:556848.got - 2010.06.03 11:33:40.
