data_PCOD9018845
_publ_section_title
;
Structure prediction by ZEFSAII (Michael W. Deem and Ramdas Pophale) SiO2 
 PCOD9018845
Probable space group: P -1
;
_chemical_formula_sum "Si O2"
_cell_formula_units_Z 16
_cell_length_a 14.683803
_cell_length_b 8.146239
_cell_length_c 10.874569
_cell_angle_alpha 140.448173
_cell_angle_beta 102.728051
_cell_angle_gamma 64.400537
_cell_volume 732.442943
_symmetry_space_group_name_H-M "P -1"
_symmetry_group_IT_number 2
_symmetry_cell_setting 'triclinic'
loop_
_space_group_symop_operation_xyz
x,y,z
-x,-y,-z
loop_
_atom_site_type_symbol
_atom_site_label
_atom_site_fract_x
_atom_site_fract_y
_atom_site_fract_z
Si Si1 0.290784 0.299795 0.263231
Si Si2 0.662342 0.737443 0.194814
Si Si3 0.801038 0.708446 0.015434
Si Si4 0.998256 0.280766 0.272035
Si Si5 0.211436 0.707613 0.692548
Si Si6 0.600306 0.353991 0.108886
Si Si7 0.106789 0.642728 0.946975
Si Si8 0.434752 0.599620 0.411665
O O1 0.207006 0.318649 0.147282
O O2 0.241250 0.440548 0.457634
O O3 0.348225 0.484694 0.336054
O O4 0.368730 0.969475 0.109360
O O5 0.599634 0.560539 0.116904
O O6 0.778981 0.573730 0.187267
O O7 0.609521 0.059809 0.409346
O O8 0.692871 0.731953 0.057001
O O9 0.890304 0.456340 0.968857
O O10 0.805159 0.005401 0.219184
O O11 0.895569 0.233889 0.241969
O O12 0.977033 0.383324 0.183764
O O13 0.000000 0.500000 0.500000
O O14 0.090913 0.969320 0.129742
O O15 0.306297 0.657862 0.781721
O O16 0.502498 0.470533 0.236363
O O17 0.500000 0.500000 0.500000
#
# Coordination Sequence:
#
# PCOD9018845 Si02
#       8
#     2   2   2   2   2   2   2   2
#     4  11  22  40  66  92 129 176 212 259 319 384
#     4  10  21  44  65  90 134 167 208 267 325 361
#     4   9  21  41  64  87 127 172 210 257 324 373
#     4  11  24  39  69  97 124 164 215 265 324 391
#     4  11  21  41  64  93 128 169 211 269 322 375
#     4  11  23  40  65  94 129 172 216 263 319 377
#     4   9  22  44  63  89 130 162 203 270 324 366
#     4  12  22  42  66  96 133 170 217 265 317 375
#
# _framework density 21.844705999999999
#
# number of rings (size 3 to 8) (size 9 to 14) (size 15 to 20)
#    0.750    0.750    3.750    1.500    1.750    3.500 
#    2.250    2.500    0.000    0.000    0.000    0.000 
#    0.000    0.000    0.000    0.000    0.000    0.000 
#
# Total GULP energy -89320.000044 kJ/mol
# GULP energy per Si atom -5582.500003 kJ/mol
# Density = 2.179499 g / cm^3
# Si number density = 21.844706 Si / 1000 Ang^3
#
#
#
# Elastic Constant Matrix: (Units=GPa)
#
#
# Indices 1 2 3 4 5 6 
#
# 1 68.1765 4.3541 0.8480 9.7383 -6.9263 11.6638
# 2 4.3541 50.7969 35.2570 24.4933 0.1777 -4.7004
# 3 0.8480 35.2570 132.4921 14.1082 0.2056 -13.9277
# 4 9.7383 24.4933 14.1082 34.4396 -1.1089 -2.3793
# 5 -6.9263 0.1777 0.2056 -1.1089 21.6750 3.0902
# 6 11.6638 -4.7004 -13.9277 -2.3793 3.0902 32.1827
#
#
#
# Elastic Compliance Matrix: (Units=1/GPa)
#
#
# Indices 1 2 3 4 5 6 
#
# 1 0.017327 0.000892 -0.000538 -0.005622 0.006303 -0.007403
# 2 0.000892 0.035364 -0.006985 -0.022560 -0.001130 0.000260
# 3 -0.000538 -0.006985 0.009631 0.001396 -0.000634 0.003507
# 4 -0.005622 -0.022560 0.001396 0.046299 0.000354 0.002736
# 5 0.006303 -0.001130 -0.000634 0.000354 0.049242 -0.007426
# 6 -0.007403 0.000260 0.003507 0.002736 -0.007426 0.036227
#
#
# Mechanical properties :
#
#
# Convention : Reuss Voigt Hill
#
# Bulk Modulus (GPa) = 20.38314 36.93152 28.65733
# Shear Modulus (GPa) = 22.35089 31.72655 27.03872
#
# Velocity S-wave (km/s) = 3.20218 3.81513 3.52201
# Velocity P-wave (km/s) = 4.79824 6.02910 5.44854
#
# Compressibility (1/GPa) = 0.04906016
#
# Stress axis : x y z
#
# Youngs Moduli (GPa) = 57.71193 28.27752 103.83415
#
# Poissons Ratio (x) = -0.02521 0.05581
# Poissons Ratio (y) = -0.05146 0.72528
# Poissons Ratio (z) = 0.03102 0.19752
#
# Static dielectric constant tensor:
#      x y z
#    x 1.838700 0.033040 -0.007790 
#    y 0.033040 1.878210 -0.025780 
#    z -0.007790 -0.025780 1.766090 
# 
# From -- ./inp_files/462625.got.cif
#   From: 2010.05.17/outbox.cif.g08.bks.cpg/sg2_232_cif.got.tgz:462625.got - 2010.06.03 11:33:40.
