data_PCOD9018632
_publ_section_title
;
Structure prediction by ZEFSAII (Michael W. Deem and Ramdas Pophale) SiO2 
 PCOD9018632
Probable space group: P -1
;
_chemical_formula_sum "Si O2"
_cell_formula_units_Z 15
_cell_length_a 9.098973
_cell_length_b 11.309802
_cell_length_c 17.777006
_cell_angle_alpha 147.825394
_cell_angle_beta 130.628302
_cell_angle_gamma 39.238327
_cell_volume 616.143983
_symmetry_space_group_name_H-M "P -1"
_symmetry_group_IT_number 2
_symmetry_cell_setting 'triclinic'
loop_
_space_group_symop_operation_xyz
x,y,z
-x,-y,-z
loop_
_atom_site_type_symbol
_atom_site_label
_atom_site_fract_x
_atom_site_fract_y
_atom_site_fract_z
Si Si1 0.173275 0.404951 0.602312
Si Si2 0.068616 0.162767 0.056245
Si Si3 0.733042 0.071903 0.392582
Si Si4 0.500000 0.000000 0.000000
Si Si5 0.227532 0.479721 0.375027
Si Si6 0.896322 0.810052 0.147348
Si Si7 0.836243 0.950673 0.705689
Si Si8 0.645821 0.682078 0.223416
O O1 0.278409 0.171677 0.450566
O O2 0.319693 0.391643 0.715780
O O3 0.958846 0.387356 0.549127
O O4 0.050633 0.693735 0.679315
O O5 0.157909 0.304314 0.214894
O O6 0.816577 0.426167 0.091727
O O7 0.269895 0.032968 0.990027
O O8 0.000000 0.000000 0.000000
O O9 0.476652 0.281029 0.386571
O O10 0.795414 0.280679 0.551454
O O11 0.872548 0.885549 0.267915
O O12 0.723137 0.887733 0.350890
O O13 0.356793 0.034829 0.893451
O O14 0.065748 0.892623 0.216204
O O15 0.000000 0.500000 0.000000
O O16 0.623994 0.153529 0.797745
#
# Coordination Sequence:
#
# PCOD9018632 Si02
#       8
#     2   2   2   1   2   2   2   2
#     4  10  22  42  70 108 146 192 243 306 379 442
#     4  11  27  48  74 107 152 203 254 313 382 452
#     4  11  22  46  72 108 145 191 251 316 377 444
#     4  12  28  52  70 106 150 202 256 308 382 462
#     4  10  21  43  73 104 147 191 246 313 375 445
#     4  12  28  47  73 107 147 199 250 313 384 454
#     4  11  24  45  71 107 152 193 248 309 375 459
#     4  11  25  44  75 110 144 199 252 307 381 462
#
# _framework density 24.344957000000001
#
# number of rings (size 3 to 8) (size 9 to 14) (size 15 to 20)
#    0.000    1.067    4.000    1.200    5.600    2.133 
#    2.400    2.000    0.000    0.000    0.000    0.000 
#    0.000    0.000    0.000    0.000    0.000    0.000 
#
# Total GULP energy -83506.467153 kJ/mol
# GULP energy per Si atom -5567.097810 kJ/mol
# Density = 2.428955 g / cm^3
# Si number density = 24.344957 Si / 1000 Ang^3
#
#
#
# Elastic Constant Matrix: (Units=GPa)
#
#
# Indices 1 2 3 4 5 6 
#
# 1 138.1665 28.5438 50.7739 23.1595 7.7594 -8.9899
# 2 28.5438 50.4493 45.2764 10.2177 -0.8349 -1.7395
# 3 50.7739 45.2764 116.0128 -2.4523 29.3435 -1.6903
# 4 23.1595 10.2177 -2.4523 44.4200 7.9238 -2.4852
# 5 7.7594 -0.8349 29.3435 7.9238 35.4382 6.5685
# 6 -8.9899 -1.7395 -1.6903 -2.4852 6.5685 42.7955
#
#
#
# Elastic Compliance Matrix: (Units=1/GPa)
#
#
# Indices 1 2 3 4 5 6 
#
# 1 0.010159 0.001095 -0.006034 -0.006559 0.004091 0.000931
# 2 0.001095 0.046137 -0.025699 -0.017612 0.026815 -0.004048
# 3 -0.006034 -0.025699 0.028546 0.015695 -0.027152 0.003894
# 4 -0.006559 -0.017612 0.015695 0.034697 -0.020413 0.003674
# 5 0.004091 0.026815 -0.027152 -0.020413 0.056670 -0.009007
# 6 0.000931 -0.004048 0.003894 0.003674 -0.009007 0.025148
#
#
# Mechanical properties :
#
#
# Convention : Reuss Voigt Hill
#
# Bulk Modulus (GPa) = 42.43057 61.53520 51.98289
# Shear Modulus (GPa) = 18.48513 36.53304 27.50909
#
# Velocity S-wave (km/s) = 2.75853 3.87801 3.36515
# Velocity P-wave (km/s) = 5.25478 6.73671 6.04135
#
# Compressibility (1/GPa) = 0.02356791
#
# Stress axis : x y z
#
# Youngs Moduli (GPa) = 98.43604 21.67438 35.03104
#
# Poissons Ratio (x) = -0.02374 0.21136
# Poissons Ratio (y) = -0.10782 0.90027
# Poissons Ratio (z) = 0.59392 0.55701
#
# Static dielectric constant tensor:
#      x y z
#    x 1.988900 -0.020220 -0.031670 
#    y -0.020220 2.015320 -0.022430 
#    z -0.031670 -0.022430 1.962860 
# 
# From -- ./inp_files/589732.got.cif
#   From: 2010.05.17/outbox.cif.g08.bks.cpg/sg2_295_cif.got.tgz:589732.got - 2010.06.03 11:33:40.
