data_PCOD9018025
_publ_section_title
;
Structure prediction by ZEFSAII (Michael W. Deem and Ramdas Pophale) SiO2 
 PCOD9018025
Probable space group: P -1
;
_chemical_formula_sum "Si O2"
_cell_formula_units_Z 14
_cell_length_a 9.560948
_cell_length_b 11.981920
_cell_length_c 9.382201
_cell_angle_alpha 114.251872
_cell_angle_beta 54.878707
_cell_angle_gamma 140.999739
_cell_volume 551.874264
_symmetry_space_group_name_H-M "P -1"
_symmetry_group_IT_number 2
_symmetry_cell_setting 'triclinic'
loop_
_space_group_symop_operation_xyz
x,y,z
-x,-y,-z
loop_
_atom_site_type_symbol
_atom_site_label
_atom_site_fract_x
_atom_site_fract_y
_atom_site_fract_z
Si Si1 0.248324 0.674818 0.864627
Si Si2 0.229430 0.281212 0.125714
Si Si3 0.986347 0.091364 0.893788
Si Si4 0.939359 0.112325 0.610807
Si Si5 0.082413 0.486498 0.295055
Si Si6 0.577159 0.615719 0.653859
Si Si7 0.430260 0.874166 0.149758
O O1 0.465877 0.689777 0.722197
O O2 0.140824 0.644322 0.756285
O O3 0.361233 0.821126 0.995636
O O4 0.000000 0.500000 0.000000
O O5 0.061197 0.079382 0.178310
O O6 0.165604 0.390601 0.218762
O O7 0.463260 0.402075 0.160764
O O8 0.209597 0.232411 0.945112
O O9 0.017055 0.169176 0.761865
O O10 0.724855 0.008219 0.064902
O O11 0.687303 0.055941 0.701038
O O12 0.132673 0.267477 0.466960
O O13 0.000000 0.000000 0.500000
O O14 0.285428 0.687861 0.217054
O O15 0.000000 0.500000 0.500000
O O16 0.500000 0.500000 0.500000
#
# Coordination Sequence:
#
# PCOD9018025 Si02
#       7
#     2   2   2   2   2   2   2
#     4  10  21  43  67  99 135 182 230 282 341 420
#     4  11  24  47  69 105 147 186 237 286 361 424
#     4  11  25  48  71 102 147 192 237 288 349 436
#     4  12  24  44  73 104 143 185 242 294 351 423
#     4  11  24  43  70 107 146 178 234 300 357 412
#     4  12  24  46  73 107 141 182 239 297 351 412
#     4  11  23  46  72 101 138 193 241 285 352 426
#
# _framework density 25.368096999999999
#
# number of rings (size 3 to 8) (size 9 to 14) (size 15 to 20)
#    0.000    0.857    2.857    4.714    0.000    2.857 
#   10.286    2.857    0.000    0.000    0.000    0.000 
#    0.000    0.000    0.000    0.000    0.000    0.000 
#
# Total GULP energy -78028.340483 kJ/mol
# GULP energy per Si atom -5573.452892 kJ/mol
# Density = 2.531036 g / cm^3
# Si number density = 25.368097 Si / 1000 Ang^3
#
#
#
# Elastic Constant Matrix: (Units=GPa)
#
#
# Indices 1 2 3 4 5 6 
#
# 1 154.5927 38.0765 41.0837 14.5185 2.4886 -21.3834
# 2 38.0765 115.0381 60.0901 12.9646 0.4509 -10.3731
# 3 41.0837 60.0901 133.2706 19.1744 0.4595 -3.7303
# 4 14.5185 12.9646 19.1744 56.6093 2.9883 -3.7986
# 5 2.4886 0.4509 0.4595 2.9883 62.6946 10.9810
# 6 -21.3834 -10.3731 -3.7303 -3.7986 10.9810 43.5128
#
#
#
# Elastic Compliance Matrix: (Units=1/GPa)
#
#
# Indices 1 2 3 4 5 6 
#
# 1 0.007800 -0.001341 -0.001572 -0.000879 -0.000863 0.003520
# 2 -0.001341 0.011876 -0.004802 -0.000615 -0.000279 0.001777
# 3 -0.001572 -0.004802 0.010423 -0.002133 0.000350 -0.001298
# 4 -0.000879 -0.000615 -0.002133 0.018886 -0.001047 0.001151
# 5 -0.000863 -0.000279 0.000350 -0.001047 0.016877 -0.004811
# 6 0.003520 0.001777 -0.001298 0.001151 -0.004811 0.026338
#
#
# Mechanical properties :
#
#
# Convention : Reuss Voigt Hill
#
# Bulk Modulus (GPa) = 68.17247 75.71133 71.94190
# Shear Modulus (GPa) = 44.43716 50.14008 47.28862
#
# Velocity S-wave (km/s) = 4.18987 4.45061 4.32220
# Velocity P-wave (km/s) = 7.09495 7.50470 7.30270
#
# Compressibility (1/GPa) = 0.01466868
#
# Stress axis : x y z
#
# Youngs Moduli (GPa) = 128.20653 84.20665 95.94504
#
# Poissons Ratio (x) = 0.11290 0.15083
# Poissons Ratio (y) = 0.17189 0.46073
# Poissons Ratio (z) = 0.20154 0.40436
#
# Static dielectric constant tensor:
#      x y z
#    x 1.973600 -0.101160 -0.018560 
#    y -0.101160 2.125570 -0.127450 
#    z -0.018560 -0.127450 1.949740 
# 
# From -- ./inp_files/189076.got.cif
#   From: 2010.05.17/outbox.cif.g08.bks.cpg/sg2_95_cif.got.tgz:189076.got - 2010.06.03 11:33:40.
