data_PCOD9018860
_publ_section_title
;
Structure prediction by ZEFSAII (Michael W. Deem and Ramdas Pophale) SiO2 
 PCOD9018860
Probable space group: P -1
;
_chemical_formula_sum "Si O2"
_cell_formula_units_Z 12
_cell_length_a 7.212386
_cell_length_b 8.182024
_cell_length_c 10.296557
_cell_angle_alpha 87.912137
_cell_angle_beta 131.234878
_cell_angle_gamma 103.733832
_cell_volume 437.838504
_symmetry_space_group_name_H-M "P -1"
_symmetry_group_IT_number 2
_symmetry_cell_setting 'triclinic'
loop_
_space_group_symop_operation_xyz
x,y,z
-x,-y,-z
loop_
_atom_site_type_symbol
_atom_site_label
_atom_site_fract_x
_atom_site_fract_y
_atom_site_fract_z
Si Si1 0.181094 0.439515 0.686049
Si Si2 0.218131 0.080370 0.727491
Si Si3 0.001900 0.263661 0.091137
Si Si4 0.216242 0.639940 0.258609
Si Si5 0.432030 0.795949 0.881676
Si Si6 0.315409 0.118135 0.413313
O O1 0.999395 0.382318 0.729335
O O2 0.000000 0.500000 0.500000
O O3 0.261048 0.271386 0.687686
O O4 0.407557 0.611447 0.815936
O O5 0.370040 0.943398 0.761668
O O6 0.314880 0.125966 0.920551
O O7 0.920802 0.973655 0.599286
O O8 0.175366 0.458278 0.177401
O O9 0.187095 0.150530 0.218694
O O10 0.795685 0.242637 0.113502
O O11 0.851237 0.241339 0.887578
O O12 0.493612 0.707435 0.450332
O O13 0.500000 0.000000 0.500000
#
# Coordination Sequence:
#
# PCOD9018860 Si02
#       6
#     2   2   2   2   2   2
#     4  11  23  43  65  95 132 172 217 270 323 385
#     4  10  21  44  65  95 128 169 220 263 324 384
#     4   9  21  42  69  93 127 170 214 271 320 381
#     4  10  21  44  66  97 126 168 221 264 327 381
#     4   9  21  44  67  93 128 169 221 266 321 387
#     4  11  21  40  63  99 133 165 211 265 327 388
#
# _framework density 27.407366
#
# number of rings (size 3 to 8) (size 9 to 14) (size 15 to 20)
#    0.000    2.000    1.667    1.000    0.000    1.333 
#   30.000    0.000    0.000    0.000    0.000    0.000 
#    0.000    0.000    0.000    0.000    0.000    0.000 
#
# Total GULP energy -67269.810126 kJ/mol
# GULP energy per Si atom -5605.817511 kJ/mol
# Density = 2.734499 g / cm^3
# Si number density = 27.407366 Si / 1000 Ang^3
#
#
#
# Elastic Constant Matrix: (Units=GPa)
#
#
# Indices 1 2 3 4 5 6 
#
# 1 100.8646 35.7992 11.6489 -13.3590 8.3991 -2.1179
# 2 35.7992 209.5975 59.4889 0.8468 12.1153 -11.2952
# 3 11.6489 59.4889 135.2719 -19.2772 12.0775 4.9019
# 4 -13.3590 0.8468 -19.2772 83.6645 11.1177 8.6666
# 5 8.3991 12.1153 12.0775 11.1177 33.7337 -4.8168
# 6 -2.1179 -11.2952 4.9019 8.6666 -4.8168 30.5984
#
#
#
# Elastic Compliance Matrix: (Units=1/GPa)
#
#
# Indices 1 2 3 4 5 6 
#
# 1 0.011118 -0.001958 0.000600 0.002502 -0.003287 -0.001275
# 2 -0.001958 0.006058 -0.002813 -0.001354 0.000188 0.002965
# 3 0.000600 -0.002813 0.009582 0.003327 -0.004258 -0.004145
# 4 0.002502 -0.001354 0.003327 0.014705 -0.007050 -0.006135
# 5 -0.003287 0.000188 -0.004258 -0.007050 0.035398 0.008094
# 6 -0.001275 0.002965 -0.004145 -0.006135 0.008094 0.037363
#
#
# Mechanical properties :
#
#
# Convention : Reuss Voigt Hill
#
# Bulk Modulus (GPa) = 54.29835 73.28976 63.79406
# Shear Modulus (GPa) = 38.84818 52.18580 45.51699
#
# Velocity S-wave (km/s) = 3.76897 4.36831 4.07966
# Velocity P-wave (km/s) = 6.22854 7.22785 6.74672
#
# Compressibility (1/GPa) = 0.01841677
#
# Stress axis : x y z
#
# Youngs Moduli (GPa) = 89.94191 165.06554 104.35769
#
# Poissons Ratio (x) = 0.32322 -0.06261
# Poissons Ratio (y) = 0.17612 0.29354
# Poissons Ratio (z) = -0.05396 0.46431
#
# Static dielectric constant tensor:
#      x y z
#    x 2.103800 -0.015690 -0.069620 
#    y -0.015690 2.234500 0.006090 
#    z -0.069620 0.006090 2.150490 
# 
# From -- ./inp_files/238073.got.cif
#   From: 2010.05.17/outbox.cif.g08.bks.cpg/sg2_120_cif.got.tgz:238073.got - 2010.06.03 11:33:40.
