data_PCOD9018114
_publ_section_title
;
Structure prediction by ZEFSAII (Michael W. Deem and Ramdas Pophale) SiO2 
 PCOD9018114
Probable space group: P -1
;
_chemical_formula_sum "Si O2"
_cell_formula_units_Z 12
_cell_length_a 14.263785
_cell_length_b 11.367419
_cell_length_c 8.503544
_cell_angle_alpha 68.277072
_cell_angle_beta 124.776789
_cell_angle_gamma 151.635759
_cell_volume 506.414499
_symmetry_space_group_name_H-M "P -1"
_symmetry_group_IT_number 2
_symmetry_cell_setting 'triclinic'
loop_
_space_group_symop_operation_xyz
x,y,z
-x,-y,-z
loop_
_atom_site_type_symbol
_atom_site_label
_atom_site_fract_x
_atom_site_fract_y
_atom_site_fract_z
Si Si1 0.896826 0.067357 0.455741
Si Si2 0.941161 0.207104 0.913692
Si Si3 0.362195 0.978263 0.559706
Si Si4 0.231015 0.193868 0.858937
Si Si5 0.730065 0.292299 0.150753
Si Si6 0.098311 0.467959 0.258069
O O1 0.723386 0.998635 0.408013
O O2 0.772918 0.876023 0.284868
O O3 0.029068 0.104956 0.685836
O O4 0.102755 0.349616 0.430963
O O5 0.192786 0.489275 0.926904
O O6 0.744816 0.073739 0.677489
O O7 0.957273 0.292555 0.053948
O O8 0.866206 0.994429 0.004226
O O9 0.641182 0.242134 0.683425
O O10 0.280732 0.760855 0.651843
O O11 0.500000 0.500000 0.000000
O O12 0.947070 0.425815 0.219630
O O13 0.500000 0.000000 0.000000
#
# Coordination Sequence:
#
# PCOD9018114 Si02
#       6
#     2   2   2   2   2   2
#     4   9  22  42  65  95 129 166 211 266 318 379
#     4  11  23  40  66  98 126 171 216 257 322 382
#     4  11  23  41  66  97 130 167 213 266 322 381
#     4  10  21  43  68  94 130 170 214 265 316 378
#     4  11  23  44  66  93 134 169 211 266 321 381
#     4  10  22  43  66  93 130 168 212 263 324 378
#
# _framework density 23.696003999999999
#
# number of rings (size 3 to 8) (size 9 to 14) (size 15 to 20)
#    0.000    1.667    1.667    2.000    0.000    2.667 
#    9.000   11.667    0.000    0.000    0.000    0.000 
#    0.000    0.000    0.000    0.000    0.000    0.000 
#
# Total GULP energy -67048.285161 kJ/mol
# GULP energy per Si atom -5587.357097 kJ/mol
# Density = 2.364207 g / cm^3
# Si number density = 23.696004 Si / 1000 Ang^3
#
#
#
# Elastic Constant Matrix: (Units=GPa)
#
#
# Indices 1 2 3 4 5 6 
#
# 1 62.8333 44.7964 25.0475 8.6786 2.4347 6.2016
# 2 44.7964 204.6475 84.2189 -15.8649 15.9705 -12.5358
# 3 25.0475 84.2189 148.5583 -21.4656 7.3316 -12.9821
# 4 8.6786 -15.8649 -21.4656 58.2313 -5.1603 7.2205
# 5 2.4347 15.9705 7.3316 -5.1603 24.1198 0.3384
# 6 6.2016 -12.5358 -12.9821 7.2205 0.3384 33.9565
#
#
#
# Elastic Compliance Matrix: (Units=1/GPa)
#
#
# Indices 1 2 3 4 5 6 
#
# 1 0.021064 -0.004435 -0.002177 -0.004430 0.000600 -0.005381
# 2 -0.004435 0.007598 -0.003043 0.001020 -0.003472 0.002269
# 3 -0.002177 -0.003043 0.009416 0.002673 -0.000088 0.002307
# 4 -0.004430 0.001020 0.002673 0.019626 0.003186 -0.001998
# 5 0.000600 -0.003472 -0.000088 0.003186 0.044442 -0.002545
# 6 -0.005381 0.002269 0.002307 -0.001998 -0.002545 0.032602
#
#
# Mechanical properties :
#
#
# Convention : Reuss Voigt Hill
#
# Bulk Modulus (GPa) = 53.28010 80.46274 66.87142
# Shear Modulus (GPa) = 31.18858 40.72661 35.95759
#
# Velocity S-wave (km/s) = 3.63188 4.15023 3.89968
# Velocity P-wave (km/s) = 6.33412 7.54956 6.96839
#
# Compressibility (1/GPa) = 0.01876873
#
# Stress axis : x y z
#
# Youngs Moduli (GPa) = 47.47332 131.60531 106.20713
#
# Poissons Ratio (x) = 0.58362 0.23125
# Poissons Ratio (y) = 0.21053 0.32317
# Poissons Ratio (z) = 0.10337 0.40045
#
# Static dielectric constant tensor:
#      x y z
#    x 1.959460 -0.081010 -0.029090 
#    y -0.081010 1.947980 -0.045090 
#    z -0.029090 -0.045090 1.949580 
# 
# From -- ./inp_files/77887.got.cif
#   From: 2010.05.17/outbox.cif.g08.bks.cpg/sg2_39_cif.got.tgz:77887.got - 2010.06.03 11:33:40.
