data_PCOD9018894
_publ_section_title
;
Structure prediction by ZEFSAII (Michael W. Deem and Ramdas Pophale) SiO2 
 PCOD9018894
Probable space group: P -1
;
_chemical_formula_sum "Si O2"
_cell_formula_units_Z 12
_cell_length_a 5.155374
_cell_length_b 18.108903
_cell_length_c 5.224583
_cell_angle_alpha 111.494589
_cell_angle_beta 94.617627
_cell_angle_gamma 109.764221
_cell_volume 415.300443
_symmetry_space_group_name_H-M "P -1"
_symmetry_group_IT_number 2
_symmetry_cell_setting 'triclinic'
loop_
_space_group_symop_operation_xyz
x,y,z
-x,-y,-z
loop_
_atom_site_type_symbol
_atom_site_label
_atom_site_fract_x
_atom_site_fract_y
_atom_site_fract_z
Si Si1 0.395628 0.054051 0.759464
Si Si2 0.384892 0.283895 0.423685
Si Si3 0.200642 0.424823 0.817948
Si Si4 0.133181 0.621367 0.763001
Si Si5 0.082546 0.887864 0.733235
Si Si6 0.286888 0.783146 0.251651
O O1 0.425195 0.140779 0.728737
O O2 0.500000 0.000000 0.500000
O O3 0.106919 0.981746 0.756069
O O4 0.633720 0.088274 0.043596
O O5 0.257709 0.337872 0.660935
O O6 0.545019 0.346334 0.277488
O O7 0.627185 0.269752 0.593371
O O8 0.176713 0.184115 0.230869
O O9 0.070961 0.433053 0.545226
O O10 0.500000 0.500000 0.000000
O O11 0.991202 0.420427 0.029127
O O12 0.128911 0.716961 0.930541
O O13 0.116497 0.833794 0.425823
#
# Coordination Sequence:
#
# PCOD9018894 Si02
#       6
#     2   2   2   2   2   2
#     4   9  20  38  68  98 150 189 249 301 344 427
#     4  12  25  43  78 103 146 195 239 299 375 419
#     4  12  29  52  77 107 148 190 236 302 372 436
#     4  12  26  50  73 113 145 185 248 297 356 454
#     4  10  21  44  66 102 147 198 238 304 361 413
#     4  11  22  43  68 107 144 188 247 300 347 440
#
# _framework density 28.894742000000001
#
# number of rings (size 3 to 8) (size 9 to 14) (size 15 to 20)
#    0.000    1.000    3.333    2.500    2.333    4.667 
#    0.000   11.667    0.000    0.000    0.000    0.000 
#    0.000    0.000    0.000    0.000    0.000    0.000 
#
# Total GULP energy -67245.205701 kJ/mol
# GULP energy per Si atom -5603.767142 kJ/mol
# Density = 2.882898 g / cm^3
# Si number density = 28.894742 Si / 1000 Ang^3
#
#
#
# Elastic Constant Matrix: (Units=GPa)
#
#
# Indices 1 2 3 4 5 6 
#
# 1 91.6972 48.6998 47.4992 -9.9826 -4.5164 26.8543
# 2 48.6998 195.0811 63.1961 -1.7725 9.5172 35.9882
# 3 47.4992 63.1961 211.2536 -2.5242 -10.0056 33.3397
# 4 -9.9826 -1.7725 -2.5242 50.7668 17.9044 15.2316
# 5 -4.5164 9.5172 -10.0056 17.9044 57.1475 4.1709
# 6 26.8543 35.9882 33.3397 15.2316 4.1709 57.4007
#
#
#
# Elastic Compliance Matrix: (Units=1/GPa)
#
#
# Indices 1 2 3 4 5 6 
#
# 1 0.015195 -0.002082 -0.001782 0.004535 0.000252 -0.005990
# 2 -0.002082 0.006602 -0.001147 0.001143 -0.001627 -0.002685
# 3 -0.001782 -0.001147 0.005841 0.000061 0.001195 -0.001943
# 4 0.004535 0.001143 0.000061 0.025973 -0.007285 -0.009237
# 5 0.000252 -0.001627 0.001195 -0.007285 0.020232 0.000671
# 6 -0.005990 -0.002685 -0.001943 -0.009237 0.000671 0.025438
#
#
# Mechanical properties :
#
#
# Convention : Reuss Voigt Hill
#
# Bulk Modulus (GPa) = 56.76428 90.75804 73.76116
# Shear Modulus (GPa) = 43.41218 55.63878 49.52548
#
# Velocity S-wave (km/s) = 3.88032 4.39289 4.14454
# Velocity P-wave (km/s) = 6.30584 7.56360 6.96318
#
# Compressibility (1/GPa) = 0.01761671
#
# Stress axis : x y z
#
# Youngs Moduli (GPa) = 65.81288 151.46291 171.19086
#
# Poissons Ratio (x) = 0.31533 0.30510
# Poissons Ratio (y) = 0.13702 0.19630
# Poissons Ratio (z) = 0.11729 0.17368
#
# Static dielectric constant tensor:
#      x y z
#    x 2.286480 0.004440 0.019810 
#    y 0.004440 2.405330 -0.073820 
#    z 0.019810 -0.073820 2.178280 
# 
# From -- ./inp_files/6538.got.cif
#   From: 2010.05.17/outbox.cif.g08.bks.cpg/sg2_4_cif.got.tgz:6538.got - 2010.06.03 11:33:40.
