data_PCOD9018115
_publ_section_title
;
Structure prediction by ZEFSAII (Michael W. Deem and Ramdas Pophale) SiO2 
 PCOD9018115
Probable space group: P -1
;
_chemical_formula_sum "Si O2"
_cell_formula_units_Z 12
_cell_length_a 7.374147
_cell_length_b 13.449127
_cell_length_c 10.009284
_cell_angle_alpha 141.937666
_cell_angle_beta 132.735285
_cell_angle_gamma 54.360204
_cell_volume 446.941889
_symmetry_space_group_name_H-M "P -1"
_symmetry_group_IT_number 2
_symmetry_cell_setting 'triclinic'
loop_
_space_group_symop_operation_xyz
x,y,z
-x,-y,-z
loop_
_atom_site_type_symbol
_atom_site_label
_atom_site_fract_x
_atom_site_fract_y
_atom_site_fract_z
Si Si1 0.520384 0.571181 0.766334
Si Si2 0.224342 0.038278 0.053666
Si Si3 0.774919 0.271925 0.438917
Si Si4 0.278431 0.375361 0.802942
Si Si5 0.575146 0.106832 0.523601
Si Si6 0.967760 0.721181 0.000764
O O1 0.608937 0.383400 0.578156
O O2 0.275539 0.627927 0.620173
O O3 0.528109 0.614871 0.970159
O O4 0.735092 0.670887 0.915122
O O5 0.470982 0.033985 0.261329
O O6 0.134779 0.205346 0.112228
O O7 0.266396 0.905738 0.816695
O O8 0.000000 0.000000 0.000000
O O9 0.054655 0.274451 0.629197
O O10 0.405628 0.277477 0.641294
O O11 0.143615 0.553115 0.899373
O O12 0.857193 0.149471 0.714367
O O13 0.500000 0.000000 0.500000
#
# Coordination Sequence:
#
# PCOD9018115 Si02
#       6
#     2   2   2   2   2   2
#     4  10  24  44  71  97 132 173 219 277 325 395
#     4  12  24  43  66  95 136 173 219 274 324 391
#     4  10  21  43  68  94 131 173 219 263 336 380
#     4  11  23  44  70  97 135 171 222 276 322 399
#     4  12  24  43  69  97 135 178 217 275 331 386
#     4  11  25  42  66 103 128 176 226 263 339 383
#
# _framework density 26.849125999999998
#
# number of rings (size 3 to 8) (size 9 to 14) (size 15 to 20)
#    0.000    1.000    3.333    3.500    0.000    6.667 
#    0.000   10.000    0.000    0.000    0.000    0.000 
#    0.000    0.000    0.000    0.000    0.000    0.000 
#
# Total GULP energy -67299.508092 kJ/mol
# GULP energy per Si atom -5608.292341 kJ/mol
# Density = 2.678802 g / cm^3
# Si number density = 26.849126 Si / 1000 Ang^3
#
#
#
# Elastic Constant Matrix: (Units=GPa)
#
#
# Indices 1 2 3 4 5 6 
#
# 1 76.8525 8.0516 29.9462 6.0268 6.1873 26.7000
# 2 8.0516 75.0214 17.0996 -4.9471 -10.4781 17.5363
# 3 29.9462 17.0996 176.7530 -20.7169 4.0262 18.9281
# 4 6.0268 -4.9471 -20.7169 54.0583 -2.6438 -0.3808
# 5 6.1873 -10.4781 4.0262 -2.6438 56.0693 4.3894
# 6 26.7000 17.5363 18.9281 -0.3808 4.3894 32.9690
#
#
#
# Elastic Compliance Matrix: (Units=1/GPa)
#
#
# Indices 1 2 3 4 5 6 
#
# 1 0.019223 0.001698 -0.002123 -0.002938 -0.000600 -0.015206
# 2 0.001698 0.016273 -0.000734 0.001131 0.003750 -0.010095
# 3 -0.002123 -0.000734 0.006578 0.002673 -0.000122 -0.001619
# 4 -0.002938 0.001131 0.002673 0.020018 0.001264 0.000306
# 5 -0.000600 0.003750 -0.000122 0.001264 0.018980 -0.003951
# 6 -0.015206 -0.010095 -0.001619 0.000306 -0.003951 0.049475
#
#
# Mechanical properties :
#
#
# Convention : Reuss Voigt Hill
#
# Bulk Modulus (GPa) = 25.15415 48.75796 36.95606
# Shear Modulus (GPa) = 34.21931 46.85463 40.53697
#
# Velocity S-wave (km/s) = 3.57389 4.18198 3.88984
# Velocity P-wave (km/s) = 5.13997 6.44345 5.82826
#
# Compressibility (1/GPa) = 0.03975488
#
# Stress axis : x y z
#
# Youngs Moduli (GPa) = 52.02124 61.45265 152.02524
#
# Poissons Ratio (x) = -0.10433 0.32281
# Poissons Ratio (y) = -0.08832 0.11154
# Poissons Ratio (z) = 0.11046 0.04509
#
# Static dielectric constant tensor:
#      x y z
#    x 2.068990 0.025890 0.069990 
#    y 0.025890 2.066640 0.057710 
#    z 0.069990 0.057710 2.118970 
# 
# From -- ./inp_files/230786.got.cif
#   From: 2010.05.17/outbox.cif.g08.bks.cpg/sg2_116_cif.got.tgz:230786.got - 2010.06.03 11:33:40.
