data_PCOD9018821
_publ_section_title
;
Structure prediction by ZEFSAII (Michael W. Deem and Ramdas Pophale) SiO2 
 PCOD9018821
Probable space group: P -1
;
_chemical_formula_sum "Si O2"
_cell_formula_units_Z 16
_cell_length_a 8.065776
_cell_length_b 7.144722
_cell_length_c 13.590641
_cell_angle_alpha 107.849455
_cell_angle_beta 112.352403
_cell_angle_gamma 101.390436
_cell_volume 644.115496
_symmetry_space_group_name_H-M "P -1"
_symmetry_group_IT_number 2
_symmetry_cell_setting 'triclinic'
loop_
_space_group_symop_operation_xyz
x,y,z
-x,-y,-z
loop_
_atom_site_type_symbol
_atom_site_label
_atom_site_fract_x
_atom_site_fract_y
_atom_site_fract_z
Si Si1 0.031400 0.202662 0.176890
Si Si2 0.827429 0.773975 0.443526
Si Si3 0.654497 0.006384 0.187099
Si Si4 0.819428 0.153562 0.782844
Si Si5 0.716209 0.506863 0.564906
Si Si6 0.744858 0.251946 0.983169
Si Si7 0.597261 0.051122 0.404653
Si Si8 0.213758 0.379171 0.804365
O O1 0.947121 0.239954 0.061223
O O2 0.193614 0.395260 0.295851
O O3 0.837454 0.143023 0.189152
O O4 0.109840 0.013615 0.170727
O O5 0.793102 0.620984 0.316105
O O6 0.649621 0.855250 0.421310
O O7 0.837644 0.656107 0.527546
O O8 0.000000 0.000000 0.500000
O O9 0.679103 0.780959 0.169941
O O10 0.657193 0.092331 0.310674
O O11 0.443165 0.960673 0.088388
O O12 0.993976 0.277366 0.773294
O O13 0.631330 0.019771 0.659061
O O14 0.765455 0.292058 0.876673
O O15 0.500000 0.500000 0.500000
O O16 0.707048 0.269827 0.516275
O O17 0.707316 0.417431 0.075613
#
# Coordination Sequence:
#
# PCOD9018821 Si02
#       8
#     2   2   2   2   2   2   2   2
#     4  11  23  41  62  97 135 175 225 278 338 405
#     4  11  26  45  69 101 139 184 228 284 345 406
#     4   9  21  41  63  93 134 174 219 284 340 401
#     4  10  21  44  64  96 139 174 221 283 346 403
#     4  12  26  45  70 106 140 177 236 285 331 419
#     4  11  22  37  67  97 129 180 223 276 343 407
#     4  10  23  43  72  94 140 181 225 285 350 398
#     4  10  22  41  66 100 130 174 229 277 340 411
#
# _framework density 24.840267000000001
#
# number of rings (size 3 to 8) (size 9 to 14) (size 15 to 20)
#    0.000    1.500    1.250    3.750    3.500    2.500 
#    0.000    2.500    0.000    0.000    0.000    0.000 
#    0.000    0.000    0.000    0.000    0.000    0.000 
#
# Total GULP energy -89572.017356 kJ/mol
# GULP energy per Si atom -5598.251085 kJ/mol
# Density = 2.478373 g / cm^3
# Si number density = 24.840267 Si / 1000 Ang^3
#
#
#
# Elastic Constant Matrix: (Units=GPa)
#
#
# Indices 1 2 3 4 5 6 
#
# 1 90.9968 6.9572 36.6633 3.2390 7.9250 1.3770
# 2 6.9572 47.1251 21.0847 -0.5072 -5.4310 2.0578
# 3 36.6633 21.0847 164.4386 9.4797 -3.8350 -1.2215
# 4 3.2390 -0.5072 9.4797 29.5442 -9.7989 -1.6988
# 5 7.9250 -5.4310 -3.8350 -9.7989 53.2926 -4.0616
# 6 1.3770 2.0578 -1.2215 -1.6988 -4.0616 28.3929
#
#
#
# Elastic Compliance Matrix: (Units=1/GPa)
#
#
# Indices 1 2 3 4 5 6 
#
# 1 0.012401 -0.000905 -0.002633 -0.001411 -0.002468 -0.001087
# 2 -0.000905 0.022991 -0.002821 0.002184 0.002581 -0.001244
# 3 -0.002633 -0.002821 0.007152 -0.001919 0.000309 0.000569
# 4 -0.001411 0.002184 -0.001919 0.037285 0.007387 0.003115
# 5 -0.002468 0.002581 0.000309 0.007387 0.021034 0.003397
# 6 -0.001087 -0.001244 0.000569 0.003115 0.003397 0.036060
#
#
# Mechanical properties :
#
#
# Convention : Reuss Voigt Hill
#
# Bulk Modulus (GPa) = 33.52760 47.99676 40.76218
# Shear Modulus (GPa) = 31.33150 38.10295 34.71723
#
# Velocity S-wave (km/s) = 3.55536 3.92078 3.74253
# Velocity P-wave (km/s) = 5.51187 6.31354 5.92627
#
# Compressibility (1/GPa) = 0.02982617
#
# Stress axis : x y z
#
# Youngs Moduli (GPa) = 80.63765 43.49476 139.81660
#
# Poissons Ratio (x) = 0.03936 0.36817
# Poissons Ratio (y) = 0.07296 0.39445
# Poissons Ratio (z) = 0.21234 0.12271
#
# Static dielectric constant tensor:
#      x y z
#    x 1.986050 -0.004400 -0.003340 
#    y -0.004400 2.001540 -0.003620 
#    z -0.003340 -0.003620 1.932200 
# 
# From -- ./inp_files/556602.got.cif
#   From: 2010.05.17/outbox.cif.g08.bks.cpg/sg2_279_cif.got.tgz:556602.got - 2010.06.03 11:33:40.
