data_PCOD9018189
_publ_section_title
;
Structure prediction by ZEFSAII (Michael W. Deem and Ramdas Pophale) SiO2 
 PCOD9018189
Probable space group: P -1
;
_chemical_formula_sum "Si O2"
_cell_formula_units_Z 14
_cell_length_a 7.918753
_cell_length_b 20.006098
_cell_length_c 12.174968
_cell_angle_alpha 147.307553
_cell_angle_beta 34.999650
_cell_angle_gamma 142.556653
_cell_volume 562.479749
_symmetry_space_group_name_H-M "P -1"
_symmetry_group_IT_number 2
_symmetry_cell_setting 'triclinic'
loop_
_space_group_symop_operation_xyz
x,y,z
-x,-y,-z
loop_
_atom_site_type_symbol
_atom_site_label
_atom_site_fract_x
_atom_site_fract_y
_atom_site_fract_z
Si Si1 0.342380 0.438099 0.340045
Si Si2 0.766116 0.848264 0.035621
Si Si3 0.312138 0.896564 0.634337
Si Si4 0.130650 0.174136 0.642002
Si Si5 0.166492 0.948275 0.166670
Si Si6 0.968268 0.628185 0.364308
Si Si7 0.418264 0.476551 0.883888
O O1 0.626828 0.561758 0.403830
O O2 0.071755 0.408556 0.534375
O O3 0.303770 0.471082 0.279761
O O4 0.417106 0.301084 0.107615
O O5 0.906326 0.862051 0.102139
O O6 0.605187 0.957681 0.256059
O O7 0.073476 0.888967 0.850762
O O8 0.587186 0.851247 0.474135
O O9 0.120913 0.784690 0.495631
O O10 0.236827 0.322722 0.754072
O O11 0.851279 0.134325 0.825578
O O12 0.090617 0.075167 0.425692
O O13 0.500000 0.000000 0.000000
O O14 0.190178 0.558896 0.096802
O O15 0.500000 0.500000 0.000000
#
# Coordination Sequence:
#
# PCOD9018189 Si02
#       7
#     2   2   2   2   2   2   2
#     4  10  24  44  69 100 131 182 225 273 335 395
#     4  10  22  42  71  95 132 177 221 280 329 386
#     4  10  21  43  68  99 131 172 229 272 330 396
#     4  11  25  42  64 102 133 172 227 268 335 406
#     4  11  24  44  66  96 136 176 219 277 336 395
#     4  10  23  45  66  98 137 176 230 273 329 399
#     4  12  24  42  67  98 138 177 217 277 334 402
#
# _framework density 24.889785
#
# number of rings (size 3 to 8) (size 9 to 14) (size 15 to 20)
#    0.000    1.429    2.857    1.286    2.000    4.571 
#    2.571    0.000    0.000    0.000    0.000    0.000 
#    0.000    0.000    0.000    0.000    0.000    0.000 
#
# Total GULP energy -78342.377457 kJ/mol
# GULP energy per Si atom -5595.884104 kJ/mol
# Density = 2.483313 g / cm^3
# Si number density = 24.889785 Si / 1000 Ang^3
#
#
#
# Elastic Constant Matrix: (Units=GPa)
#
#
# Indices 1 2 3 4 5 6 
#
# 1 55.9121 10.0174 21.1977 -4.8673 13.8296 -0.6001
# 2 10.0174 120.4574 62.2293 -6.7156 0.2914 -19.3186
# 3 21.1977 62.2293 131.2327 10.0386 10.0102 -5.2367
# 4 -4.8673 -6.7156 10.0386 56.2617 12.1919 11.1926
# 5 13.8296 0.2914 10.0102 12.1919 33.2091 -1.0100
# 6 -0.6001 -19.3186 -5.2367 11.1926 -1.0100 39.9798
#
#
#
# Elastic Compliance Matrix: (Units=1/GPa)
#
#
# Indices 1 2 3 4 5 6 
#
# 1 0.022032 -0.000195 -0.003150 0.005001 -0.010116 -0.001832
# 2 -0.000195 0.012102 -0.005714 0.001187 0.001408 0.004800
# 3 -0.003150 -0.005714 0.011089 -0.002573 -0.001056 -0.000662
# 4 0.005001 0.001187 -0.002573 0.022110 -0.009621 -0.006121
# 5 -0.010116 0.001408 -0.001056 -0.009621 0.038286 0.004051
# 6 -0.001832 0.004800 -0.000662 -0.006121 0.004051 0.029034
#
#
# Mechanical properties :
#
#
# Convention : Reuss Voigt Hill
#
# Bulk Modulus (GPa) = 36.89356 54.94346 45.91851
# Shear Modulus (GPa) = 30.90079 40.16731 35.53405
#
# Velocity S-wave (km/s) = 3.52732 4.02158 3.78253
# Velocity P-wave (km/s) = 5.60752 6.60960 6.12907
#
# Compressibility (1/GPa) = 0.02710500
#
# Stress axis : x y z
#
# Youngs Moduli (GPa) = 45.38778 82.62856 90.17669
#
# Poissons Ratio (x) = 0.01614 0.28408
# Poissons Ratio (y) = 0.00886 0.51526
# Poissons Ratio (z) = 0.14299 0.47213
#
# Static dielectric constant tensor:
#      x y z
#    x 2.024110 0.013470 0.017990 
#    y 0.013470 2.002030 -0.034450 
#    z 0.017990 -0.034450 1.937750 
# 
# From -- ./inp_files/256581.got.cif
#   From: 2010.05.17/outbox.cif.g08.bks.cpg/sg2_129_cif.got.tgz:256581.got - 2010.06.03 11:33:40.
