data_PCOD9018992
_publ_section_title
;
Structure prediction by ZEFSAII (Michael W. Deem and Ramdas Pophale) SiO2 
 PCOD9018992
Probable space group: P -1
;
_chemical_formula_sum "Si O2"
_cell_formula_units_Z 15
_cell_length_a 6.291133
_cell_length_b 11.551771
_cell_length_c 9.220647
_cell_angle_alpha 83.040294
_cell_angle_beta 76.095051
_cell_angle_gamma 103.199992
_cell_volume 622.191331
_symmetry_space_group_name_H-M "P -1"
_symmetry_group_IT_number 2
_symmetry_cell_setting 'triclinic'
loop_
_space_group_symop_operation_xyz
x,y,z
-x,-y,-z
loop_
_atom_site_type_symbol
_atom_site_label
_atom_site_fract_x
_atom_site_fract_y
_atom_site_fract_z
Si Si1 0.000000 0.500000 0.500000
Si Si2 0.206332 0.304827 0.651712
Si Si3 0.024374 0.196727 0.983561
Si Si4 0.683953 0.069371 0.573424
Si Si5 0.359001 0.029682 0.886704
Si Si6 0.155464 0.158143 0.408817
Si Si7 0.383350 0.337445 0.104449
Si Si8 0.605294 0.416270 0.791188
O O1 0.158025 0.408142 0.540547
O O2 0.150441 0.540238 0.324018
O O3 0.015618 0.245887 0.813547
O O4 0.232838 0.200520 0.552382
O O5 0.430835 0.357275 0.702373
O O6 0.200478 0.113577 0.947512
O O7 0.150264 0.306845 0.051120
O O8 0.806687 0.103279 0.104771
O O9 0.538445 0.095275 0.726111
O O10 0.893483 0.167989 0.450876
O O11 0.500000 0.000000 0.500000
O O12 0.819917 0.973436 0.617788
O O13 0.500000 0.000000 0.000000
O O14 0.322270 0.241242 0.255680
O O15 0.453800 0.464981 0.154171
O O16 0.570858 0.332852 0.953420
#
# Coordination Sequence:
#
# PCOD9018992 Si02
#       8
#     1   2   2   2   2   2   2   2
#     4  12  24  42  68  96 124 174 234 272 320 404
#     4  11  24  43  67  95 134 179 220 278 334 388
#     4  10  23  42  66  98 138 174 218 277 336 394
#     4  11  24  40  62  99 133 171 219 266 326 406
#     4  11  22  41  67  99 134 175 223 269 328 414
#     4  11  23  41  65  95 136 171 217 275 328 390
#     4  10  21  44  67  91 131 175 209 274 338 379
#     4  10  24  46  66  93 132 169 223 280 330 387
#
# _framework density 24.108342
#
# number of rings (size 3 to 8) (size 9 to 14) (size 15 to 20)
#    0.000    1.333    1.333    3.600    0.000   10.667 
#    2.400    7.333    0.000    0.000    0.000    0.000 
#    0.000    0.000    0.000    0.000    0.000    0.000 
#
# Total GULP energy -83525.484212 kJ/mol
# GULP energy per Si atom -5568.365614 kJ/mol
# Density = 2.405347 g / cm^3
# Si number density = 24.108342 Si / 1000 Ang^3
#
#
#
# Elastic Constant Matrix: (Units=GPa)
#
#
# Indices 1 2 3 4 5 6 
#
# 1 49.7851 20.5302 36.2559 9.0447 -14.2283 -5.9708
# 2 20.5302 74.0791 25.9852 2.0858 4.9791 15.7011
# 3 36.2559 25.9852 126.6801 2.2735 -17.6519 3.7851
# 4 9.0447 2.0858 2.2735 38.9904 3.3710 8.7783
# 5 -14.2283 4.9791 -17.6519 3.3710 41.4107 -1.0114
# 6 -5.9708 15.7011 3.7851 8.7783 -1.0114 29.9100
#
#
#
# Elastic Compliance Matrix: (Units=1/GPa)
#
#
# Indices 1 2 3 4 5 6 
#
# 1 0.039640 -0.013376 -0.007030 -0.013852 0.013856 0.020359
# 2 -0.013376 0.021491 -0.001430 0.006377 -0.008698 -0.015936
# 3 -0.007030 -0.001430 0.010532 0.001441 0.002071 -0.002338
# 4 -0.013852 0.006377 0.001441 0.032768 -0.007975 -0.016182
# 5 0.013856 -0.008698 0.002071 -0.007975 0.031743 0.010484
# 6 0.020359 -0.015936 -0.002338 -0.016182 0.010484 0.051263
#
#
# Mechanical properties :
#
#
# Convention : Reuss Voigt Hill
#
# Bulk Modulus (GPa) = 35.72752 46.23188 40.97970
# Shear Modulus (GPa) = 20.79518 33.24707 27.02113
#
# Velocity S-wave (km/s) = 2.94014 3.71761 3.35150
# Velocity P-wave (km/s) = 5.13592 6.13562 5.65789
#
# Compressibility (1/GPa) = 0.02798963
#
# Stress axis : x y z
#
# Youngs Moduli (GPa) = 25.22682 46.53200 94.94886
#
# Poissons Ratio (x) = 0.62242 0.66751
# Poissons Ratio (y) = 0.33744 0.13580
# Poissons Ratio (z) = 0.17735 0.06655
#
# Static dielectric constant tensor:
#      x y z
#    x 1.967130 0.038970 -0.027960 
#    y 0.038970 2.022190 -0.062240 
#    z -0.027960 -0.062240 1.931860 
# 
# From -- ./inp_files/131453.got.cif
#   From: 2010.05.17/outbox.cif.g08.bks.cpg/sg2_66_cif.got.tgz:131453.got - 2010.06.03 11:33:40.
