data_PCOD9018268
_publ_section_title
;
Structure prediction by ZEFSAII (Michael W. Deem and Ramdas Pophale) SiO2 
 PCOD9018268
Probable space group: P -1
;
_chemical_formula_sum "Si O2"
_cell_formula_units_Z 16
_cell_length_a 11.824287
_cell_length_b 8.476070
_cell_length_c 15.413675
_cell_angle_alpha 129.419608
_cell_angle_beta 129.413406
_cell_angle_gamma 37.944449
_cell_volume 703.943069
_symmetry_space_group_name_H-M "P -1"
_symmetry_group_IT_number 2
_symmetry_cell_setting 'triclinic'
loop_
_space_group_symop_operation_xyz
x,y,z
-x,-y,-z
loop_
_atom_site_type_symbol
_atom_site_label
_atom_site_fract_x
_atom_site_fract_y
_atom_site_fract_z
Si Si1 0.325082 0.730500 0.437787
Si Si2 0.671488 0.973081 0.807347
Si Si3 0.261823 0.140830 0.684857
Si Si4 0.889292 0.424753 0.364010
Si Si5 0.925114 0.600878 0.149916
Si Si6 0.529852 0.177560 0.627572
Si Si7 0.925632 0.183043 0.785532
Si Si8 0.193446 0.731743 0.043257
O O1 0.500000 0.500000 0.500000
O O2 0.400117 0.738507 0.383999
O O3 0.186955 0.682769 0.314908
O O4 0.239646 0.987065 0.546061
O O5 0.866935 0.695416 0.838941
O O6 0.483654 0.011274 0.753848
O O7 0.670115 0.986271 0.706436
O O8 0.657582 0.231886 0.907133
O O9 0.144266 0.441535 0.698222
O O10 0.165562 0.176280 0.740755
O O11 0.676471 0.577032 0.350191
O O12 0.000000 0.500000 0.500000
O O13 0.986568 0.119138 0.295015
O O14 0.937848 0.740750 0.122292
O O15 0.786565 0.525733 0.056760
O O16 0.500000 0.000000 0.500000
O O17 0.826096 0.256647 0.856826
O O18 0.000000 0.000000 0.000000
#
# Coordination Sequence:
#
# PCOD9018268 Si02
#       8
#     2   2   2   2   2   2   2   2
#     4  12  25  39  63  97 137 174 213 265 340 405
#     4  10  21  43  69  94 128 178 222 279 322 389
#     4  11  24  41  65 101 135 176 223 267 331 411
#     4  11  22  37  62  95 130 173 226 263 320 407
#     4  11  26  42  67  98 138 173 226 277 333 393
#     4  11  21  38  63  91 131 173 216 269 325 394
#     4  12  24  42  68  97 137 175 215 282 339 386
#     4  10  22  44  74  93 124 179 233 278 329 388
#
# _framework density 22.729109999999999
#
# number of rings (size 3 to 8) (size 9 to 14) (size 15 to 20)
#    0.000    1.000    5.000    2.625    3.500    1.000 
#    0.000    1.250    0.000    7.500    0.000    0.000 
#    0.000    0.000    0.000    0.000    0.000    0.000 
#
# Total GULP energy -89141.514061 kJ/mol
# GULP energy per Si atom -5571.344629 kJ/mol
# Density = 2.267738 g / cm^3
# Si number density = 22.729110 Si / 1000 Ang^3
#
#
#
# Elastic Constant Matrix: (Units=GPa)
#
#
# Indices 1 2 3 4 5 6 
#
# 1 100.9025 0.7457 10.9479 13.4869 -1.3192 2.6282
# 2 0.7457 73.2865 15.3936 7.4427 -8.3512 13.3754
# 3 10.9479 15.3936 78.5680 5.5884 -2.4376 3.5376
# 4 13.4869 7.4427 5.5884 26.1742 5.9878 5.5498
# 5 -1.3192 -8.3512 -2.4376 5.9878 36.3587 5.5902
# 6 2.6282 13.3754 3.5376 5.5498 5.5902 27.0001
#
#
#
# Elastic Compliance Matrix: (Units=1/GPa)
#
#
# Indices 1 2 3 4 5 6 
#
# 1 0.010856 0.001020 -0.001221 -0.005877 0.001595 -0.000524
# 2 0.001020 0.016791 -0.002573 -0.004281 0.005715 -0.008384
# 3 -0.001221 -0.002573 0.013543 -0.001625 0.000566 -0.000164
# 4 -0.005877 -0.004281 -0.001625 0.045667 -0.008087 -0.004807
# 5 0.001595 0.005715 0.000566 -0.008087 0.031461 -0.007912
# 6 -0.000524 -0.008384 -0.000164 -0.004807 -0.007912 0.043889
#
#
# Mechanical properties :
#
#
# Convention : Reuss Voigt Hill
#
# Bulk Modulus (GPa) = 28.05707 34.10350 31.08028
# Shear Modulus (GPa) = 27.83437 32.95127 30.39282
#
# Velocity S-wave (km/s) = 3.50324 3.81167 3.66071
# Velocity P-wave (km/s) = 5.36046 5.86589 5.61886
#
# Compressibility (1/GPa) = 0.03564164
#
# Stress axis : x y z
#
# Youngs Moduli (GPa) = 92.11895 59.55495 73.84096
#
# Poissons Ratio (x) = -0.06077 0.09020
# Poissons Ratio (y) = -0.09399 0.18997
# Poissons Ratio (z) = 0.11252 0.15322
#
# Static dielectric constant tensor:
#      x y z
#    x 1.875720 -0.010040 0.099180 
#    y -0.010040 1.865980 -0.045590 
#    z 0.099180 -0.045590 1.962660 
# 
# From -- ./inp_files/418395.got.cif
#   From: 2010.05.17/outbox.cif.g08.bks.cpg/sg2_210_cif.got.tgz:418395.got - 2010.06.03 11:33:40.
