data_PCOD9018431
_publ_section_title
;
Structure prediction by ZEFSAII (Michael W. Deem and Ramdas Pophale) SiO2 
 PCOD9018431
Probable space group: P -1
;
_chemical_formula_sum "Si O2"
_cell_formula_units_Z 13
_cell_length_a 6.953835
_cell_length_b 13.588178
_cell_length_c 7.214337
_cell_angle_alpha 74.785376
_cell_angle_beta 118.767263
_cell_angle_gamma 127.833711
_cell_volume 471.413425
_symmetry_space_group_name_H-M "P -1"
_symmetry_group_IT_number 2
_symmetry_cell_setting 'triclinic'
loop_
_space_group_symop_operation_xyz
x,y,z
-x,-y,-z
loop_
_atom_site_type_symbol
_atom_site_label
_atom_site_fract_x
_atom_site_fract_y
_atom_site_fract_z
Si Si1 0.461728 0.482900 0.766406
Si Si2 0.333137 0.137827 0.010743
Si Si3 0.000000 0.000000 0.500000
Si Si4 0.138274 0.689311 0.426958
Si Si5 0.826022 0.061896 0.662577
Si Si6 0.288416 0.249532 0.270795
Si Si7 0.244527 0.636860 0.101705
O O1 0.679376 0.623496 0.731345
O O2 0.521297 0.385770 0.769589
O O3 0.157597 0.428275 0.595170
O O4 0.500000 0.500000 0.000000
O O5 0.206346 0.196070 0.048662
O O6 0.124841 0.082584 0.766023
O O7 0.627983 0.243973 0.031081
O O8 0.295426 0.028656 0.172651
O O9 0.280866 0.016188 0.536211
O O10 0.889990 0.859843 0.616729
O O11 0.401455 0.706180 0.620828
O O12 0.164173 0.670630 0.232749
O O13 0.150404 0.813132 0.398865
O O14 0.000000 0.500000 0.000000
#
# Coordination Sequence:
#
# PCOD9018431 Si02
#       7
#     2   2   1   2   2   2   2
#     4  12  23  47  71  98 144 178 228 294 331 409
#     4  10  21  43  70  96 136 183 227 281 337 405
#     4  10  24  46  68 102 138 178 228 280 348 400
#     4  12  25  43  70 104 139 180 229 284 345 409
#     4  10  22  45  72  96 137 181 229 285 337 404
#     4  11  24  44  70 103 141 182 228 282 346 406
#     4  12  24  42  70 105 134 181 233 276 349 410
#
# _framework density 27.576643000000001
#
# number of rings (size 3 to 8) (size 9 to 14) (size 15 to 20)
#    0.000    0.923    4.615    1.385    0.000    3.692 
#    8.308    0.000    0.000    0.000    0.000    0.000 
#    0.000    0.000    0.000    0.000    0.000    0.000 
#
# Total GULP energy -72651.163274 kJ/mol
# GULP energy per Si atom -5588.551021 kJ/mol
# Density = 2.751388 g / cm^3
# Si number density = 27.576643 Si / 1000 Ang^3
#
#
#
# Elastic Constant Matrix: (Units=GPa)
#
#
# Indices 1 2 3 4 5 6 
#
# 1 73.8357 42.8006 22.3777 3.6719 -6.0098 -2.0699
# 2 42.8006 201.1723 19.9335 -29.4354 -12.9881 5.7201
# 3 22.3777 19.9335 66.0702 -2.1448 -11.4480 12.4258
# 4 3.6719 -29.4354 -2.1448 40.5902 5.5115 3.2228
# 5 -6.0098 -12.9881 -11.4480 5.5115 53.9987 2.7673
# 6 -2.0699 5.7201 12.4258 3.2228 2.7673 76.3648
#
#
#
# Elastic Compliance Matrix: (Units=1/GPa)
#
#
# Indices 1 2 3 4 5 6 
#
# 1 0.017801 -0.004029 -0.005268 -0.004999 0.000311 0.001841
# 2 -0.004029 0.006670 -0.000219 0.005170 0.000624 -0.000814
# 3 -0.005268 -0.000219 0.018200 0.001093 0.003275 -0.003253
# 4 -0.004999 0.005170 0.001093 0.029312 -0.001977 -0.001866
# 5 0.000311 0.000624 0.003275 -0.001977 0.019661 -0.001200
# 6 0.001841 -0.000814 -0.003253 -0.001866 -0.001200 0.013857
#
#
# Mechanical properties :
#
#
# Convention : Reuss Voigt Hill
#
# Bulk Modulus (GPa) = 42.30261 56.81131 49.55696
# Shear Modulus (GPa) = 37.76047 51.25518 44.50782
#
# Velocity S-wave (km/s) = 3.70441 4.31588 4.02178
# Velocity P-wave (km/s) = 5.80260 6.74401 6.29094
#
# Compressibility (1/GPa) = 0.02363920
#
# Stress axis : x y z
#
# Youngs Moduli (GPa) = 56.17560 149.93556 54.94383
#
# Poissons Ratio (x) = 0.60409 0.28946
# Poissons Ratio (y) = 0.22633 0.01201
# Poissons Ratio (z) = 0.29595 0.03279
#
# Static dielectric constant tensor:
#      x y z
#    x 2.617640 -0.357240 -0.504330 
#    y -0.357240 2.525790 0.639180 
#    z -0.504330 0.639180 3.165930 
# 
# From -- ./inp_files/131384.got.cif
#   From: 2010.05.17/outbox.cif.g08.bks.cpg/sg2_66_cif.got.tgz:131384.got - 2010.06.03 11:33:40.
