data_PCOD9018959
_publ_section_title
;
Structure prediction by ZEFSAII (Michael W. Deem and Ramdas Pophale) SiO2 
 PCOD9018959
Probable space group: P -1
;
_chemical_formula_sum "Si O2"
_cell_formula_units_Z 16
_cell_length_a 11.848756
_cell_length_b 7.318368
_cell_length_c 13.499390
_cell_angle_alpha 96.945883
_cell_angle_beta 128.100145
_cell_angle_gamma 52.963579
_cell_volume 674.214843
_symmetry_space_group_name_H-M "P -1"
_symmetry_group_IT_number 2
_symmetry_cell_setting 'triclinic'
loop_
_space_group_symop_operation_xyz
x,y,z
-x,-y,-z
loop_
_atom_site_type_symbol
_atom_site_label
_atom_site_fract_x
_atom_site_fract_y
_atom_site_fract_z
Si Si1 0.694163 0.418868 0.556349
Si Si2 0.765836 0.828389 0.028112
Si Si3 0.730276 0.240011 0.928098
Si Si4 0.088407 0.547745 0.637301
Si Si5 0.293513 0.699021 0.673946
Si Si6 0.887884 0.021053 0.792828
Si Si7 0.626678 0.995525 0.185627
Si Si8 0.849559 0.666676 0.711279
O O1 0.500000 0.500000 0.500000
O O2 0.702390 0.374024 0.441402
O O3 0.710043 0.619327 0.606432
O O4 0.860456 0.164885 0.689615
O O5 0.980131 0.560896 0.141195
O O6 0.690529 0.966845 0.104163
O O7 0.604660 0.814952 0.913073
O O8 0.761081 0.001044 0.961276
O O9 0.503960 0.482250 0.824662
O O10 0.804230 0.203983 0.853507
O O11 0.883860 0.212888 0.079198
O O12 0.131989 0.717261 0.641406
O O13 0.000000 0.500000 0.500000
O O14 0.952126 0.640728 0.663514
O O15 0.291727 0.273943 0.757368
O O16 0.271372 0.936185 0.689677
O O17 0.772301 0.928004 0.725244
#
# Coordination Sequence:
#
# PCOD9018959 Si02
#       8
#     2   2   2   2   2   2   2   2
#     4  12  26  46  65  98 139 173 224 271 322 402
#     4  10  21  44  66  98 135 167 220 276 323 395
#     4  11  23  45  69  98 132 169 232 274 319 399
#     4  11  24  42  62  98 135 169 221 265 320 406
#     4  12  25  42  70 101 134 175 218 274 333 390
#     4  11  26  45  69  96 131 180 221 276 329 382
#     4  10  24  40  66  99 134 171 213 273 334 384
#     4  11  25  44  68  96 133 175 218 271 334 388
#
# _framework density 23.731307999999999
#
# number of rings (size 3 to 8) (size 9 to 14) (size 15 to 20)
#    0.000    1.000    5.000    0.750    3.500    3.000 
#    0.000    0.000    0.000    0.000    0.000    0.000 
#    0.000    0.000    0.000    0.000    0.000    0.000 
#
# Total GULP energy -89572.218786 kJ/mol
# GULP energy per Si atom -5598.263674 kJ/mol
# Density = 2.367729 g / cm^3
# Si number density = 23.731308 Si / 1000 Ang^3
#
#
#
# Elastic Constant Matrix: (Units=GPa)
#
#
# Indices 1 2 3 4 5 6 
#
# 1 75.5693 8.9302 18.4881 5.7922 14.2983 29.0904
# 2 8.9302 60.1448 10.5394 24.4942 7.3159 29.9857
# 3 18.4881 10.5394 94.8599 12.8211 7.3344 9.0596
# 4 5.7922 24.4942 12.8211 36.3143 11.6324 14.9341
# 5 14.2983 7.3159 7.3344 11.6324 37.2742 3.7380
# 6 29.0904 29.9857 9.0596 14.9341 3.7380 34.4925
#
#
#
# Elastic Compliance Matrix: (Units=1/GPa)
#
#
# Indices 1 2 3 4 5 6 
#
# 1 0.027571 0.012763 -0.003439 0.006004 -0.010781 -0.034876
# 2 0.012763 0.039658 -0.001294 -0.010247 -0.005226 -0.039898
# 3 -0.003439 -0.001294 0.011606 -0.003818 0.000220 0.002606
# 4 0.006004 -0.010247 -0.003818 0.043978 -0.011972 -0.012896
# 5 -0.010781 -0.005226 0.000220 -0.011972 0.034172 0.015058
# 6 -0.034876 -0.039898 0.002606 -0.012896 0.015058 0.096358
#
#
# Mechanical properties :
#
#
# Convention : Reuss Voigt Hill
#
# Bulk Modulus (GPa) = 10.53787 34.05436 22.29612
# Shear Modulus (GPa) = 18.59326 34.45731 26.52528
#
# Velocity S-wave (km/s) = 2.80213 3.81462 3.34688
# Velocity P-wave (km/s) = 3.86256 5.81230 4.93468
#
# Compressibility (1/GPa) = 0.09489581
#
# Stress axis : x y z
#
# Youngs Moduli (GPa) = 36.26982 25.21532 86.16209
#
# Poissons Ratio (x) = -0.32182 0.29628
# Poissons Ratio (y) = -0.46291 0.11152
# Poissons Ratio (z) = 0.12472 0.03264
#
# Static dielectric constant tensor:
#      x y z
#    x 1.853460 -0.024870 0.024420 
#    y -0.024870 1.962740 -0.008940 
#    z 0.024420 -0.008940 1.956220 
# 
# From -- ./inp_files/69347.got.cif
#   From: 2010.05.17/outbox.cif.g08.bks.cpg/sg2_35_cif.got.tgz:69347.got - 2010.06.03 11:33:40.
