data_PCOD9018989
_publ_section_title
;
Structure prediction by ZEFSAII (Michael W. Deem and Ramdas Pophale) SiO2 
 PCOD9018989
Probable space group: P -1
;
_chemical_formula_sum "Si O2"
_cell_formula_units_Z 12
_cell_length_a 9.728577
_cell_length_b 10.509098
_cell_length_c 13.153753
_cell_angle_alpha 109.992345
_cell_angle_beta 133.063488
_cell_angle_gamma 40.668247
_cell_volume 594.928705
_symmetry_space_group_name_H-M "P -1"
_symmetry_group_IT_number 2
_symmetry_cell_setting 'triclinic'
loop_
_space_group_symop_operation_xyz
x,y,z
-x,-y,-z
loop_
_atom_site_type_symbol
_atom_site_label
_atom_site_fract_x
_atom_site_fract_y
_atom_site_fract_z
Si Si1 0.261640 0.323226 0.006975
Si Si2 0.702519 0.018367 0.627680
Si Si3 0.334382 0.120507 0.800332
Si Si4 0.360091 0.621058 0.822136
Si Si5 0.658227 0.173288 0.858054
Si Si6 0.960804 0.891613 0.518246
O O1 0.427814 0.366019 0.061900
O O2 0.492377 0.100575 0.122351
O O3 0.161873 0.289982 0.850158
O O4 0.000000 0.500000 0.000000
O O5 0.044852 0.800875 0.768092
O O6 0.742383 0.054784 0.544301
O O7 0.500000 0.000000 0.500000
O O8 0.589068 0.168021 0.705085
O O9 0.549154 0.114718 0.860812
O O10 0.154526 0.163128 0.626596
O O11 0.510594 0.398662 0.865529
O O12 0.250254 0.684744 0.666649
O O13 0.000000 0.000000 0.000000
O O14 0.000000 0.000000 0.500000
#
# Coordination Sequence:
#
# PCOD9018989 Si02
#       6
#     2   2   2   2   2   2
#     4  11  24  43  64  96 130 176 227 265 326 407
#     4  10  22  42  67  95 137 171 223 270 330 402
#     4  11  23  42  66  91 131 173 220 277 325 388
#     4  10  24  42  64  99 133 169 227 274 320 405
#     4  12  24  41  67 100 133 177 219 274 337 389
#     4  10  21  44  67  90 135 173 214 281 327 376
#
# _framework density 20.170483000000001
#
# number of rings (size 3 to 8) (size 9 to 14) (size 15 to 20)
#    1.000    0.333    3.333    2.000    0.000    9.333 
#    3.000    1.667    0.000    0.000    0.000    0.000 
#    0.000    0.000    0.000    0.000    0.000    0.000 
#
# Total GULP energy -66910.406841 kJ/mol
# GULP energy per Si atom -5575.867237 kJ/mol
# Density = 2.012457 g / cm^3
# Si number density = 20.170483 Si / 1000 Ang^3
#
#
#
# Elastic Constant Matrix: (Units=GPa)
#
#
# Indices 1 2 3 4 5 6 
#
# 1 109.3152 32.6911 -0.1604 10.1960 4.4920 6.5887
# 2 32.6911 93.2177 9.1719 13.9020 10.6726 0.3802
# 3 -0.1604 9.1719 62.6181 25.9518 -3.2832 -5.0640
# 4 10.1960 13.9020 25.9518 33.6122 -4.9311 -10.4201
# 5 4.4920 10.6726 -3.2832 -4.9311 38.1248 8.1716
# 6 6.5887 0.3802 -5.0640 -10.4201 8.1716 45.1419
#
#
#
# Elastic Compliance Matrix: (Units=1/GPa)
#
#
# Indices 1 2 3 4 5 6 
#
# 1 0.010666 -0.003284 0.002050 -0.004183 -0.000225 -0.002224
# 2 -0.003284 0.013071 -0.000087 -0.004939 -0.003903 -0.000074
# 3 0.002050 -0.000087 0.024021 -0.019832 -0.000256 -0.002135
# 4 -0.004183 -0.004939 -0.019832 0.052051 0.004850 0.009564
# 5 -0.000225 -0.003903 -0.000256 0.004850 0.028824 -0.004061
# 6 -0.002224 -0.000074 -0.002135 0.009564 -0.004061 0.025181
#
#
# Mechanical properties :
#
#
# Convention : Reuss Voigt Hill
#
# Bulk Modulus (GPa) = 22.16408 38.72847 30.44627
# Shear Modulus (GPa) = 29.15530 38.27233 33.71382
#
# Velocity S-wave (km/s) = 3.80602 4.36069 4.09276
# Velocity P-wave (km/s) = 5.50696 6.67805 6.12058
#
# Compressibility (1/GPa) = 0.04511805
#
# Stress axis : x y z
#
# Youngs Moduli (GPa) = 93.75316 76.50325 41.63026
#
# Poissons Ratio (x) = 0.25121 -0.08535
# Poissons Ratio (y) = 0.30786 0.00361
# Poissons Ratio (z) = -0.19221 0.00664
#
# Static dielectric constant tensor:
#      x y z
#    x 1.750530 -0.054050 -0.022880 
#    y -0.054050 1.628140 -0.020880 
#    z -0.022880 -0.020880 1.734680 
# 
# From -- ./inp_files/133246.got.cif
#   From: 2010.05.17/outbox.cif.g08.bks.cpg/sg2_67_cif.got.tgz:133246.got - 2010.06.03 11:33:40.
