data_PCOD9018648
_publ_section_title
;
Structure prediction by ZEFSAII (Michael W. Deem and Ramdas Pophale) SiO2 
 PCOD9018648
Probable space group: P -1
;
_chemical_formula_sum "Si O2"
_cell_formula_units_Z 14
_cell_length_a 8.276481
_cell_length_b 14.603700
_cell_length_c 9.829375
_cell_angle_alpha 33.769692
_cell_angle_beta 62.900230
_cell_angle_gamma 60.313741
_cell_volume 571.338918
_symmetry_space_group_name_H-M "P -1"
_symmetry_group_IT_number 2
_symmetry_cell_setting 'triclinic'
loop_
_space_group_symop_operation_xyz
x,y,z
-x,-y,-z
loop_
_atom_site_type_symbol
_atom_site_label
_atom_site_fract_x
_atom_site_fract_y
_atom_site_fract_z
Si Si1 0.086055 0.297556 0.737543
Si Si2 0.834270 0.666811 0.856273
Si Si3 0.898718 0.900474 0.769193
Si Si4 0.602533 0.216492 0.446675
Si Si5 0.382605 0.745609 0.916903
Si Si6 0.429839 0.441818 0.456994
Si Si7 0.221246 0.120252 0.637809
O O1 0.295590 0.312516 0.684472
O O2 0.093010 0.182992 0.740642
O O3 0.000000 0.500000 0.500000
O O4 0.672868 0.392667 0.793653
O O5 0.851490 0.748996 0.891669
O O6 0.611282 0.687044 0.899396
O O7 0.880959 0.784712 0.571842
O O8 0.000000 0.500000 0.000000
O O9 0.984270 0.813320 0.982476
O O10 0.711306 0.043059 0.686398
O O11 0.000000 0.000000 0.500000
O O12 0.674889 0.255043 0.220764
O O13 0.592657 0.353419 0.398961
O O14 0.395966 0.199562 0.511089
O O15 0.315670 0.929874 0.785695
O O16 0.500000 0.500000 0.500000
#
# Coordination Sequence:
#
# PCOD9018648 Si02
#       7
#     2   2   2   2   2   2   2
#     4  11  27  48  67 101 146 184 226 292 363 409
#     4  11  22  41  68 104 143 178 229 286 343 411
#     4  12  26  43  69  98 139 181 235 282 346 419
#     4  10  22  43  68  99 134 180 233 280 337 415
#     4  11  21  43  72 104 134 182 237 283 343 415
#     4  11  26  41  71 102 137 179 232 289 346 411
#     4  10  21  43  73  96 135 185 226 289 342 409
#
# _framework density 24.503845999999999
#
# number of rings (size 3 to 8) (size 9 to 14) (size 15 to 20)
#    0.000    1.143    2.857    3.000    6.000    1.143 
#    0.000    1.429    0.000    0.000    0.000    0.000 
#    0.000    0.000    0.000    0.000    0.000    0.000 
#
# Total GULP energy -78143.845162 kJ/mol
# GULP energy per Si atom -5581.703226 kJ/mol
# Density = 2.444807 g / cm^3
# Si number density = 24.503846 Si / 1000 Ang^3
#
#
#
# Elastic Constant Matrix: (Units=GPa)
#
#
# Indices 1 2 3 4 5 6 
#
# 1 47.8315 35.6546 9.4230 5.4021 9.1957 6.7586
# 2 35.6546 209.6053 101.8109 -7.8792 15.3904 32.3084
# 3 9.4230 101.8109 160.8343 -5.5276 32.4956 -0.7842
# 4 5.4021 -7.8792 -5.5276 61.1332 -9.3516 0.9768
# 5 9.1957 15.3904 32.4956 -9.3516 39.8488 1.9267
# 6 6.7586 32.3084 -0.7842 0.9768 1.9267 34.3502
#
#
#
# Elastic Compliance Matrix: (Units=1/GPa)
#
#
# Indices 1 2 3 4 5 6 
#
# 1 0.026491 -0.006075 0.003740 -0.003999 -0.007810 0.001139
# 2 -0.006075 0.010368 -0.006991 0.001997 0.004002 -0.008997
# 3 0.003740 -0.006991 0.012177 -0.001581 -0.008786 0.006656
# 4 -0.003999 0.001997 -0.001581 0.017728 0.005695 -0.001951
# 5 -0.007810 0.004002 -0.008786 0.005695 0.034070 -0.004501
# 6 0.001139 -0.008997 0.006656 -0.001951 -0.004501 0.037810
#
#
# Mechanical properties :
#
#
# Convention : Reuss Voigt Hill
#
# Bulk Modulus (GPa) = 32.91335 79.11646 56.01491
# Shear Modulus (GPa) = 29.86417 45.15860 37.51139
#
# Velocity S-wave (km/s) = 3.49485 4.29758 3.91684
# Velocity P-wave (km/s) = 5.45403 7.54871 6.58519
#
# Compressibility (1/GPa) = 0.03038281
#
# Stress axis : x y z
#
# Youngs Moduli (GPa) = 37.74934 96.45011 82.12052
#
# Poissons Ratio (x) = 0.58593 -0.30709
# Poissons Ratio (y) = 0.22933 0.57411
# Poissons Ratio (z) = -0.14117 0.67429
#
# Static dielectric constant tensor:
#      x y z
#    x 2.087450 -0.160580 -0.025780 
#    y -0.160580 2.086880 -0.017590 
#    z -0.025780 -0.017590 2.019840 
# 
# From -- ./inp_files/395239.got.cif
#   From: 2010.05.17/outbox.cif.g08.bks.cpg/sg2_198_cif.got.tgz:395239.got - 2010.06.03 11:33:40.
