data_PCOD9018997
_publ_section_title
;
Structure prediction by ZEFSAII (Michael W. Deem and Ramdas Pophale) SiO2 
 PCOD9018997
Probable space group: P -1
;
_chemical_formula_sum "Si O2"
_cell_formula_units_Z 14
_cell_length_a 23.427008
_cell_length_b 13.655944
_cell_length_c 16.409981
_cell_angle_alpha 25.264728
_cell_angle_beta 163.446711
_cell_angle_gamma 154.517514
_cell_volume 609.996928
_symmetry_space_group_name_H-M "P -1"
_symmetry_group_IT_number 2
_symmetry_cell_setting 'triclinic'
loop_
_space_group_symop_operation_xyz
x,y,z
-x,-y,-z
loop_
_atom_site_type_symbol
_atom_site_label
_atom_site_fract_x
_atom_site_fract_y
_atom_site_fract_z
Si Si1 0.321962 0.536705 0.286289
Si Si2 0.601604 0.543033 0.375153
Si Si3 0.826388 0.739762 0.038345
Si Si4 0.129123 0.930440 0.653689
Si Si5 0.181672 0.744335 0.393075
Si Si6 0.864380 0.253230 0.862828
Si Si7 0.159913 0.244425 0.769823
O O1 0.500000 0.500000 0.500000
O O2 0.424224 0.591188 0.473202
O O3 0.236610 0.741224 0.978134
O O4 0.109223 0.316007 0.173285
O O5 0.764306 0.440442 0.626268
O O6 0.692775 0.823103 0.305877
O O7 0.382486 0.480108 0.076670
O O8 0.925765 0.785290 0.230897
O O9 0.983716 0.692512 0.222466
O O10 0.747178 0.964619 0.729725
O O11 0.994765 0.824142 0.468659
O O12 0.000000 0.000000 0.500000
O O13 0.134801 0.707084 0.261675
O O14 0.280784 0.528807 0.712682
O O15 0.739649 0.978506 0.923806
#
# Coordination Sequence:
#
# PCOD9018997 Si02
#       7
#     2   2   2   2   2   2   2
#     4  12  25  41  68 102 139 178 229 283 342 406
#     4  12  25  44  69 102 142 176 237 281 345 416
#     4  10  25  42  67 100 132 183 224 291 338 411
#     4  12  24  44  73 102 138 188 226 284 354 409
#     4  10  21  44  67  92 138 175 231 276 348 404
#     4  11  22  42  67  98 134 182 221 289 344 401
#     4  11  22  40  72  94 134 179 226 276 349 404
#
# _framework density 22.950932999999999
#
# number of rings (size 3 to 8) (size 9 to 14) (size 15 to 20)
#    0.000    0.857    4.286    2.571    0.000    5.143 
#    0.000    3.571    0.000    0.000    0.000    0.000 
#    0.000    0.000    0.000    0.000    0.000    0.000 
#
# Total GULP energy -78073.058714 kJ/mol
# GULP energy per Si atom -5576.647051 kJ/mol
# Density = 2.289870 g / cm^3
# Si number density = 22.950933 Si / 1000 Ang^3
#
#
#
# Elastic Constant Matrix: (Units=GPa)
#
#
# Indices 1 2 3 4 5 6 
#
# 1 170.5486 -10.7540 51.1639 13.5112 -9.4761 -16.8038
# 2 -10.7540 163.1548 33.1604 -28.8797 -20.0928 -27.1481
# 3 51.1639 33.1604 71.8785 -17.2890 -10.8143 -12.2103
# 4 13.5112 -28.8797 -17.2890 45.5242 10.8224 -4.6892
# 5 -9.4761 -20.0928 -10.8143 10.8224 40.9922 -11.8870
# 6 -16.8038 -27.1481 -12.2103 -4.6892 -11.8870 29.5518
#
#
#
# Elastic Compliance Matrix: (Units=1/GPa)
#
#
# Indices 1 2 3 4 5 6 
#
# 1 0.009469 0.003010 -0.007352 -0.004148 0.004654 0.006326
# 2 0.003010 0.011338 -0.002198 0.004958 0.008882 0.015578
# 3 -0.007352 -0.002198 0.024067 0.009921 0.002825 0.006455
# 4 -0.004148 0.004958 0.009921 0.031484 -0.001075 0.010858
# 5 0.004654 0.008882 0.002825 -0.001075 0.038802 0.027411
# 6 0.006326 0.015578 0.006455 0.010858 0.027411 0.067163
#
#
# Mechanical properties :
#
#
# Convention : Reuss Voigt Hill
#
# Bulk Modulus (GPa) = 31.45161 61.41361 46.43261
# Shear Modulus (GPa) = 24.27168 45.34773 34.80971
#
# Velocity S-wave (km/s) = 3.25552 4.44988 3.89871
# Velocity P-wave (km/s) = 5.27871 7.29511 6.36724
#
# Compressibility (1/GPa) = 0.03179488
#
# Stress axis : x y z
#
# Youngs Moduli (GPa) = 105.60563 88.20096 41.55003
#
# Poissons Ratio (x) = -0.26548 0.30546
# Poissons Ratio (y) = -0.31787 0.09133
# Poissons Ratio (z) = 0.77638 0.19386
#
# Static dielectric constant tensor:
#      x y z
#    x 1.832940 0.025530 0.002640 
#    y 0.025530 1.942640 0.027360 
#    z 0.002640 0.027360 1.913470 
# 
# From -- ./inp_files/541077.got.cif
#   From: 2010.05.17/outbox.cif.g08.bks.cpg/sg2_271_cif.got.tgz:541077.got - 2010.06.03 11:33:40.
