data_PCOD9018882
_publ_section_title
;
Structure prediction by ZEFSAII (Michael W. Deem and Ramdas Pophale) SiO2 
 PCOD9018882
Probable space group: P -1
;
_chemical_formula_sum "Si O2"
_cell_formula_units_Z 16
_cell_length_a 15.807393
_cell_length_b 14.034774
_cell_length_c 15.098156
_cell_angle_alpha 38.083655
_cell_angle_beta 161.297550
_cell_angle_gamma 143.199578
_cell_volume 636.184374
_symmetry_space_group_name_H-M "P -1"
_symmetry_group_IT_number 2
_symmetry_cell_setting 'triclinic'
loop_
_space_group_symop_operation_xyz
x,y,z
-x,-y,-z
loop_
_atom_site_type_symbol
_atom_site_label
_atom_site_fract_x
_atom_site_fract_y
_atom_site_fract_z
Si Si1 0.076522 0.915404 0.723800
Si Si2 0.457161 0.488943 0.777700
Si Si3 0.273335 0.423971 0.442801
Si Si4 0.392171 0.710407 0.257952
Si Si5 0.942099 0.303287 0.713808
Si Si6 0.158435 0.095727 0.323383
Si Si7 0.674563 0.680413 0.064810
Si Si8 0.360808 0.975466 0.260325
O O1 0.955524 0.730949 0.705465
O O2 0.956614 0.989934 0.634622
O O3 0.352651 0.880935 0.063011
O O4 0.000000 0.000000 0.500000
O O5 0.359541 0.441743 0.616639
O O6 0.389392 0.327384 0.888771
O O7 0.251642 0.585558 0.539579
O O8 0.766381 0.608177 0.011648
O O9 0.182812 0.578693 0.206101
O O10 0.530074 0.385328 0.676044
O O11 0.646682 0.746120 0.554152
O O12 0.028735 0.304787 0.695453
O O13 0.770945 0.127374 0.708486
O O14 0.360669 0.045659 0.490886
O O15 0.885899 0.098062 0.000032
O O16 0.500000 0.500000 0.000000
O O17 0.611618 0.835531 0.846149
#
# Coordination Sequence:
#
# PCOD9018882 Si02
#       8
#     2   2   2   2   2   2   2   2
#     4  11  25  42  66  98 151 185 233 287 346 412
#     4  11  25  43  71 103 142 180 236 284 349 421
#     4  10  23  38  68 102 132 194 228 287 342 405
#     4  10  21  44  65  99 145 178 236 288 338 406
#     4  11  24  46  70 104 137 181 231 292 350 415
#     4  11  25  43  70 106 139 180 233 288 339 402
#     4  10  26  49  71 103 144 179 224 294 359 422
#     4  12  24  44  76 103 136 185 236 283 346 425
#
# _framework density 25.149940999999998
#
# number of rings (size 3 to 8) (size 9 to 14) (size 15 to 20)
#    0.000    1.250    1.250    3.375    3.500    7.000 
#    0.000    4.375    0.000    0.000    0.000    0.000 
#    0.000    0.000    0.000    0.000    0.000    0.000 
#
# Total GULP energy -89143.849681 kJ/mol
# GULP energy per Si atom -5571.490605 kJ/mol
# Density = 2.509270 g / cm^3
# Si number density = 25.149941 Si / 1000 Ang^3
#
#
#
# Elastic Constant Matrix: (Units=GPa)
#
#
# Indices 1 2 3 4 5 6 
#
# 1 138.8212 26.0937 23.2428 -8.9309 -1.5084 14.7796
# 2 26.0937 93.8585 15.0447 -16.7734 8.9276 10.6338
# 3 23.2428 15.0447 111.8094 -1.4981 14.6993 5.5264
# 4 -8.9309 -16.7734 -1.4981 35.1345 0.5643 -12.3267
# 5 -1.5084 8.9276 14.6993 0.5643 41.7608 -4.2901
# 6 14.7796 10.6338 5.5264 -12.3267 -4.2901 38.6154
#
#
#
# Elastic Compliance Matrix: (Units=1/GPa)
#
#
# Indices 1 2 3 4 5 6 
#
# 1 0.008045 -0.001787 -0.001446 0.000357 0.000955 -0.002160
# 2 -0.001787 0.012602 -0.000839 0.005101 -0.002669 -0.001335
# 3 -0.001446 -0.000839 0.009864 -0.000728 -0.003463 -0.001245
# 4 0.000357 0.005101 -0.000728 0.034285 -0.000311 0.009473
# 5 0.000955 -0.002669 -0.003463 -0.000311 0.026151 0.003671
# 6 -0.002160 -0.001335 -0.001245 0.009473 0.003671 0.030700
#
#
# Mechanical properties :
#
#
# Convention : Reuss Voigt Hill
#
# Bulk Modulus (GPa) = 44.70760 52.58350 48.64555
# Shear Modulus (GPa) = 36.43028 41.77600 39.10314
#
# Velocity S-wave (km/s) = 3.81008 4.08005 3.94737
# Velocity P-wave (km/s) = 6.09677 6.56880 6.33718
#
# Compressibility (1/GPa) = 0.02236756
#
# Stress axis : x y z
#
# Youngs Moduli (GPa) = 124.30375 79.35019 101.37594
#
# Poissons Ratio (x) = 0.14181 0.14658
# Poissons Ratio (y) = 0.22214 0.08505
# Poissons Ratio (z) = 0.17973 0.06657
#
# Static dielectric constant tensor:
#      x y z
#    x 2.110750 0.084200 -0.065530 
#    y 0.084200 2.074110 0.044990 
#    z -0.065530 0.044990 2.678400 
# 
# From -- ./inp_files/534297.got.cif
#   From: 2010.05.17/outbox.cif.g08.bks.cpg/sg2_268_cif.got.tgz:534297.got - 2010.06.03 11:33:40.
