data_PCOD9018329
_publ_section_title
;
Structure prediction by ZEFSAII (Michael W. Deem and Ramdas Pophale) SiO2 
 PCOD9018329
Probable space group: P -1
;
_chemical_formula_sum "Si O2"
_cell_formula_units_Z 16
_cell_length_a 11.749081
_cell_length_b 9.024269
_cell_length_c 10.668112
_cell_angle_alpha 95.071759
_cell_angle_beta 59.617178
_cell_angle_gamma 129.549378
_cell_volume 704.448825
_symmetry_space_group_name_H-M "P -1"
_symmetry_group_IT_number 2
_symmetry_cell_setting 'triclinic'
loop_
_space_group_symop_operation_xyz
x,y,z
-x,-y,-z
loop_
_atom_site_type_symbol
_atom_site_label
_atom_site_fract_x
_atom_site_fract_y
_atom_site_fract_z
Si Si1 0.615033 0.439138 0.464053
Si Si2 0.738107 0.854301 0.635341
Si Si3 0.010850 0.721232 0.391224
Si Si4 0.945141 0.166795 0.346050
Si Si5 0.626153 0.261451 0.190014
Si Si6 0.344686 0.458762 0.162718
Si Si7 0.322583 0.758380 0.105869
Si Si8 0.371785 0.999385 0.660414
O O1 0.500000 0.500000 0.500000
O O2 0.658753 0.391874 0.301785
O O3 0.812294 0.577399 0.431652
O O4 0.473695 0.234846 0.613189
O O5 0.815539 0.937166 0.459125
O O6 0.579097 0.850325 0.735940
O O7 0.669470 0.643717 0.706683
O O8 0.017215 0.705052 0.538856
O O9 0.144697 0.277191 0.201045
O O10 0.150002 0.715033 0.249868
O O11 0.102950 0.956940 0.351832
O O12 0.824793 0.147313 0.305810
O O13 0.638078 0.100115 0.214582
O O14 0.729765 0.354330 0.008541
O O15 0.371999 0.657000 0.159599
O O16 0.500000 0.500000 0.000000
O O17 0.500000 0.000000 0.000000
O O18 0.500000 0.000000 0.500000
#
# Coordination Sequence:
#
# PCOD9018329 Si02
#       8
#     2   2   2   2   2   2   2   2
#     4  11  25  41  67 108 143 184 238 296 359 421
#     4  10  21  46  70 102 139 186 235 295 350 416
#     4  10  24  42  70 103 137 180 247 293 344 414
#     4  10  23  43  75 101 139 180 248 288 343 424
#     4  11  23  46  68  95 151 188 226 297 358 418
#     4  12  25  40  72 106 138 186 234 293 368 405
#     4  12  25  47  69 103 144 186 242 300 351 426
#     4  10  21  43  69  98 142 189 229 289 367 416
#
# _framework density 22.712789999999998
#
# number of rings (size 3 to 8) (size 9 to 14) (size 15 to 20)
#    0.750    0.500    5.000    0.375    7.000    2.000 
#    0.000    0.000    0.000    1.500    0.000    0.000 
#    0.000    0.000    0.000    0.000    0.000    0.000 
#
# Total GULP energy -89232.399190 kJ/mol
# GULP energy per Si atom -5577.024949 kJ/mol
# Density = 2.266109 g / cm^3
# Si number density = 22.712790 Si / 1000 Ang^3
#
#
#
# Elastic Constant Matrix: (Units=GPa)
#
#
# Indices 1 2 3 4 5 6 
#
# 1 162.5697 64.1106 38.8008 -5.6584 -15.3269 -5.5379
# 2 64.1106 119.4631 36.5983 -14.5087 0.0786 -20.3145
# 3 38.8008 36.5983 108.5724 2.9789 -15.1220 -3.0259
# 4 -5.6584 -14.5087 2.9789 34.8632 -2.8175 7.6649
# 5 -15.3269 0.0786 -15.1220 -2.8175 45.1003 -1.3989
# 6 -5.5379 -20.3145 -3.0259 7.6649 -1.3989 52.6090
#
#
#
# Elastic Compliance Matrix: (Units=1/GPa)
#
#
# Indices 1 2 3 4 5 6 
#
# 1 0.008306 -0.004200 -0.001242 0.000068 0.002394 -0.000765
# 2 -0.004200 0.012656 -0.003065 0.003874 -0.002122 0.003648
# 3 -0.001242 -0.003065 0.011182 -0.002114 0.003192 -0.000278
# 4 0.000068 0.003874 -0.002114 0.031273 0.001164 -0.003144
# 5 0.002394 -0.002122 0.003192 0.001164 0.024136 0.000088
# 6 -0.000765 0.003648 -0.000278 -0.003144 0.000088 0.020781
#
#
# Mechanical properties :
#
#
# Convention : Reuss Voigt Hill
#
# Bulk Modulus (GPa) = 66.09876 74.40272 70.25074
# Shear Modulus (GPa) = 38.34570 43.25420 40.79995
#
# Velocity S-wave (km/s) = 4.11333 4.36868 4.24293
# Velocity P-wave (km/s) = 7.19198 7.63389 7.41623
#
# Compressibility (1/GPa) = 0.01512888
#
# Stress axis : x y z
#
# Youngs Moduli (GPa) = 120.39219 79.01244 89.42578
#
# Poissons Ratio (x) = 0.33189 0.11109
# Poissons Ratio (y) = 0.50570 0.27412
# Poissons Ratio (z) = 0.14955 0.24220
#
# Static dielectric constant tensor:
#      x y z
#    x 1.832300 0.064080 0.033700 
#    y 0.064080 1.915760 0.028420 
#    z 0.033700 0.028420 1.850220 
# 
# From -- ./inp_files/417318.got.cif
#   From: 2010.05.17/outbox.cif.g08.bks.cpg/sg2_209_cif.got.tgz:417318.got - 2010.06.03 11:33:40.
