data_PCOD9018100
_publ_section_title
;
Structure prediction by ZEFSAII (Michael W. Deem and Ramdas Pophale) SiO2 
 PCOD9018100
Probable space group: P -1
;
_chemical_formula_sum "Si O2"
_cell_formula_units_Z 14
_cell_length_a 13.960639
_cell_length_b 12.541846
_cell_length_c 9.426182
_cell_angle_alpha 77.663653
_cell_angle_beta 122.175938
_cell_angle_gamma 148.646371
_cell_volume 608.264205
_symmetry_space_group_name_H-M "P -1"
_symmetry_group_IT_number 2
_symmetry_cell_setting 'triclinic'
loop_
_space_group_symop_operation_xyz
x,y,z
-x,-y,-z
loop_
_atom_site_type_symbol
_atom_site_label
_atom_site_fract_x
_atom_site_fract_y
_atom_site_fract_z
Si Si1 0.332164 0.140552 0.745298
Si Si2 0.601528 0.464833 0.111712
Si Si3 0.027094 0.696158 0.533014
Si Si4 0.887588 0.775399 0.705986
Si Si5 0.347539 0.811862 0.559594
Si Si6 0.750711 0.000929 0.871812
Si Si7 0.644843 0.779940 0.588773
O O1 0.244149 0.939026 0.729402
O O2 0.091469 0.981762 0.687136
O O3 0.362493 0.201418 0.590048
O O4 0.573226 0.380832 0.960932
O O5 0.862956 0.650956 0.339203
O O6 0.391084 0.226700 0.111521
O O7 0.500000 0.500000 0.000000
O O8 0.836237 0.451548 0.537475
O O9 0.171867 0.746533 0.519110
O O10 0.824046 0.829483 0.727583
O O11 0.635436 0.507386 0.513612
O O12 0.992293 0.778267 0.900653
O O13 0.576456 0.953059 0.786566
O O14 0.500000 0.000000 0.500000
O O15 0.741163 0.963034 0.708736
#
# Coordination Sequence:
#
# PCOD9018100 Si02
#       7
#     2   2   2   2   2   2   2
#     4  11  24  40  65  98 130 174 216 262 329 392
#     4  10  24  40  67 100 138 172 215 263 332 399
#     4  10  23  42  68  93 131 173 217 273 325 385
#     4  10  23  39  57  91 133 165 212 265 313 389
#     4  10  21  43  68  93 124 174 225 271 326 379
#     4  10  22  42  63  92 131 168 214 271 319 385
#     4  11  23  37  62  92 130 173 212 254 325 389
#
# _framework density 23.016313
#
# number of rings (size 3 to 8) (size 9 to 14) (size 15 to 20)
#    0.000    1.714    0.000    3.429   10.000    2.286 
#    0.000   12.857    0.000   16.286    0.000    0.000 
#    0.000    0.000    0.000    0.000    0.000    0.000 
#
# Total GULP energy -78118.518787 kJ/mol
# GULP energy per Si atom -5579.894199 kJ/mol
# Density = 2.296393 g / cm^3
# Si number density = 23.016313 Si / 1000 Ang^3
#
#
#
# Elastic Constant Matrix: (Units=GPa)
#
#
# Indices 1 2 3 4 5 6 
#
# 1 102.6259 13.6424 31.6211 -5.3599 13.2117 -10.2172
# 2 13.6424 99.3620 6.9303 -19.0376 8.8497 3.7313
# 3 31.6211 6.9303 76.8465 -19.9122 -1.0834 -1.6019
# 4 -5.3599 -19.0376 -19.9122 17.4837 4.8718 -1.8449
# 5 13.2117 8.8497 -1.0834 4.8718 30.7271 -1.9924
# 6 -10.2172 3.7313 -1.6019 -1.8449 -1.9924 39.7513
#
#
#
# Elastic Compliance Matrix: (Units=1/GPa)
#
#
# Indices 1 2 3 4 5 6 
#
# 1 0.012410 -0.001563 -0.005717 -0.002877 -0.004453 0.002749
# 2 -0.001563 0.015252 0.005444 0.024311 -0.007439 -0.000859
# 3 -0.005717 0.005444 0.022919 0.031203 -0.003234 0.000229
# 4 -0.002877 0.024311 0.031203 0.125411 -0.024364 0.002835
# 5 -0.004453 -0.007439 -0.003234 -0.024364 0.040371 0.000316
# 6 0.002749 -0.000859 0.000229 0.002835 0.000316 0.026100
#
#
# Mechanical properties :
#
#
# Convention : Reuss Voigt Hill
#
# Bulk Modulus (GPa) = 21.31756 42.58022 31.94889
# Shear Modulus (GPa) = 19.10072 32.70179 25.90126
#
# Velocity S-wave (km/s) = 2.88388 3.77345 3.35825
# Velocity P-wave (km/s) = 4.51344 6.12580 5.38036
#
# Compressibility (1/GPa) = 0.04690969
#
# Stress axis : x y z
#
# Youngs Moduli (GPa) = 80.58025 65.56603 43.63261
#
# Poissons Ratio (x) = 0.10249 0.24943
# Poissons Ratio (y) = 0.12596 -0.23755
# Poissons Ratio (z) = 0.46064 -0.35696
#
# Static dielectric constant tensor:
#      x y z
#    x 1.926680 0.007220 -0.002370 
#    y 0.007220 1.908440 -0.005750 
#    z -0.002370 -0.005750 1.943860 
# 
# From -- ./inp_files/315301.got.cif
#   From: 2010.05.17/outbox.cif.g08.bks.cpg/sg2_158_cif.got.tgz:315301.got - 2010.06.03 11:33:40.
