data_PCOD9018228
_publ_section_title
;
Structure prediction by ZEFSAII (Michael W. Deem and Ramdas Pophale) SiO2 
 PCOD9018228
Probable space group: P -1
;
_chemical_formula_sum "Si O2"
_cell_formula_units_Z 13
_cell_length_a 12.071641
_cell_length_b 13.910682
_cell_length_c 6.273339
_cell_angle_alpha 87.623102
_cell_angle_beta 82.112475
_cell_angle_gamma 147.770732
_cell_volume 531.169636
_symmetry_space_group_name_H-M "P -1"
_symmetry_group_IT_number 2
_symmetry_cell_setting 'triclinic'
loop_
_space_group_symop_operation_xyz
x,y,z
-x,-y,-z
loop_
_atom_site_type_symbol
_atom_site_label
_atom_site_fract_x
_atom_site_fract_y
_atom_site_fract_z
Si Si1 0.390668 0.320901 0.114521
Si Si2 0.035429 0.560006 0.246697
Si Si3 0.000000 0.000000 0.000000
Si Si4 0.902770 0.792793 0.456321
Si Si5 0.679151 0.162820 0.163065
Si Si6 0.671174 0.440989 0.376925
Si Si7 0.340824 0.032739 0.543938
O O1 0.204083 0.211910 0.347624
O O2 0.565178 0.385966 0.181952
O O3 0.500000 0.500000 0.000000
O O4 0.260107 0.181357 0.966014
O O5 0.000000 0.500000 0.500000
O O6 0.902768 0.377500 0.177407
O O7 0.899300 0.557305 0.266108
O O8 0.282518 0.772328 0.094631
O O9 0.947806 0.877452 0.211834
O O10 0.726353 0.577412 0.480160
O O11 0.119621 0.909653 0.504205
O O12 0.697693 0.066406 0.237537
O O13 0.477007 0.067314 0.336954
O O14 0.502468 0.239921 0.539881
#
# Coordination Sequence:
#
# PCOD9018228 Si02
#       7
#     2   2   1   2   2   2   2
#     4  12  27  47  70 103 141 183 234 290 346 414
#     4  10  21  43  69 103 138 182 230 279 348 417
#     4  12  26  46  74  98 138 186 236 286 346 408
#     4  12  26  46  70 102 145 183 234 288 345 419
#     4   9  21  43  68  97 143 180 224 297 334 408
#     4  11  24  44  69 104 139 187 229 280 355 409
#     4  10  22  43  71 101 136 186 235 280 351 407
#
# _framework density 24.474288000000001
#
# number of rings (size 3 to 8) (size 9 to 14) (size 15 to 20)
#    0.000    1.231    3.077    1.846    2.154    0.000 
#    5.538   10.769    0.000    0.000    0.000    0.000 
#    0.000    0.000    0.000    0.000    0.000    0.000 
#
# Total GULP energy -72454.913091 kJ/mol
# GULP energy per Si atom -5573.454853 kJ/mol
# Density = 2.441858 g / cm^3
# Si number density = 24.474288 Si / 1000 Ang^3
#
#
#
# Elastic Constant Matrix: (Units=GPa)
#
#
# Indices 1 2 3 4 5 6 
#
# 1 99.3765 7.7018 44.1711 3.4502 27.5742 19.4591
# 2 7.7018 76.2883 11.6050 -3.8576 14.3734 -3.0399
# 3 44.1711 11.6050 91.0605 -34.1198 27.1211 5.2741
# 4 3.4502 -3.8576 -34.1198 31.7299 -16.2933 9.2274
# 5 27.5742 14.3734 27.1211 -16.2933 33.3013 -1.2112
# 6 19.4591 -3.0399 5.2741 9.2274 -1.2112 57.6173
#
#
#
# Elastic Compliance Matrix: (Units=1/GPa)
#
#
# Indices 1 2 3 4 5 6 
#
# 1 0.027207 0.003159 -0.019250 -0.035975 -0.025889 -0.002043
# 2 0.003159 0.014831 -0.003345 -0.007541 -0.009945 0.001020
# 3 -0.019250 -0.003345 0.034912 0.046282 0.011448 -0.004042
# 4 -0.035975 -0.007541 0.046282 0.112821 0.050204 -0.009497
# 5 -0.025889 -0.009945 0.011448 0.050204 0.071021 0.000624
# 6 -0.002043 0.001020 -0.004042 -0.009497 0.000624 0.020004
#
#
# Mechanical properties :
#
#
# Convention : Reuss Voigt Hill
#
# Bulk Modulus (GPa) = 26.26261 43.74234 35.00248
# Shear Modulus (GPa) = 15.04387 38.07953 26.56170
#
# Velocity S-wave (km/s) = 2.48196 3.94877 3.29795
# Velocity P-wave (km/s) = 4.35517 6.22109 5.36980
#
# Compressibility (1/GPa) = 0.03807695
#
# Stress axis : x y z
#
# Youngs Moduli (GPa) = 36.75536 67.42531 28.64348
#
# Poissons Ratio (x) = -0.21299 0.55140
# Poissons Ratio (y) = -0.11611 0.09582
# Poissons Ratio (z) = 0.70756 0.22554
#
# Static dielectric constant tensor:
#      x y z
#    x 1.875390 0.007890 0.122460 
#    y 0.007890 2.001670 0.026730 
#    z 0.122460 0.026730 1.791060 
# 
# From -- ./inp_files/77638.got.cif
#   From: 2010.05.17/outbox.cif.g08.bks.cpg/sg2_39_cif.got.tgz:77638.got - 2010.06.03 11:33:40.
