data_PCOD9018087
_publ_section_title
;
Structure prediction by ZEFSAII (Michael W. Deem and Ramdas Pophale) SiO2 
 PCOD9018087
Probable space group: P -1
;
_chemical_formula_sum "Si O2"
_cell_formula_units_Z 16
_cell_length_a 9.422429
_cell_length_b 9.253908
_cell_length_c 12.808643
_cell_angle_alpha 68.022501
_cell_angle_beta 88.928371
_cell_angle_gamma 137.865878
_cell_volume 610.980463
_symmetry_space_group_name_H-M "P -1"
_symmetry_group_IT_number 2
_symmetry_cell_setting 'triclinic'
loop_
_space_group_symop_operation_xyz
x,y,z
-x,-y,-z
loop_
_atom_site_type_symbol
_atom_site_label
_atom_site_fract_x
_atom_site_fract_y
_atom_site_fract_z
Si Si1 0.984249 0.757618 0.088430
Si Si2 0.736191 0.158533 0.787588
Si Si3 0.377161 0.317508 0.837912
Si Si4 0.410965 0.098717 0.487152
Si Si5 0.463787 0.719876 0.343471
Si Si6 0.978694 0.185791 0.282375
Si Si7 0.258424 0.135728 0.275124
Si Si8 0.780820 0.416308 0.993056
O O1 0.847161 0.765063 0.157231
O O2 0.051721 0.664696 0.178535
O O3 0.816991 0.574472 0.041669
O O4 0.237732 0.051730 0.965473
O O5 0.787868 0.051244 0.746410
O O6 0.699908 0.281243 0.688035
O O7 0.472014 0.893911 0.910823
O O8 0.538844 0.416733 0.707094
O O9 0.553974 0.566749 0.845109
O O10 0.557455 0.314751 0.520972
O O11 0.397344 0.181456 0.358963
O O12 0.500000 0.000000 0.500000
O O13 0.134629 0.856599 0.596930
O O14 0.750270 0.011431 0.256059
O O15 0.033768 0.050119 0.325358
O O16 0.182042 0.470627 0.149862
O O17 0.000000 0.500000 0.000000
#
# Coordination Sequence:
#
# PCOD9018087 Si02
#       8
#     2   2   2   2   2   2   2   2
#     4  11  24  40  64  96 141 173 211 267 335 383
#     4  12  24  40  69  99 130 182 217 260 331 405
#     4  11  23  41  61  96 135 169 212 279 322 390
#     4  10  21  43  68  88 131 172 222 277 330 383
#     4  10  22  43  60  92 130 169 214 274 328 377
#     4  10  22  39  64  96 127 167 223 268 319 387
#     4  12  23  39  70  98 123 177 229 262 330 397
#     4  12  22  42  67  99 139 175 218 265 328 398
#
# _framework density 26.187415999999999
#
# number of rings (size 3 to 8) (size 9 to 14) (size 15 to 20)
#    0.750    0.250    5.000    1.875    1.750    4.500 
#    0.000    0.000    0.000    1.500    0.000    0.000 
#    0.000    0.000    0.000    0.000    0.000    0.000 
#
# Total GULP energy -89391.936781 kJ/mol
# GULP energy per Si atom -5586.996049 kJ/mol
# Density = 2.612781 g / cm^3
# Si number density = 26.187416 Si / 1000 Ang^3
#
#
#
# Elastic Constant Matrix: (Units=GPa)
#
#
# Indices 1 2 3 4 5 6 
#
# 1 183.0423 2.8045 14.7107 22.7363 -14.5363 -17.7527
# 2 2.8045 69.9500 6.4807 19.8266 -2.0980 -9.5947
# 3 14.7107 6.4807 46.5240 23.7360 -2.9597 -7.9594
# 4 22.7363 19.8266 23.7360 32.7503 0.1898 -5.2903
# 5 -14.5363 -2.0980 -2.9597 0.1898 45.0215 15.9413
# 6 -17.7527 -9.5947 -7.9594 -5.2903 15.9413 38.7157
#
#
#
# Elastic Compliance Matrix: (Units=1/GPa)
#
#
# Indices 1 2 3 4 5 6 
#
# 1 0.006418 0.001690 0.001306 -0.006081 0.001488 0.002186
# 2 0.001690 0.018856 0.005817 -0.016112 0.000353 0.004297
# 3 0.001306 0.005817 0.036586 -0.030176 0.001521 0.004812
# 4 -0.006081 -0.016112 -0.030176 0.066042 -0.004184 -0.002238
# 5 0.001488 0.000353 0.001521 -0.004184 0.026510 -0.010405
# 6 0.002186 0.004297 0.004812 -0.002238 -0.010405 0.032864
#
#
# Mechanical properties :
#
#
# Convention : Reuss Voigt Hill
#
# Bulk Modulus (GPa) = 12.58087 38.61200 25.59643
# Shear Modulus (GPa) = 25.49108 41.66554 33.57831
#
# Velocity S-wave (km/s) = 3.12334 3.99313 3.58471
# Velocity P-wave (km/s) = 4.22156 6.00305 5.18932
#
# Compressibility (1/GPa) = 0.07948578
#
# Stress axis : x y z
#
# Youngs Moduli (GPa) = 155.81449 53.03373 27.33250
#
# Poissons Ratio (x) = -0.08961 -0.03571
# Poissons Ratio (y) = -0.26328 -0.15899
# Poissons Ratio (z) = -0.20354 -0.30848
#
# Static dielectric constant tensor:
#      x y z
#    x 2.093670 -0.056770 -0.074190 
#    y -0.056770 2.154510 0.037810 
#    z -0.074190 0.037810 2.124420 
# 
# From -- ./inp_files/494875.got.cif
#   From: 2010.05.17/outbox.cif.g08.bks.cpg/sg2_248_cif.got.tgz:494875.got - 2010.06.03 11:33:40.
