data_PCOD9018308
_publ_section_title
;
Structure prediction by ZEFSAII (Michael W. Deem and Ramdas Pophale) SiO2 
 PCOD9018308
Probable space group: P -1
;
_chemical_formula_sum "Si O2"
_cell_formula_units_Z 16
_cell_length_a 6.134290
_cell_length_b 16.815824
_cell_length_c 8.589947
_cell_angle_alpha 125.167767
_cell_angle_beta 73.554074
_cell_angle_gamma 107.209515
_cell_volume 684.669490
_symmetry_space_group_name_H-M "P -1"
_symmetry_group_IT_number 2
_symmetry_cell_setting 'triclinic'
loop_
_space_group_symop_operation_xyz
x,y,z
-x,-y,-z
loop_
_atom_site_type_symbol
_atom_site_label
_atom_site_fract_x
_atom_site_fract_y
_atom_site_fract_z
Si Si1 0.862818 0.678059 0.593017
Si Si2 0.141590 0.915828 0.429820
Si Si3 0.811377 0.743400 0.149957
Si Si4 0.515164 0.367825 0.115043
Si Si5 0.434654 0.990940 0.749011
Si Si6 0.206325 0.444666 0.847238
Si Si7 0.348045 0.129924 0.182750
Si Si8 0.193081 0.723281 0.824069
O O1 0.678379 0.633821 0.713994
O O2 0.834137 0.613229 0.372720
O O3 0.820970 0.789823 0.691674
O O4 0.108673 0.679742 0.626099
O O5 0.249396 0.935353 0.601926
O O6 0.949846 0.819415 0.330190
O O7 0.374306 0.931363 0.294482
O O8 0.000000 0.000000 0.500000
O O9 0.787939 0.638328 0.118944
O O10 0.563058 0.725477 0.091331
O O11 0.982879 0.764329 0.991729
O O12 0.573342 0.470475 0.129202
O O13 0.738462 0.353048 0.151373
O O14 0.585524 0.919785 0.727180
O O15 0.301370 0.044509 0.966227
O O16 0.000000 0.500000 0.000000
O O17 0.588137 0.194822 0.153049
#
# Coordination Sequence:
#
# PCOD9018308 Si02
#       8
#     2   2   2   2   2   2   2   2
#     4  10  25  43  74  99 136 182 235 276 352 408
#     4  11  26  42  68 104 140 179 227 285 352 405
#     4  11  24  44  69  98 142 182 227 280 353 403
#     4  10  23  47  69  97 137 184 230 282 339 414
#     4  10  24  43  68 101 138 176 236 283 341 404
#     4  12  25  47  70 107 137 180 229 293 348 412
#     4  10  22  44  69  98 134 185 229 285 335 412
#     4  10  21  43  69  97 132 181 228 277 342 406
#
# _framework density 23.368938
#
# number of rings (size 3 to 8) (size 9 to 14) (size 15 to 20)
#    0.000    1.500    2.500    0.750    8.750    0.500 
#    9.000    2.500    0.000    0.000    0.000    0.000 
#    0.000    0.000    0.000    0.000    0.000    0.000 
#
# Total GULP energy -89327.847500 kJ/mol
# GULP energy per Si atom -5582.990469 kJ/mol
# Density = 2.331575 g / cm^3
# Si number density = 23.368938 Si / 1000 Ang^3
#
#
#
# Elastic Constant Matrix: (Units=GPa)
#
#
# Indices 1 2 3 4 5 6 
#
# 1 87.1140 33.9741 70.6053 6.8117 37.9564 -15.9194
# 2 33.9741 132.8923 39.1251 3.6713 10.1068 -7.5726
# 3 70.6053 39.1251 119.8560 1.9062 35.0026 -0.6629
# 4 6.8117 3.6713 1.9062 31.7723 1.9799 -1.9364
# 5 37.9564 10.1068 35.0026 1.9799 41.6197 -5.0223
# 6 -15.9194 -7.5726 -0.6629 -1.9364 -5.0223 24.3915
#
#
#
# Elastic Compliance Matrix: (Units=1/GPa)
#
#
# Indices 1 2 3 4 5 6 
#
# 1 0.035705 -0.002195 -0.015246 -0.004319 -0.016781 0.018410
# 2 -0.002195 0.008650 -0.002050 -0.000426 0.001832 0.001540
# 3 -0.015246 -0.002050 0.018684 0.001912 -0.002667 -0.010476
# 4 -0.004319 -0.000426 0.001912 0.032270 0.000880 -0.000156
# 5 -0.016781 0.001832 -0.002667 0.000880 0.040849 -0.001975
# 6 0.018410 0.001540 -0.010476 -0.000156 -0.001975 0.052787
#
#
# Mechanical properties :
#
#
# Convention : Reuss Voigt Hill
#
# Bulk Modulus (GPa) = 41.56734 69.69680 55.63207
# Shear Modulus (GPa) = 21.19125 32.63389 26.91257
#
# Velocity S-wave (km/s) = 3.01460 3.74098 3.39726
# Velocity P-wave (km/s) = 5.47203 6.96773 6.26468
#
# Compressibility (1/GPa) = 0.02405735
#
# Stress axis : x y z
#
# Youngs Moduli (GPa) = 28.00716 115.60828 53.52135
#
# Poissons Ratio (x) = 0.25376 0.81597
# Poissons Ratio (y) = 0.06148 0.10973
# Poissons Ratio (z) = 0.42699 0.23702
#
# Static dielectric constant tensor:
#      x y z
#    x 1.974960 -0.002760 0.013000 
#    y -0.002760 1.890420 0.000190 
#    z 0.013000 0.000190 1.930010 
# 
# From -- ./inp_files/85185.got.cif
#   From: 2010.05.17/outbox.cif.g08.bks.cpg/sg2_43_cif.got.tgz:85185.got - 2010.06.03 11:33:40.
