data_PCOD9018664
_publ_section_title
;
Structure prediction by ZEFSAII (Michael W. Deem and Ramdas Pophale) SiO2 
 PCOD9018664
Probable space group: P -1
;
_chemical_formula_sum "Si O2"
_cell_formula_units_Z 16
_cell_length_a 9.713348
_cell_length_b 15.216278
_cell_length_c 9.766411
_cell_angle_alpha 103.738562
_cell_angle_beta 114.434395
_cell_angle_gamma 37.037538
_cell_volume 780.200945
_symmetry_space_group_name_H-M "P -1"
_symmetry_group_IT_number 2
_symmetry_cell_setting 'triclinic'
loop_
_space_group_symop_operation_xyz
x,y,z
-x,-y,-z
loop_
_atom_site_type_symbol
_atom_site_label
_atom_site_fract_x
_atom_site_fract_y
_atom_site_fract_z
Si Si1 0.840450 0.613354 0.601822
Si Si2 0.297168 0.781550 0.420081
Si Si3 0.066589 0.986532 0.865412
Si Si4 0.272823 0.118528 0.348448
Si Si5 0.635573 0.447798 0.684518
Si Si6 0.193814 0.768245 0.683434
Si Si7 0.555196 0.049696 0.931289
Si Si8 0.054035 0.405618 0.861617
O O1 0.567788 0.696263 0.519843
O O2 0.804893 0.738758 0.639707
O O3 0.000000 0.500000 0.500000
O O4 0.994046 0.500688 0.748343
O O5 0.297268 0.686116 0.304732
O O6 0.191268 0.807097 0.538639
O O7 0.142881 0.917141 0.302813
O O8 0.252127 0.823059 0.827265
O O9 0.206589 0.013479 0.934220
O O10 0.000000 0.000000 0.000000
O O11 0.052144 0.164817 0.341705
O O12 0.500000 0.000000 0.500000
O O13 0.365890 0.032208 0.210994
O O14 0.500000 0.500000 0.500000
O O15 0.413048 0.593887 0.731863
O O16 0.858953 0.413545 0.771130
O O17 0.323592 0.229771 0.896604
O O18 0.500000 0.000000 0.000000
O O19 0.000000 0.500000 0.000000
#
# Coordination Sequence:
#
# PCOD9018664 Si02
#       8
#     2   2   2   2   2   2   2   2
#     4  12  26  45  72 108 143 189 243 297 366 424
#     4  11  25  45  76 100 137 194 239 290 356 431
#     4  12  26  47  66 103 146 181 237 289 359 427
#     4  12  27  43  69 107 144 184 239 300 358 424
#     4  10  21  43  74 101 135 181 245 288 349 428
#     4  11  23  46  71 101 138 183 238 290 351 428
#     4  12  28  46  73 103 148 190 231 296 370 433
#     4  12  25  47  74 107 144 186 241 299 358 431
#
# _framework density 20.507538
#
# number of rings (size 3 to 8) (size 9 to 14) (size 15 to 20)
#    0.000    0.500    3.750    4.875   10.500    0.000 
#    0.000    0.625    0.000    0.000    0.000    0.000 
#    0.000    0.000    0.000    0.000    0.000    0.000 
#
# Total GULP energy -89265.000853 kJ/mol
# GULP energy per Si atom -5579.062553 kJ/mol
# Density = 2.046086 g / cm^3
# Si number density = 20.507538 Si / 1000 Ang^3
#
#
#
# Elastic Constant Matrix: (Units=GPa)
#
#
# Indices 1 2 3 4 5 6 
#
# 1 124.9193 40.9362 45.2674 3.5310 -19.6446 4.4384
# 2 40.9362 149.2183 66.5670 15.0512 -18.1622 12.0054
# 3 45.2674 66.5670 116.9450 16.0809 -18.8185 -3.7076
# 4 3.5310 15.0512 16.0809 46.2061 -0.5712 4.0231
# 5 -19.6446 -18.1622 -18.8185 -0.5712 29.4925 7.1356
# 6 4.4384 12.0054 -3.7076 4.0231 7.1356 42.3007
#
#
#
# Elastic Compliance Matrix: (Units=1/GPa)
#
#
# Indices 1 2 3 4 5 6 
#
# 1 0.010122 -0.000838 -0.002809 0.000709 0.004924 -0.001969
# 2 -0.000838 0.009834 -0.004689 -0.001155 0.003347 -0.003569
# 3 -0.002809 -0.004689 0.013302 -0.003073 0.003048 0.002570
# 4 0.000709 -0.001155 -0.003073 0.023193 -0.001265 -0.002008
# 5 0.004924 0.003347 0.003048 -0.001265 0.043192 -0.008365
# 6 -0.001969 -0.003569 0.002570 -0.002008 -0.008365 0.026687
#
#
# Mechanical properties :
#
#
# Convention : Reuss Voigt Hill
#
# Bulk Modulus (GPa) = 60.28896 77.40265 68.84581
# Shear Modulus (GPa) = 33.66305 39.48732 36.57518
#
# Velocity S-wave (km/s) = 4.05593 4.39282 4.22773
# Velocity P-wave (km/s) = 7.16913 7.97211 7.58126
#
# Compressibility (1/GPa) = 0.01658678
#
# Stress axis : x y z
#
# Youngs Moduli (GPa) = 98.79771 101.68382 75.17662
#
# Poissons Ratio (x) = 0.08517 0.21115
# Poissons Ratio (y) = 0.08275 0.35253
# Poissons Ratio (z) = 0.27750 0.47683
#
# Static dielectric constant tensor:
#      x y z
#    x 1.766590 0.077400 0.206420 
#    y 0.077400 1.799700 0.039380 
#    z 0.206420 0.039380 1.899490 
# 
# From -- ./inp_files/207883.got.cif
#   From: 2010.05.17/outbox.cif.g08.bks.cpg/sg2_104_cif.got.tgz:207883.got - 2010.06.03 11:33:40.
