data_PCOD9018727
_publ_section_title
;
Structure prediction by ZEFSAII (Michael W. Deem and Ramdas Pophale) SiO2 
 PCOD9018727
Probable space group: P -1
;
_chemical_formula_sum "Si O2"
_cell_formula_units_Z 13
_cell_length_a 9.682447
_cell_length_b 11.319388
_cell_length_c 7.335644
_cell_angle_alpha 143.881789
_cell_angle_beta 72.194615
_cell_angle_gamma 115.250580
_cell_volume 427.491045
_symmetry_space_group_name_H-M "P -1"
_symmetry_group_IT_number 2
_symmetry_cell_setting 'triclinic'
loop_
_space_group_symop_operation_xyz
x,y,z
-x,-y,-z
loop_
_atom_site_type_symbol
_atom_site_label
_atom_site_fract_x
_atom_site_fract_y
_atom_site_fract_z
Si Si1 0.175041 0.623332 0.942445
Si Si2 0.926054 0.865365 0.540754
Si Si3 0.386777 0.262499 0.603538
Si Si4 0.492252 0.903224 0.085717
Si Si5 0.284141 0.490514 0.266864
Si Si6 0.793996 0.110704 0.371772
Si Si7 0.000000 0.500000 0.500000
O O1 0.201537 0.790900 0.305615
O O2 0.889128 0.609487 0.237582
O O3 0.351376 0.690902 0.888941
O O4 0.064611 0.633369 0.833642
O O5 0.753553 0.870496 0.629967
O O6 0.049154 0.936137 0.736717
O O7 0.000000 0.000000 0.500000
O O8 0.459379 0.095093 0.452291
O O9 0.536588 0.417472 0.637529
O O10 0.311855 0.371654 0.924187
O O11 0.654277 0.913420 0.115954
O O12 0.500000 0.000000 0.000000
O O13 0.210018 0.688177 0.500718
O O14 0.141715 0.388241 0.325870
#
# Coordination Sequence:
#
# PCOD9018727 Si02
#       7
#     2   2   2   2   2   2   1
#     4  12  24  44  82 112 162 216 273 329 419 491
#     4  12  25  44  76 119 158 211 282 339 398 502
#     4  10  22  44  76 112 164 203 276 334 407 491
#     4  11  26  49  79 119 164 215 272 344 423 499
#     4  10  21  43  78 115 160 217 264 339 407 495
#     4  11  22  47  79 113 156 220 275 319 424 509
#     4  12  24  44  80 122 160 222 272 334 418 494
#
# _framework density 30.409990000000001
#
# number of rings (size 3 to 8) (size 9 to 14) (size 15 to 20)
#    0.000    0.923    3.077    4.615    0.000    1.231 
#    0.000    3.846    3.385    0.000    0.000    0.000 
#    0.000    0.000    0.000    0.000    0.000    0.000 
#
# Total GULP energy -72497.652316 kJ/mol
# GULP energy per Si atom -5576.742486 kJ/mol
# Density = 3.034078 g / cm^3
# Si number density = 30.409990 Si / 1000 Ang^3
#
#
#
# Elastic Constant Matrix: (Units=GPa)
#
#
# Indices 1 2 3 4 5 6 
#
# 1 247.2816 65.9065 43.7747 3.9370 40.9189 51.2780
# 2 65.9065 174.2518 77.5386 12.9826 26.3978 22.0245
# 3 43.7747 77.5386 155.6326 -22.7109 2.1878 21.9089
# 4 3.9370 12.9826 -22.7109 66.1194 16.0403 13.1378
# 5 40.9189 26.3978 2.1878 16.0403 77.4593 15.8137
# 6 51.2780 22.0245 21.9089 13.1378 15.8137 59.0016
#
#
#
# Elastic Compliance Matrix: (Units=1/GPa)
#
#
# Indices 1 2 3 4 5 6 
#
# 1 0.005552 -0.001327 -0.000141 0.001140 -0.001891 -0.004024
# 2 -0.001327 0.008566 -0.004378 -0.002838 -0.001640 0.000653
# 3 -0.000141 -0.004378 0.009748 0.004604 0.000981 -0.003151
# 4 0.001140 -0.002838 0.004604 0.018851 -0.002620 -0.005136
# 5 -0.001891 -0.001640 0.000981 -0.002620 0.015316 -0.001630
# 6 -0.004024 0.000653 -0.003151 -0.005136 -0.001630 0.022953
#
#
# Mechanical properties :
#
#
# Convention : Reuss Voigt Hill
#
# Bulk Modulus (GPa) = 82.13759 105.73396 93.93578
# Shear Modulus (GPa) = 51.68765 66.51247 59.10006
#
# Velocity S-wave (km/s) = 4.12721 4.68182 4.41323
# Velocity P-wave (km/s) = 7.05553 8.00443 7.54491
#
# Compressibility (1/GPa) = 0.01217469
#
# Stress axis : x y z
#
# Youngs Moduli (GPa) = 180.11853 116.73993 102.58833
#
# Poissons Ratio (x) = 0.15490 0.01447
# Poissons Ratio (y) = 0.23900 0.44909
# Poissons Ratio (z) = 0.02541 0.51103
#
# Static dielectric constant tensor:
#      x y z
#    x 2.390100 -0.234750 -0.118540 
#    y -0.234750 1.360580 0.050540 
#    z -0.118540 0.050540 2.516850 
# 
# From -- ./inp_files/211295.got.cif
#   From: 2010.05.17/outbox.cif.g08.bks.cpg/sg2_106_cif.got.tgz:211295.got - 2010.06.03 11:33:40.
