data_PCOD9018454
_publ_section_title
;
Structure prediction by ZEFSAII (Michael W. Deem and Ramdas Pophale) SiO2 
 PCOD9018454
Probable space group: P -1
;
_chemical_formula_sum "Si O2"
_cell_formula_units_Z 15
_cell_length_a 11.687813
_cell_length_b 8.424078
_cell_length_c 11.214179
_cell_angle_alpha 126.205346
_cell_angle_beta 133.302021
_cell_angle_gamma 60.913343
_cell_volume 642.175661
_symmetry_space_group_name_H-M "P -1"
_symmetry_group_IT_number 2
_symmetry_cell_setting 'triclinic'
loop_
_space_group_symop_operation_xyz
x,y,z
-x,-y,-z
loop_
_atom_site_type_symbol
_atom_site_label
_atom_site_fract_x
_atom_site_fract_y
_atom_site_fract_z
Si Si1 0.780447 0.051820 0.426093
Si Si2 0.352595 0.775836 0.226495
Si Si3 0.535749 0.853189 0.633699
Si Si4 0.500000 0.500000 0.000000
Si Si5 0.777746 0.520963 0.609896
Si Si6 0.908688 0.031315 0.253801
Si Si7 0.006988 0.684526 0.999057
Si Si8 0.187347 0.521409 0.652386
O O1 0.597159 0.054654 0.327405
O O2 0.801431 0.286662 0.546961
O O3 0.830024 0.971804 0.294944
O O4 0.908975 0.950110 0.567799
O O5 0.440764 0.806791 0.426918
O O6 0.435124 0.603612 0.123882
O O7 0.180065 0.733443 0.119505
O O8 0.354692 0.981731 0.248050
O O9 0.641567 0.645236 0.647873
O O10 0.685924 0.556305 0.191007
O O11 0.745123 0.551502 0.460928
O O12 0.932134 0.619204 0.795121
O O13 0.815114 0.240046 0.240322
O O14 0.912880 0.871784 0.082957
O O15 0.000000 0.500000 0.000000
O O16 0.000000 0.500000 0.500000
#
# Coordination Sequence:
#
# PCOD9018454 Si02
#       8
#     2   2   2   1   2   2   2   2
#     4  10  21  43  70  98 138 183 229 286 353 419
#     4  11  26  42  68  96 134 186 227 287 352 411
#     4  11  23  43  68  98 137 182 225 286 349 416
#     4  12  26  48  64 104 146 174 240 294 346 428
#     4  11  23  42  68 101 137 184 230 285 356 415
#     4  10  23  41  70 102 134 181 237 280 349 425
#     4  12  24  44  68 104 137 181 234 291 343 420
#     4  11  26  44  71 101 140 192 229 294 360 419
#
# _framework density 23.358097000000001
#
# number of rings (size 3 to 8) (size 9 to 14) (size 15 to 20)
#    0.000    1.067    4.000    1.200    5.600    1.600 
#    0.000    0.667    0.000    0.000    0.000    0.000 
#    0.000    0.000    0.000    0.000    0.000    0.000 
#
# Total GULP energy -83630.185261 kJ/mol
# GULP energy per Si atom -5575.345684 kJ/mol
# Density = 2.330493 g / cm^3
# Si number density = 23.358097 Si / 1000 Ang^3
#
#
#
# Elastic Constant Matrix: (Units=GPa)
#
#
# Indices 1 2 3 4 5 6 
#
# 1 115.0024 33.2939 39.4915 15.2474 12.6065 -24.5275
# 2 33.2939 21.8295 19.4156 0.9722 5.8019 -15.1102
# 3 39.4915 19.4156 127.6316 4.0370 6.2620 5.5683
# 4 15.2474 0.9722 4.0370 21.5423 -3.8718 4.4274
# 5 12.6065 5.8019 6.2620 -3.8718 41.7542 3.4741
# 6 -24.5275 -15.1102 5.5683 4.4274 3.4741 23.0488
#
#
#
# Elastic Compliance Matrix: (Units=1/GPa)
#
#
# Indices 1 2 3 4 5 6 
#
# 1 0.021878 -0.008577 -0.005452 -0.020584 -0.008519 0.024214
# 2 -0.008577 0.180920 -0.027936 -0.028515 -0.031526 0.126457
# 3 -0.005452 -0.027936 0.014456 0.009913 0.006820 -0.030541
# 4 -0.020584 -0.028515 0.009913 0.076678 0.020865 -0.060867
# 5 -0.008519 -0.031526 0.006820 0.020865 0.035200 -0.040695
# 6 0.024214 0.126457 -0.030541 -0.060867 -0.040695 0.177260
#
#
# Mechanical properties :
#
#
# Convention : Reuss Voigt Hill
#
# Bulk Modulus (GPa) = 7.50060 49.87397 28.68728
# Shear Modulus (GPa) = 7.87694 28.75323 18.31509
#
# Velocity S-wave (km/s) = 1.83836 3.51233 2.80322
# Velocity P-wave (km/s) = 2.77925 6.15198 4.77342
#
# Compressibility (1/GPa) = 0.13332274
#
# Stress axis : x y z
#
# Youngs Moduli (GPa) = 45.70770 5.52731 69.17545
#
# Poissons Ratio (x) = 0.04741 0.37715
# Poissons Ratio (y) = 0.39204 1.93251
# Poissons Ratio (z) = 0.24920 0.15441
#
# Static dielectric constant tensor:
#      x y z
#    x 1.882360 0.003370 0.037810 
#    y 0.003370 1.883320 -0.017830 
#    z 0.037810 -0.017830 1.883170 
# 
# From -- ./inp_files/380284.got.cif
#   From: 2010.05.17/outbox.cif.g08.bks.cpg/sg2_191_cif.got.tgz:380284.got - 2010.06.03 11:33:40.
