data_PCOD9018283
_publ_section_title
;
Structure prediction by ZEFSAII (Michael W. Deem and Ramdas Pophale) SiO2 
 PCOD9018283
Probable space group: P -1
;
_chemical_formula_sum "Si O2"
_cell_formula_units_Z 16
_cell_length_a 16.058354
_cell_length_b 9.150575
_cell_length_c 5.175609
_cell_angle_alpha 83.950586
_cell_angle_beta 101.774892
_cell_angle_gamma 117.154867
_cell_volume 662.387699
_symmetry_space_group_name_H-M "P -1"
_symmetry_group_IT_number 2
_symmetry_cell_setting 'triclinic'
loop_
_space_group_symop_operation_xyz
x,y,z
-x,-y,-z
loop_
_atom_site_type_symbol
_atom_site_label
_atom_site_fract_x
_atom_site_fract_y
_atom_site_fract_z
Si Si1 0.969683 0.361948 0.716564
Si Si2 0.840417 0.407658 0.962654
Si Si3 0.449422 0.573628 0.651226
Si Si4 0.700877 0.099436 0.184284
Si Si5 0.072311 0.170304 0.623841
Si Si6 0.398865 0.855081 0.392616
Si Si7 0.355080 0.261090 0.984134
Si Si8 0.798909 0.697537 0.822742
O O1 0.000000 0.500000 0.500000
O O2 0.055582 0.439029 0.964404
O O3 0.993361 0.231163 0.621835
O O4 0.866355 0.320001 0.761040
O O5 0.799885 0.261468 0.168864
O O6 0.778242 0.506891 0.888148
O O7 0.500000 0.500000 0.500000
O O8 0.406332 0.686055 0.475786
O O9 0.371757 0.416985 0.784638
O O10 0.536909 0.693067 0.868582
O O11 0.667534 0.116450 0.444145
O O12 0.692108 0.918455 0.147749
O O13 0.634481 0.126496 0.918166
O O14 0.150701 0.257774 0.432923
O O15 0.129159 0.193480 0.923536
O O16 0.000000 0.000000 0.500000
O O17 0.500000 0.000000 0.500000
O O18 0.292281 0.270713 0.184032
#
# Coordination Sequence:
#
# PCOD9018283 Si02
#       8
#     2   2   2   2   2   2   2   2
#     4  10  21  43  69  94 138 179 233 278 348 415
#     4  10  24  42  67 102 133 184 229 289 344 409
#     4  11  26  46  75  99 145 188 231 284 361 417
#     4  12  28  45  74 107 140 181 242 292 345 410
#     4  11  25  43  69  99 137 182 228 283 352 408
#     4  12  26  48  73 102 145 184 236 290 348 416
#     4  11  27  45  69 108 140 185 232 292 351 420
#     4  11  25  44  67  99 142 177 232 283 346 417
#
# _framework density 24.155035999999999
#
# number of rings (size 3 to 8) (size 9 to 14) (size 15 to 20)
#    0.000    1.000    2.500    2.250   10.500    1.000 
#    0.000    0.000    0.000    0.000    0.000    0.000 
#    0.000    0.000    0.000    0.000    0.000    0.000 
#
# Total GULP energy -89344.583779 kJ/mol
# GULP energy per Si atom -5584.036486 kJ/mol
# Density = 2.410006 g / cm^3
# Si number density = 24.155036 Si / 1000 Ang^3
#
#
#
# Elastic Constant Matrix: (Units=GPa)
#
#
# Indices 1 2 3 4 5 6 
#
# 1 84.1803 54.7953 23.0615 25.1676 -19.0266 -15.5588
# 2 54.7953 123.5143 -12.5265 17.0275 1.3052 -6.2433
# 3 23.0615 -12.5265 57.6051 12.9001 4.8511 14.8812
# 4 25.1676 17.0275 12.9001 25.6707 -0.0724 -1.3176
# 5 -19.0266 1.3052 4.8511 -0.0724 50.3234 -5.0689
# 6 -15.5588 -6.2433 14.8812 -1.3176 -5.0689 36.7937
#
#
#
# Elastic Compliance Matrix: (Units=1/GPa)
#
#
# Indices 1 2 3 4 5 6 
#
# 1 0.058402 -0.025290 -0.037018 -0.019802 0.030188 0.038826
# 2 -0.025290 0.020639 0.020234 0.000011 -0.013788 -0.017275
# 3 -0.037018 0.020234 0.048251 -0.003236 -0.022700 -0.034979
# 4 -0.019802 0.000011 -0.003236 0.059659 -0.007692 -0.005986
# 5 0.030188 -0.013788 -0.022700 -0.007692 0.036270 0.024328
# 6 0.038826 -0.017275 -0.034979 -0.005986 0.024328 0.057950
#
#
# Mechanical properties :
#
#
# Convention : Reuss Voigt Hill
#
# Bulk Modulus (GPa) = 23.17796 43.99560 33.58678
# Shear Modulus (GPa) = 13.16830 35.88885 24.52857
#
# Velocity S-wave (km/s) = 2.33739 3.85875 3.19009
# Velocity P-wave (km/s) = 4.11107 6.17306 5.24440
#
# Compressibility (1/GPa) = 0.04314444
#
# Stress axis : x y z
#
# Youngs Moduli (GPa) = 17.12278 48.45255 20.72477
#
# Poissons Ratio (x) = 1.22536 0.76718
# Poissons Ratio (y) = 0.43303 -0.41934
# Poissons Ratio (z) = 0.63385 -0.98038
#
# Static dielectric constant tensor:
#      x y z
#    x 1.959670 -0.155890 -0.020300 
#    y -0.155890 1.773400 -0.037950 
#    z -0.020300 -0.037950 1.944760 
# 
# From -- ./inp_files/90455.got.cif
#   From: 2010.05.17/outbox.cif.g08.bks.cpg/sg2_46_cif.got.tgz:90455.got - 2010.06.03 11:33:40.
