data_PCOD9018777
_publ_section_title
;
Structure prediction by ZEFSAII (Michael W. Deem and Ramdas Pophale) SiO2 
 PCOD9018777
Probable space group: P -1
;
_chemical_formula_sum "Si O2"
_cell_formula_units_Z 14
_cell_length_a 7.350806
_cell_length_b 7.537276
_cell_length_c 12.365638
_cell_angle_alpha 106.464392
_cell_angle_beta 50.691178
_cell_angle_gamma 99.741192
_cell_volume 508.319821
_symmetry_space_group_name_H-M "P -1"
_symmetry_group_IT_number 2
_symmetry_cell_setting 'triclinic'
loop_
_space_group_symop_operation_xyz
x,y,z
-x,-y,-z
loop_
_atom_site_type_symbol
_atom_site_label
_atom_site_fract_x
_atom_site_fract_y
_atom_site_fract_z
Si Si1 0.296940 0.231200 0.738349
Si Si2 0.317970 0.249255 0.072796
Si Si3 0.229809 0.827144 0.360233
Si Si4 0.164987 0.836594 0.791998
Si Si5 0.349657 0.227128 0.310440
Si Si6 0.710026 0.374948 0.492121
Si Si7 0.824927 0.337638 0.861715
O O1 0.444190 0.297090 0.590208
O O2 0.045224 0.328666 0.857135
O O3 0.498294 0.258039 0.758817
O O4 0.364045 0.798099 0.798549
O O5 0.109932 0.137264 0.073097
O O6 0.278822 0.236867 0.213956
O O7 0.263864 0.455556 0.086635
O O8 0.596370 0.212573 0.949429
O O9 0.155363 0.753022 0.491991
O O10 0.091393 0.743394 0.298916
O O11 0.254897 0.045137 0.374999
O O12 0.191901 0.664428 0.669135
O O13 0.243641 0.014900 0.724816
O O14 0.294820 0.419159 0.424766
#
# Coordination Sequence:
#
# PCOD9018777 Si02
#       7
#     2   2   2   2   2   2   2
#     4   9  21  39  65  91 124 165 204 254 313 362
#     4  11  25  40  65  94 123 170 212 256 317 368
#     4   9  22  40  65  97 123 164 209 254 315 369
#     4  11  23  41  63  97 127 165 207 256 312 377
#     4  11  22  41  64  95 127 165 210 252 314 372
#     4  10  21  44  63  94 134 159 207 255 312 376
#     4  11  22  45  64  88 131 163 212 267 306 368
#
# _framework density 27.541716000000001
#
# number of rings (size 3 to 8) (size 9 to 14) (size 15 to 20)
#    0.857    0.857    1.429    2.571    0.000    4.000 
#    2.571    7.857    0.000    0.000    0.000    0.000 
#    0.000    0.000    0.000    0.000    0.000    0.000 
#
# Total GULP energy -78417.965126 kJ/mol
# GULP energy per Si atom -5601.283223 kJ/mol
# Density = 2.747903 g / cm^3
# Si number density = 27.541716 Si / 1000 Ang^3
#
#
#
# Elastic Constant Matrix: (Units=GPa)
#
#
# Indices 1 2 3 4 5 6 
#
# 1 150.6763 42.3438 22.5782 -0.7098 -36.3434 -9.7476
# 2 42.3438 94.6344 16.4664 14.4026 -15.3522 -7.0540
# 3 22.5782 16.4664 71.5563 -1.0997 -20.6627 -2.5802
# 4 -0.7098 14.4026 -1.0997 36.8632 10.6816 -14.4882
# 5 -36.3434 -15.3522 -20.6627 10.6816 49.5092 -4.1148
# 6 -9.7476 -7.0540 -2.5802 -14.4882 -4.1148 49.2600
#
#
#
# Elastic Compliance Matrix: (Units=1/GPa)
#
#
# Indices 1 2 3 4 5 6 
#
# 1 0.009011 -0.002976 -0.000478 0.000474 0.005551 0.001935
# 2 -0.002976 0.013536 -0.001501 -0.006321 0.002720 -0.000361
# 3 -0.000478 -0.001501 0.016269 -0.000337 0.006126 0.000955
# 4 0.000474 -0.006321 -0.000337 0.035622 -0.008697 0.008922
# 5 0.005551 0.002720 0.006126 -0.008697 0.029693 0.001731
# 6 0.001935 -0.000361 0.000955 0.008922 0.001731 0.023450
#
#
# Mechanical properties :
#
#
# Convention : Reuss Voigt Hill
#
# Bulk Modulus (GPa) = 34.59471 53.29375 43.94423
# Shear Modulus (GPa) = 33.98399 42.82506 38.40453
#
# Velocity S-wave (km/s) = 3.51652 3.94752 3.73824
# Velocity P-wave (km/s) = 5.39221 6.33794 5.88410
#
# Compressibility (1/GPa) = 0.02890615
#
# Stress axis : x y z
#
# Youngs Moduli (GPa) = 110.97442 73.87669 61.46511
#
# Poissons Ratio (x) = 0.21987 0.02941
# Poissons Ratio (y) = 0.33028 0.09223
# Poissons Ratio (z) = 0.05310 0.11085
#
# Static dielectric constant tensor:
#      x y z
#    x 2.159690 0.000900 -0.145990 
#    y 0.000900 2.085600 -0.036930 
#    z -0.145990 -0.036930 2.240080 
# 
# From -- ./inp_files/493307.got.cif
#   From: 2010.05.17/outbox.cif.g08.bks.cpg/sg2_247_cif.got.tgz:493307.got - 2010.06.03 11:33:40.
