data_PCOD9018314
_publ_section_title
;
Structure prediction by ZEFSAII (Michael W. Deem and Ramdas Pophale) SiO2 
 PCOD9018314
Probable space group: P -1
;
_chemical_formula_sum "Si O2"
_cell_formula_units_Z 14
_cell_length_a 13.641106
_cell_length_b 8.979644
_cell_length_c 13.047731
_cell_angle_alpha 78.245496
_cell_angle_beta 147.955629
_cell_angle_gamma 121.377942
_cell_volume 616.357014
_symmetry_space_group_name_H-M "P -1"
_symmetry_group_IT_number 2
_symmetry_cell_setting 'triclinic'
loop_
_space_group_symop_operation_xyz
x,y,z
-x,-y,-z
loop_
_atom_site_type_symbol
_atom_site_label
_atom_site_fract_x
_atom_site_fract_y
_atom_site_fract_z
Si Si1 0.633647 0.278831 0.025181
Si Si2 0.898299 0.118596 0.327130
Si Si3 0.116765 0.046789 0.350720
Si Si4 0.791641 0.631710 0.231336
Si Si5 0.035491 0.771258 0.948643
Si Si6 0.962134 0.549913 0.116176
Si Si7 0.422962 0.943781 0.558958
O O1 0.758917 0.183009 0.141435
O O2 0.788649 0.453781 0.223630
O O3 0.699678 0.400495 0.961982
O O4 0.343706 0.110408 0.818260
O O5 0.074971 0.130002 0.401864
O O6 0.050139 0.250846 0.543231
O O7 0.345011 0.060774 0.524885
O O8 0.899643 0.802222 0.214644
O O9 0.097667 0.155496 0.225510
O O10 0.500000 0.500000 0.000000
O O11 0.968817 0.685505 0.017569
O O12 0.329607 0.972833 0.176564
O O13 0.990105 0.588155 0.873474
O O14 0.182887 0.703874 0.371654
O O15 0.500000 0.000000 0.500000
#
# Coordination Sequence:
#
# PCOD9018314 Si02
#       7
#     2   2   2   2   2   2   2
#     4  11  23  44  72 100 141 185 227 286 353 403
#     4  11  26  44  69 103 141 182 233 286 345 412
#     4  12  24  45  71 103 139 181 231 282 348 413
#     4  12  26  43  66 105 141 179 235 283 344 416
#     4  10  24  45  69  99 139 181 230 286 347 403
#     4  10  21  43  69  97 137 182 229 280 345 414
#     4  10  24  44  68  99 138 179 226 287 340 404
#
# _framework density 22.714108
#
# number of rings (size 3 to 8) (size 9 to 14) (size 15 to 20)
#    0.000    1.143    4.286    0.857    2.000    3.429 
#    0.000    6.429    0.000    0.000    0.000    0.000 
#    0.000    0.000    0.000    0.000    0.000    0.000 
#
# Total GULP energy -78152.314434 kJ/mol
# GULP energy per Si atom -5582.308174 kJ/mol
# Density = 2.266241 g / cm^3
# Si number density = 22.714108 Si / 1000 Ang^3
#
#
#
# Elastic Constant Matrix: (Units=GPa)
#
#
# Indices 1 2 3 4 5 6 
#
# 1 99.2834 20.9250 33.9471 14.3336 10.8233 -1.8508
# 2 20.9250 50.5210 25.9629 7.1352 -5.4337 13.8919
# 3 33.9471 25.9629 73.8562 19.4619 -19.0364 4.8145
# 4 14.3336 7.1352 19.4619 34.1051 -8.9261 -2.0594
# 5 10.8233 -5.4337 -19.0364 -8.9261 28.5080 9.8129
# 6 -1.8508 13.8919 4.8145 -2.0594 9.8129 41.0196
#
#
#
# Elastic Compliance Matrix: (Units=1/GPa)
#
#
# Indices 1 2 3 4 5 6 
#
# 1 0.017736 -0.005670 -0.010332 -0.004867 -0.019078 0.008253
# 2 -0.005670 0.028481 -0.004604 0.000621 0.008623 -0.011393
# 3 -0.010332 -0.004604 0.027540 -0.004977 0.022557 -0.007785
# 4 -0.004867 0.000621 -0.004977 0.036747 0.010309 -0.000467
# 5 -0.019078 0.008623 0.022557 0.010309 0.070059 -0.022671
# 6 0.008253 -0.011393 -0.007785 -0.000467 -0.022671 0.034923
#
#
# Mechanical properties :
#
#
# Convention : Reuss Voigt Hill
#
# Bulk Modulus (GPa) = 30.72710 42.81451 36.77080
# Shear Modulus (GPa) = 18.68837 30.24823 24.46830
#
# Velocity S-wave (km/s) = 2.87150 3.65320 3.28568
# Velocity P-wave (km/s) = 4.95491 6.05679 5.53335
#
# Compressibility (1/GPa) = 0.03254456
#
# Stress axis : x y z
#
# Youngs Moduli (GPa) = 56.38171 35.11145 36.31070
#
# Poissons Ratio (x) = 0.19909 0.37516
# Poissons Ratio (y) = 0.31971 0.16718
# Poissons Ratio (z) = 0.58253 0.16165
#
# Static dielectric constant tensor:
#      x y z
#    x 1.925210 -0.000140 -0.009670 
#    y -0.000140 1.872250 0.019640 
#    z -0.009670 0.019640 1.849320 
# 
# From -- ./inp_files/528519.got.cif
#   From: 2010.05.17/outbox.cif.g08.bks.cpg/sg2_265_cif.got.tgz:528519.got - 2010.06.03 11:33:40.
