data_PCOD9018362
_publ_section_title
;
Structure prediction by ZEFSAII (Michael W. Deem and Ramdas Pophale) SiO2 
 PCOD9018362
Probable space group: P -1
;
_chemical_formula_sum "Si O2"
_cell_formula_units_Z 10
_cell_length_a 11.927715
_cell_length_b 7.894218
_cell_length_c 5.612026
_cell_angle_alpha 97.043898
_cell_angle_beta 54.024147
_cell_angle_gamma 101.482073
_cell_volume 419.069209
_symmetry_space_group_name_H-M "P -1"
_symmetry_group_IT_number 2
_symmetry_cell_setting 'triclinic'
loop_
_space_group_symop_operation_xyz
x,y,z
-x,-y,-z
loop_
_atom_site_type_symbol
_atom_site_label
_atom_site_fract_x
_atom_site_fract_y
_atom_site_fract_z
Si Si1 0.616852 0.818761 0.274639
Si Si2 0.921612 0.450072 0.339549
Si Si3 0.659508 0.162401 0.093716
Si Si4 0.140887 0.920137 0.810737
Si Si5 0.342195 0.496484 0.118157
O O1 0.459212 0.789943 0.564846
O O2 0.723386 0.928894 0.349513
O O3 0.616583 0.955734 0.078693
O O4 0.676261 0.649962 0.088079
O O5 0.780246 0.537028 0.540920
O O6 0.000000 0.500000 0.500000
O O7 0.883860 0.241895 0.358147
O O8 0.000000 0.500000 0.000000
O O9 0.812637 0.168099 0.019812
O O10 0.662771 0.310158 0.926818
O O11 0.000000 0.000000 0.000000
O O12 0.500000 0.500000 0.000000
#
# Coordination Sequence:
#
# PCOD9018362 Si02
#       5
#     2   2   2   2   2
#     4   9  21  44  71 108 151 188 253 317 382 440
#     4  12  28  51  73 112 157 200 255 321 382 463
#     4   9  21  43  72 107 156 183 260 308 384 440
#     4  10  21  43  70 101 143 201 244 306 376 450
#     4  12  25  43  75 112 149 205 255 312 385 453
#
# _framework density 23.862407999999999
#
# number of rings (size 3 to 8) (size 9 to 14) (size 15 to 20)
#    1.200    0.400    0.000    4.200    0.000    4.000 
#    3.600    3.000    0.000    0.000    0.000    0.000 
#    0.000    0.000    0.000    0.000    0.000    0.000 
#
# Total GULP energy -55746.185230 kJ/mol
# GULP energy per Si atom -5574.618523 kJ/mol
# Density = 2.380810 g / cm^3
# Si number density = 23.862408 Si / 1000 Ang^3
#
#
#
# Elastic Constant Matrix: (Units=GPa)
#
#
# Indices 1 2 3 4 5 6 
#
# 1 143.7035 39.1365 74.8459 2.3978 -26.5499 -6.0480
# 2 39.1365 95.0381 57.5908 2.4928 0.3871 10.2913
# 3 74.8459 57.5908 161.3362 5.3582 -25.1777 -8.2435
# 4 2.3978 2.4928 5.3582 26.1297 -10.0073 8.8143
# 5 -26.5499 0.3871 -25.1777 -10.0073 40.0983 14.8051
# 6 -6.0480 10.2913 -8.2435 8.8143 14.8051 40.6406
#
#
#
# Elastic Compliance Matrix: (Units=1/GPa)
#
#
# Indices 1 2 3 4 5 6 
#
# 1 0.010216 -0.002242 -0.003167 0.002629 0.005928 -0.001284
# 2 -0.002242 0.014913 -0.005004 -0.000197 -0.003400 -0.003844
# 3 -0.003167 -0.005004 0.010111 -0.000499 0.003564 0.001657
# 4 0.002629 -0.000197 -0.000499 0.052846 0.021634 -0.019003
# 5 0.005928 -0.003400 0.003564 0.021634 0.043160 -0.017949
# 6 -0.001284 -0.003844 0.001657 -0.019003 -0.017949 0.036385
#
#
# Mechanical properties :
#
#
# Convention : Reuss Voigt Hill
#
# Bulk Modulus (GPa) = 69.37441 82.58046 75.97744
# Shear Modulus (GPa) = 25.87179 36.60736 31.23957
#
# Velocity S-wave (km/s) = 3.29630 3.92101 3.62215
# Velocity P-wave (km/s) = 6.60479 7.42840 7.02867
#
# Compressibility (1/GPa) = 0.01441454
#
# Stress axis : x y z
#
# Youngs Moduli (GPa) = 97.88516 67.05727 98.90302
#
# Poissons Ratio (x) = 0.15034 0.31322
# Poissons Ratio (y) = 0.21945 0.49488
# Poissons Ratio (z) = 0.31000 0.33553
#
# Static dielectric constant tensor:
#      x y z
#    x 1.977130 0.064350 0.033810 
#    y 0.064350 1.971530 -0.056580 
#    z 0.033810 -0.056580 2.009810 
# 
# From -- ./inp_files/59825.got.cif
#   From: 2010.05.17/outbox.cif.g08.bks.cpg/sg2_30_cif.got.tgz:59825.got - 2010.06.03 11:33:40.
