data_PCOD9018458
_publ_section_title
;
Structure prediction by ZEFSAII (Michael W. Deem and Ramdas Pophale) SiO2 
 PCOD9018458
Probable space group: P -1
;
_chemical_formula_sum "Si O2"
_cell_formula_units_Z 16
_cell_length_a 13.054523
_cell_length_b 8.432886
_cell_length_c 8.404086
_cell_angle_alpha 85.981710
_cell_angle_beta 47.857600
_cell_angle_gamma 99.805966
_cell_volume 654.111372
_symmetry_space_group_name_H-M "P -1"
_symmetry_group_IT_number 2
_symmetry_cell_setting 'triclinic'
loop_
_space_group_symop_operation_xyz
x,y,z
-x,-y,-z
loop_
_atom_site_type_symbol
_atom_site_label
_atom_site_fract_x
_atom_site_fract_y
_atom_site_fract_z
Si Si1 0.466512 0.301023 0.773167
Si Si2 0.416166 0.815126 0.048881
Si Si3 0.262221 0.750008 0.687818
Si Si4 0.138591 0.841847 0.507066
Si Si5 0.660017 0.419750 0.111100
Si Si6 0.892002 0.612932 0.608546
Si Si7 0.793177 0.948368 0.099202
Si Si8 0.882642 0.841505 0.335645
O O1 0.517643 0.299190 0.900824
O O2 0.588535 0.252076 0.548794
O O3 0.446968 0.477335 0.735277
O O4 0.315153 0.162413 0.906523
O O5 0.252873 0.803695 0.269781
O O6 0.421945 0.759190 0.866340
O O7 0.500000 0.000000 0.000000
O O8 0.148045 0.741533 0.666565
O O9 0.235587 0.606604 0.857168
O O10 0.274033 0.920758 0.754387
O O11 0.982732 0.778894 0.594912
O O12 0.180464 0.033335 0.503726
O O13 0.754195 0.521308 0.861562
O O14 0.857716 0.670183 0.466618
O O15 0.000000 0.500000 0.500000
O O16 0.823792 0.833775 0.218200
O O17 0.946427 0.059689 0.863380
#
# Coordination Sequence:
#
# PCOD9018458 Si02
#       8
#     2   2   2   2   2   2   2   2
#     4  11  24  42  66  98 133 175 222 276 330 394
#     4  11  25  43  68  95 132 177 222 274 327 398
#     4  10  23  44  66  93 138 176 226 269 322 403
#     4  10  23  44  65  98 129 175 225 267 332 381
#     4  12  25  43  65 100 136 176 220 271 343 387
#     4  12  24  40  66  97 140 171 211 277 333 395
#     4  10  21  43  70  99 130 178 229 269 330 383
#     4  10  23  40  69 101 133 172 225 276 317 402
#
# _framework density 24.460664999999999
#
# number of rings (size 3 to 8) (size 9 to 14) (size 15 to 20)
#    0.000    1.250    1.250    3.750    3.500    3.500 
#    2.250    0.000    0.000    0.000    0.000    0.000 
#    0.000    0.000    0.000    0.000    0.000    0.000 
#
# Total GULP energy -89615.502185 kJ/mol
# GULP energy per Si atom -5600.968887 kJ/mol
# Density = 2.440499 g / cm^3
# Si number density = 24.460665 Si / 1000 Ang^3
#
#
#
# Elastic Constant Matrix: (Units=GPa)
#
#
# Indices 1 2 3 4 5 6 
#
# 1 82.8534 7.2054 26.5570 -6.9732 0.0977 -23.7081
# 2 7.2054 61.2206 9.4923 15.2064 3.4264 -23.8041
# 3 26.5570 9.4923 57.4010 0.7907 2.7173 -19.5203
# 4 -6.9732 15.2064 0.7907 42.2308 -7.6049 6.3135
# 5 0.0977 3.4264 2.7173 -7.6049 24.7966 -18.9563
# 6 -23.7081 -23.8041 -19.5203 6.3135 -18.9563 47.8185
#
#
#
# Elastic Compliance Matrix: (Units=1/GPa)
#
#
# Indices 1 2 3 4 5 6 
#
# 1 0.016619 0.001760 -0.004927 0.002247 0.008788 0.010291
# 2 0.001760 0.025040 0.000908 -0.010157 0.006920 0.017792
# 3 -0.004927 0.000908 0.022427 -0.002251 0.003515 0.008855
# 4 0.002247 -0.010157 -0.002251 0.029766 0.005811 -0.006487
# 5 0.008788 0.006920 0.003515 0.005811 0.067737 0.035322
# 6 0.010291 0.017792 0.008855 -0.006487 0.035322 0.053346
#
#
# Mechanical properties :
#
#
# Convention : Reuss Voigt Hill
#
# Bulk Modulus (GPa) = 16.78785 31.99825 24.39305
# Shear Modulus (GPa) = 20.89344 33.51719 27.20531
#
# Velocity S-wave (km/s) = 2.92578 3.70570 3.33859
# Velocity P-wave (km/s) = 4.27688 5.60531 4.98554
#
# Compressibility (1/GPa) = 0.05956689
#
# Stress axis : x y z
#
# Youngs Moduli (GPa) = 60.17068 39.93598 44.58990
#
# Poissons Ratio (x) = -0.07027 0.21970
# Poissons Ratio (y) = -0.10587 -0.04049
# Poissons Ratio (z) = 0.29647 -0.03626
#
# Static dielectric constant tensor:
#      x y z
#    x 1.929470 -0.003460 0.025580 
#    y -0.003460 1.987480 -0.024170 
#    z 0.025580 -0.024170 1.950130 
# 
# From -- ./inp_files/243351.got.cif
#   From: 2010.05.17/outbox.cif.g08.bks.cpg/sg2_122_cif.got.tgz:243351.got - 2010.06.03 11:33:40.
