data_PCOD9018843
_publ_section_title
;
Structure prediction by ZEFSAII (Michael W. Deem and Ramdas Pophale) SiO2 
 PCOD9018843
Probable space group: P -1
;
_chemical_formula_sum "Si O2"
_cell_formula_units_Z 16
_cell_length_a 9.444254
_cell_length_b 7.904786
_cell_length_c 10.017264
_cell_angle_alpha 65.427455
_cell_angle_beta 97.423969
_cell_angle_gamma 89.100772
_cell_volume 672.406754
_symmetry_space_group_name_H-M "P -1"
_symmetry_group_IT_number 2
_symmetry_cell_setting 'triclinic'
loop_
_space_group_symop_operation_xyz
x,y,z
-x,-y,-z
loop_
_atom_site_type_symbol
_atom_site_label
_atom_site_fract_x
_atom_site_fract_y
_atom_site_fract_z
Si Si1 0.910546 0.542126 0.671540
Si Si2 0.576165 0.385103 0.923642
Si Si3 0.641417 0.730896 0.672786
Si Si4 0.300909 0.256073 0.877083
Si Si5 0.048552 0.312592 0.991055
Si Si6 0.645684 0.080418 0.387367
Si Si7 0.794731 0.393501 0.436220
Si Si8 0.179495 0.895378 0.857880
O O1 0.813487 0.681262 0.710048
O O2 0.979257 0.362920 0.820058
O O3 0.815117 0.470195 0.562603
O O4 0.042778 0.642120 0.589802
O O5 0.593603 0.523391 0.757007
O O6 0.469205 0.231324 0.923461
O O7 0.500000 0.500000 0.000000
O O8 0.726822 0.285336 0.015399
O O9 0.513232 0.842787 0.706287
O O10 0.631990 0.868891 0.499310
O O11 0.271748 0.438877 0.721056
O O12 0.217835 0.292694 0.994602
O O13 0.231210 0.080280 0.867428
O O14 0.980913 0.140598 0.109436
O O15 0.000000 0.500000 0.000000
O O16 0.698291 0.218441 0.464590
O O17 0.770731 0.094583 0.291027
#
# Coordination Sequence:
#
# PCOD9018843 Si02
#       8
#     2   2   2   2   2   2   2   2
#     4  10  22  40  65  94 127 168 215 269 322 385
#     4  12  22  44  66  93 134 174 214 273 322 386
#     4  11  23  42  63  97 128 167 224 260 321 387
#     4  11  24  41  66  99 131 170 217 270 323 386
#     4  11  23  42  69  96 129 174 215 264 329 387
#     4  11  24  43  66  96 128 175 215 268 324 389
#     4  10  21  44  65  89 134 171 212 269 331 378
#     4  12  23  43  67  97 132 169 219 270 326 385
#
# _framework density 23.795119
#
# number of rings (size 3 to 8) (size 9 to 14) (size 15 to 20)
#    0.000    1.000    3.750    3.750    0.000    1.000 
#    6.750    3.750    0.000    0.000    0.000    0.000 
#    0.000    0.000    0.000    0.000    0.000    0.000 
#
# Total GULP energy -89278.531764 kJ/mol
# GULP energy per Si atom -5579.908235 kJ/mol
# Density = 2.374096 g / cm^3
# Si number density = 23.795119 Si / 1000 Ang^3
#
#
#
# Elastic Constant Matrix: (Units=GPa)
#
#
# Indices 1 2 3 4 5 6 
#
# 1 96.5682 18.9548 31.8390 -8.7088 -17.4444 12.3094
# 2 18.9548 85.8613 21.1462 -7.1036 -1.5297 17.7481
# 3 31.8390 21.1462 92.7222 -13.4342 -29.0530 11.4932
# 4 -8.7088 -7.1036 -13.4342 34.3786 2.4054 -1.4017
# 5 -17.4444 -1.5297 -29.0530 2.4054 25.9655 -11.5505
# 6 12.3094 17.7481 11.4932 -1.4017 -11.5505 35.9966
#
#
#
# Elastic Compliance Matrix: (Units=1/GPa)
#
#
# Indices 1 2 3 4 5 6 
#
# 1 0.012628 -0.001957 -0.001671 0.001690 0.005970 -0.000839
# 2 -0.001957 0.014750 -0.004346 0.001155 -0.009000 -0.008059
# 3 -0.001671 -0.004346 0.019307 0.004875 0.021373 0.003597
# 4 0.001690 0.001155 0.004875 0.031394 0.003605 -0.000325
# 5 0.005970 -0.009000 0.021373 0.003605 0.074267 0.019543
# 6 -0.000839 -0.008059 0.003597 -0.000325 0.019543 0.037150
#
#
# Mechanical properties :
#
#
# Convention : Reuss Voigt Hill
#
# Bulk Modulus (GPa) = 32.53243 46.55908 39.54576
# Shear Modulus (GPa) = 23.18165 32.81560 27.99862
#
# Velocity S-wave (km/s) = 3.12463 3.71764 3.43396
# Velocity P-wave (km/s) = 5.16908 6.16741 5.69018
#
# Compressibility (1/GPa) = 0.03073855
#
# Stress axis : x y z
#
# Youngs Moduli (GPa) = 79.18940 67.79694 51.79502
#
# Poissons Ratio (x) = 0.13266 0.08653
# Poissons Ratio (y) = 0.15495 0.22508
# Poissons Ratio (z) = 0.13230 0.29462
#
# Static dielectric constant tensor:
#      x y z
#    x 1.957260 -0.012430 0.011090 
#    y -0.012430 1.920820 0.083290 
#    z 0.011090 0.083290 1.952880 
# 
# From -- ./inp_files/377979.got.cif
#   From: 2010.05.17/outbox.cif.g08.bks.cpg/sg2_189_cif.got.tgz:377979.got - 2010.06.03 11:33:40.
