data_PCOD9018962
_publ_section_title
;
Structure prediction by ZEFSAII (Michael W. Deem and Ramdas Pophale) SiO2 
 PCOD9018962
Probable space group: P -1
;
_chemical_formula_sum "Si O2"
_cell_formula_units_Z 16
_cell_length_a 11.406204
_cell_length_b 8.818251
_cell_length_c 11.384503
_cell_angle_alpha 112.412771
_cell_angle_beta 81.933084
_cell_angle_gamma 50.961564
_cell_volume 697.315246
_symmetry_space_group_name_H-M "P -1"
_symmetry_group_IT_number 2
_symmetry_cell_setting 'triclinic'
loop_
_space_group_symop_operation_xyz
x,y,z
-x,-y,-z
loop_
_atom_site_type_symbol
_atom_site_label
_atom_site_fract_x
_atom_site_fract_y
_atom_site_fract_z
Si Si1 0.324455 0.620465 0.439324
Si Si2 0.204242 0.457188 0.266115
Si Si3 0.315158 0.909102 0.701957
Si Si4 0.209084 0.260918 0.422564
Si Si5 0.393759 0.738356 0.238540
Si Si6 0.706270 0.476009 0.952812
Si Si7 0.018382 0.160895 0.988149
Si Si8 0.849802 0.637779 0.289832
O O1 0.187633 0.644575 0.396960
O O2 0.248009 0.827288 0.604649
O O3 0.476466 0.347787 0.392550
O O4 0.422866 0.624961 0.326262
O O5 0.291245 0.245540 0.286350
O O6 0.317068 0.378871 0.110844
O O7 0.017548 0.579084 0.284326
O O8 0.267917 0.131320 0.713992
O O9 0.216672 0.997424 0.867519
O O10 0.250202 0.296572 0.554029
O O11 0.000000 0.500000 0.500000
O O12 0.253483 0.026066 0.358636
O O13 0.321858 0.675378 0.141477
O O14 0.568601 0.634556 0.125239
O O15 0.899978 0.292064 0.925952
O O16 0.935454 0.386066 0.149446
O O17 0.000000 0.000000 0.000000
#
# Coordination Sequence:
#
# PCOD9018962 Si02
#       8
#     2   2   2   2   2   2   2   2
#     4  10  23  43  69 102 133 181 223 271 346 388
#     4  10  23  43  66  98 131 175 224 273 330 401
#     4  11  23  44  70  96 140 176 222 280 330 413
#     4  10  23  41  66  96 132 175 222 284 325 388
#     4  10  21  44  66  98 138 169 229 280 328 400
#     4  10  23  41  68  97 130 180 220 274 339 397
#     4  12  27  42  69  97 134 179 225 278 344 407
#     4  11  24  46  66  98 136 177 226 283 332 399
#
# _framework density 22.945145
#
# number of rings (size 3 to 8) (size 9 to 14) (size 15 to 20)
#    0.000    1.500    2.500    1.125    5.250    3.000 
#    0.000    1.250    0.000    0.000    0.000    0.000 
#    0.000    0.000    0.000    0.000    0.000    0.000 
#
# Total GULP energy -89416.022088 kJ/mol
# GULP energy per Si atom -5588.501380 kJ/mol
# Density = 2.289292 g / cm^3
# Si number density = 22.945145 Si / 1000 Ang^3
#
#
#
# Elastic Constant Matrix: (Units=GPa)
#
#
# Indices 1 2 3 4 5 6 
#
# 1 58.6192 26.3582 23.5476 -1.6755 3.2761 9.9771
# 2 26.3582 129.8783 66.2573 -0.2636 8.7872 34.8289
# 3 23.5476 66.2573 115.7026 5.3019 -0.7289 17.2276
# 4 -1.6755 -0.2636 5.3019 40.7806 6.5837 -5.6064
# 5 3.2761 8.7872 -0.7289 6.5837 20.6735 -4.8483
# 6 9.9771 34.8289 17.2276 -5.6064 -4.8483 27.1034
#
#
#
# Elastic Compliance Matrix: (Units=1/GPa)
#
#
# Indices 1 2 3 4 5 6 
#
# 1 0.019718 -0.001022 -0.002815 0.001217 -0.004272 -0.004668
# 2 -0.001022 0.017730 -0.007040 0.000227 -0.012410 -0.020106
# 3 -0.002815 -0.007040 0.013060 -0.002391 0.005180 0.002214
# 4 0.001217 0.000227 -0.002391 0.026815 -0.007755 0.004939
# 5 -0.004272 -0.012410 0.005180 -0.007755 0.062560 0.023814
# 6 -0.004668 -0.020106 0.002214 0.004939 0.023814 0.068325
#
#
# Mechanical properties :
#
#
# Convention : Reuss Voigt Hill
#
# Bulk Modulus (GPa) = 34.77951 59.61405 47.19678
# Shear Modulus (GPa) = 20.87271 30.24731 25.56001
#
# Velocity S-wave (km/s) = 3.01936 3.63470 3.34123
# Velocity P-wave (km/s) = 5.22934 6.60699 5.95811
#
# Compressibility (1/GPa) = 0.02875256
#
# Stress axis : x y z
#
# Youngs Moduli (GPa) = 50.71568 56.40072 76.57024
#
# Poissons Ratio (x) = 0.05766 0.21556
# Poissons Ratio (y) = 0.05185 0.53907
# Poissons Ratio (z) = 0.14278 0.39707
#
# Static dielectric constant tensor:
#      x y z
#    x 1.909020 0.007300 -0.034980 
#    y 0.007300 1.839290 -0.042830 
#    z -0.034980 -0.042830 1.864130 
# 
# From -- ./inp_files/262272.got.cif
#   From: 2010.05.17/outbox.cif.g08.bks.cpg/sg2_132_cif.got.tgz:262272.got - 2010.06.03 11:33:40.
