data_PCOD9018317
_publ_section_title
;
Structure prediction by ZEFSAII (Michael W. Deem and Ramdas Pophale) SiO2 
 PCOD9018317
Probable space group: P -1
;
_chemical_formula_sum "Si O2"
_cell_formula_units_Z 15
_cell_length_a 21.150642
_cell_length_b 9.613572
_cell_length_c 5.370886
_cell_angle_alpha 49.299826
_cell_angle_beta 129.037606
_cell_angle_gamma 136.239075
_cell_volume 545.732987
_symmetry_space_group_name_H-M "P -1"
_symmetry_group_IT_number 2
_symmetry_cell_setting 'triclinic'
loop_
_space_group_symop_operation_xyz
x,y,z
-x,-y,-z
loop_
_atom_site_type_symbol
_atom_site_label
_atom_site_fract_x
_atom_site_fract_y
_atom_site_fract_z
Si Si1 0.402857 0.001784 0.721664
Si Si2 0.875890 0.165241 0.681992
Si Si3 0.307330 0.088154 0.778978
Si Si4 0.175124 0.161623 0.686841
Si Si5 0.653606 0.379660 0.268531
Si Si6 0.560003 0.418757 0.480767
Si Si7 0.000000 0.000000 0.500000
Si Si8 0.042805 0.407025 0.414146
O O1 0.348819 0.956786 0.900908
O O2 0.448550 0.250436 0.461665
O O3 0.345365 0.833634 0.555983
O O4 0.500000 0.000000 0.000000
O O5 0.869090 0.367149 0.523985
O O6 0.959016 0.281187 0.553645
O O7 0.774748 0.966393 0.570191
O O8 0.905569 0.046789 0.098025
O O9 0.241289 0.068780 0.870650
O O10 0.399017 0.329731 0.746018
O O11 0.249313 0.404267 0.664922
O O12 0.090300 0.128197 0.340257
O O13 0.584985 0.340310 0.379599
O O14 0.618519 0.423829 0.866423
O O15 0.061011 0.238774 0.524944
O O16 0.000000 0.500000 0.000000
#
# Coordination Sequence:
#
# PCOD9018317 Si02
#       8
#     2   2   2   2   2   2   1   2
#     4  10  23  44  67 102 137 186 234 298 362 428
#     4  11  22  45  67  97 141 178 241 291 371 424
#     4  11  22  44  66  97 138 183 234 296 356 437
#     4  11  24  45  67 105 136 193 238 294 368 424
#     4  10  22  43  68 101 140 179 242 290 354 434
#     4  10  21  43  69  97 139 183 234 294 359 426
#     4  12  24  44  72  96 146 186 236 296 358 432
#     4  11  24  45  68 100 139 182 235 301 357 434
#
# _framework density 27.485969000000001
#
# number of rings (size 3 to 8) (size 9 to 14) (size 15 to 20)
#    0.000    1.333    4.000    0.800    1.867    0.533 
#    9.600   12.667    0.000    0.000    0.000    0.000 
#    0.000    0.000    0.000    0.000    0.000    0.000 
#
# Total GULP energy -83595.642708 kJ/mol
# GULP energy per Si atom -5573.042847 kJ/mol
# Density = 2.742341 g / cm^3
# Si number density = 27.485969 Si / 1000 Ang^3
#
#
#
# Elastic Constant Matrix: (Units=GPa)
#
#
# Indices 1 2 3 4 5 6 
#
# 1 179.7113 72.2406 29.4144 -2.0833 -6.0455 2.5443
# 2 72.2406 204.4419 13.4450 -7.8222 1.8970 -18.5926
# 3 29.4144 13.4450 70.1351 11.2235 -13.6136 16.2186
# 4 -2.0833 -7.8222 11.2235 27.4425 0.9129 4.9559
# 5 -6.0455 1.8970 -13.6136 0.9129 40.8721 2.0031
# 6 2.5443 -18.5926 16.2186 4.9559 2.0031 50.7349
#
#
#
# Elastic Compliance Matrix: (Units=1/GPa)
#
#
# Indices 1 2 3 4 5 6 
#
# 1 0.006915 -0.002298 -0.002428 0.000946 0.000325 -0.000518
# 2 -0.002298 0.006108 -0.001331 0.001671 -0.001234 0.002665
# 3 -0.002428 -0.001331 0.019457 -0.007640 0.006653 -0.006102
# 4 0.000946 0.001671 -0.007640 0.040369 -0.003345 -0.000804
# 5 0.000325 -0.001234 0.006653 -0.003345 0.027026 -0.003336
# 6 -0.000518 0.002665 -0.006102 -0.000804 -0.003336 0.022874
#
#
# Mechanical properties :
#
#
# Convention : Reuss Voigt Hill
#
# Bulk Modulus (GPa) = 49.09816 76.05426 62.57621
# Shear Modulus (GPa) = 35.29816 46.42244 40.86030
#
# Velocity S-wave (km/s) = 3.58750 4.11414 3.85981
# Velocity P-wave (km/s) = 5.92131 7.09214 6.53301
#
# Compressibility (1/GPa) = 0.02036736
#
# Stress axis : x y z
#
# Youngs Moduli (GPa) = 144.61913 163.70783 51.39612
#
# Poissons Ratio (x) = 0.37613 0.12480
# Poissons Ratio (y) = 0.33227 0.06839
# Poissons Ratio (z) = 0.35115 0.21782
#
# Static dielectric constant tensor:
#      x y z
#    x 2.501580 -0.165540 -0.021800 
#    y -0.165540 2.211470 -0.104610 
#    z -0.021800 -0.104610 2.380520 
# 
# From -- ./inp_files/116739.got.cif
#   From: 2010.05.17/outbox.cif.g08.bks.cpg/sg2_59_cif.got.tgz:116739.got - 2010.06.03 11:33:40.
