data_PCOD9018867
_publ_section_title
;
Structure prediction by ZEFSAII (Michael W. Deem and Ramdas Pophale) SiO2 
 PCOD9018867
Probable space group: P -1
;
_chemical_formula_sum "Si O2"
_cell_formula_units_Z 15
_cell_length_a 12.441460
_cell_length_b 5.517012
_cell_length_c 15.939930
_cell_angle_alpha 135.916260
_cell_angle_beta 56.742067
_cell_angle_gamma 133.300996
_cell_volume 550.589764
_symmetry_space_group_name_H-M "P -1"
_symmetry_group_IT_number 2
_symmetry_cell_setting 'triclinic'
loop_
_space_group_symop_operation_xyz
x,y,z
-x,-y,-z
loop_
_atom_site_type_symbol
_atom_site_label
_atom_site_fract_x
_atom_site_fract_y
_atom_site_fract_z
Si Si1 0.745117 0.316543 0.498239
Si Si2 0.538364 0.148433 0.389165
Si Si3 0.055084 0.544333 0.148931
Si Si4 0.000000 0.500000 0.500000
Si Si5 0.777178 0.571472 0.266547
Si Si6 0.732404 0.502274 0.072053
Si Si7 0.167517 0.447731 0.256932
Si Si8 0.453144 0.447402 0.103585
O O1 0.673270 0.246200 0.420474
O O2 0.898024 0.697202 0.552519
O O3 0.608306 0.218444 0.594647
O O4 0.820418 0.016253 0.396364
O O5 0.500000 0.500000 0.500000
O O6 0.614732 0.274936 0.296878
O O7 0.122777 0.521644 0.202855
O O8 0.882620 0.396554 0.202043
O O9 0.097332 0.975896 0.194529
O O10 0.118014 0.343933 0.006786
O O11 0.109894 0.621680 0.397049
O O12 0.771615 0.578966 0.171193
O O13 0.599177 0.588188 0.131581
O O14 0.648378 0.032085 0.964816
O O15 0.344250 0.614993 0.215553
O O16 0.500000 0.500000 0.000000
#
# Coordination Sequence:
#
# PCOD9018867 Si02
#       8
#     2   2   2   1   2   2   2   2
#     4  10  22  43  64  96 137 175 238 282 349 415
#     4   9  21  42  65  90 132 177 229 291 338 413
#     4  11  23  47  65 104 134 182 227 295 339 426
#     4  12  24  44  68 106 136 194 224 300 346 420
#     4  11  22  40  67  97 133 179 226 287 346 423
#     4  10  23  40  68  97 135 175 231 282 357 408
#     4  11  25  43  71  96 144 178 237 283 353 410
#     4  10  21  44  65  96 134 181 226 286 340 429
#
# _framework density 27.243514999999999
#
# number of rings (size 3 to 8) (size 9 to 14) (size 15 to 20)
#    0.000    1.600    2.667    1.200    0.000    5.867 
#    4.800    2.000    0.000    0.000    0.000    0.000 
#    0.000    0.000    0.000    0.000    0.000    0.000 
#
# Total GULP energy -83672.136728 kJ/mol
# GULP energy per Si atom -5578.142449 kJ/mol
# Density = 2.718151 g / cm^3
# Si number density = 27.243515 Si / 1000 Ang^3
#
#
#
# Elastic Constant Matrix: (Units=GPa)
#
#
# Indices 1 2 3 4 5 6 
#
# 1 208.2148 30.6034 86.6117 -41.5179 -19.5922 1.8658
# 2 30.6034 84.1173 32.8755 -24.9344 -15.6503 6.6528
# 3 86.6117 32.8755 211.5644 -50.8117 -4.7643 -12.1926
# 4 -41.5179 -24.9344 -50.8117 61.6742 -2.2406 -15.9280
# 5 -19.5922 -15.6503 -4.7643 -2.2406 57.8748 -17.9645
# 6 1.8658 6.6528 -12.1926 -15.9280 -17.9645 49.8311
#
#
#
# Elastic Compliance Matrix: (Units=1/GPa)
#
#
# Indices 1 2 3 4 5 6 
#
# 1 0.006413 -0.000372 -0.001659 0.003232 0.002471 0.001328
# 2 -0.000372 0.014658 -0.000579 0.005704 0.004425 0.001334
# 3 -0.001659 -0.000579 0.007126 0.005653 0.001388 0.004190
# 4 0.003232 0.005704 0.005653 0.028927 0.008161 0.012689
# 5 0.002471 0.004425 0.001388 0.008161 0.023021 0.010564
# 6 0.001328 0.001334 0.004190 0.012689 0.010564 0.028730
#
#
# Mechanical properties :
#
#
# Convention : Reuss Voigt Hill
#
# Bulk Modulus (GPa) = 43.52066 89.34198 66.43132
# Shear Modulus (GPa) = 41.06645 57.46308 49.26477
#
# Velocity S-wave (km/s) = 3.88672 4.59763 4.25704
# Velocity P-wave (km/s) = 6.01261 7.81340 6.97140
#
# Compressibility (1/GPa) = 0.02297759
#
# Stress axis : x y z
#
# Youngs Moduli (GPa) = 155.94253 68.22011 140.32648
#
# Poissons Ratio (x) = 0.02536 0.23280
# Poissons Ratio (y) = 0.05797 0.08127
# Poissons Ratio (z) = 0.25871 0.03951
#
# Static dielectric constant tensor:
#      x y z
#    x 1.352050 -0.714050 -0.505440 
#    y -0.714050 1.502970 -0.436780 
#    z -0.505440 -0.436780 1.824290 
# 
# From -- ./inp_files/65468.got.cif
#   From: 2010.05.17/outbox.cif.g08.bks.cpg/sg2_33_cif.got.tgz:65468.got - 2010.06.03 11:33:40.
