data_PCOD9018387
_publ_section_title
;
Structure prediction by ZEFSAII (Michael W. Deem and Ramdas Pophale) SiO2 
 PCOD9018387
Probable space group: P -1
;
_chemical_formula_sum "Si O2"
_cell_formula_units_Z 14
_cell_length_a 16.967839
_cell_length_b 9.681133
_cell_length_c 5.514984
_cell_angle_alpha 108.245537
_cell_angle_beta 68.188811
_cell_angle_gamma 131.697410
_cell_volume 625.161885
_symmetry_space_group_name_H-M "P -1"
_symmetry_group_IT_number 2
_symmetry_cell_setting 'triclinic'
loop_
_space_group_symop_operation_xyz
x,y,z
-x,-y,-z
loop_
_atom_site_type_symbol
_atom_site_label
_atom_site_fract_x
_atom_site_fract_y
_atom_site_fract_z
Si Si1 0.275469 0.808627 0.899781
Si Si2 0.462834 0.162884 0.108192
Si Si3 0.086022 0.677258 0.341664
Si Si4 0.921539 0.035014 0.720719
Si Si5 0.790803 0.995270 0.239361
Si Si6 0.683389 0.719176 0.594543
Si Si7 0.404935 0.696795 0.465357
O O1 0.259937 0.947185 0.861757
O O2 0.316397 0.728051 0.630273
O O3 0.160285 0.656321 0.074075
O O4 0.369049 0.942185 0.061465
O O5 0.407172 0.262543 0.210427
O O6 0.515021 0.205641 0.338838
O O7 0.538636 0.228050 0.819623
O O8 0.038520 0.761359 0.289398
O O9 0.168092 0.850677 0.518425
O O10 0.000000 0.500000 0.500000
O O11 0.800450 0.870928 0.667705
O O12 0.895026 0.022040 0.028184
O O13 0.000000 0.000000 0.500000
O O14 0.706948 0.789757 0.327350
O O15 0.647147 0.517713 0.569302
#
# Coordination Sequence:
#
# PCOD9018387 Si02
#       7
#     2   2   2   2   2   2   2
#     4  11  24  44  67 100 136 181 225 291 344 409
#     4  12  24  46  68 102 140 190 230 282 352 404
#     4  10  23  41  68  97 130 179 227 282 351 414
#     4  10  23  41  68  97 130 179 227 282 351 414
#     4  10  21  43  70  86 144 178 217 281 358 404
#     4  11  24  44  67 100 136 181 225 291 344 409
#     4  12  29  39  74 106 138 182 243 285 332 414
#
# _framework density 22.394202
#
# number of rings (size 3 to 8) (size 9 to 14) (size 15 to 20)
#    0.000    1.143    4.286    2.571    4.000    8.000 
#    0.000    0.000    0.000    0.000    0.000    0.000 
#    0.000    0.000    0.000    0.000    0.000    0.000 
#
# Total GULP energy -78221.995191 kJ/mol
# GULP energy per Si atom -5587.285371 kJ/mol
# Density = 2.234323 g / cm^3
# Si number density = 22.394202 Si / 1000 Ang^3
#
#
#
# Elastic Constant Matrix: (Units=GPa)
#
#
# Indices 1 2 3 4 5 6 
#
# 1 60.1602 10.1940 48.7982 -3.7265 -30.0356 -10.5800
# 2 10.1940 100.3306 35.2318 -26.6376 -22.0390 -17.3367
# 3 48.7982 35.2318 168.6876 -26.8314 -51.9807 -16.6487
# 4 -3.7265 -26.6376 -26.8314 40.9498 -0.3451 -0.9619
# 5 -30.0356 -22.0390 -51.9807 -0.3451 60.8933 11.9589
# 6 -10.5800 -17.3367 -16.6487 -0.9619 11.9589 18.9143
#
#
#
# Elastic Compliance Matrix: (Units=1/GPa)
#
#
# Indices 1 2 3 4 5 6 
#
# 1 0.025172 0.002336 -0.004358 0.001195 0.008111 0.007318
# 2 0.002336 0.016037 0.000680 0.011463 0.004826 0.014137
# 3 -0.004358 0.000680 0.010504 0.007071 0.006363 0.003768
# 4 0.001195 0.011463 0.007071 0.037019 0.008218 0.014086
# 5 0.008111 0.004826 0.006363 0.008218 0.028209 -0.002856
# 6 0.007318 0.014137 0.003768 0.014086 -0.002856 0.075760
#
#
# Mechanical properties :
#
#
# Convention : Reuss Voigt Hill
#
# Bulk Modulus (GPa) = 20.39537 57.51405 38.95471
# Shear Modulus (GPa) = 23.61532 39.81512 31.71522
#
# Velocity S-wave (km/s) = 3.25087 4.22111 3.76736
# Velocity P-wave (km/s) = 4.81852 7.03530 6.02966
#
# Compressibility (1/GPa) = 0.04903073
#
# Stress axis : x y z
#
# Youngs Moduli (GPa) = 39.72694 62.35538 95.20074
#
# Poissons Ratio (x) = -0.14568 0.41488
# Poissons Ratio (y) = -0.09282 -0.06477
# Poissons Ratio (z) = 0.17313 -0.04242
#
# Static dielectric constant tensor:
#      x y z
#    x 1.914790 0.005570 0.059320 
#    y 0.005570 1.777740 -0.026470 
#    z 0.059320 -0.026470 1.935850 
# 
# From -- ./inp_files/32441.got.cif
#   From: 2010.05.17/outbox.cif.g08.bks.cpg/sg2_17_cif.got.tgz:32441.got - 2010.06.03 11:33:40.
