data_PCOD9018910
_publ_section_title
;
Structure prediction by ZEFSAII (Michael W. Deem and Ramdas Pophale) SiO2 
 PCOD9018910
Probable space group: P -1
;
_chemical_formula_sum "Si O2"
_cell_formula_units_Z 16
_cell_length_a 8.055531
_cell_length_b 13.168310
_cell_length_c 8.521994
_cell_angle_alpha 75.703337
_cell_angle_beta 52.805874
_cell_angle_gamma 102.736540
_cell_volume 612.550507
_symmetry_space_group_name_H-M "P -1"
_symmetry_group_IT_number 2
_symmetry_cell_setting 'triclinic'
loop_
_space_group_symop_operation_xyz
x,y,z
-x,-y,-z
loop_
_atom_site_type_symbol
_atom_site_label
_atom_site_fract_x
_atom_site_fract_y
_atom_site_fract_z
Si Si1 0.510542 0.575056 0.279251
Si Si2 0.817283 0.659941 0.562165
Si Si3 0.041059 0.674781 0.993540
Si Si4 0.960988 0.448257 0.284592
Si Si5 0.460966 0.057119 0.754723
Si Si6 0.302021 0.834085 0.122622
Si Si7 0.699748 0.783352 0.846447
Si Si8 0.166569 0.930445 0.714080
O O1 0.426701 0.438203 0.333726
O O2 0.293227 0.576553 0.493231
O O3 0.761785 0.629260 0.200018
O O4 0.575054 0.658501 0.058058
O O5 0.799477 0.758646 0.640294
O O6 0.898132 0.581198 0.652886
O O7 0.035604 0.731823 0.294194
O O8 0.063877 0.634594 0.817783
O O9 0.162091 0.818101 0.855089
O O10 0.099782 0.585692 0.095541
O O11 0.266902 0.039976 0.739120
O O12 0.621325 0.165754 0.738342
O O13 0.651873 0.041696 0.544134
O O14 0.323077 0.956945 0.003463
O O15 0.498726 0.819346 0.920024
O O16 0.908815 0.878854 0.801931
#
# Coordination Sequence:
#
# PCOD9018910 Si02
#       8
#     2   2   2   2   2   2   2   2
#     4  11  23  37  62  92 129 166 204 246 306 385
#     4  12  23  41  60  95 132 163 204 254 311 376
#     4  10  23  39  62  92 130 161 206 255 304 378
#     4  11  21  38  62  90 129 168 202 246 310 372
#     4  10  23  44  69  91 122 163 218 268 313 367
#     4  11  24  43  68  94 123 166 212 264 315 365
#     4  11  23  40  67  91 129 165 203 258 316 376
#     4  10  21  44  66  90 128 164 206 266 318 362
#
# _framework density 26.120296
#
# number of rings (size 3 to 8) (size 9 to 14) (size 15 to 20)
#    0.000    1.250    5.000    1.125    1.750    1.000 
#    2.250    0.000    0.000    0.000    0.000    0.000 
#    0.000    0.000    0.000    0.000    0.000    0.000 
#
# Total GULP energy -89560.142783 kJ/mol
# GULP energy per Si atom -5597.508924 kJ/mol
# Density = 2.606084 g / cm^3
# Si number density = 26.120296 Si / 1000 Ang^3
#
#
#
# Elastic Constant Matrix: (Units=GPa)
#
#
# Indices 1 2 3 4 5 6 
#
# 1 67.0828 28.2919 33.9878 -0.8938 -16.4334 15.7273
# 2 28.2919 80.5984 8.3675 4.0733 -17.1683 28.5469
# 3 33.9878 8.3675 101.8313 -8.4301 -10.2826 3.8860
# 4 -0.8938 4.0733 -8.4301 49.4762 -5.8450 -6.9454
# 5 -16.4334 -17.1683 -10.2826 -5.8450 40.7824 -11.8273
# 6 15.7273 28.5469 3.8860 -6.9454 -11.8273 45.9525
#
#
#
# Elastic Compliance Matrix: (Units=1/GPa)
#
#
# Indices 1 2 3 4 5 6 
#
# 1 0.022014 -0.005194 -0.006398 -0.000138 0.004272 -0.002688
# 2 -0.005194 0.018120 0.000664 -0.002450 0.002679 -0.009216
# 3 -0.006398 0.000664 0.012190 0.002297 0.001536 0.001489
# 4 -0.000138 -0.002450 0.002297 0.022138 0.004360 0.005843
# 5 0.004272 0.002679 0.001536 0.004360 0.029857 0.005088
# 6 -0.002688 -0.009216 0.001489 0.005843 0.005088 0.030473
#
#
# Mechanical properties :
#
#
# Convention : Reuss Voigt Hill
#
# Bulk Modulus (GPa) = 32.82261 43.42300 38.12280
# Shear Modulus (GPa) = 29.97533 39.16658 34.57096
#
# Velocity S-wave (km/s) = 3.39128 3.87650 3.64198
# Velocity P-wave (km/s) = 5.28466 6.05778 5.68438
#
# Compressibility (1/GPa) = 0.03046680
#
# Stress axis : x y z
#
# Youngs Moduli (GPa) = 45.42553 55.18722 82.03764
#
# Poissons Ratio (x) = 0.28666 0.52489
# Poissons Ratio (y) = 0.23596 -0.05448
# Poissons Ratio (z) = 0.29064 -0.03665
#
# Static dielectric constant tensor:
#      x y z
#    x 2.089760 0.079920 0.005600 
#    y 0.079920 2.098190 0.001780 
#    z 0.005600 0.001780 1.996250 
# 
# From -- ./inp_files/206747.got.cif
#   From: 2010.05.17/outbox.cif.g08.bks.cpg/sg2_104_cif.got.tgz:206747.got - 2010.06.03 11:33:40.
