data_PCOD9018460
_publ_section_title
;
Structure prediction by ZEFSAII (Michael W. Deem and Ramdas Pophale) SiO2 
 PCOD9018460
Probable space group: P -1
;
_chemical_formula_sum "Si O2"
_cell_formula_units_Z 14
_cell_length_a 16.630223
_cell_length_b 21.685166
_cell_length_c 8.935734
_cell_angle_alpha 33.496392
_cell_angle_beta 153.802847
_cell_angle_gamma 159.240692
_cell_volume 503.962986
_symmetry_space_group_name_H-M "P -1"
_symmetry_group_IT_number 2
_symmetry_cell_setting 'triclinic'
loop_
_space_group_symop_operation_xyz
x,y,z
-x,-y,-z
loop_
_atom_site_type_symbol
_atom_site_label
_atom_site_fract_x
_atom_site_fract_y
_atom_site_fract_z
Si Si1 0.060476 0.895642 0.745202
Si Si2 0.638407 0.387100 0.136791
Si Si3 0.883710 0.494598 0.615567
Si Si4 0.208008 0.335431 0.713626
Si Si5 0.496413 0.722431 0.186314
Si Si6 0.770521 0.196472 0.008569
Si Si7 0.900339 0.991760 0.013358
O O1 0.128561 0.807085 0.973520
O O2 0.754511 0.761789 0.586120
O O3 0.315838 0.073100 0.905250
O O4 0.012233 0.954524 0.398332
O O5 0.914630 0.525653 0.423378
O O6 0.440892 0.181250 0.211443
O O7 0.439291 0.375800 0.924988
O O8 0.626372 0.405389 0.903695
O O9 0.719252 0.515888 0.380444
O O10 0.709981 0.298558 0.716290
O O11 0.193558 0.620334 0.950063
O O12 0.000578 0.276521 0.355100
O O13 0.032403 0.176962 0.859663
O O14 0.500000 0.000000 0.000000
O O15 0.000000 0.000000 0.000000
#
# Coordination Sequence:
#
# PCOD9018460 Si02
#       7
#     2   2   2   2   2   2   2
#     4  10  21  43  70  99 130 185 218 273 332 402
#     4  10  21  44  67  94 139 178 221 267 337 401
#     4  12  26  40  65 106 137 171 222 285 332 391
#     4  11  22  43  65 101 134 172 224 275 337 393
#     4  10  22  45  67  96 140 174 229 265 334 404
#     4  12  24  42  68  99 136 168 225 284 336 391
#     4   9  17  38  71  92 125 175 225 266 322 399
#
# _framework density 27.779817999999999
#
# number of rings (size 3 to 8) (size 9 to 14) (size 15 to 20)
#    0.000    1.429    4.286    3.000    2.000    0.571 
#    2.571   10.714    0.000    0.000    0.000    0.000 
#    0.000    0.000    0.000    0.000    0.000    0.000 
#
# Total GULP energy -78161.241891 kJ/mol
# GULP energy per Si atom -5582.945849 kJ/mol
# Density = 2.771659 g / cm^3
# Si number density = 27.779818 Si / 1000 Ang^3
#
#
#
# Elastic Constant Matrix: (Units=GPa)
#
#
# Indices 1 2 3 4 5 6 
#
# 1 113.4540 42.9705 31.5961 -2.2612 3.6589 -37.1002
# 2 42.9705 164.0004 55.4736 -11.6673 9.6826 -27.1791
# 3 31.5961 55.4736 87.6380 2.6313 -0.4012 -13.6989
# 4 -2.2612 -11.6673 2.6313 57.4743 -8.7388 1.3235
# 5 3.6589 9.6826 -0.4012 -8.7388 50.2670 -1.3577
# 6 -37.1002 -27.1791 -13.6989 1.3235 -1.3577 66.4873
#
#
#
# Elastic Compliance Matrix: (Units=1/GPa)
#
#
# Indices 1 2 3 4 5 6 
#
# 1 0.011852 -0.001266 -0.002610 0.000130 -0.000467 0.005546
# 2 -0.001266 0.008502 -0.004709 0.001662 -0.001247 0.001740
# 3 -0.002610 -0.004709 0.015359 -0.001616 0.000934 -0.000166
# 4 0.000130 0.001662 -0.001616 0.018244 0.002832 0.000114
# 5 -0.000467 -0.001247 0.000934 0.002832 0.020662 -0.000213
# 6 0.005546 0.001740 -0.000166 0.000114 -0.000213 0.018806
#
#
# Mechanical properties :
#
#
# Convention : Reuss Voigt Hill
#
# Bulk Modulus (GPa) = 53.93181 69.46363 61.69772
# Shear Modulus (GPa) = 42.81648 50.51588 46.66618
#
# Velocity S-wave (km/s) = 3.93017 4.26894 4.10305
# Velocity P-wave (km/s) = 6.32860 7.02551 6.68614
#
# Compressibility (1/GPa) = 0.01854193
#
# Stress axis : x y z
#
# Youngs Moduli (GPa) = 84.37421 117.61289 65.10718
#
# Poissons Ratio (x) = 0.14895 0.16996
# Poissons Ratio (y) = 0.10686 0.30659
# Poissons Ratio (z) = 0.22026 0.55383
#
# Static dielectric constant tensor:
#      x y z
#    x 2.393760 0.069960 -0.122930 
#    y 0.069960 2.265710 0.009430 
#    z -0.122930 0.009430 2.322210 
# 
# From -- ./inp_files/472927.got.cif
#   From: 2010.05.17/outbox.cif.g08.bks.cpg/sg2_237_cif.got.tgz:472927.got - 2010.06.03 11:33:40.
