data_PCOD9018980
_publ_section_title
;
Structure prediction by ZEFSAII (Michael W. Deem and Ramdas Pophale) SiO2 
 PCOD9018980
Probable space group: P -1
;
_chemical_formula_sum "Si O2"
_cell_formula_units_Z 12
_cell_length_a 7.792202
_cell_length_b 14.510393
_cell_length_c 19.072073
_cell_angle_alpha 18.047429
_cell_angle_beta 133.655231
_cell_angle_gamma 124.985606
_cell_volume 449.010532
_symmetry_space_group_name_H-M "P -1"
_symmetry_group_IT_number 2
_symmetry_cell_setting 'triclinic'
loop_
_space_group_symop_operation_xyz
x,y,z
-x,-y,-z
loop_
_atom_site_type_symbol
_atom_site_label
_atom_site_fract_x
_atom_site_fract_y
_atom_site_fract_z
Si Si1 0.196716 0.566641 0.693429
Si Si2 0.655920 0.555742 0.743491
Si Si3 0.518102 0.767716 0.864795
Si Si4 0.913356 0.375226 0.638195
Si Si5 0.992252 0.857081 0.680517
Si Si6 0.637424 0.223383 0.843803
O O1 0.439075 0.464352 0.784913
O O2 0.964594 0.571364 0.576438
O O3 0.246589 0.336233 0.941218
O O4 0.176873 0.892760 0.491472
O O5 0.749652 0.350402 0.849282
O O6 0.886774 0.576853 0.840179
O O7 0.512267 0.920954 0.412545
O O8 0.277700 0.805581 0.819200
O O9 0.500000 0.500000 0.000000
O O10 0.606078 0.475225 0.473010
O O11 0.000000 0.500000 0.500000
O O12 0.127438 0.011825 0.965445
O O13 0.000000 0.000000 0.500000
O O14 0.500000 0.000000 0.000000
#
# Coordination Sequence:
#
# PCOD9018980 Si02
#       6
#     2   2   2   2   2   2
#     4  12  23  44  73  98 139 191 233 291 367 422
#     4  11  23  44  73 101 136 191 239 287 366 427
#     4  11  25  45  64 103 148 178 233 303 352 431
#     4  10  22  42  70 102 144 181 241 305 341 422
#     4  10  23  43  65 103 140 174 234 297 352 425
#     4  10  21  44  67 104 143 183 239 305 342 420
#
# _framework density 26.725432000000001
#
# number of rings (size 3 to 8) (size 9 to 14) (size 15 to 20)
#    0.000    1.333    6.667    0.500    2.333    2.000 
#    0.000    1.667    0.000    0.000    0.000    0.000 
#    0.000    0.000    0.000    0.000    0.000    0.000 
#
# Total GULP energy -67113.393353 kJ/mol
# GULP energy per Si atom -5592.782779 kJ/mol
# Density = 2.666460 g / cm^3
# Si number density = 26.725432 Si / 1000 Ang^3
#
#
#
# Elastic Constant Matrix: (Units=GPa)
#
#
# Indices 1 2 3 4 5 6 
#
# 1 118.0825 25.9773 22.1237 4.6196 26.0242 -5.6633
# 2 25.9773 183.3319 29.3123 8.8803 12.2994 -21.4714
# 3 22.1237 29.3123 104.2042 7.5841 15.5400 -8.2431
# 4 4.6196 8.8803 7.5841 42.2044 -4.4953 8.1174
# 5 26.0242 12.2994 15.5400 -4.4953 47.0624 -4.4647
# 6 -5.6633 -21.4714 -8.2431 8.1174 -4.4647 40.4329
#
#
#
# Elastic Compliance Matrix: (Units=1/GPa)
#
#
# Indices 1 2 3 4 5 6 
#
# 1 0.010032 -0.000794 -0.001007 -0.001388 -0.005093 0.000495
# 2 -0.000794 0.006255 -0.001105 -0.001730 -0.000687 0.003257
# 3 -0.001007 -0.001105 0.010825 -0.002210 -0.002787 0.001615
# 4 -0.001388 -0.001730 -0.002210 0.026250 0.003849 -0.006409
# 5 -0.005093 -0.000687 -0.002787 0.003849 0.025571 0.000404
# 6 0.000495 0.003257 0.001615 -0.006409 0.000404 0.028192
#
#
# Mechanical properties :
#
#
# Convention : Reuss Voigt Hill
#
# Bulk Modulus (GPa) = 46.94499 62.27172 54.60835
# Shear Modulus (GPa) = 41.65380 47.82028 44.73704
#
# Velocity S-wave (km/s) = 3.95217 4.23462 4.09583
# Velocity P-wave (km/s) = 6.19919 6.87463 6.54563
#
# Compressibility (1/GPa) = 0.02130153
#
# Stress axis : x y z
#
# Youngs Moduli (GPa) = 99.67622 159.87052 92.37555
#
# Poissons Ratio (x) = 0.12689 0.09303
# Poissons Ratio (y) = 0.07911 0.10207
# Poissons Ratio (z) = 0.10038 0.17665
#
# Static dielectric constant tensor:
#      x y z
#    x 2.026560 -0.058100 -0.047370 
#    y -0.058100 1.929080 -0.095870 
#    z -0.047370 -0.095870 2.145440 
# 
# From -- ./inp_files/590207.got.cif
#   From: 2010.05.17/outbox.cif.g08.bks.cpg/sg2_296_cif.got.tgz:590207.got - 2010.06.03 11:33:40.
