data_PCOD9018880
_publ_section_title
;
Structure prediction by ZEFSAII (Michael W. Deem and Ramdas Pophale) SiO2 
 PCOD9018880
Probable space group: P -1
;
_chemical_formula_sum "Si O2"
_cell_formula_units_Z 12
_cell_length_a 18.019180
_cell_length_b 7.362037
_cell_length_c 11.468651
_cell_angle_alpha 120.591365
_cell_angle_beta 36.482698
_cell_angle_gamma 142.252685
_cell_volume 519.057806
_symmetry_space_group_name_H-M "P -1"
_symmetry_group_IT_number 2
_symmetry_cell_setting 'triclinic'
loop_
_space_group_symop_operation_xyz
x,y,z
-x,-y,-z
loop_
_atom_site_type_symbol
_atom_site_label
_atom_site_fract_x
_atom_site_fract_y
_atom_site_fract_z
Si Si1 0.835998 0.939893 0.428516
Si Si2 0.362171 0.128008 0.544722
Si Si3 0.409559 0.707427 0.323802
Si Si4 0.838408 0.231167 0.938804
Si Si5 0.011327 0.802576 0.037002
Si Si6 0.064900 0.313914 0.480209
O O1 0.712087 0.952153 0.520681
O O2 0.700842 0.598311 0.553383
O O3 0.985679 0.225654 0.421507
O O4 0.948700 0.959448 0.191167
O O5 0.500000 0.500000 0.500000
O O6 0.419849 0.959886 0.443517
O O7 0.201668 0.984179 0.792138
O O8 0.283119 0.577404 0.324699
O O9 0.620978 0.897898 0.095975
O O10 0.854972 0.483791 0.056141
O O11 0.951050 0.334495 0.711772
O O12 0.954901 0.242702 0.889957
O O13 0.000000 0.000000 0.500000
#
# Coordination Sequence:
#
# PCOD9018880 Si02
#       6
#     2   2   2   2   2   2
#     4  11  24  43  69  97 135 174 217 273 325 389
#     4  12  25  42  66 102 132 171 225 270 329 390
#     4  11  23  44  68  97 134 173 217 272 322 391
#     4  11  21  40  73  96 129 178 217 267 333 385
#     4  11  21  41  66  98 131 172 220 273 327 383
#     4  10  21  44  65  99 132 175 218 265 331 386
#
# _framework density 23.118811999999998
#
# number of rings (size 3 to 8) (size 9 to 14) (size 15 to 20)
#    0.000    1.000    5.000    3.500    0.000    5.333 
#    3.000    0.833    0.000    0.000    0.000    0.000 
#    0.000    0.000    0.000    0.000    0.000    0.000 
#
# Total GULP energy -67043.936195 kJ/mol
# GULP energy per Si atom -5586.994683 kJ/mol
# Density = 2.306619 g / cm^3
# Si number density = 23.118812 Si / 1000 Ang^3
#
#
#
# Elastic Constant Matrix: (Units=GPa)
#
#
# Indices 1 2 3 4 5 6 
#
# 1 76.6418 22.0890 13.3535 9.6871 4.0581 -6.2648
# 2 22.0890 97.5123 24.3857 -8.3276 -8.4811 8.2426
# 3 13.3535 24.3857 71.0960 -14.6234 -11.3266 15.9534
# 4 9.6871 -8.3276 -14.6234 45.0145 3.4929 -0.8703
# 5 4.0581 -8.4811 -11.3266 3.4929 19.9354 -1.1787
# 6 -6.2648 8.2426 15.9534 -0.8703 -1.1787 45.5093
#
#
#
# Elastic Compliance Matrix: (Units=1/GPa)
#
#
# Indices 1 2 3 4 5 6 
#
# 1 0.016379 -0.003886 -0.004849 -0.005225 -0.006568 0.004389
# 2 -0.003886 0.012350 -0.001924 0.002112 0.004467 -0.001941
# 3 -0.004849 -0.001924 0.020105 0.006302 0.010074 -0.006985
# 4 -0.005225 0.002112 0.006302 0.025655 0.000882 -0.002797
# 5 -0.006568 0.004467 0.010074 0.000882 0.058749 -0.003706
# 6 0.004389 -0.001941 -0.006985 -0.002797 -0.003706 0.025228
#
#
# Mechanical properties :
#
#
# Convention : Reuss Voigt Hill
#
# Bulk Modulus (GPa) = 36.34442 40.54514 38.44478
# Shear Modulus (GPa) = 26.46093 34.45331 30.45712
#
# Velocity S-wave (km/s) = 3.38681 3.86459 3.63356
# Velocity P-wave (km/s) = 5.57215 6.12284 5.85397
#
# Compressibility (1/GPa) = 0.02751454
#
# Stress axis : x y z
#
# Youngs Moduli (GPa) = 61.05214 80.97450 49.73867
#
# Poissons Ratio (x) = 0.31467 0.24120
# Poissons Ratio (y) = 0.23725 0.09572
# Poissons Ratio (z) = 0.29606 0.15583
#
# Static dielectric constant tensor:
#      x y z
#    x 1.922960 -0.027270 -0.007060 
#    y -0.027270 1.995580 -0.001160 
#    z -0.007060 -0.001160 1.814430 
# 
# From -- ./inp_files/189713.got.cif
#   From: 2010.05.17/outbox.cif.g08.bks.cpg/sg2_95_cif.got.tgz:189713.got - 2010.06.03 11:33:40.
