data_PCOD9018986
_publ_section_title
;
Structure prediction by ZEFSAII (Michael W. Deem and Ramdas Pophale) SiO2 
 PCOD9018986
Probable space group: P -1
;
_chemical_formula_sum "Si O2"
_cell_formula_units_Z 12
_cell_length_a 11.637339
_cell_length_b 8.648917
_cell_length_c 9.246527
_cell_angle_alpha 100.834251
_cell_angle_beta 59.810643
_cell_angle_gamma 138.526314
_cell_volume 502.949635
_symmetry_space_group_name_H-M "P -1"
_symmetry_group_IT_number 2
_symmetry_cell_setting 'triclinic'
loop_
_space_group_symop_operation_xyz
x,y,z
-x,-y,-z
loop_
_atom_site_type_symbol
_atom_site_label
_atom_site_fract_x
_atom_site_fract_y
_atom_site_fract_z
Si Si1 0.474671 0.481975 0.342712
Si Si2 0.942524 0.348016 0.151058
Si Si3 0.733674 0.873922 0.034579
Si Si4 0.130024 0.984851 0.337323
Si Si5 0.365347 0.746475 0.128522
Si Si6 0.785430 0.428751 0.497267
O O1 0.500000 0.500000 0.500000
O O2 0.672595 0.678736 0.146168
O O3 0.351590 0.218431 0.313157
O O4 0.355294 0.541883 0.414715
O O5 0.157152 0.513197 0.130838
O O6 0.787027 0.306786 0.344174
O O7 0.830782 0.092812 0.116058
O O8 0.000000 0.500000 0.000000
O O9 0.526066 0.752280 0.064425
O O10 0.875680 0.979167 0.822955
O O11 0.000000 0.000000 0.500000
O O12 0.017714 0.717777 0.390340
O O13 0.282270 0.713723 0.335917
O O14 0.500000 0.000000 0.000000
#
# Coordination Sequence:
#
# PCOD9018986 Si02
#       6
#     2   2   2   2   2   2
#     4  10  24  43  68  98 127 179 227 273 325 389
#     4  12  23  42  68 103 135 170 220 274 340 398
#     4  11  24  45  68  98 138 172 220 279 331 399
#     4  10  21  44  67  89 133 176 219 270 329 388
#     4  11  23  41  64  99 136 179 209 267 339 395
#     4  10  23  43  67  97 137 172 219 276 332 397
#
# _framework density 23.859248000000001
#
# number of rings (size 3 to 8) (size 9 to 14) (size 15 to 20)
#    0.000    1.333    3.333    1.000    2.333    4.000 
#    3.000    3.333    0.000    0.000    0.000    0.000 
#    0.000    0.000    0.000    0.000    0.000    0.000 
#
# Total GULP energy -67060.318652 kJ/mol
# GULP energy per Si atom -5588.359888 kJ/mol
# Density = 2.380494 g / cm^3
# Si number density = 23.859248 Si / 1000 Ang^3
#
#
#
# Elastic Constant Matrix: (Units=GPa)
#
#
# Indices 1 2 3 4 5 6 
#
# 1 72.9761 -9.0246 24.1335 4.5494 16.6013 7.1101
# 2 -9.0246 93.4943 53.6710 13.3050 9.7923 5.3306
# 3 24.1335 53.6710 213.3802 15.1688 39.0151 -11.0921
# 4 4.5494 13.3050 15.1688 48.0690 -7.8675 9.6764
# 5 16.6013 9.7923 39.0151 -7.8675 40.4847 -0.0964
# 6 7.1101 5.3306 -11.0921 9.6764 -0.0964 25.9642
#
#
#
# Elastic Compliance Matrix: (Units=1/GPa)
#
#
# Indices 1 2 3 4 5 6 
#
# 1 0.016974 0.004009 -0.001869 -0.002087 -0.006547 -0.005516
# 2 0.004009 0.014022 -0.003681 -0.002492 -0.001983 -0.004628
# 3 -0.001869 -0.003681 0.007488 -0.003324 -0.006191 0.005682
# 4 -0.002087 -0.002492 -0.003324 0.026377 0.009764 -0.010131
# 5 -0.006547 -0.001983 -0.006191 0.009764 0.035720 -0.003951
# 6 -0.005516 -0.004628 0.005682 -0.010131 -0.003951 0.047164
#
#
# Mechanical properties :
#
#
# Convention : Reuss Voigt Hill
#
# Bulk Modulus (GPa) = 28.24815 57.49004 42.86909
# Shear Modulus (GPa) = 30.74498 43.64164 37.19331
#
# Velocity S-wave (km/s) = 3.59360 4.28147 3.95253
# Velocity P-wave (km/s) = 5.39294 6.97059 6.23189
#
# Compressibility (1/GPa) = 0.03540055
#
# Stress axis : x y z
#
# Youngs Moduli (GPa) = 58.91321 71.31540 133.55549
#
# Poissons Ratio (x) = -0.28589 0.24966
# Poissons Ratio (y) = -0.23618 0.49164
# Poissons Ratio (z) = 0.11013 0.26252
#
# Static dielectric constant tensor:
#      x y z
#    x 1.955850 -0.013680 -0.099880 
#    y -0.013680 1.787700 -0.190390 
#    z -0.099880 -0.190390 1.950730 
# 
# From -- ./inp_files/158769.got.cif
#   From: 2010.05.17/outbox.cif.g08.bks.cpg/sg2_80_cif.got.tgz:158769.got - 2010.06.03 11:33:40.
