data_PCOD9018072
_publ_section_title
;
Structure prediction by ZEFSAII (Michael W. Deem and Ramdas Pophale) SiO2 
 PCOD9018072
Probable space group: P -1
;
_chemical_formula_sum "Si O2"
_cell_formula_units_Z 16
_cell_length_a 20.902289
_cell_length_b 22.185969
_cell_length_c 5.430414
_cell_angle_alpha 100.195966
_cell_angle_beta 110.762078
_cell_angle_gamma 19.289821
_cell_volume 669.062829
_symmetry_space_group_name_H-M "P -1"
_symmetry_group_IT_number 2
_symmetry_cell_setting 'triclinic'
loop_
_space_group_symop_operation_xyz
x,y,z
-x,-y,-z
loop_
_atom_site_type_symbol
_atom_site_label
_atom_site_fract_x
_atom_site_fract_y
_atom_site_fract_z
Si Si1 0.558277 0.004077 0.891078
Si Si2 0.108206 0.833835 0.262126
Si Si3 0.333712 0.316595 0.936614
Si Si4 0.817444 0.023655 0.638616
Si Si5 0.640025 0.273543 0.241026
Si Si6 0.393116 0.341672 0.537398
Si Si7 0.813162 0.351642 0.445218
Si Si8 0.885007 0.649482 0.780568
O O1 0.350175 0.177741 0.530922
O O2 0.800985 0.779066 0.924222
O O3 0.528817 0.095430 0.036142
O O4 0.500000 0.000000 0.000000
O O5 0.309376 0.710060 0.513389
O O6 0.171477 0.713131 0.370644
O O7 0.871121 0.062859 0.236457
O O8 0.022840 0.894900 0.912069
O O9 0.355730 0.334203 0.234824
O O10 0.353599 0.339706 0.735378
O O11 0.074283 0.507721 0.734348
O O12 0.947769 0.860826 0.540824
O O13 0.632864 0.220710 0.369349
O O14 0.669570 0.125046 0.738490
O O15 0.409583 0.474868 0.906264
O O16 0.234408 0.538735 0.456996
O O17 0.000000 0.500000 0.000000
#
# Coordination Sequence:
#
# PCOD9018072 Si02
#       8
#     2   2   2   2   2   2   2   2
#     4  11  25  45  80 113 150 183 233 302 365 419
#     4  10  22  40  72 103 134 180 244 308 377 437
#     4  12  28  48  76 108 147 199 244 291 352 440
#     4  11  25  44  70  97 144 189 239 305 369 427
#     4  10  21  43  68 105 138 176 241 313 379 436
#     4  12  29  49  69 103 152 198 251 292 349 436
#     4  11  25  44  71  96 141 193 238 302 372 430
#     4  11  24  47  78 113 153 185 232 296 370 418
#
# _framework density 23.914047
#
# number of rings (size 3 to 8) (size 9 to 14) (size 15 to 20)
#    0.000    1.000    2.500    2.625    8.750    2.500 
#    0.000    0.000    0.000    0.000    0.000    0.000 
#    0.000    0.000    0.000    0.000    0.000    0.000 
#
# Total GULP energy -89658.738322 kJ/mol
# GULP energy per Si atom -5603.671145 kJ/mol
# Density = 2.385962 g / cm^3
# Si number density = 23.914047 Si / 1000 Ang^3
#
#
#
# Elastic Constant Matrix: (Units=GPa)
#
#
# Indices 1 2 3 4 5 6 
#
# 1 101.4148 71.4381 21.2018 0.9697 -15.2721 6.0768
# 2 71.4381 162.0943 16.3817 18.0518 -14.0378 28.9460
# 3 21.2018 16.3817 97.6958 -2.6867 -10.2550 14.8586
# 4 0.9697 18.0518 -2.6867 40.9205 10.7744 2.1520
# 5 -15.2721 -14.0378 -10.2550 10.7744 38.1105 5.9584
# 6 6.0768 28.9460 14.8586 2.1520 5.9584 46.8151
#
#
#
# Elastic Compliance Matrix: (Units=1/GPa)
#
#
# Indices 1 2 3 4 5 6 
#
# 1 0.015484 -0.007140 -0.002331 0.001968 0.001953 0.002805
# 2 -0.007140 0.011400 0.000947 -0.005554 0.004211 -0.006703
# 3 -0.002331 0.000947 0.011585 -0.000236 0.003281 -0.004366
# 4 0.001968 -0.005554 -0.000236 0.029319 -0.010109 0.003193
# 5 0.001953 0.004211 0.003281 -0.010109 0.033518 -0.007700
# 6 0.002805 -0.006703 -0.004366 0.003193 -0.007700 0.027360
#
#
# Mechanical properties :
#
#
# Convention : Reuss Voigt Hill
#
# Bulk Modulus (GPa) = 46.68048 64.36092 55.52070
# Shear Modulus (GPa) = 32.71060 41.98145 37.34602
#
# Velocity S-wave (km/s) = 3.70244 4.19443 3.95609
# Velocity P-wave (km/s) = 6.15142 7.10138 6.64340
#
# Compressibility (1/GPa) = 0.02142223
#
# Stress axis : x y z
#
# Youngs Moduli (GPa) = 64.58201 87.71612 86.31854
#
# Poissons Ratio (x) = 0.62626 0.20118
# Poissons Ratio (y) = 0.46109 -0.08171
# Poissons Ratio (z) = 0.15052 -0.08303
#
# Static dielectric constant tensor:
#      x y z
#    x 1.918680 0.001220 0.047230 
#    y 0.001220 1.918150 0.032670 
#    z 0.047230 0.032670 1.954960 
# 
# From -- ./inp_files/11422.got.cif
#   From: 2010.05.17/outbox.cif.g08.bks.cpg/sg2_6_cif.got.tgz:11422.got - 2010.06.03 11:33:40.
