data_PCOD9018950
_publ_section_title
;
Structure prediction by ZEFSAII (Michael W. Deem and Ramdas Pophale) SiO2 
 PCOD9018950
Probable space group: P -1
;
_chemical_formula_sum "Si O2"
_cell_formula_units_Z 16
_cell_length_a 8.469170
_cell_length_b 17.419813
_cell_length_c 11.461164
_cell_angle_alpha 142.225381
_cell_angle_beta 141.657536
_cell_angle_gamma 55.287980
_cell_volume 636.847746
_symmetry_space_group_name_H-M "P -1"
_symmetry_group_IT_number 2
_symmetry_cell_setting 'triclinic'
loop_
_space_group_symop_operation_xyz
x,y,z
-x,-y,-z
loop_
_atom_site_type_symbol
_atom_site_label
_atom_site_fract_x
_atom_site_fract_y
_atom_site_fract_z
Si Si1 0.400865 0.912239 0.226754
Si Si2 0.623174 0.869933 0.923760
Si Si3 0.352608 0.740887 0.419316
Si Si4 0.826509 0.204424 0.258000
Si Si5 0.109403 0.754435 0.059306
Si Si6 0.587416 0.528738 0.898267
Si Si7 0.916860 0.523346 0.319693
Si Si8 0.138143 0.204213 0.668619
O O1 0.672789 0.893036 0.305035
O O2 0.500000 0.000000 0.500000
O O3 0.224993 0.906840 0.001849
O O4 0.251521 0.795319 0.071820
O O5 0.598216 0.812728 0.709958
O O6 0.429396 0.791164 0.807122
O O7 0.913823 0.852068 0.099296
O O8 0.500000 0.000000 0.000000
O O9 0.333987 0.594279 0.266665
O O10 0.112421 0.797345 0.402069
O O11 0.330969 0.753301 0.283994
O O12 0.906019 0.342773 0.414167
O O13 0.042379 0.181890 0.452141
O O14 0.972812 0.609368 0.796883
O O15 0.286398 0.499891 0.720005
O O16 0.741224 0.536389 0.118973
O O17 0.691924 0.659280 0.055501
#
# Coordination Sequence:
#
# PCOD9018950 Si02
#       8
#     2   2   2   2   2   2   2   2
#     4  12  28  42  67 100 133 180 225 275 328 397
#     4  11  27  46  66  97 133 182 227 270 331 396
#     4  10  23  40  70  95 132 179 216 277 327 396
#     4  10  25  45  68  97 136 175 221 280 330 397
#     4  11  25  44  68 103 132 175 227 273 337 393
#     4   9  17  36  66 102 134 168 220 269 338 398
#     4   9  19  39  68 100 138 170 213 284 336 390
#     4  10  21  44  66  97 135 176 220 271 338 387
#
# _framework density 25.123743999999999
#
# number of rings (size 3 to 8) (size 9 to 14) (size 15 to 20)
#    0.000    1.750    1.250    1.125    8.750    4.000 
#    0.000    0.000    0.000    0.000    0.000    0.000 
#    0.000    0.000    0.000    0.000    0.000    0.000 
#
# Total GULP energy -89344.889722 kJ/mol
# GULP energy per Si atom -5584.055608 kJ/mol
# Density = 2.506656 g / cm^3
# Si number density = 25.123744 Si / 1000 Ang^3
#
#
#
# Elastic Constant Matrix: (Units=GPa)
#
#
# Indices 1 2 3 4 5 6 
#
# 1 54.5595 7.3422 9.3419 -3.6412 13.1497 0.3547
# 2 7.3422 59.2750 31.5977 -2.1659 3.2462 -12.7444
# 3 9.3419 31.5977 137.3039 -6.1278 -16.8925 13.5312
# 4 -3.6412 -2.1659 -6.1278 24.0513 6.3843 -8.0221
# 5 13.1497 3.2462 -16.8925 6.3843 42.1558 -0.8312
# 6 0.3547 -12.7444 13.5312 -8.0221 -0.8312 36.0389
#
#
#
# Elastic Compliance Matrix: (Units=1/GPa)
#
#
# Indices 1 2 3 4 5 6 
#
# 1 0.021095 -0.000461 -0.002248 0.005243 -0.008211 0.001451
# 2 -0.000461 0.023784 -0.007020 0.005715 -0.005126 0.012205
# 3 -0.002248 -0.007020 0.010299 -0.002040 0.005547 -0.006653
# 4 0.005243 0.005715 -0.002040 0.049571 -0.010133 0.013536
# 5 -0.008211 -0.005126 0.005547 -0.010133 0.030329 -0.005370
# 6 0.001451 0.012205 -0.006653 0.013536 -0.005370 0.037437
#
#
# Mechanical properties :
#
#
# Convention : Reuss Voigt Hill
#
# Bulk Modulus (GPa) = 27.99729 38.63355 33.31542
# Shear Modulus (GPa) = 24.52427 33.97296 29.24862
#
# Velocity S-wave (km/s) = 3.12771 3.68125 3.41571
# Velocity P-wave (km/s) = 4.92051 5.78615 5.37080
#
# Compressibility (1/GPa) = 0.03571774
#
# Stress axis : x y z
#
# Youngs Moduli (GPa) = 47.40436 42.04589 97.09977
#
# Poissons Ratio (x) = 0.01939 0.21832
# Poissons Ratio (y) = 0.02186 0.68166
# Poissons Ratio (z) = 0.10658 0.29517
#
# Static dielectric constant tensor:
#      x y z
#    x 1.929390 0.019290 -0.016520 
#    y 0.019290 2.019580 0.001370 
#    z -0.016520 0.001370 2.063890 
# 
# From -- ./inp_files/405755.got.cif
#   From: 2010.05.17/outbox.cif.g08.bks.cpg/sg2_203_cif.got.tgz:405755.got - 2010.06.03 11:33:40.
