data_PCOD9018336
_publ_section_title
;
Structure prediction by ZEFSAII (Michael W. Deem and Ramdas Pophale) SiO2 
 PCOD9018336
Probable space group: P -1
;
_chemical_formula_sum "Si O2"
_cell_formula_units_Z 16
_cell_length_a 11.717904
_cell_length_b 16.130669
_cell_length_c 8.412755
_cell_angle_alpha 119.139614
_cell_angle_beta 72.632365
_cell_angle_gamma 56.613988
_cell_volume 730.459792
_symmetry_space_group_name_H-M "P -1"
_symmetry_group_IT_number 2
_symmetry_cell_setting 'triclinic'
loop_
_space_group_symop_operation_xyz
x,y,z
-x,-y,-z
loop_
_atom_site_type_symbol
_atom_site_label
_atom_site_fract_x
_atom_site_fract_y
_atom_site_fract_z
Si Si1 0.527854 0.264344 0.319043
Si Si2 0.917654 0.351277 0.253706
Si Si3 0.203404 0.814442 0.326055
Si Si4 0.422282 0.331038 0.794611
Si Si5 0.595777 0.026088 0.893432
Si Si6 0.653471 0.821212 0.183829
Si Si7 0.715206 0.313328 0.158484
Si Si8 0.918610 0.295424 0.571328
O O1 0.308637 0.443192 0.486848
O O2 0.476763 0.305584 0.563621
O O3 0.723825 0.204431 0.132662
O O4 0.583575 0.123199 0.106492
O O5 0.901532 0.264316 0.077825
O O6 0.936469 0.310774 0.392750
O O7 0.116098 0.283467 0.048229
O O8 0.360723 0.789024 0.308690
O O9 0.145747 0.771614 0.437373
O O10 0.314791 0.683198 0.012124
O O11 0.000000 0.000000 0.500000
O O12 0.335189 0.283061 0.818298
O O13 0.251305 0.522493 0.103765
O O14 0.846646 0.844719 0.578741
O O15 0.456443 0.134395 0.895616
O O16 0.500000 0.000000 0.000000
O O17 0.500000 0.000000 0.500000
O O18 0.500000 0.500000 0.500000
#
# Coordination Sequence:
#
# PCOD9018336 Si02
#       8
#     2   2   2   2   2   2   2   2
#     4  11  25  47  72 105 141 186 239 294 355 423
#     4  11  25  44  74 101 143 192 232 295 356 424
#     4  12  26  46  75 109 142 184 234 300 355 424
#     4  12  27  46  74 107 144 188 240 293 354 426
#     4  12  26  47  70 102 144 185 239 292 356 421
#     4  12  28  47  70 104 147 187 244 291 356 423
#     4  10  21  43  69  99 136 176 228 284 348 413
#     4  12  25  45  75 107 141 190 236 294 358 422
#
# _framework density 21.904008000000001
#
# number of rings (size 3 to 8) (size 9 to 14) (size 15 to 20)
#    0.000    0.500    1.250    7.875    7.000    1.500 
#    0.000    2.500    0.000    0.000    0.000    0.000 
#    0.000    0.000    0.000    0.000    0.000    0.000 
#
# Total GULP energy -89615.013673 kJ/mol
# GULP energy per Si atom -5600.938355 kJ/mol
# Density = 2.185415 g / cm^3
# Si number density = 21.904008 Si / 1000 Ang^3
#
#
#
# Elastic Constant Matrix: (Units=GPa)
#
#
# Indices 1 2 3 4 5 6 
#
# 1 139.9287 44.1869 32.3702 1.2051 -11.6063 23.7448
# 2 44.1869 92.0202 17.2164 -8.8316 -11.6991 25.0067
# 3 32.3702 17.2164 72.1900 10.4427 -4.5311 8.3853
# 4 1.2051 -8.8316 10.4427 40.8276 1.9779 0.5175
# 5 -11.6063 -11.6991 -4.5311 1.9779 39.6743 1.1104
# 6 23.7448 25.0067 8.3853 0.5175 1.1104 48.4911
#
#
#
# Elastic Compliance Matrix: (Units=1/GPa)
#
#
# Indices 1 2 3 4 5 6 
#
# 1 0.009381 -0.003069 -0.003054 -0.000204 0.001571 -0.002517
# 2 -0.003069 0.015129 -0.001858 0.003754 0.003335 -0.006094
# 3 -0.003054 -0.001858 0.016403 -0.004535 0.000668 -0.000350
# 4 -0.000204 0.003754 -0.004535 0.026525 -0.000756 -0.001318
# 5 0.001571 0.003335 0.000668 -0.000756 0.026852 -0.003211
# 6 -0.002517 -0.006094 -0.000350 -0.001318 -0.003211 0.025146
#
#
# Mechanical properties :
#
#
# Convention : Reuss Voigt Hill
#
# Bulk Modulus (GPa) = 40.07782 54.63176 47.35479
# Shear Modulus (GPa) = 34.79097 39.82297 37.30697
#
# Velocity S-wave (km/s) = 3.98972 4.26851 4.13147
# Velocity P-wave (km/s) = 6.28972 7.02062 6.66520
#
# Compressibility (1/GPa) = 0.02495146
#
# Stress axis : x y z
#
# Youngs Moduli (GPa) = 106.59391 66.09859 60.96265
#
# Poissons Ratio (x) = 0.20288 0.18619
# Poissons Ratio (y) = 0.32717 0.11325
# Poissons Ratio (z) = 0.32556 0.12279
#
# Static dielectric constant tensor:
#      x y z
#    x 1.807980 0.022980 0.012750 
#    y 0.022980 1.807420 0.020970 
#    z 0.012750 0.020970 1.821940 
# 
# From -- ./inp_files/217908.got.cif
#   From: 2010.05.17/outbox.cif.g08.bks.cpg/sg2_109_cif.got.tgz:217908.got - 2010.06.03 11:33:40.
