data_PCOD9018644
_publ_section_title
;
Structure prediction by ZEFSAII (Michael W. Deem and Ramdas Pophale) SiO2 
 PCOD9018644
Probable space group: P -1
;
_chemical_formula_sum "Si O2"
_cell_formula_units_Z 16
_cell_length_a 14.894015
_cell_length_b 8.313030
_cell_length_c 9.687613
_cell_angle_alpha 62.298328
_cell_angle_beta 133.935280
_cell_angle_gamma 130.946463
_cell_volume 652.306659
_symmetry_space_group_name_H-M "P -1"
_symmetry_group_IT_number 2
_symmetry_cell_setting 'triclinic'
loop_
_space_group_symop_operation_xyz
x,y,z
-x,-y,-z
loop_
_atom_site_type_symbol
_atom_site_label
_atom_site_fract_x
_atom_site_fract_y
_atom_site_fract_z
Si Si1 0.787413 0.792127 0.278590
Si Si2 0.595345 0.368971 0.091082
Si Si3 0.600448 0.706500 0.344097
Si Si4 0.927171 0.623897 0.318173
Si Si5 0.937222 0.681823 0.013744
Si Si6 0.578989 0.959052 0.723877
Si Si7 0.666472 0.750492 0.687156
Si Si8 0.147138 0.779517 0.947516
O O1 0.647637 0.607253 0.114084
O O2 0.742859 0.732363 0.412253
O O3 0.916390 0.765453 0.370884
O O4 0.815285 0.022283 0.187040
O O5 0.757153 0.438266 0.183462
O O6 0.533423 0.209742 0.218272
O O7 0.487061 0.264830 0.886480
O O8 0.647137 0.835468 0.485006
O O9 0.488234 0.463985 0.362156
O O10 0.000000 0.500000 0.500000
O O11 0.993728 0.766724 0.194986
O O12 0.792940 0.695401 0.836370
O O13 0.040222 0.773799 0.954732
O O14 0.918208 0.449113 0.097597
O O15 0.678780 0.885619 0.780016
O O16 0.500000 0.000000 0.500000
O O17 0.698512 0.170222 0.844352
#
# Coordination Sequence:
#
# PCOD9018644 Si02
#       8
#     2   2   2   2   2   2   2   2
#     4  10  21  43  73  94 132 181 225 280 343 402
#     4  10  21  43  73  96 140 179 220 284 345 401
#     4  11  20  39  74 101 133 180 220 281 345 402
#     4  10  23  41  71  98 133 183 228 279 341 412
#     4  11  26  47  65  97 141 183 230 287 342 400
#     4  12  26  43  71 107 138 182 229 278 353 412
#     4  11  24  43  69 103 139 179 228 282 343 408
#     4  11  26  45  69  94 139 186 228 284 344 407
#
# _framework density 24.528338999999999
#
# number of rings (size 3 to 8) (size 9 to 14) (size 15 to 20)
#    0.750    0.500    3.750    1.875    5.250    4.000 
#    2.250    3.125    0.000    0.000    0.000    0.000 
#    0.000    0.000    0.000    0.000    0.000    0.000 
#
# Total GULP energy -89360.789322 kJ/mol
# GULP energy per Si atom -5585.049333 kJ/mol
# Density = 2.447251 g / cm^3
# Si number density = 24.528339 Si / 1000 Ang^3
#
#
#
# Elastic Constant Matrix: (Units=GPa)
#
#
# Indices 1 2 3 4 5 6 
#
# 1 106.6180 17.4583 29.3120 -12.1542 -16.4531 17.8875
# 2 17.4583 59.0585 7.1328 -6.7179 0.1927 4.1185
# 3 29.3120 7.1328 101.9574 -18.1265 -24.0482 3.4228
# 4 -12.1542 -6.7179 -18.1265 24.9020 -1.7409 -3.0441
# 5 -16.4531 0.1927 -24.0482 -1.7409 35.7450 -9.4300
# 6 17.8875 4.1185 3.4228 -3.0441 -9.4300 15.6370
#
#
#
# Elastic Compliance Matrix: (Units=1/GPa)
#
#
# Indices 1 2 3 4 5 6 
#
# 1 0.013006 -0.002400 -0.002430 0.002484 0.001183 -0.012517
# 2 -0.002400 0.018222 -0.000459 0.002946 -0.002060 -0.002623
# 3 -0.002430 -0.000459 0.015152 0.011677 0.012054 0.009127
# 4 0.002484 0.002946 0.011677 0.053348 0.015095 0.013315
# 5 0.001183 -0.002060 0.012054 0.015095 0.044287 0.026197
# 6 -0.012517 -0.002623 0.009127 0.013315 0.026197 0.095352
#
#
# Mechanical properties :
#
#
# Convention : Reuss Voigt Hill
#
# Bulk Modulus (GPa) = 27.93166 41.71557 34.82362
# Shear Modulus (GPa) = 19.09284 29.50555 24.29919
#
# Velocity S-wave (km/s) = 2.79301 3.47207 3.15089
# Velocity P-wave (km/s) = 4.67048 5.75480 5.24076
#
# Compressibility (1/GPa) = 0.03580166
#
# Stress axis : x y z
#
# Youngs Moduli (GPa) = 76.88693 54.87915 65.99961
#
# Poissons Ratio (x) = 0.13169 0.16040
# Poissons Ratio (y) = 0.18450 0.03030
# Poissons Ratio (z) = 0.18686 0.02519
#
# Static dielectric constant tensor:
#      x y z
#    x 2.022240 -0.010950 0.046450 
#    y -0.010950 1.927740 0.034490 
#    z 0.046450 0.034490 1.975260 
# 
# From -- ./inp_files/294603.got.cif
#   From: 2010.05.17/outbox.cif.g08.bks.cpg/sg2_148_cif.got.tgz:294603.got - 2010.06.03 11:33:40.
