data_PCOD9018841
_publ_section_title
;
Structure prediction by ZEFSAII (Michael W. Deem and Ramdas Pophale) SiO2 
 PCOD9018841
Probable space group: P -1
;
_chemical_formula_sum "Si O2"
_cell_formula_units_Z 14
_cell_length_a 9.211559
_cell_length_b 21.036581
_cell_length_c 27.383366
_cell_angle_alpha 17.656272
_cell_angle_beta 152.624254
_cell_angle_gamma 146.573156
_cell_volume 737.501677
_symmetry_space_group_name_H-M "P -1"
_symmetry_group_IT_number 2
_symmetry_cell_setting 'triclinic'
loop_
_space_group_symop_operation_xyz
x,y,z
-x,-y,-z
loop_
_atom_site_type_symbol
_atom_site_label
_atom_site_fract_x
_atom_site_fract_y
_atom_site_fract_z
Si Si1 0.368576 0.682928 0.790661
Si Si2 0.743718 0.175985 0.939047
Si Si3 0.367214 0.382123 0.393033
Si Si4 0.781943 0.709441 0.797252
Si Si5 0.326367 0.479519 0.412018
Si Si6 0.296895 0.963381 0.318902
Si Si7 0.138602 0.858307 0.450933
O O1 0.579823 0.664790 0.818104
O O2 0.439897 0.897086 0.682312
O O3 0.000513 0.668350 0.679920
O O4 0.500000 0.500000 0.000000
O O5 0.630281 0.371081 0.797448
O O6 0.759108 0.292696 0.805673
O O7 0.086183 0.090554 0.122587
O O8 0.500000 0.000000 0.000000
O O9 0.499539 0.360661 0.503929
O O10 0.552323 0.242805 0.510873
O O11 0.512950 0.786879 0.621006
O O12 0.941981 0.925461 0.700814
O O13 0.000000 0.500000 0.000000
O O14 0.500000 0.500000 0.500000
O O15 0.041155 0.337262 0.442104
O O16 0.079033 0.910037 0.338587
#
# Coordination Sequence:
#
# PCOD9018841 Si02
#       7
#     2   2   2   2   2   2   2
#     4  11  20  39  62  94 129 159 205 256 307 372
#     4  10  22  42  64  89 127 160 214 259 304 372
#     4  10  23  40  65  92 125 162 213 253 317 371
#     4  10  22  38  62  90 129 169 200 251 313 376
#     4  10  21  44  65  84 126 164 202 269 306 354
#     4  11  23  38  68  92 127 168 203 256 320 378
#     4  10  22  40  58  95 127 157 209 258 307 364
#
# _framework density 18.983008999999999
#
# number of rings (size 3 to 8) (size 9 to 14) (size 15 to 20)
#    0.857    0.857    2.857    1.286    2.000    1.714 
#    0.000    0.714    0.000    0.000    0.000    0.000 
#    0.000    0.000    0.000    0.000    0.000    0.000 
#
# Total GULP energy -77969.907745 kJ/mol
# GULP energy per Si atom -5569.279125 kJ/mol
# Density = 1.893980 g / cm^3
# Si number density = 18.983009 Si / 1000 Ang^3
#
#
#
# Elastic Constant Matrix: (Units=GPa)
#
#
# Indices 1 2 3 4 5 6 
#
# 1 31.5587 46.7613 22.7842 -6.4750 -4.3361 11.6773
# 2 46.7613 131.5074 55.5670 -24.1011 1.8023 -1.0628
# 3 22.7842 55.5670 104.9413 -17.4340 4.3072 -0.8257
# 4 -6.4750 -24.1011 -17.4340 30.9521 -12.6614 -13.8101
# 5 -4.3361 1.8023 4.3072 -12.6614 40.3469 -18.8478
# 6 11.6773 -1.0628 -0.8257 -13.8101 -18.8478 13.8198
#
#
#
# Elastic Compliance Matrix: (Units=1/GPa)
#
#
# Indices 1 2 3 4 5 6 
#
# 1 0.043639 -0.009969 -0.000101 0.030811 0.031998 0.036784
# 2 -0.009969 0.011501 -0.005240 -0.010300 -0.013403 -0.019577
# 3 -0.000101 -0.005240 0.012369 -0.000324 -0.003177 -0.004235
# 4 0.030811 -0.010300 -0.000324 0.003621 -0.016281 -0.045432
# 5 0.031998 -0.013403 -0.003177 -0.016281 0.008961 -0.032307
# 6 0.036784 -0.019577 -0.004235 -0.045432 -0.032307 -0.049940
#
#
# Mechanical properties :
#
#
# Convention : Reuss Voigt Hill
#
# Bulk Modulus (GPa) = 27.10916 57.58139 42.34527
# Shear Modulus (GPa) = 68.42984 26.55008 47.48996
#
# Velocity S-wave (km/s) = 6.01051 3.74387 5.00713
# Velocity P-wave (km/s) = 7.90443 7.00627 7.46886
#
# Compressibility (1/GPa) = 0.03688790
#
# Stress axis : x y z
#
# Youngs Moduli (GPa) = 22.91553 86.94881 80.84523
#
# Poissons Ratio (x) = 0.86677 0.00819
# Poissons Ratio (y) = 0.22844 0.42367
# Poissons Ratio (z) = 0.00232 0.45565
#
# Static dielectric constant tensor:
#      x y z
#    x 1.662950 0.010040 -0.044090 
#    y 0.010040 1.659370 0.016320 
#    z -0.044090 0.016320 1.654910 
# 
# From -- ./inp_files/524487.got.cif
#   From: 2010.05.17/outbox.cif.g08.bks.cpg/sg2_263_cif.got.tgz:524487.got - 2010.06.03 11:33:40.
