data_PCOD9018442
_publ_section_title
;
Structure prediction by ZEFSAII (Michael W. Deem and Ramdas Pophale) SiO2 
 PCOD9018442
Probable space group: P -1
;
_chemical_formula_sum "Si O2"
_cell_formula_units_Z 15
_cell_length_a 9.014711
_cell_length_b 9.782660
_cell_length_c 13.600183
_cell_angle_alpha 123.805600
_cell_angle_beta 79.622905
_cell_angle_gamma 135.680760
_cell_volume 645.349065
_symmetry_space_group_name_H-M "P -1"
_symmetry_group_IT_number 2
_symmetry_cell_setting 'triclinic'
loop_
_space_group_symop_operation_xyz
x,y,z
-x,-y,-z
loop_
_atom_site_type_symbol
_atom_site_label
_atom_site_fract_x
_atom_site_fract_y
_atom_site_fract_z
Si Si1 0.457797 0.585981 0.839205
Si Si2 0.238369 0.701489 0.495911
Si Si3 0.274622 0.829986 0.324484
Si Si4 0.166466 0.148823 0.945741
Si Si5 0.198545 0.298057 0.308514
Si Si6 0.500000 0.000000 0.000000
Si Si7 0.977774 0.043263 0.631275
Si Si8 0.012573 0.377953 0.037458
O O1 0.630660 0.670636 0.765359
O O2 0.233456 0.289398 0.737519
O O3 0.587017 0.670750 0.962371
O O4 0.392378 0.723241 0.890813
O O5 0.224038 0.787090 0.429775
O O6 0.293379 0.559057 0.403399
O O7 0.000000 0.500000 0.500000
O O8 0.451506 0.943573 0.629475
O O9 0.161274 0.900281 0.323368
O O10 0.165797 0.583355 0.186748
O O11 0.120327 0.290739 0.962626
O O12 0.056954 0.922592 0.797008
O O13 0.000000 0.000000 0.000000
O O14 0.160259 0.198128 0.381914
O O15 0.756614 0.136128 0.008105
O O16 0.000000 0.000000 0.500000
O O17 0.000000 0.500000 0.000000
#
# Coordination Sequence:
#
# PCOD9018442 Si02
#       8
#     2   2   2   2   2   1   2   2
#     4  11  25  44  72 104 142 183 232 286 353 418
#     4  11  26  46  71 100 133 187 239 282 351 413
#     4  11  25  45  68  99 141 177 228 299 336 409
#     4  10  21  43  70  97 138 178 221 290 349 404
#     4  11  24  45  70  99 137 181 232 288 349 406
#     4  12  24  42  72 106 140 186 234 276 358 426
#     4  12  26  44  68 100 139 183 236 285 342 414
#     4  12  25  45  69 105 143 180 231 288 351 416
#
# _framework density 23.243236
#
# number of rings (size 3 to 8) (size 9 to 14) (size 15 to 20)
#    0.000    0.800    4.000    4.000    0.000    8.000 
#    0.000    0.000    0.000    0.000    0.000    0.000 
#    0.000    0.000    0.000    0.000    0.000    0.000 
#
# Total GULP energy -83747.903716 kJ/mol
# GULP energy per Si atom -5583.193581 kJ/mol
# Density = 2.319033 g / cm^3
# Si number density = 23.243236 Si / 1000 Ang^3
#
#
#
# Elastic Constant Matrix: (Units=GPa)
#
#
# Indices 1 2 3 4 5 6 
#
# 1 59.2714 25.6780 -2.6311 -0.2042 0.6365 13.0187
# 2 25.6780 89.1622 16.7573 -1.2172 20.6298 11.8485
# 3 -2.6311 16.7573 67.8132 17.5577 12.4970 16.9703
# 4 -0.2042 -1.2172 17.5577 35.7693 5.9706 2.8385
# 5 0.6365 20.6298 12.4970 5.9706 41.0279 11.8411
# 6 13.0187 11.8485 16.9703 2.8385 11.8411 49.2357
#
#
#
# Elastic Compliance Matrix: (Units=1/GPa)
#
#
# Indices 1 2 3 4 5 6 
#
# 1 0.021420 -0.007077 0.003950 -0.002257 0.004137 -0.006187
# 2 -0.007077 0.015611 -0.003965 0.003582 -0.007354 0.001044
# 3 0.003950 -0.003965 0.020025 -0.009278 -0.001024 -0.006211
# 4 -0.002257 0.003582 -0.009278 0.033185 -0.004367 0.002070
# 5 0.004137 -0.007354 -0.001024 -0.004367 0.030717 -0.006107
# 6 -0.006187 0.001044 -0.006211 0.002070 -0.006107 0.025185
#
#
# Mechanical properties :
#
#
# Convention : Reuss Voigt Hill
#
# Bulk Modulus (GPa) = 23.32604 32.87280 28.09942
# Shear Modulus (GPa) = 28.63410 36.96943 32.80176
#
# Velocity S-wave (km/s) = 3.51370 3.99249 3.76072
# Velocity P-wave (km/s) = 5.14964 5.95206 5.56533
#
# Compressibility (1/GPa) = 0.04287055
#
# Stress axis : x y z
#
# Youngs Moduli (GPa) = 46.68632 64.05868 49.93823
#
# Poissons Ratio (x) = 0.45334 -0.19726
# Poissons Ratio (y) = 0.33039 0.19803
# Poissons Ratio (z) = -0.18442 0.25402
#
# Static dielectric constant tensor:
#      x y z
#    x 1.723230 -0.021810 -0.026230 
#    y -0.021810 1.867960 -0.026330 
#    z -0.026230 -0.026330 1.835840 
# 
# From -- ./inp_files/493665.got.cif
#   From: 2010.05.17/outbox.cif.g08.bks.cpg/sg2_247_cif.got.tgz:493665.got - 2010.06.03 11:33:40.
