data_PCOD9018133
_publ_section_title
;
Structure prediction by ZEFSAII (Michael W. Deem and Ramdas Pophale) SiO2 
 PCOD9018133
Probable space group: P -1
;
_chemical_formula_sum "Si O2"
_cell_formula_units_Z 16
_cell_length_a 5.766866
_cell_length_b 22.961021
_cell_length_c 9.870418
_cell_angle_alpha 135.751293
_cell_angle_beta 122.033024
_cell_angle_gamma 54.186591
_cell_volume 725.106621
_symmetry_space_group_name_H-M "P -1"
_symmetry_group_IT_number 2
_symmetry_cell_setting 'triclinic'
loop_
_space_group_symop_operation_xyz
x,y,z
-x,-y,-z
loop_
_atom_site_type_symbol
_atom_site_label
_atom_site_fract_x
_atom_site_fract_y
_atom_site_fract_z
Si Si1 0.256385 0.443006 0.087288
Si Si2 0.920799 0.806440 0.602727
Si Si3 0.585368 0.253224 0.750318
Si Si4 0.016861 0.970872 0.802115
Si Si5 0.446859 0.698510 0.470764
Si Si6 0.013203 0.920645 0.268101
Si Si7 0.640584 0.864405 0.867257
Si Si8 0.832506 0.501697 0.311108
O O1 0.546737 0.472373 0.204748
O O2 0.079313 0.453822 0.193788
O O3 0.396209 0.338995 0.918534
O O4 0.000000 0.500000 0.000000
O O5 0.626494 0.792134 0.455907
O O6 0.911480 0.840666 0.809237
O O7 0.938005 0.881914 0.631020
O O8 0.173834 0.712310 0.506265
O O9 0.690968 0.284460 0.695004
O O10 0.809341 0.175583 0.776810
O O11 0.363929 0.933758 0.821727
O O12 0.862520 0.044843 0.768817
O O13 0.000000 0.000000 0.000000
O O14 0.566685 0.773585 0.695985
O O15 0.690600 0.603566 0.388359
O O16 0.000000 0.000000 0.500000
O O17 0.719983 0.905349 0.096012
O O18 0.000000 0.500000 0.500000
#
# Coordination Sequence:
#
# PCOD9018133 Si02
#       8
#     2   2   2   2   2   2   2   2
#     4  12  26  51  80 113 158 200 249 315 387 455
#     4  10  21  43  68  95 135 186 236 283 368 439
#     4  11  26  43  70 104 144 185 237 306 369 434
#     4  11  23  43  67  92 129 188 237 285 362 431
#     4  10  23  45  72 100 138 191 234 291 371 451
#     4  12  25  43  67 101 140 179 238 302 354 424
#     4  10  23  42  68  93 140 185 232 288 359 439
#     4  12  28  48  80 114 154 199 255 309 379 462
#
# _framework density 22.065721
#
# number of rings (size 3 to 8) (size 9 to 14) (size 15 to 20)
#    0.000    1.000    2.500    4.125    7.000    1.500 
#    2.250    0.000    0.000    0.000    0.000    0.000 
#    0.000    0.000    0.000    0.000    0.000    0.000 
#
# Total GULP energy -89127.886682 kJ/mol
# GULP energy per Si atom -5570.492918 kJ/mol
# Density = 2.201550 g / cm^3
# Si number density = 22.065721 Si / 1000 Ang^3
#
#
#
# Elastic Constant Matrix: (Units=GPa)
#
#
# Indices 1 2 3 4 5 6 
#
# 1 88.7090 9.9933 49.0158 -0.9209 -17.5278 -12.5520
# 2 9.9933 125.8909 54.1316 7.9167 -20.0029 -6.3674
# 3 49.0158 54.1316 121.0648 -6.9151 -17.5816 -3.5190
# 4 -0.9209 7.9167 -6.9151 29.3727 -0.9533 -1.6625
# 5 -17.5278 -20.0029 -17.5816 -0.9533 46.6412 1.9698
# 6 -12.5520 -6.3674 -3.5190 -1.6625 1.9698 22.0860
#
#
#
# Elastic Compliance Matrix: (Units=1/GPa)
#
#
# Indices 1 2 3 4 5 6 
#
# 1 0.017251 0.003148 -0.007547 -0.001427 0.004579 0.008993
# 2 0.003148 0.011223 -0.005906 -0.004006 0.003541 0.003466
# 3 -0.007547 -0.005906 0.014143 0.004498 0.000198 -0.003418
# 4 -0.001427 -0.004006 0.004498 0.036226 0.000120 0.001467
# 5 0.004579 0.003541 0.000198 0.000120 0.024695 0.001461
# 6 0.008993 0.003466 -0.003418 0.001467 0.001461 0.050824
#
#
# Mechanical properties :
#
#
# Convention : Reuss Voigt Hill
#
# Bulk Modulus (GPa) = 45.44266 62.43845 53.94055
# Shear Modulus (GPa) = 27.42616 34.45491 30.94054
#
# Velocity S-wave (km/s) = 3.52935 3.95583 3.74866
# Velocity P-wave (km/s) = 6.10306 7.01589 6.57534
#
# Compressibility (1/GPa) = 0.02200576
#
# Stress axis : x y z
#
# Youngs Moduli (GPa) = 57.96874 89.10189 70.70704
#
# Poissons Ratio (x) = -0.28048 0.53362
# Poissons Ratio (y) = -0.18248 0.41762
# Poissons Ratio (z) = 0.43749 0.52627
#
# Static dielectric constant tensor:
#      x y z
#    x 1.989970 0.020360 -0.027030 
#    y 0.020360 1.891370 0.035300 
#    z -0.027030 0.035300 1.867570 
# 
# From -- ./inp_files/142693.got.cif
#   From: 2010.05.17/outbox.cif.g08.bks.cpg/sg2_72_cif.got.tgz:142693.got - 2010.06.03 11:33:40.
