data_PCOD9018567
_publ_section_title
;
Structure prediction by ZEFSAII (Michael W. Deem and Ramdas Pophale) SiO2 
 PCOD9018567
Probable space group: P -1
;
_chemical_formula_sum "Si O2"
_cell_formula_units_Z 12
_cell_length_a 9.057504
_cell_length_b 9.198577
_cell_length_c 12.222896
_cell_angle_alpha 76.176273
_cell_angle_beta 50.591115
_cell_angle_gamma 47.215182
_cell_volume 543.244021
_symmetry_space_group_name_H-M "P -1"
_symmetry_group_IT_number 2
_symmetry_cell_setting 'triclinic'
loop_
_space_group_symop_operation_xyz
x,y,z
-x,-y,-z
loop_
_atom_site_type_symbol
_atom_site_label
_atom_site_fract_x
_atom_site_fract_y
_atom_site_fract_z
Si Si1 0.166563 0.953370 0.321887
Si Si2 0.321031 0.549750 0.286017
Si Si3 0.775456 0.424948 0.419549
Si Si4 0.735676 0.738103 0.043575
Si Si5 0.104984 0.510647 0.186665
Si Si6 0.053261 0.798908 0.987170
O O1 0.197798 0.780819 0.273235
O O2 0.470779 0.841236 0.216355
O O3 0.000000 0.000000 0.500000
O O4 0.002088 0.184828 0.314057
O O5 0.222084 0.565494 0.451466
O O6 0.234888 0.480507 0.246599
O O7 0.643589 0.385518 0.167052
O O8 0.500000 0.500000 0.500000
O O9 0.843841 0.550461 0.318848
O O10 0.830628 0.853253 0.000961
O O11 0.701253 0.696948 0.944057
O O12 0.000000 0.500000 0.000000
O O13 0.044417 0.697408 0.117044
O O14 0.000000 0.000000 0.000000
#
# Coordination Sequence:
#
# PCOD9018567 Si02
#       6
#     2   2   2   2   2   2
#     4  10  23  42  73  98 142 184 233 289 354 413
#     4  11  23  47  65 106 145 182 233 297 348 425
#     4  11  26  45  71 102 142 190 238 290 356 419
#     4  10  21  43  72 100 136 184 236 288 350 421
#     4  11  24  43  72  99 143 184 234 288 356 412
#     4  11  25  43  73 101 143 180 240 290 350 419
#
# _framework density 22.08952
#
# number of rings (size 3 to 8) (size 9 to 14) (size 15 to 20)
#    0.000    1.333    3.333    2.000    9.333    3.333 
#    0.000    1.667    0.000    0.000    0.000    0.000 
#    0.000    0.000    0.000    0.000    0.000    0.000 
#
# Total GULP energy -67036.414798 kJ/mol
# GULP energy per Si atom -5586.367900 kJ/mol
# Density = 2.203924 g / cm^3
# Si number density = 22.089520 Si / 1000 Ang^3
#
#
#
# Elastic Constant Matrix: (Units=GPa)
#
#
# Indices 1 2 3 4 5 6 
#
# 1 147.7130 35.6506 64.1924 8.5520 0.4456 24.4410
# 2 35.6506 107.8291 48.2911 3.4556 -10.0990 23.4345
# 3 64.1924 48.2911 137.8057 -2.9102 -19.0669 8.9404
# 4 8.5520 3.4556 -2.9102 43.3643 -1.5197 -5.1463
# 5 0.4456 -10.0990 -19.0669 -1.5197 47.8313 0.4233
# 6 24.4410 23.4345 8.9404 -5.1463 0.4233 41.8865
#
#
#
# Elastic Compliance Matrix: (Units=1/GPa)
#
#
# Indices 1 2 3 4 5 6 
#
# 1 0.009762 -0.000244 -0.004475 -0.002861 -0.001973 -0.004936
# 2 -0.000244 0.012591 -0.003768 -0.001921 0.001154 -0.006345
# 3 -0.004475 -0.003768 0.011055 0.002365 0.003705 0.002613
# 4 -0.002861 -0.001921 0.002365 0.024605 0.001299 0.005249
# 5 -0.001973 0.001154 0.003705 0.001299 0.022690 -0.000354
# 6 -0.004936 -0.006345 0.002613 0.005249 -0.000354 0.030395
#
#
# Mechanical properties :
#
#
# Convention : Reuss Voigt Hill
#
# Bulk Modulus (GPa) = 60.85046 76.62399 68.73722
# Shear Modulus (GPa) = 37.43969 42.96402 40.20185
#
# Velocity S-wave (km/s) = 4.12139 4.41499 4.27072
# Velocity P-wave (km/s) = 7.08906 7.79441 7.45009
#
# Compressibility (1/GPa) = 0.01643373
#
# Stress axis : x y z
#
# Youngs Moduli (GPa) = 102.44031 79.42451 90.46060
#
# Poissons Ratio (x) = 0.01935 0.40482
# Poissons Ratio (y) = 0.02496 0.34084
# Poissons Ratio (z) = 0.45843 0.29926
#
# Static dielectric constant tensor:
#      x y z
#    x 1.826900 -0.009910 0.022640 
#    y -0.009910 1.860470 -0.046560 
#    z 0.022640 -0.046560 1.837260 
# 
# From -- ./inp_files/145158.got.cif
#   From: 2010.05.17/outbox.cif.g08.bks.cpg/sg2_73_cif.got.tgz:145158.got - 2010.06.03 11:33:40.
