data_PCOD9018316
_publ_section_title
;
Structure prediction by ZEFSAII (Michael W. Deem and Ramdas Pophale) SiO2 
 PCOD9018316
Probable space group: P -1
;
_chemical_formula_sum "Si O2"
_cell_formula_units_Z 16
_cell_length_a 11.694794
_cell_length_b 12.806514
_cell_length_c 7.550612
_cell_angle_alpha 115.351142
_cell_angle_beta 41.040146
_cell_angle_gamma 113.448403
_cell_volume 665.621877
_symmetry_space_group_name_H-M "P -1"
_symmetry_group_IT_number 2
_symmetry_cell_setting 'triclinic'
loop_
_space_group_symop_operation_xyz
x,y,z
-x,-y,-z
loop_
_atom_site_type_symbol
_atom_site_label
_atom_site_fract_x
_atom_site_fract_y
_atom_site_fract_z
Si Si1 0.259448 0.469190 0.302511
Si Si2 0.589865 0.267285 0.086156
Si Si3 0.443874 0.262416 0.875037
Si Si4 0.043300 0.790923 0.984866
Si Si5 0.807272 0.424952 0.185370
Si Si6 0.098250 0.681502 0.464171
Si Si7 0.678657 0.073751 0.406874
Si Si8 0.314930 0.145834 0.581930
O O1 0.288165 0.520081 0.501734
O O2 0.205062 0.575083 0.324236
O O3 0.080207 0.378193 0.459287
O O4 0.402366 0.394368 0.000230
O O5 0.449155 0.254823 0.078994
O O6 0.664874 0.394229 0.173758
O O7 0.492417 0.190395 0.301128
O O8 0.773197 0.240270 0.762867
O O9 0.620700 0.202749 0.588805
O O10 0.326979 0.195246 0.806758
O O11 0.137698 0.700479 0.919009
O O12 0.035677 0.743419 0.756554
O O13 0.167581 0.912608 0.906312
O O14 0.848544 0.804005 0.280315
O O15 0.000000 0.500000 0.000000
O O16 0.500000 0.000000 0.500000
O O17 0.724460 0.993981 0.457908
#
# Coordination Sequence:
#
# PCOD9018316 Si02
#       8
#     2   2   2   2   2   2   2   2
#     4  10  22  42  67  96 139 190 223 274 341 415
#     4  12  26  43  68 107 140 181 228 290 336 411
#     4  11  24  45  66 100 141 176 226 283 345 404
#     4  11  22  47  72  98 138 188 224 282 348 410
#     4  11  24  41  66 101 143 180 229 280 336 411
#     4  10  21  43  69  97 138 185 228 272 343 408
#     4  10  22  45  73 100 132 181 229 289 346 406
#     4  11  26  45  73 101 136 179 238 286 345 404
#
# _framework density 24.037669999999999
#
# number of rings (size 3 to 8) (size 9 to 14) (size 15 to 20)
#    0.000    1.250    3.750    1.875    3.500    1.500 
#    0.000    0.000    0.000    3.750    0.000    0.000 
#    0.000    0.000    0.000    0.000    0.000    0.000 
#
# Total GULP energy -89078.095149 kJ/mol
# GULP energy per Si atom -5567.380947 kJ/mol
# Density = 2.398296 g / cm^3
# Si number density = 24.037670 Si / 1000 Ang^3
#
#
#
# Elastic Constant Matrix: (Units=GPa)
#
#
# Indices 1 2 3 4 5 6 
#
# 1 79.8171 11.0803 26.2660 -1.6501 11.1425 11.6517
# 2 11.0803 105.9934 45.1943 -17.3768 -10.7787 -3.4758
# 3 26.2660 45.1943 115.1976 -13.1713 -11.2520 -10.7297
# 4 -1.6501 -17.3768 -13.1713 46.3069 -4.7323 -5.0696
# 5 11.1425 -10.7787 -11.2520 -4.7323 31.9143 7.2936
# 6 11.6517 -3.4758 -10.7297 -5.0696 7.2936 22.6742
#
#
#
# Elastic Compliance Matrix: (Units=1/GPa)
#
#
# Indices 1 2 3 4 5 6 
#
# 1 0.016641 -0.000920 -0.005296 -0.002971 -0.006171 -0.009878
# 2 -0.000920 0.012130 -0.003730 0.003856 0.003614 0.000267
# 3 -0.005296 -0.003730 0.012822 0.003296 0.003834 0.007721
# 4 -0.002971 0.003856 0.003296 0.025265 0.005522 0.007550
# 5 -0.006171 0.003614 0.003834 0.005522 0.038135 -0.005493
# 6 -0.009878 0.000267 0.007721 0.007550 -0.005493 0.056328
#
#
# Mechanical properties :
#
#
# Convention : Reuss Voigt Hill
#
# Bulk Modulus (GPa) = 46.08118 51.78769 48.93443
# Shear Modulus (GPa) = 26.53280 34.74359 30.63819
#
# Velocity S-wave (km/s) = 3.32595 3.80594 3.57401
# Velocity P-wave (km/s) = 5.82763 6.39568 6.11825
#
# Compressibility (1/GPa) = 0.02170083
#
# Stress axis : x y z
#
# Youngs Moduli (GPa) = 60.09228 82.44225 77.99058
#
# Poissons Ratio (x) = 0.07585 0.41302
# Poissons Ratio (y) = 0.05529 0.29092
# Poissons Ratio (z) = 0.31824 0.30753
#
# Static dielectric constant tensor:
#      x y z
#    x 2.060770 0.029760 -0.013380 
#    y 0.029760 2.095050 0.029930 
#    z -0.013380 0.029930 1.949620 
# 
# From -- ./inp_files/313769.got.cif
#   From: 2010.05.17/outbox.cif.g08.bks.cpg/sg2_157_cif.got.tgz:313769.got - 2010.06.03 11:33:40.
