data_PCOD9018426
_publ_section_title
;
Structure prediction by ZEFSAII (Michael W. Deem and Ramdas Pophale) SiO2 
 PCOD9018426
Probable space group: P -1
;
_chemical_formula_sum "Si O2"
_cell_formula_units_Z 16
_cell_length_a 8.002647
_cell_length_b 11.665896
_cell_length_c 14.359590
_cell_angle_alpha 58.557572
_cell_angle_beta 115.989462
_cell_angle_gamma 144.471723
_cell_volume 664.378709
_symmetry_space_group_name_H-M "P -1"
_symmetry_group_IT_number 2
_symmetry_cell_setting 'triclinic'
loop_
_space_group_symop_operation_xyz
x,y,z
-x,-y,-z
loop_
_atom_site_type_symbol
_atom_site_label
_atom_site_fract_x
_atom_site_fract_y
_atom_site_fract_z
Si Si1 0.568997 0.375692 0.787961
Si Si2 0.337512 0.511524 0.715698
Si Si3 0.916741 0.608531 0.936542
Si Si4 0.826792 0.041450 0.028357
Si Si5 0.220005 0.706959 0.529846
Si Si6 0.302823 0.811681 0.222225
Si Si7 0.405246 0.904065 0.671241
Si Si8 0.459526 0.308577 0.114729
O O1 0.379265 0.402650 0.708932
O O2 0.836356 0.585866 0.819022
O O3 0.659289 0.310609 0.766678
O O4 0.395111 0.197222 0.900481
O O5 0.439204 0.705872 0.610365
O O6 0.498746 0.586051 0.823115
O O7 0.005526 0.351894 0.731028
O O8 0.154454 0.844384 0.928719
O O9 0.693227 0.484196 0.022357
O O10 0.000000 0.500000 0.000000
O O11 0.143975 0.149738 0.060789
O O12 0.738041 0.085924 0.902313
O O13 0.156553 0.734878 0.605859
O O14 0.000000 0.500000 0.500000
O O15 0.348257 0.898789 0.419931
O O16 0.566862 0.975688 0.288497
O O17 0.480034 0.807469 0.783810
#
# Coordination Sequence:
#
# PCOD9018426 Si02
#       8
#     2   2   2   2   2   2   2   2
#     4  12  26  40  61  97 137 174 219 264 313 384
#     4  11  22  42  69  94 129 173 216 274 327 379
#     4  12  23  40  59  91 136 180 218 264 306 375
#     4  12  24  39  60  93 138 178 215 259 307 374
#     4  10  21  43  70  96 122 159 218 276 333 384
#     4  12  23  42  63  97 134 176 214 258 324 382
#     4  10  23  39  67  97 124 165 215 272 326 389
#     4  11  22  41  65  94 131 177 225 257 317 386
#
# _framework density 24.082650000000001
#
# number of rings (size 3 to 8) (size 9 to 14) (size 15 to 20)
#    0.000    0.750    5.000    3.000    1.750    1.500 
#    0.000    0.625    0.000    0.750    0.000    0.000 
#    0.000    0.000    0.000    0.000    0.000    0.000 
#
# Total GULP energy -89269.143643 kJ/mol
# GULP energy per Si atom -5579.321478 kJ/mol
# Density = 2.402784 g / cm^3
# Si number density = 24.082650 Si / 1000 Ang^3
#
#
#
# Elastic Constant Matrix: (Units=GPa)
#
#
# Indices 1 2 3 4 5 6 
#
# 1 88.9409 1.4329 13.9563 6.5035 8.0937 -15.2191
# 2 1.4329 108.6319 35.5683 18.4227 -14.6123 -13.7644
# 3 13.9563 35.5683 112.1564 2.9664 -5.3969 -7.6728
# 4 6.5035 18.4227 2.9664 63.5546 -20.8536 -8.1905
# 5 8.0937 -14.6123 -5.3969 -20.8536 19.5903 -0.4013
# 6 -15.2191 -13.7644 -7.6728 -8.1905 -0.4013 49.4710
#
#
#
# Elastic Compliance Matrix: (Units=1/GPa)
#
#
# Indices 1 2 3 4 5 6 
#
# 1 0.013335 0.000157 -0.001891 -0.004379 -0.010512 0.003043
# 2 0.000157 0.011655 -0.003162 -0.000500 0.007282 0.002777
# 3 -0.001891 -0.003162 0.010287 0.001693 0.003068 0.000439
# 4 -0.004379 -0.000500 0.001693 0.026645 0.030337 0.003434
# 5 -0.010512 0.007282 0.003068 0.030337 0.094062 0.005054
# 6 0.003043 0.002777 0.000439 0.003434 0.005054 0.022600
#
#
# Mechanical properties :
#
#
# Convention : Reuss Voigt Hill
#
# Bulk Modulus (GPa) = 39.23809 45.73826 42.48817
# Shear Modulus (GPa) = 25.39736 43.77461 34.58598
#
# Velocity S-wave (km/s) = 3.25097 4.26805 3.79375
# Velocity P-wave (km/s) = 5.51545 6.58193 6.07215
#
# Compressibility (1/GPa) = 0.02548544
#
# Stress axis : x y z
#
# Youngs Moduli (GPa) = 74.99029 85.80156 97.20869
#
# Poissons Ratio (x) = -0.01351 0.18384
# Poissons Ratio (y) = -0.01181 0.30738
# Poissons Ratio (z) = 0.14182 0.27131
#
# Static dielectric constant tensor:
#      x y z
#    x 2.042930 0.013770 0.009860 
#    y 0.013770 2.036110 0.063260 
#    z 0.009860 0.063260 1.954390 
# 
# From -- ./inp_files/500207.got.cif
#   From: 2010.05.17/outbox.cif.g08.bks.cpg/sg2_251_cif.got.tgz:500207.got - 2010.06.03 11:33:40.
