data_PCOD9018449
_publ_section_title
;
Structure prediction by ZEFSAII (Michael W. Deem and Ramdas Pophale) SiO2 
 PCOD9018449
Probable space group: P -1
;
_chemical_formula_sum "Si O2"
_cell_formula_units_Z 13
_cell_length_a 9.029464
_cell_length_b 9.898053
_cell_length_c 11.184913
_cell_angle_alpha 56.101784
_cell_angle_beta 137.230327
_cell_angle_gamma 122.548041
_cell_volume 548.572614
_symmetry_space_group_name_H-M "P -1"
_symmetry_group_IT_number 2
_symmetry_cell_setting 'triclinic'
loop_
_space_group_symop_operation_xyz
x,y,z
-x,-y,-z
loop_
_atom_site_type_symbol
_atom_site_label
_atom_site_fract_x
_atom_site_fract_y
_atom_site_fract_z
Si Si1 0.761743 0.808030 0.206429
Si Si2 0.211130 0.157524 0.545765
Si Si3 0.821493 0.111427 0.735977
Si Si4 0.619181 0.770704 0.643255
Si Si5 0.628531 0.464891 0.971969
Si Si6 0.000000 0.500000 0.000000
Si Si7 0.284192 0.857909 0.078449
O O1 0.820267 0.743077 0.402110
O O2 0.521256 0.712728 0.067686
O O3 0.949328 0.788811 0.233665
O O4 0.756980 0.003550 0.107156
O O5 0.245799 0.239182 0.394869
O O6 0.455889 0.120558 0.739624
O O7 0.000000 0.000000 0.500000
O O8 0.624175 0.204577 0.544431
O O9 0.830775 0.098090 0.889520
O O10 0.743616 0.933094 0.711036
O O11 0.601912 0.606927 0.790759
O O12 0.885840 0.468405 0.090047
O O13 0.500000 0.500000 0.000000
O O14 0.831683 0.327302 0.940275
#
# Coordination Sequence:
#
# PCOD9018449 Si02
#       7
#     2   2   2   2   2   1   2
#     4  12  23  43  71 105 135 186 244 284 361 423
#     4  11  23  42  69 102 139 183 232 289 352 421
#     4  10  21  43  70  98 134 187 233 295 355 417
#     4  10  23  44  67 101 143 181 237 290 360 425
#     4  12  27  46  69 106 144 189 238 297 353 424
#     4  12  26  46  70 108 144 184 242 292 360 408
#     4  11  24  44  71 103 139 186 238 293 349 427
#
# _framework density 23.697866000000001
#
# number of rings (size 3 to 8) (size 9 to 14) (size 15 to 20)
#    0.000    0.923    3.077    3.692    0.000    1.231 
#    2.769    0.000    0.000    0.000    0.000    0.000 
#    0.000    0.000    0.000    0.000    0.000    0.000 
#
# Total GULP energy -72375.960407 kJ/mol
# GULP energy per Si atom -5567.381570 kJ/mol
# Density = 2.364393 g / cm^3
# Si number density = 23.697866 Si / 1000 Ang^3
#
#
#
# Elastic Constant Matrix: (Units=GPa)
#
#
# Indices 1 2 3 4 5 6 
#
# 1 211.4793 43.8147 38.3376 7.5106 -33.1626 32.6974
# 2 43.8147 103.3631 24.2034 7.5213 6.7747 22.1008
# 3 38.3376 24.2034 79.4811 -2.4246 -10.4754 9.3640
# 4 7.5106 7.5213 -2.4246 32.1350 8.0002 1.8047
# 5 -33.1626 6.7747 -10.4754 8.0002 54.9052 9.4085
# 6 32.6974 22.1008 9.3640 1.8047 9.4085 41.4040
#
#
#
# Elastic Compliance Matrix: (Units=1/GPa)
#
#
# Indices 1 2 3 4 5 6 
#
# 1 0.007191 -0.001652 -0.001653 -0.002487 0.005550 -0.005576
# 2 -0.001652 0.012153 -0.002762 -0.001930 -0.002056 -0.004007
# 3 -0.001653 -0.002762 0.014674 0.001682 0.002083 -0.001085
# 4 -0.002487 -0.001930 0.001682 0.033701 -0.006295 0.002576
# 5 0.005550 -0.002056 0.002083 -0.006295 0.024692 -0.009093
# 6 -0.005576 -0.004007 -0.001085 0.002576 -0.009093 0.032894
#
#
# Mechanical properties :
#
#
# Convention : Reuss Voigt Hill
#
# Bulk Modulus (GPa) = 45.69408 67.44832 56.57120
# Shear Modulus (GPa) = 34.54595 44.88668 39.71632
#
# Velocity S-wave (km/s) = 3.82221 4.35687 4.09827
# Velocity P-wave (km/s) = 6.22920 7.33712 6.80574
#
# Compressibility (1/GPa) = 0.02188467
#
# Stress axis : x y z
#
# Youngs Moduli (GPa) = 139.05745 82.28090 68.14856
#
# Poissons Ratio (x) = 0.13590 0.11266
# Poissons Ratio (y) = 0.22968 0.18823
# Poissons Ratio (z) = 0.22989 0.22727
#
# Static dielectric constant tensor:
#      x y z
#    x 2.093970 -0.005310 0.082700 
#    y -0.005310 1.863560 0.079540 
#    z 0.082700 0.079540 1.887830 
# 
# From -- ./inp_files/234949.got.cif
#   From: 2010.05.17/outbox.cif.g08.bks.cpg/sg2_118_cif.got.tgz:234949.got - 2010.06.03 11:33:40.
