data_PCOD9018483
_publ_section_title
;
Structure prediction by ZEFSAII (Michael W. Deem and Ramdas Pophale) SiO2 
 PCOD9018483
Probable space group: P -1
;
_chemical_formula_sum "Si O2"
_cell_formula_units_Z 14
_cell_length_a 18.332743
_cell_length_b 13.856032
_cell_length_c 5.093686
_cell_angle_alpha 91.601130
_cell_angle_beta 85.228656
_cell_angle_gamma 152.889453
_cell_volume 584.559964
_symmetry_space_group_name_H-M "P -1"
_symmetry_group_IT_number 2
_symmetry_cell_setting 'triclinic'
loop_
_space_group_symop_operation_xyz
x,y,z
-x,-y,-z
loop_
_atom_site_type_symbol
_atom_site_label
_atom_site_fract_x
_atom_site_fract_y
_atom_site_fract_z
Si Si1 0.566540 0.633958 0.237227
Si Si2 0.869760 0.430769 0.577802
Si Si3 0.889490 0.927589 0.230176
Si Si4 0.676493 0.041616 0.860750
Si Si5 0.016986 0.336191 0.926742
Si Si6 0.142915 0.309778 0.588094
Si Si7 0.488715 0.761062 0.378953
O O1 0.500000 0.500000 0.500000
O O2 0.758711 0.849953 0.174929
O O3 0.519515 0.689540 0.260518
O O4 0.500000 0.500000 0.000000
O O5 0.859942 0.463198 0.293088
O O6 0.000000 0.500000 0.500000
O O7 0.725535 0.203584 0.741456
O O8 0.944873 0.593025 0.779487
O O9 0.791536 0.718860 0.351781
O O10 0.002681 0.113753 0.417347
O O11 0.000000 0.000000 0.000000
O O12 0.573049 0.871214 0.645524
O O13 0.573467 0.927418 0.149031
O O14 0.839066 0.169302 0.889959
O O15 0.058675 0.275086 0.835269
O O16 0.296406 0.546004 0.443519
#
# Coordination Sequence:
#
# PCOD9018483 Si02
#       7
#     2   2   2   2   2   2   2
#     4  12  25  45  68  98 132 180 230 277 338 390
#     4  10  21  43  71 102 132 173 224 287 335 405
#     4  11  26  45  71  93 143 184 235 279 336 405
#     4  11  23  42  69  98 130 175 227 278 336 401
#     4  11  23  42  73 100 134 174 232 277 339 406
#     4  11  27  44  64 104 136 187 225 283 342 403
#     4  12  25  42  66  97 140 176 225 276 337 404
#
# _framework density 23.949639000000001
#
# number of rings (size 3 to 8) (size 9 to 14) (size 15 to 20)
#    0.000    0.857    1.429    6.857    8.000    0.000 
#    0.000    4.286    0.000    0.000    0.000    0.000 
#    0.000    0.000    0.000    0.000    0.000    0.000 
#
# Total GULP energy -78329.058183 kJ/mol
# GULP energy per Si atom -5594.932727 kJ/mol
# Density = 2.389513 g / cm^3
# Si number density = 23.949639 Si / 1000 Ang^3
#
#
#
# Elastic Constant Matrix: (Units=GPa)
#
#
# Indices 1 2 3 4 5 6 
#
# 1 57.3029 7.6316 1.5318 2.5554 -22.7715 8.2382
# 2 7.6316 92.9366 26.9515 -18.6496 -12.4332 7.6746
# 3 1.5318 26.9515 121.9613 5.3974 -15.8599 6.5798
# 4 2.5554 -18.6496 5.3974 59.3661 -15.1948 -4.7352
# 5 -22.7715 -12.4332 -15.8599 -15.1948 41.1351 -6.6193
# 6 8.2382 7.6746 6.5798 -4.7352 -6.6193 30.9202
#
#
#
# Elastic Compliance Matrix: (Units=1/GPa)
#
#
# Indices 1 2 3 4 5 6 
#
# 1 0.023242 0.000203 0.001538 0.002195 0.013804 -0.003279
# 2 0.000203 0.013362 -0.002490 0.005662 0.005142 -0.000873
# 3 0.001538 -0.002490 0.009244 -0.000997 0.003094 -0.001249
# 4 0.002195 0.005662 -0.000997 0.021812 0.011238 0.003968
# 5 0.013804 0.005142 0.003094 0.011238 0.039587 0.004583
# 6 -0.003279 -0.000873 -0.001249 0.003968 0.004583 0.035286
#
#
# Mechanical properties :
#
#
# Convention : Reuss Voigt Hill
#
# Bulk Modulus (GPa) = 22.54773 38.27005 30.40889
# Shear Modulus (GPa) = 31.48334 42.02334 36.75334
#
# Velocity S-wave (km/s) = 3.62963 4.19340 3.92166
# Velocity P-wave (km/s) = 5.19622 6.28174 5.76459
#
# Compressibility (1/GPa) = 0.04435036
#
# Stress axis : x y z
#
# Youngs Moduli (GPa) = 43.02562 74.84178 108.17745
#
# Poissons Ratio (x) = -0.01523 -0.16637
# Poissons Ratio (y) = -0.00875 0.26936
# Poissons Ratio (z) = -0.06617 0.18636
#
# Static dielectric constant tensor:
#      x y z
#    x 1.905790 -0.054240 0.062810 
#    y -0.054240 1.976500 -0.092850 
#    z 0.062810 -0.092850 1.902610 
# 
# From -- ./inp_files/93076.got.cif
#   From: 2010.05.17/outbox.cif.g08.bks.cpg/sg2_47_cif.got.tgz:93076.got - 2010.06.03 11:33:40.
