data_PCOD9018092
_publ_section_title
;
Structure prediction by ZEFSAII (Michael W. Deem and Ramdas Pophale) SiO2 
 PCOD9018092
Probable space group: P -1
;
_chemical_formula_sum "Si O2"
_cell_formula_units_Z 16
_cell_length_a 7.962367
_cell_length_b 8.773681
_cell_length_c 15.791340
_cell_angle_alpha 133.266585
_cell_angle_beta 91.950135
_cell_angle_gamma 63.133123
_cell_volume 648.836797
_symmetry_space_group_name_H-M "P -1"
_symmetry_group_IT_number 2
_symmetry_cell_setting 'triclinic'
loop_
_space_group_symop_operation_xyz
x,y,z
-x,-y,-z
loop_
_atom_site_type_symbol
_atom_site_label
_atom_site_fract_x
_atom_site_fract_y
_atom_site_fract_z
Si Si1 0.343099 0.417340 0.477090
Si Si2 0.772710 0.225463 0.619545
Si Si3 0.889112 0.269662 0.240129
Si Si4 0.009833 0.787276 0.168026
Si Si5 0.598371 0.611869 0.230166
Si Si6 0.345667 0.281933 0.915774
Si Si7 0.260681 0.294061 0.254982
Si Si8 0.714233 0.972927 0.378914
O O1 0.500000 0.500000 0.500000
O O2 0.213991 0.548158 0.608847
O O3 0.216266 0.442405 0.401830
O O4 0.511147 0.110817 0.369382
O O5 0.649535 0.218514 0.693705
O O6 0.730254 0.503704 0.724292
O O7 0.650633 0.185639 0.528944
O O8 0.000000 0.000000 0.500000
O O9 0.723976 0.352313 0.192415
O O10 0.077251 0.277739 0.217780
O O11 0.986868 0.990692 0.178501
O O12 0.837920 0.746234 0.119628
O O13 0.916121 0.902909 0.303967
O O14 0.236312 0.519793 0.070431
O O15 0.627794 0.602701 0.126446
O O16 0.713700 0.735768 0.317973
O O17 0.538321 0.003775 0.846807
#
# Coordination Sequence:
#
# PCOD9018092 Si02
#       8
#     2   2   2   2   2   2   2   2
#     4  12  19  38  64  92 123 166 207 258 313 378
#     4  12  25  39  63  97 134 165 205 261 323 384
#     4  12  24  37  63  94 134 165 202 264 323 381
#     4  10  21  43  68  91 118 168 222 262 308 370
#     4  11  23  40  62  95 131 165 203 260 329 373
#     4  10  23  43  70  90 118 169 225 263 300 378
#     4  12  24  40  60  95 129 171 214 251 313 377
#     4  11  21  38  66  93 125 161 208 261 315 373
#
# _framework density 24.659514999999999
#
# number of rings (size 3 to 8) (size 9 to 14) (size 15 to 20)
#    0.000    0.750    6.250    2.250    1.750    3.000 
#    0.000    1.250    0.000    8.250    0.000    0.000 
#    0.000    0.000    0.000    0.000    0.000    0.000 
#
# Total GULP energy -89229.447082 kJ/mol
# GULP energy per Si atom -5576.840443 kJ/mol
# Density = 2.460339 g / cm^3
# Si number density = 24.659515 Si / 1000 Ang^3
#
#
#
# Elastic Constant Matrix: (Units=GPa)
#
#
# Indices 1 2 3 4 5 6 
#
# 1 103.2496 21.6733 23.7891 1.0274 -29.6202 15.7962
# 2 21.6733 97.0588 40.9290 19.5380 -16.8708 11.9797
# 3 23.7891 40.9290 95.5725 15.9556 -20.0358 6.2697
# 4 1.0274 19.5380 15.9556 29.3893 -16.3416 -7.3279
# 5 -29.6202 -16.8708 -20.0358 -16.3416 21.7106 0.9607
# 6 15.7962 11.9797 6.2697 -7.3279 0.9607 38.8819
#
#
#
# Elastic Compliance Matrix: (Units=1/GPa)
#
#
# Indices 1 2 3 4 5 6 
#
# 1 0.029732 -0.002020 0.002275 0.035029 0.067766 -0.006896
# 2 -0.002020 0.014760 -0.004384 -0.010072 -0.002698 -0.004852
# 3 0.002275 -0.004384 0.014644 0.003170 0.015674 -0.001725
# 4 0.035029 -0.010072 0.003170 0.108177 0.124063 0.005684
# 5 0.067766 -0.002698 0.015674 0.124063 0.244791 -0.011893
# 6 -0.006896 -0.004852 -0.001725 0.005684 -0.011893 0.031658
#
#
# Mechanical properties :
#
#
# Convention : Reuss Voigt Hill
#
# Bulk Modulus (GPa) = 19.65462 52.07374 35.86418
# Shear Modulus (GPa) = 10.66142 31.96232 21.31187
#
# Velocity S-wave (km/s) = 2.08155 3.60411 2.94299
# Velocity P-wave (km/s) = 3.71010 6.20342 5.11113
#
# Compressibility (1/GPa) = 0.05087863
#
# Stress axis : x y z
#
# Youngs Moduli (GPa) = 33.63376 67.75025 68.28583
#
# Poissons Ratio (x) = 0.13684 -0.15535
# Poissons Ratio (y) = 0.06793 0.29938
# Poissons Ratio (z) = -0.07652 0.29703
#
# Static dielectric constant tensor:
#      x y z
#    x 2.048470 -0.096940 0.086900 
#    y -0.096940 2.402580 -0.010940 
#    z 0.086900 -0.010940 2.018410 
# 
# From -- ./inp_files/557581.got.cif
#   From: 2010.05.17/outbox.cif.g08.bks.cpg/sg2_279_cif.got.tgz:557581.got - 2010.06.03 11:33:40.
