data_PCOD9018890
_publ_section_title
;
Structure prediction by ZEFSAII (Michael W. Deem and Ramdas Pophale) SiO2 
 PCOD9018890
Probable space group: P -1
;
_chemical_formula_sum "Si O2"
_cell_formula_units_Z 16
_cell_length_a 17.503754
_cell_length_b 5.366140
_cell_length_c 17.969441
_cell_angle_alpha 131.711441
_cell_angle_beta 150.049149
_cell_angle_gamma 51.029788
_cell_volume 622.802143
_symmetry_space_group_name_H-M "P -1"
_symmetry_group_IT_number 2
_symmetry_cell_setting 'triclinic'
loop_
_space_group_symop_operation_xyz
x,y,z
-x,-y,-z
loop_
_atom_site_type_symbol
_atom_site_label
_atom_site_fract_x
_atom_site_fract_y
_atom_site_fract_z
Si Si1 0.292834 0.535687 0.463682
Si Si2 0.215664 0.189988 0.184920
Si Si3 0.451978 0.239350 0.846088
Si Si4 0.540946 0.850441 0.331663
Si Si5 0.985715 0.125584 0.866012
Si Si6 0.997698 0.591619 0.299551
Si Si7 0.775725 0.885154 0.062409
Si Si8 0.877749 0.588650 0.349289
O O1 0.257773 0.249290 0.318046
O O2 0.383848 0.809273 0.555514
O O3 0.126516 0.733938 0.388276
O O4 0.380892 0.364932 0.576139
O O5 0.365574 0.988047 0.233541
O O6 0.154864 0.578062 0.186811
O O7 0.070140 0.033800 0.997203
O O8 0.279902 0.184863 0.713097
O O9 0.445900 0.349439 0.776033
O O10 0.500000 0.500000 0.000000
O O11 0.593423 0.934394 0.906127
O O12 0.121425 0.218429 0.943968
O O13 0.936130 0.800285 0.721636
O O14 0.835351 0.632461 0.128024
O O15 0.961707 0.722834 0.376344
O O16 0.821910 0.241112 0.202307
O O17 0.000000 0.500000 0.500000
#
# Coordination Sequence:
#
# PCOD9018890 Si02
#       8
#     2   2   2   2   2   2   2   2
#     4  12  27  46  72 107 153 196 239 303 372 453
#     4  11  23  45  73 104 145 191 244 298 372 441
#     4  10  23  48  73 104 144 190 249 308 370 434
#     4  12  27  49  72 107 152 194 245 303 375 441
#     4  10  22  44  69 101 141 186 246 300 365 436
#     4  11  24  42  71  99 142 189 245 303 368 438
#     4  10  21  44  66 100 140 182 242 301 366 434
#     4  10  23  42  70 100 139 184 243 306 371 438
#
# _framework density 25.690341
#
# number of rings (size 3 to 8) (size 9 to 14) (size 15 to 20)
#    0.000    1.250    2.500    2.250    3.500    3.500 
#    6.750    0.000    0.000    0.000    0.000    0.000 
#    0.000    0.000    0.000    0.000    0.000    0.000 
#
# Total GULP energy -89518.763365 kJ/mol
# GULP energy per Si atom -5594.922710 kJ/mol
# Density = 2.563187 g / cm^3
# Si number density = 25.690341 Si / 1000 Ang^3
#
#
#
# Elastic Constant Matrix: (Units=GPa)
#
#
# Indices 1 2 3 4 5 6 
#
# 1 152.9881 26.6380 51.4545 -19.1623 -32.9581 -17.8785
# 2 26.6380 92.8049 38.4087 -13.0622 -7.0377 -9.0734
# 3 51.4545 38.4087 129.2664 -18.0041 -33.4370 -12.2951
# 4 -19.1623 -13.0622 -18.0041 54.6283 -7.0459 -2.7101
# 5 -32.9581 -7.0377 -33.4370 -7.0459 50.5613 -10.3075
# 6 -17.8785 -9.0734 -12.2951 -2.7101 -10.3075 31.8880
#
#
#
# Elastic Compliance Matrix: (Units=1/GPa)
#
#
# Indices 1 2 3 4 5 6 
#
# 1 0.010318 -0.000682 0.000048 0.005108 0.009214 0.009022
# 2 -0.000682 0.012713 -0.003004 0.001932 0.000069 0.002263
# 3 0.000048 -0.003004 0.012787 0.005249 0.010415 0.007916
# 4 0.005108 0.001932 0.005249 0.024529 0.012870 0.011682
# 5 0.009214 0.000069 0.010415 0.012870 0.039154 0.022951
# 6 0.009022 0.002263 0.007916 0.011682 0.022951 0.048526
#
#
# Mechanical properties :
#
#
# Convention : Reuss Voigt Hill
#
# Bulk Modulus (GPa) = 35.03394 67.56240 51.29817
# Shear Modulus (GPa) = 30.33719 44.65274 37.49497
#
# Velocity S-wave (km/s) = 3.44012 4.17359 3.82448
# Velocity P-wave (km/s) = 5.42640 7.04138 6.28597
#
# Compressibility (1/GPa) = 0.02854375
#
# Stress axis : x y z
#
# Youngs Moduli (GPa) = 96.91807 78.66249 78.20380
#
# Poissons Ratio (x) = 0.05364 -0.00379
# Poissons Ratio (y) = 0.06609 0.23489
# Poissons Ratio (z) = -0.00470 0.23627
#
# Static dielectric constant tensor:
#      x y z
#    x 2.037490 0.045720 -0.017530 
#    y 0.045720 2.055910 0.055070 
#    z -0.017530 0.055070 2.043060 
# 
# From -- ./inp_files/574946.got.cif
#   From: 2010.05.17/outbox.cif.g08.bks.cpg/sg2_288_cif.got.tgz:574946.got - 2010.06.03 11:33:40.
