data_PCOD9018522
_publ_section_title
;
Structure prediction by ZEFSAII (Michael W. Deem and Ramdas Pophale) SiO2 
 PCOD9018522
Probable space group: P -1
;
_chemical_formula_sum "Si O2"
_cell_formula_units_Z 14
_cell_length_a 14.191797
_cell_length_b 12.095661
_cell_length_c 21.447236
_cell_angle_alpha 154.592700
_cell_angle_beta 156.018948
_cell_angle_gamma 26.529533
_cell_volume 588.978034
_symmetry_space_group_name_H-M "P -1"
_symmetry_group_IT_number 2
_symmetry_cell_setting 'triclinic'
loop_
_space_group_symop_operation_xyz
x,y,z
-x,-y,-z
loop_
_atom_site_type_symbol
_atom_site_label
_atom_site_fract_x
_atom_site_fract_y
_atom_site_fract_z
Si Si1 0.690692 0.253361 0.536053
Si Si2 0.261356 0.855707 0.856770
Si Si3 0.168431 0.666546 0.206028
Si Si4 0.768916 0.795057 0.181229
Si Si5 0.496056 0.814817 0.158120
Si Si6 0.989439 0.133047 0.962265
Si Si7 0.529141 0.247913 0.680786
O O1 0.500000 0.500000 0.500000
O O2 0.685538 0.399023 0.674221
O O3 0.989427 0.124918 0.632121
O O4 0.610913 0.988690 0.359826
O O5 0.315074 0.527517 0.720459
O O6 0.128317 0.988652 0.909034
O O7 0.526115 0.899134 0.040517
O O8 0.049584 0.017782 0.760785
O O9 0.350572 0.631672 0.240347
O O10 0.000000 0.500000 0.000000
O O11 0.636797 0.832532 0.187642
O O12 0.907789 0.464092 0.082451
O O13 0.500000 0.500000 0.000000
O O14 0.197237 0.999049 0.070963
O O15 0.722665 0.110145 0.784185
O O16 0.500000 0.000000 0.500000
#
# Coordination Sequence:
#
# PCOD9018522 Si02
#       7
#     2   2   2   2   2   2   2
#     4  12  25  45  68 100 143 184 231 286 344 420
#     4   9  20  40  68  96 129 173 226 285 341 404
#     4  11  25  43  68 100 138 177 235 290 340 411
#     4  10  21  43  71  92 131 183 227 278 355 405
#     4  11  25  43  66 100 136 183 232 287 347 417
#     4   9  19  40  65  92 134 173 221 282 347 407
#     4  10  22  40  66  99 131 180 225 287 351 407
#
# _framework density 23.769987
#
# number of rings (size 3 to 8) (size 9 to 14) (size 15 to 20)
#    0.000    1.714    1.429    3.000    2.000    9.714 
#    5.143    0.000    0.000    0.000    0.000    0.000 
#    0.000    0.000    0.000    0.000    0.000    0.000 
#
# Total GULP energy -78036.867987 kJ/mol
# GULP energy per Si atom -5574.061999 kJ/mol
# Density = 2.371589 g / cm^3
# Si number density = 23.769987 Si / 1000 Ang^3
#
#
#
# Elastic Constant Matrix: (Units=GPa)
#
#
# Indices 1 2 3 4 5 6 
#
# 1 84.9244 0.0838 15.1059 -3.7757 -4.5164 -6.8508
# 2 0.0838 110.0690 23.9067 -11.5895 -12.3193 -11.5326
# 3 15.1059 23.9067 143.2921 14.2628 -16.5396 10.3956
# 4 -3.7757 -11.5895 14.2628 33.3665 3.0888 -16.3724
# 5 -4.5164 -12.3193 -16.5396 3.0888 35.7454 -2.1514
# 6 -6.8508 -11.5326 10.3956 -16.3724 -2.1514 28.4596
#
#
#
# Elastic Compliance Matrix: (Units=1/GPa)
#
#
# Indices 1 2 3 4 5 6 
#
# 1 0.013888 0.003204 -0.003740 0.009999 0.000977 0.011834
# 2 0.003204 0.014056 -0.005278 0.015998 0.002495 0.017787
# 3 -0.003740 -0.005278 0.011249 -0.014983 0.003274 -0.015520
# 4 0.009999 0.015998 -0.014983 0.070046 -0.002932 0.054437
# 5 0.000977 0.002495 0.003274 -0.002932 0.030769 0.000689
# 6 0.011834 0.017787 -0.015520 0.054437 0.000689 0.082232
#
#
# Mechanical properties :
#
#
# Convention : Reuss Voigt Hill
#
# Bulk Modulus (GPa) = 36.27618 46.27536 41.27577
# Shear Modulus (GPa) = 20.57142 39.46024 30.01583
#
# Velocity S-wave (km/s) = 2.94502 4.07884 3.55739
# Velocity P-wave (km/s) = 5.18254 6.45700 5.85455
#
# Compressibility (1/GPa) = 0.02756630
#
# Stress axis : x y z
#
# Youngs Moduli (GPa) = 72.00305 71.14199 88.89931
#
# Poissons Ratio (x) = -0.22792 0.33245
# Poissons Ratio (y) = -0.23067 0.46917
# Poissons Ratio (z) = 0.26926 0.37546
#
# Static dielectric constant tensor:
#      x y z
#    x 2.033400 0.104900 0.017000 
#    y 0.104900 2.032040 0.009360 
#    z 0.017000 0.009360 2.027160 
# 
# From -- ./inp_files/98367.got.cif
#   From: 2010.05.17/outbox.cif.g08.bks.cpg/sg2_50_cif.got.tgz:98367.got - 2010.06.03 11:33:40.
