data_PCOD9018112
_publ_section_title
;
Structure prediction by ZEFSAII (Michael W. Deem and Ramdas Pophale) SiO2 
 PCOD9018112
Probable space group: P -1
;
_chemical_formula_sum "Si O2"
_cell_formula_units_Z 12
_cell_length_a 8.248608
_cell_length_b 9.378546
_cell_length_c 14.004429
_cell_angle_alpha 103.276550
_cell_angle_beta 47.483219
_cell_angle_gamma 130.715091
_cell_volume 560.357404
_symmetry_space_group_name_H-M "P -1"
_symmetry_group_IT_number 2
_symmetry_cell_setting 'triclinic'
loop_
_space_group_symop_operation_xyz
x,y,z
-x,-y,-z
loop_
_atom_site_type_symbol
_atom_site_label
_atom_site_fract_x
_atom_site_fract_y
_atom_site_fract_z
Si Si1 0.537800 0.320497 0.202329
Si Si2 0.710235 0.382787 0.929209
Si Si3 0.696049 0.178458 0.279926
Si Si4 0.117622 0.047952 0.569370
Si Si5 0.914632 0.720737 0.236453
Si Si6 0.030360 0.046757 0.105134
O O1 0.593756 0.193491 0.217943
O O2 0.656196 0.497993 0.256985
O O3 0.715818 0.411339 0.045811
O O4 0.177816 0.163396 0.296902
O O5 0.977350 0.592673 0.802003
O O6 0.798079 0.253449 0.858284
O O7 0.372205 0.264626 0.014423
O O8 0.435156 0.108982 0.445875
O O9 0.768694 0.041769 0.234698
O O10 0.166670 0.227588 0.627489
O O11 0.000000 0.000000 0.500000
O O12 0.995715 0.883962 0.154344
O O13 0.000000 0.000000 0.000000
#
# Coordination Sequence:
#
# PCOD9018112 Si02
#       6
#     2   2   2   2   2   2
#     4  10  21  43  68  94 123 167 216 259 310 375
#     4  11  22  41  69  90 127 168 214 264 310 370
#     4  10  23  40  62  93 130 161 208 259 318 366
#     4  10  23  41  66  92 130 169 210 257 309 378
#     4  11  23  41  68  96 124 168 217 253 313 381
#     4  12  24  38  64  98 129 161 212 265 321 368
#
# _framework density 21.414905000000001
#
# number of rings (size 3 to 8) (size 9 to 14) (size 15 to 20)
#    0.000    1.333    1.667    5.000    4.667    6.667 
#    0.000    0.833    0.000    0.000    0.000    0.000 
#    0.000    0.000    0.000    0.000    0.000    0.000 
#
# Total GULP energy -67017.854298 kJ/mol
# GULP energy per Si atom -5584.821191 kJ/mol
# Density = 2.136616 g / cm^3
# Si number density = 21.414905 Si / 1000 Ang^3
#
#
#
# Elastic Constant Matrix: (Units=GPa)
#
#
# Indices 1 2 3 4 5 6 
#
# 1 52.8665 25.6872 29.8276 11.0192 -16.6735 13.2847
# 2 25.6872 74.8952 37.9222 17.8571 -19.4697 7.3924
# 3 29.8276 37.9222 129.4696 21.3191 -37.0100 6.7634
# 4 11.0192 17.8571 21.3191 49.5797 2.5108 1.5347
# 5 -16.6735 -19.4697 -37.0100 2.5108 38.2707 4.9931
# 6 13.2847 7.3924 6.7634 1.5347 4.9931 39.8089
#
#
#
# Elastic Compliance Matrix: (Units=1/GPa)
#
#
# Indices 1 2 3 4 5 6 
#
# 1 0.028358 -0.004420 -0.000891 -0.004575 0.010806 -0.009670
# 2 -0.004420 0.018994 -0.001534 -0.005474 0.006932 -0.002450
# 3 -0.000891 -0.001534 0.012812 -0.005274 0.011945 -0.002890
# 4 -0.004575 -0.005474 -0.005274 0.025916 -0.012095 0.003957
# 5 0.010806 0.006932 0.011945 -0.012095 0.048343 -0.012520
# 6 -0.009670 -0.002450 -0.002890 0.003957 -0.012520 0.030711
#
#
# Mechanical properties :
#
#
# Convention : Reuss Voigt Hill
#
# Bulk Modulus (GPa) = 21.51751 49.34503 35.43127
# Shear Modulus (GPa) = 25.73138 36.45148 31.09143
#
# Velocity S-wave (km/s) = 3.47012 4.13019 3.81446
# Velocity P-wave (km/s) = 5.11130 6.77031 5.99843
#
# Compressibility (1/GPa) = 0.04647378
#
# Stress axis : x y z
#
# Youngs Moduli (GPa) = 35.26355 52.64836 78.05004
#
# Poissons Ratio (x) = 0.23273 0.06952
# Poissons Ratio (y) = 0.15588 0.11972
# Poissons Ratio (z) = 0.03141 0.08076
#
# Static dielectric constant tensor:
#      x y z
#    x 1.785340 0.011080 -0.004680 
#    y 0.011080 1.797730 -0.014580 
#    z -0.004680 -0.014580 1.815540 
# 
# From -- ./inp_files/149084.got.cif
#   From: 2010.05.17/outbox.cif.g08.bks.cpg/sg2_75_cif.got.tgz:149084.got - 2010.06.03 11:33:40.
