data_PCOD9018883
_publ_section_title
;
Structure prediction by ZEFSAII (Michael W. Deem and Ramdas Pophale) SiO2 
 PCOD9018883
Probable space group: P -1
;
_chemical_formula_sum "Si O2"
_cell_formula_units_Z 13
_cell_length_a 7.904429
_cell_length_b 8.378586
_cell_length_c 12.021939
_cell_angle_alpha 73.458877
_cell_angle_beta 138.651397
_cell_angle_gamma 107.644446
_cell_volume 499.177718
_symmetry_space_group_name_H-M "P -1"
_symmetry_group_IT_number 2
_symmetry_cell_setting 'triclinic'
loop_
_space_group_symop_operation_xyz
x,y,z
-x,-y,-z
loop_
_atom_site_type_symbol
_atom_site_label
_atom_site_fract_x
_atom_site_fract_y
_atom_site_fract_z
Si Si1 0.255967 0.852438 0.102730
Si Si2 0.988118 0.081486 0.355409
Si Si3 0.000000 0.500000 0.000000
Si Si4 0.536640 0.776804 0.902694
Si Si5 0.253784 0.249098 0.766514
Si Si6 0.542253 0.179637 0.547350
Si Si7 0.423573 0.557535 0.670460
O O1 0.505004 0.826686 0.154834
O O2 0.304646 0.827848 0.261929
O O3 0.264535 0.053122 0.053798
O O4 0.032132 0.709625 0.978921
O O5 0.738697 0.174167 0.203112
O O6 0.249689 0.200836 0.435516
O O7 0.958133 0.913690 0.298204
O O8 0.000000 0.000000 0.500000
O O9 0.701707 0.491848 0.806590
O O10 0.470607 0.675073 0.778690
O O11 0.659748 0.682949 0.082651
O O12 0.217889 0.397585 0.635611
O O13 0.646203 0.333462 0.488548
O O14 0.500000 0.000000 0.500000
#
# Coordination Sequence:
#
# PCOD9018883 Si02
#       7
#     2   2   1   2   2   2   2
#     4  10  21  44  66 100 133 174 230 271 338 394
#     4  11  21  42  69  95 126 182 229 262 340 397
#     4  10  26  40  66 102 136 176 208 286 346 382
#     4  11  22  43  70  93 137 180 230 273 320 417
#     4  10  23  41  65  99 134 178 223 279 327 398
#     4  12  24  44  71 101 136 175 226 281 332 408
#     4  11  25  44  66 103 140 171 226 281 336 394
#
# _framework density 26.042828
#
# number of rings (size 3 to 8) (size 9 to 14) (size 15 to 20)
#    0.000    1.231    4.615    2.308    6.462    4.308 
#    0.000    3.077    0.000    0.000    0.000    0.000 
#    0.000    0.000    0.000    0.000    0.000    0.000 
#
# Total GULP energy -72565.152430 kJ/mol
# GULP energy per Si atom -5581.934802 kJ/mol
# Density = 2.598355 g / cm^3
# Si number density = 26.042828 Si / 1000 Ang^3
#
#
#
# Elastic Constant Matrix: (Units=GPa)
#
#
# Indices 1 2 3 4 5 6 
#
# 1 68.6949 18.1937 29.2648 -6.2343 -7.0463 11.6789
# 2 18.1937 90.3058 -13.0990 4.5984 -9.0006 9.4903
# 3 29.2648 -13.0990 85.3695 -16.5936 -22.7620 5.2245
# 4 -6.2343 4.5984 -16.5936 49.1037 3.3860 -4.0103
# 5 -7.0463 -9.0006 -22.7620 3.3860 55.6440 -2.3836
# 6 11.6789 9.4903 5.2245 -4.0103 -2.3836 37.7572
#
#
#
# Elastic Compliance Matrix: (Units=1/GPa)
#
#
# Indices 1 2 3 4 5 6 
#
# 1 0.019581 -0.004806 -0.007604 0.000159 -0.001584 -0.003880
# 2 -0.004806 0.013330 0.004594 -0.000732 0.003370 -0.002364
# 3 -0.007604 0.004594 0.017634 0.004068 0.006730 -0.000386
# 4 0.000159 -0.000732 0.004068 0.021964 0.000312 0.001924
# 5 -0.001584 0.003370 0.006730 0.000312 0.021053 0.000074
# 6 -0.003880 -0.002364 -0.000386 0.001924 0.000074 0.028542
#
#
# Mechanical properties :
#
#
# Convention : Reuss Voigt Hill
#
# Bulk Modulus (GPa) = 28.64329 34.78768 31.71549
# Shear Modulus (GPa) = 33.47332 42.50169 37.98750
#
# Velocity S-wave (km/s) = 3.58902 4.04417 3.82338
# Velocity P-wave (km/s) = 5.31010 5.93245 5.62988
#
# Compressibility (1/GPa) = 0.03491219
#
# Stress axis : x y z
#
# Youngs Moduli (GPa) = 51.07040 75.02033 56.70917
#
# Poissons Ratio (x) = 0.36056 0.43121
# Poissons Ratio (y) = 0.24545 -0.26051
# Poissons Ratio (z) = 0.38833 -0.34463
#
# Static dielectric constant tensor:
#      x y z
#    x 2.162620 -0.011930 0.059860 
#    y -0.011930 2.080410 -0.012600 
#    z 0.059860 -0.012600 1.986210 
# 
# From -- ./inp_files/149558.got.cif
#   From: 2010.05.17/outbox.cif.g08.bks.cpg/sg2_75_cif.got.tgz:149558.got - 2010.06.03 11:33:40.
