data_PCOD9018109
_publ_section_title
;
Structure prediction by ZEFSAII (Michael W. Deem and Ramdas Pophale) SiO2 
 PCOD9018109
Probable space group: P -1
;
_chemical_formula_sum "Si O2"
_cell_formula_units_Z 16
_cell_length_a 12.138427
_cell_length_b 12.430457
_cell_length_c 11.911880
_cell_angle_alpha 145.608031
_cell_angle_beta 89.327327
_cell_angle_gamma 64.212863
_cell_volume 625.824899
_symmetry_space_group_name_H-M "P -1"
_symmetry_group_IT_number 2
_symmetry_cell_setting 'triclinic'
loop_
_space_group_symop_operation_xyz
x,y,z
-x,-y,-z
loop_
_atom_site_type_symbol
_atom_site_label
_atom_site_fract_x
_atom_site_fract_y
_atom_site_fract_z
Si Si1 0.860027 0.499230 0.592916
Si Si2 0.265032 0.710582 0.517958
Si Si3 0.160367 0.011198 0.554385
Si Si4 0.603112 0.510065 0.347951
Si Si5 0.763329 0.652317 0.145408
Si Si6 0.766559 0.076934 0.779651
Si Si7 0.590881 0.925552 0.619864
Si Si8 0.108853 0.113327 0.054312
O O1 0.720140 0.526503 0.647776
O O2 0.809542 0.785760 0.861945
O O3 0.034093 0.219607 0.428713
O O4 0.933404 0.376635 0.359312
O O5 0.429573 0.620908 0.471192
O O6 0.234898 0.767798 0.435981
O O7 0.096304 0.037538 0.866738
O O8 0.215532 0.150657 0.712252
O O9 0.228677 0.891960 0.325432
O O10 0.946340 0.301282 0.809388
O O11 0.577233 0.769918 0.572067
O O12 0.660413 0.381509 0.109343
O O13 0.762634 0.208126 0.159765
O O14 0.725196 0.699567 0.319546
O O15 0.597768 0.798578 0.203555
O O16 0.662201 0.021850 0.755572
#
# Coordination Sequence:
#
# PCOD9018109 Si02
#       8
#     2   2   2   2   2   2   2   2
#     4  10  25  46  67 101 127 171 225 273 337 384
#     4  12  25  43  70  99 132 174 222 274 326 395
#     4  10  22  40  65 103 135 170 221 266 329 394
#     4  11  25  44  66 102 129 174 229 263 334 393
#     4   9  20  39  64  98 132 174 218 256 325 401
#     4  10  25  43  65  98 139 176 212 276 323 394
#     4  10  21  43  68  93 136 179 212 265 333 388
#     4  10  25  46  68  92 133 171 224 279 326 389
#
# _framework density 25.566255000000002
#
# number of rings (size 3 to 8) (size 9 to 14) (size 15 to 20)
#    0.000    1.750    1.250    0.750    8.750    6.500 
#    0.000    0.000    0.000    0.000    0.000    0.000 
#    0.000    0.000    0.000    0.000    0.000    0.000 
#
# Total GULP energy -89765.962057 kJ/mol
# GULP energy per Si atom -5610.372629 kJ/mol
# Density = 2.550807 g / cm^3
# Si number density = 25.566255 Si / 1000 Ang^3
#
#
#
# Elastic Constant Matrix: (Units=GPa)
#
#
# Indices 1 2 3 4 5 6 
#
# 1 137.8841 14.9516 13.1234 6.3664 7.3808 28.5334
# 2 14.9516 68.4849 19.3103 -11.6054 6.3157 11.1579
# 3 13.1234 19.3103 63.9894 -9.9273 8.7562 0.3446
# 4 6.3664 -11.6054 -9.9273 25.6276 -2.8759 2.9824
# 5 7.3808 6.3157 8.7562 -2.8759 36.1021 7.5718
# 6 28.5334 11.1579 0.3446 2.9824 7.5718 48.0144
#
#
#
# Elastic Compliance Matrix: (Units=1/GPa)
#
#
# Indices 1 2 3 4 5 6 
#
# 1 0.008654 -0.001066 -0.001815 -0.002839 -0.000395 -0.004643
# 2 -0.001066 0.017847 -0.003952 0.007200 -0.000566 -0.003844
# 3 -0.001815 -0.003952 0.018456 0.005182 -0.003438 0.002085
# 4 -0.002839 0.007200 0.005182 0.045636 0.002378 -0.003233
# 5 -0.000395 -0.000566 -0.003438 0.002378 0.029838 -0.004462
# 6 -0.004643 -0.003844 0.002085 -0.003233 -0.004462 0.025369
#
#
# Mechanical properties :
#
#
# Convention : Reuss Voigt Hill
#
# Bulk Modulus (GPa) = 31.95750 40.56990 36.26370
# Shear Modulus (GPa) = 29.42977 36.81370 33.12173
#
# Velocity S-wave (km/s) = 3.39649 3.79876 3.60325
# Velocity P-wave (km/s) = 5.28286 5.92822 5.61482
#
# Compressibility (1/GPa) = 0.03129156
#
# Stress axis : x y z
#
# Youngs Moduli (GPa) = 115.55519 56.03090 54.18428
#
# Poissons Ratio (x) = 0.05972 0.09832
# Poissons Ratio (y) = 0.12317 0.21414
# Poissons Ratio (z) = 0.20969 0.22144
#
# Static dielectric constant tensor:
#      x y z
#    x 2.010960 0.002700 -0.029330 
#    y 0.002700 1.994680 -0.037860 
#    z -0.029330 -0.037860 1.962340 
# 
# From -- ./inp_files/429067.got.cif
#   From: 2010.05.17/outbox.cif.g08.bks.cpg/sg2_215_cif.got.tgz:429067.got - 2010.06.03 11:33:40.
