data_PCOD9018369
_publ_section_title
;
Structure prediction by ZEFSAII (Michael W. Deem and Ramdas Pophale) SiO2 
 PCOD9018369
Probable space group: P -1
;
_chemical_formula_sum "Si O2"
_cell_formula_units_Z 16
_cell_length_a 8.681224
_cell_length_b 11.441686
_cell_length_c 14.919185
_cell_angle_alpha 147.710779
_cell_angle_beta 78.595265
_cell_angle_gamma 113.080141
_cell_volume 700.800538
_symmetry_space_group_name_H-M "P -1"
_symmetry_group_IT_number 2
_symmetry_cell_setting 'triclinic'
loop_
_space_group_symop_operation_xyz
x,y,z
-x,-y,-z
loop_
_atom_site_type_symbol
_atom_site_label
_atom_site_fract_x
_atom_site_fract_y
_atom_site_fract_z
Si Si1 0.662117 0.596469 0.107985
Si Si2 0.469952 0.825127 0.006067
Si Si3 0.925137 0.449192 0.726937
Si Si4 0.795515 0.946780 0.478783
Si Si5 0.196372 0.203643 0.123699
Si Si6 0.723433 0.541268 0.360588
Si Si7 0.678734 0.806742 0.695354
Si Si8 0.013955 0.706832 0.061933
O O1 0.632713 0.374234 0.034840
O O2 0.704957 0.818051 0.314171
O O3 0.825571 0.695214 0.087538
O O4 0.500000 0.500000 0.000000
O O5 0.665184 0.851339 0.986843
O O6 0.376367 0.704757 0.844554
O O7 0.451231 0.065564 0.192359
O O8 0.813203 0.551922 0.750121
O O9 0.073682 0.411120 0.628578
O O10 0.805149 0.212152 0.644336
O O11 0.033281 0.636685 0.913280
O O12 0.704060 0.747719 0.435337
O O13 0.000000 0.000000 0.500000
O O14 0.255236 0.222872 0.232672
O O15 0.000000 0.000000 0.000000
O O16 0.650078 0.578144 0.487496
O O17 0.838912 0.026779 0.767823
O O18 0.000000 0.500000 0.000000
#
# Coordination Sequence:
#
# PCOD9018369 Si02
#       8
#     2   2   2   2   2   2   2   2
#     4  11  23  39  67 108 143 178 225 292 362 419
#     4  11  24  48  67  99 143 177 236 292 339 419
#     4  11  21  41  66 101 146 178 223 293 344 408
#     4   9  19  39  66  99 141 182 226 285 343 422
#     4  12  26  46  68  97 139 189 230 288 356 404
#     4  10  21  43  70 103 131 180 235 282 348 410
#     4  12  24  43  75  99 133 191 236 279 337 431
#     4  12  19  37  68 100 132 180 231 273 348 420
#
# _framework density 22.831032
#
# number of rings (size 3 to 8) (size 9 to 14) (size 15 to 20)
#    0.000    1.000    3.750    4.875    0.000    1.000 
#    2.250    1.875    0.000    0.000    0.000    0.000 
#    0.000    0.000    0.000    0.000    0.000    0.000 
#
# Total GULP energy -89392.320421 kJ/mol
# GULP energy per Si atom -5587.020026 kJ/mol
# Density = 2.277907 g / cm^3
# Si number density = 22.831032 Si / 1000 Ang^3
#
#
#
# Elastic Constant Matrix: (Units=GPa)
#
#
# Indices 1 2 3 4 5 6 
#
# 1 112.0199 30.3566 30.5318 -14.7230 -20.0370 11.1137
# 2 30.3566 80.3217 20.6163 -9.2461 -22.2574 5.1776
# 3 30.5318 20.6163 141.1520 -10.6352 -10.2539 -3.3406
# 4 -14.7230 -9.2461 -10.6352 47.3998 -1.5979 -5.9798
# 5 -20.0370 -22.2574 -10.2539 -1.5979 31.8890 -3.9897
# 6 11.1137 5.1776 -3.3406 -5.9798 -3.9897 48.8043
#
#
#
# Elastic Compliance Matrix: (Units=1/GPa)
#
#
# Indices 1 2 3 4 5 6 
#
# 1 0.011367 -0.002035 -0.001625 0.002723 0.005119 -0.001732
# 2 -0.002035 0.016606 -0.001056 0.002682 0.010079 -0.000218
# 3 -0.001625 -0.001056 0.007782 0.001224 0.000961 0.001243
# 4 0.002723 0.002682 0.001224 0.023237 0.005451 0.002472
# 5 0.005119 0.010079 0.000961 0.005451 0.042438 0.001968
# 6 -0.001732 -0.000218 0.001243 0.002472 0.001968 0.021456
#
#
# Mechanical properties :
#
#
# Convention : Reuss Voigt Hill
#
# Bulk Modulus (GPa) = 37.99198 55.16699 46.57949
# Shear Modulus (GPa) = 35.43764 42.41789 38.92776
#
# Velocity S-wave (km/s) = 3.94403 4.31502 4.13369
# Velocity P-wave (km/s) = 6.11696 7.00296 6.57490
#
# Compressibility (1/GPa) = 0.02632134
#
# Stress axis : x y z
#
# Youngs Moduli (GPa) = 87.97521 60.21921 128.50392
#
# Poissons Ratio (x) = 0.12256 0.20887
# Poissons Ratio (y) = 0.17905 0.13571
# Poissons Ratio (z) = 0.14299 0.06359
#
# Static dielectric constant tensor:
#      x y z
#    x 1.883980 0.042710 -0.016370 
#    y 0.042710 1.875920 0.047740 
#    z -0.016370 0.047740 1.887460 
# 
# From -- ./inp_files/501161.got.cif
#   From: 2010.05.17/outbox.cif.g08.bks.cpg/sg2_251_cif.got.tgz:501161.got - 2010.06.03 11:33:40.
