data_PCOD9018223
_publ_section_title
;
Structure prediction by ZEFSAII (Michael W. Deem and Ramdas Pophale) SiO2 
 PCOD9018223
Probable space group: P -1
;
_chemical_formula_sum "Si O2"
_cell_formula_units_Z 16
_cell_length_a 8.454286
_cell_length_b 9.364940
_cell_length_c 11.760527
_cell_angle_alpha 73.464050
_cell_angle_beta 109.801328
_cell_angle_gamma 71.612162
_cell_volume 747.166852
_symmetry_space_group_name_H-M "P -1"
_symmetry_group_IT_number 2
_symmetry_cell_setting 'triclinic'
loop_
_space_group_symop_operation_xyz
x,y,z
-x,-y,-z
loop_
_atom_site_type_symbol
_atom_site_label
_atom_site_fract_x
_atom_site_fract_y
_atom_site_fract_z
Si Si1 0.486846 0.247389 0.268019
Si Si2 0.967238 0.256664 0.079925
Si Si3 0.003634 0.623641 0.374443
Si Si4 0.064596 0.505829 0.165745
Si Si5 0.372398 0.968927 0.297867
Si Si6 0.568026 0.309816 0.026436
Si Si7 0.636592 0.331056 0.502627
Si Si8 0.415387 0.153978 0.855823
O O1 0.270737 0.390568 0.189603
O O2 0.559544 0.223135 0.162163
O O3 0.592907 0.316374 0.363076
O O4 0.478082 0.077020 0.339414
O O5 0.779647 0.235295 0.045812
O O6 0.943850 0.412471 0.118859
O O7 0.003785 0.314705 0.951672
O O8 0.151764 0.097272 0.202658
O O9 0.075393 0.518708 0.299214
O O10 0.153394 0.689775 0.428334
O O11 0.000000 0.500000 0.500000
O O12 0.797878 0.772546 0.258910
O O13 0.394345 0.816951 0.415103
O O14 0.452403 0.897518 0.209831
O O15 0.500000 0.500000 0.000000
O O16 0.433397 0.297110 0.900589
O O17 0.500000 0.500000 0.500000
O O18 0.500000 0.000000 0.000000
#
# Coordination Sequence:
#
# PCOD9018223 Si02
#       8
#     2   2   2   2   2   2   2   2
#     4  11  24  47  71 104 145 187 233 296 356 429
#     4  10  23  41  72 105 139 186 234 294 353 429
#     4  12  28  45  72 106 145 190 239 295 364 430
#     4  10  21  43  69 102 143 181 235 286 361 420
#     4  11  26  47  71 101 144 191 238 295 365 425
#     4  12  25  42  75 108 143 184 241 297 354 425
#     4  12  27  48  73 103 140 192 247 292 360 438
#     4  12  27  48  71 104 151 184 238 304 363 420
#
# _framework density 21.414224999999998
#
# number of rings (size 3 to 8) (size 9 to 14) (size 15 to 20)
#    0.000    0.750    3.750    2.625   10.500    0.500 
#    0.000    1.250    0.000    0.000    0.000    0.000 
#    0.000    0.000    0.000    0.000    0.000    0.000 
#
# Total GULP energy -89481.732375 kJ/mol
# GULP energy per Si atom -5592.608273 kJ/mol
# Density = 2.136549 g / cm^3
# Si number density = 21.414225 Si / 1000 Ang^3
#
#
#
# Elastic Constant Matrix: (Units=GPa)
#
#
# Indices 1 2 3 4 5 6 
#
# 1 89.5213 19.4760 34.3993 1.6785 15.7828 7.6915
# 2 19.4760 84.2715 34.4657 6.4081 7.0639 7.5139
# 3 34.3993 34.4657 91.4763 11.7405 2.7726 9.5315
# 4 1.6785 6.4081 11.7405 46.4138 3.1474 0.5062
# 5 15.7828 7.0639 2.7726 3.1474 42.0029 3.6215
# 6 7.6915 7.5139 9.5315 0.5062 3.6215 34.3931
#
#
#
# Elastic Compliance Matrix: (Units=1/GPa)
#
#
# Indices 1 2 3 4 5 6 
#
# 1 0.014166 -0.000856 -0.004892 0.001184 -0.004847 -0.001132
# 2 -0.000856 0.014337 -0.004804 -0.000609 -0.001603 -0.001432
# 3 -0.004892 -0.004804 0.015150 -0.003108 0.002071 -0.002227
# 4 0.001184 -0.000609 -0.003108 0.022493 -0.001874 0.000596
# 5 -0.004847 -0.001603 0.002071 -0.001874 0.026063 -0.001856
# 6 -0.001132 -0.001432 -0.002227 0.000596 -0.001856 0.030446
#
#
# Mechanical properties :
#
#
# Convention : Reuss Voigt Hill
#
# Bulk Modulus (GPa) = 44.34705 49.10568 46.72636
# Shear Modulus (GPa) = 33.05242 36.35715 34.70479
#
# Velocity S-wave (km/s) = 3.93298 4.12491 4.03009
# Velocity P-wave (km/s) = 6.43261 6.75778 6.59720
#
# Compressibility (1/GPa) = 0.02254942
#
# Stress axis : x y z
#
# Youngs Moduli (GPa) = 70.59107 69.74761 66.00864
#
# Poissons Ratio (x) = 0.05971 0.32289
# Poissons Ratio (y) = 0.06043 0.31711
# Poissons Ratio (z) = 0.34531 0.33507
#
# Static dielectric constant tensor:
#      x y z
#    x 1.755130 0.085540 -0.016530 
#    y 0.085540 1.610800 0.028520 
#    z -0.016530 0.028520 1.800220 
# 
# From -- ./inp_files/381764.got.cif
#   From: 2010.05.17/outbox.cif.g08.bks.cpg/sg2_191_cif.got.tgz:381764.got - 2010.06.03 11:33:40.
