data_PCOD9018578
_publ_section_title
;
Structure prediction by ZEFSAII (Michael W. Deem and Ramdas Pophale) SiO2 
 PCOD9018578
Probable space group: P -1
;
_chemical_formula_sum "Si O2"
_cell_formula_units_Z 14
_cell_length_a 5.906897
_cell_length_b 18.754275
_cell_length_c 15.807483
_cell_angle_alpha 156.596354
_cell_angle_beta 64.728500
_cell_angle_gamma 123.008894
_cell_volume 569.095082
_symmetry_space_group_name_H-M "P -1"
_symmetry_group_IT_number 2
_symmetry_cell_setting 'triclinic'
loop_
_space_group_symop_operation_xyz
x,y,z
-x,-y,-z
loop_
_atom_site_type_symbol
_atom_site_label
_atom_site_fract_x
_atom_site_fract_y
_atom_site_fract_z
Si Si1 0.807234 0.904738 0.195047
Si Si2 0.137208 0.924575 0.820042
Si Si3 0.756449 0.839128 0.307825
Si Si4 0.374429 0.520340 0.767260
Si Si5 0.273073 0.829735 0.004890
Si Si6 0.137012 0.546033 0.121834
Si Si7 0.880561 0.473086 0.582117
O O1 0.721946 0.950677 0.350412
O O2 0.832665 0.000855 0.201920
O O3 0.575562 0.677054 0.974073
O O4 0.116999 0.929502 0.192628
O O5 0.028311 0.689654 0.571911
O O6 0.448229 0.005220 0.894326
O O7 0.000000 0.000000 0.000000
O O8 0.450582 0.714188 0.259513
O O9 0.850170 0.660574 0.078620
O O10 0.000000 0.000000 0.500000
O O11 0.345212 0.666970 0.862068
O O12 0.556334 0.413793 0.584879
O O13 0.074767 0.407897 0.734372
O O14 0.038264 0.696378 0.833402
O O15 0.000000 0.500000 0.000000
O O16 0.000000 0.500000 0.500000
#
# Coordination Sequence:
#
# PCOD9018578 Si02
#       7
#     2   2   2   2   2   2   2
#     4  10  21  44  70 101 145 184 235 299 357 424
#     4  11  25  45  71 104 137 189 237 291 364 424
#     4  11  25  46  72 109 145 187 243 302 365 431
#     4  10  21  43  72 101 137 193 237 290 358 423
#     4  10  22  44  70  93 145 179 228 300 349 417
#     4  11  23  47  75  98 147 190 242 299 362 423
#     4  11  25  44  70 106 139 184 241 289 358 438
#
# _framework density 24.600460999999999
#
# number of rings (size 3 to 8) (size 9 to 14) (size 15 to 20)
#    0.000    1.429    2.857    2.571    0.000    6.286 
#    7.714    1.429    0.000    0.000    0.000    0.000 
#    0.000    0.000    0.000    0.000    0.000    0.000 
#
# Total GULP energy -78043.421861 kJ/mol
# GULP energy per Si atom -5574.530133 kJ/mol
# Density = 2.454447 g / cm^3
# Si number density = 24.600461 Si / 1000 Ang^3
#
#
#
# Elastic Constant Matrix: (Units=GPa)
#
#
# Indices 1 2 3 4 5 6 
#
# 1 84.3968 50.4945 36.8166 -2.7193 2.3564 17.7628
# 2 50.4945 148.4190 56.8792 -6.8826 8.0892 13.7726
# 3 36.8166 56.8792 86.4837 4.6962 -2.3465 8.7427
# 4 -2.7193 -6.8826 4.6962 36.2306 6.3127 -5.0205
# 5 2.3564 8.0892 -2.3465 6.3127 40.1528 9.5103
# 6 17.7628 13.7726 8.7427 -5.0205 9.5103 59.6966
#
#
#
# Elastic Compliance Matrix: (Units=1/GPa)
#
#
# Indices 1 2 3 4 5 6 
#
# 1 0.016692 -0.003667 -0.004370 0.000602 0.000230 -0.003467
# 2 -0.003667 0.010357 -0.005499 0.002899 -0.002691 0.000179
# 3 -0.004370 -0.005499 0.017452 -0.004325 0.003271 -0.000872
# 4 0.000602 0.002899 -0.004325 0.030346 -0.006440 0.003363
# 5 0.000230 -0.002691 0.003271 -0.006440 0.027797 -0.004897
# 6 -0.003467 0.000179 -0.000872 0.003363 -0.004897 0.018932
#
#
# Mechanical properties :
#
#
# Convention : Reuss Voigt Hill
#
# Bulk Modulus (GPa) = 57.37881 67.52001 62.44941
# Shear Modulus (GPa) = 32.37146 38.88997 35.63071
#
# Velocity S-wave (km/s) = 3.63145 3.98032 3.80988
# Velocity P-wave (km/s) = 6.39986 6.97353 6.69285
#
# Compressibility (1/GPa) = 0.01742804
#
# Stress axis : x y z
#
# Youngs Moduli (GPa) = 59.91010 96.55117 57.30075
#
# Poissons Ratio (x) = 0.35405 0.25041
# Poissons Ratio (y) = 0.21969 0.31512
# Poissons Ratio (z) = 0.26181 0.53097
#
# Static dielectric constant tensor:
#      x y z
#    x 2.118850 0.005900 -0.090800 
#    y 0.005900 1.733990 0.007540 
#    z -0.090800 0.007540 2.140770 
# 
# From -- ./inp_files/485290.got.cif
#   From: 2010.05.17/outbox.cif.g08.bks.cpg/sg2_243_cif.got.tgz:485290.got - 2010.06.03 11:33:40.
