data_PCOD9018809
_publ_section_title
;
Structure prediction by ZEFSAII (Michael W. Deem and Ramdas Pophale) SiO2 
 PCOD9018809
Probable space group: P -1
;
_chemical_formula_sum "Si O2"
_cell_formula_units_Z 13
_cell_length_a 18.526339
_cell_length_b 23.367457
_cell_length_c 20.466353
_cell_angle_alpha 168.771907
_cell_angle_beta 20.779508
_cell_angle_gamma 160.493645
_cell_volume 568.664069
_symmetry_space_group_name_H-M "P -1"
_symmetry_group_IT_number 2
_symmetry_cell_setting 'triclinic'
loop_
_space_group_symop_operation_xyz
x,y,z
-x,-y,-z
loop_
_atom_site_type_symbol
_atom_site_label
_atom_site_fract_x
_atom_site_fract_y
_atom_site_fract_z
Si Si1 0.625624 0.871786 0.302619
Si Si2 0.351325 0.191575 0.318097
Si Si3 0.000000 0.000000 0.500000
Si Si4 0.417767 0.765410 0.125037
Si Si5 0.678362 0.967275 0.622056
Si Si6 0.810705 0.211857 0.112997
Si Si7 0.096736 0.064294 0.147662
O O1 0.500000 0.000000 0.500000
O O2 0.624723 0.054059 0.574847
O O3 0.500000 0.500000 0.000000
O O4 0.879940 0.941388 0.149655
O O5 0.500000 0.500000 0.500000
O O6 0.229753 0.233844 0.532497
O O7 0.500000 0.000000 0.000000
O O8 0.173171 0.969882 0.169445
O O9 0.858468 0.085199 0.657204
O O10 0.289396 0.824744 0.237496
O O11 0.349788 0.392100 0.775931
O O12 0.677793 0.909352 0.048751
O O13 0.443720 0.935327 0.815025
O O14 0.868151 0.578565 0.461345
O O15 0.937432 0.150665 0.999460
#
# Coordination Sequence:
#
# PCOD9018809 Si02
#       7
#     2   2   1   2   2   2   2
#     4  12  26  43  69 102 131 163 223 279 346 425
#     4  12  27  44  65 100 145 185 239 298 347 401
#     4  12  28  42  72 104 142 198 234 294 358 390
#     4  10  24  44  66  95 134 175 220 280 331 415
#     4  10  23  42  66  97 136 178 237 274 338 406
#     4  10  21  44  64  92 135 181 228 278 331 414
#     4  10  23  42  69  93 128 177 215 268 351 402
#
# _framework density 22.860596000000001
#
# number of rings (size 3 to 8) (size 9 to 14) (size 15 to 20)
#    0.000    1.231    1.538    2.769    8.615    3.692 
#    0.000    0.000    0.000    0.000    0.000    0.000 
#    0.000    0.000    0.000    0.000    0.000    0.000 
#
# Total GULP energy -72560.212228 kJ/mol
# GULP energy per Si atom -5581.554787 kJ/mol
# Density = 2.280856 g / cm^3
# Si number density = 22.860596 Si / 1000 Ang^3
#
#
#
# Elastic Constant Matrix: (Units=GPa)
#
#
# Indices 1 2 3 4 5 6 
#
# 1 117.7019 21.7917 27.2158 -22.6972 -32.0923 6.8781
# 2 21.7917 97.0709 14.5606 -16.1570 -15.3372 3.9275
# 3 27.2158 14.5606 81.2341 -0.9479 -17.2604 -15.0052
# 4 -22.6972 -16.1570 -0.9479 17.3466 5.8815 -14.0939
# 5 -32.0923 -15.3372 -17.2604 5.8815 40.8900 -6.7777
# 6 6.8781 3.9275 -15.0052 -14.0939 -6.7777 47.6401
#
#
#
# Elastic Compliance Matrix: (Units=1/GPa)
#
#
# Indices 1 2 3 4 5 6 
#
# 1 0.015249 0.001928 -0.002320 0.022424 0.009293 0.004865
# 2 0.001928 0.013308 -0.001263 0.016409 0.004222 0.003682
# 3 -0.002320 -0.001263 0.015547 -0.000279 0.005305 0.006008
# 4 0.022424 0.016409 -0.000279 0.126331 0.011148 0.034282
# 5 0.009293 0.004222 0.005305 0.011148 0.035346 0.008308
# 6 0.004865 0.003682 0.006008 0.034282 0.008308 0.033201
#
#
# Mechanical properties :
#
#
# Convention : Reuss Voigt Hill
#
# Bulk Modulus (GPa) = 24.51211 47.01588 35.76400
# Shear Modulus (GPa) = 19.53973 36.67126 28.10550
#
# Velocity S-wave (km/s) = 2.92676 4.00950 3.51013
# Velocity P-wave (km/s) = 4.70817 6.48427 5.66624
#
# Compressibility (1/GPa) = 0.04079617
#
# Stress axis : x y z
#
# Youngs Moduli (GPa) = 65.57766 75.14505 64.32023
#
# Poissons Ratio (x) = -0.14492 0.14920
# Poissons Ratio (y) = -0.12647 0.08122
# Poissons Ratio (z) = 0.15212 0.09488
#
# Static dielectric constant tensor:
#      x y z
#    x 1.823130 -0.009060 0.039760 
#    y -0.009060 1.849610 -0.015490 
#    z 0.039760 -0.015490 1.830940 
# 
# From -- ./inp_files/96479.got.cif
#   From: 2010.05.17/outbox.cif.g08.bks.cpg/sg2_49_cif.got.tgz:96479.got - 2010.06.03 11:33:40.
