data_PCOD9018111
_publ_section_title
;
Structure prediction by ZEFSAII (Michael W. Deem and Ramdas Pophale) SiO2 
 PCOD9018111
Probable space group: P -1
;
_chemical_formula_sum "Si O2"
_cell_formula_units_Z 12
_cell_length_a 27.652344
_cell_length_b 28.069261
_cell_length_c 22.625400
_cell_angle_alpha 11.526593
_cell_angle_beta 12.599711
_cell_angle_gamma 10.542316
_cell_volume 602.544910
_symmetry_space_group_name_H-M "P -1"
_symmetry_group_IT_number 2
_symmetry_cell_setting 'triclinic'
loop_
_space_group_symop_operation_xyz
x,y,z
-x,-y,-z
loop_
_atom_site_type_symbol
_atom_site_label
_atom_site_fract_x
_atom_site_fract_y
_atom_site_fract_z
Si Si1 0.861816 0.366422 0.294519
Si Si2 0.624523 0.582067 0.888861
Si Si3 0.366186 0.797253 0.555078
Si Si4 0.090284 0.102864 0.823527
Si Si5 0.003533 0.492699 0.159500
Si Si6 0.273274 0.678747 0.679661
O O1 0.548387 0.544808 0.475247
O O2 0.889999 0.411322 0.137748
O O3 0.036037 0.019571 0.526516
O O4 0.000000 0.500000 0.000000
O O5 0.745650 0.755785 0.557044
O O6 0.821116 0.360391 0.870169
O O7 0.312177 0.821545 0.943703
O O8 0.634776 0.385589 0.167847
O O9 0.341059 0.683747 0.660432
O O10 0.668454 0.727877 0.277906
O O11 0.114298 0.154283 0.426619
O O12 0.000000 0.000000 0.000000
O O13 0.155038 0.494202 0.034601
#
# Coordination Sequence:
#
# PCOD9018111 Si02
#       6
#     2   2   2   2   2   2
#     4  12  21  41  65  84 118 166 212 264 299 351
#     4  10  23  39  64  95 125 156 200 246 295 365
#     4  12  24  41  59  91 129 158 198 253 308 364
#     4  10  21  43  68  94 120 160 200 241 295 359
#     4  12  25  40  62  88 123 165 210 255 306 358
#     4  12  24  41  61  88 120 164 210 256 310 353
#
# _framework density 19.915527000000001
#
# number of rings (size 3 to 8) (size 9 to 14) (size 15 to 20)
#    0.000    0.667    3.333    5.000    0.000    2.667 
#    0.000    0.000    0.000    0.000    0.000    0.000 
#    0.000    0.000    0.000    0.000    0.000    0.000 
#
# Total GULP energy -67115.012491 kJ/mol
# GULP energy per Si atom -5592.917708 kJ/mol
# Density = 1.987020 g / cm^3
# Si number density = 19.915527 Si / 1000 Ang^3
#
#
#
# Elastic Constant Matrix: (Units=GPa)
#
#
# Indices 1 2 3 4 5 6 
#
# 1 75.7463 8.5696 66.5228 0.0001 -10.1652 -15.4166
# 2 8.5696 96.0191 -36.6637 17.7638 1.1518 -7.3962
# 3 66.5228 -36.6637 12.8671 -11.1285 -20.9759 21.5970
# 4 0.0001 17.7638 -11.1285 24.7602 -6.5376 -7.4390
# 5 -10.1652 1.1518 -20.9759 -6.5376 44.4521 -2.4710
# 6 -15.4166 -7.3962 21.5970 -7.4390 -2.4710 19.4651
#
#
#
# Elastic Compliance Matrix: (Units=1/GPa)
#
#
# Indices 1 2 3 4 5 6 
#
# 1 0.003531 0.002603 0.010167 0.002409 0.005566 -0.005868
# 2 0.002603 0.010947 -0.003173 -0.007853 -0.001980 0.006488
# 3 0.010167 -0.003173 -0.007258 0.004116 0.000507 0.016538
# 4 0.002409 -0.007853 0.004116 0.056239 0.011933 0.017365
# 5 0.005566 -0.001980 0.000507 0.011933 0.026426 0.011009
# 6 -0.005868 0.006488 0.016538 0.017365 0.011009 0.038877
#
#
# Mechanical properties :
#
#
# Convention : Reuss Voigt Hill
#
# Bulk Modulus (GPa) = 37.85788 29.05445 33.45617
# Shear Modulus (GPa) = 42.23939 27.48241 34.86090
#
# Velocity S-wave (km/s) = 4.61035 3.71880 4.18836
# Velocity P-wave (km/s) = 6.88411 5.74976 6.34235
#
# Compressibility (1/GPa) = 0.02641458
#
# Stress axis : x y z
#
# Youngs Moduli (GPa) = 283.21052 91.34676 -137.77583
#
# Poissons Ratio (x) = -0.23774 1.40080
# Poissons Ratio (y) = -0.73710 -0.43711
# Poissons Ratio (z) = -2.87946 0.28981
#
# Static dielectric constant tensor:
#      x y z
#    x 1.714110 0.013170 -0.027470 
#    y 0.013170 1.672500 -0.007500 
#    z -0.027470 -0.007500 1.694060 
# 
# From -- ./inp_files/95975.got.cif
#   From: 2010.05.17/outbox.cif.g08.bks.cpg/sg2_48_cif.got.tgz:95975.got - 2010.06.03 11:33:40.
