data_PCOD9018740
_publ_section_title
;
Structure prediction by ZEFSAII (Michael W. Deem and Ramdas Pophale) SiO2 
 PCOD9018740
Probable space group: P -1
;
_chemical_formula_sum "Si O2"
_cell_formula_units_Z 16
_cell_length_a 9.979333
_cell_length_b 15.203615
_cell_length_c 7.716889
_cell_angle_alpha 37.699830
_cell_angle_beta 115.798684
_cell_angle_gamma 108.786151
_cell_volume 644.093367
_symmetry_space_group_name_H-M "P -1"
_symmetry_group_IT_number 2
_symmetry_cell_setting 'triclinic'
loop_
_space_group_symop_operation_xyz
x,y,z
-x,-y,-z
loop_
_atom_site_type_symbol
_atom_site_label
_atom_site_fract_x
_atom_site_fract_y
_atom_site_fract_z
Si Si1 0.755919 0.141915 0.319963
Si Si2 0.845293 0.430366 0.982396
Si Si3 0.793086 0.991641 0.899406
Si Si4 0.816097 0.680510 0.320267
Si Si5 0.523675 0.687960 0.918243
Si Si6 0.461489 0.640963 0.557180
Si Si7 0.481518 0.919309 0.938548
Si Si8 0.148763 0.695634 0.433308
O O1 0.841682 0.038385 0.662690
O O2 0.602297 0.212285 0.212421
O O3 0.684682 0.054502 0.263524
O O4 0.848156 0.280033 0.114167
O O5 0.773781 0.552532 0.625169
O O6 0.807290 0.374510 0.243852
O O7 0.000000 0.500000 0.000000
O O8 0.834381 0.130367 0.817480
O O9 0.614738 0.977787 0.811328
O O10 0.842980 0.827221 0.218034
O O11 0.979893 0.654301 0.368099
O O12 0.685501 0.708820 0.061787
O O13 0.518271 0.696276 0.691794
O O14 0.485805 0.521991 0.190287
O O15 0.281867 0.640911 0.470415
O O16 0.502574 0.751262 0.260084
O O17 0.500000 0.000000 0.000000
#
# Coordination Sequence:
#
# PCOD9018740 Si02
#       8
#     2   2   2   2   2   2   2   2
#     4  11  22  41  65  92 131 163 212 263 311 372
#     4   9  20  39  63  92 122 164 212 258 310 370
#     4  11  22  39  66  94 123 166 209 260 310 371
#     4  11  23  36  68  95 118 165 219 252 307 379
#     4  11  23  40  63  95 123 166 210 262 316 364
#     4  11  24  40  62  91 131 166 202 268 318 368
#     4  12  23  36  64  93 126 166 215 253 317 374
#     4  10  21  44  60  91 132 166 199 260 321 373
#
# _framework density 24.841121000000001
#
# number of rings (size 3 to 8) (size 9 to 14) (size 15 to 20)
#    0.000    1.250    5.000    1.500    3.500    1.500 
#    0.000    0.000    0.000    1.500    0.000    0.000 
#    0.000    0.000    0.000    0.000    0.000    0.000 
#
# Total GULP energy -89351.683566 kJ/mol
# GULP energy per Si atom -5584.480223 kJ/mol
# Density = 2.478458 g / cm^3
# Si number density = 24.841121 Si / 1000 Ang^3
#
#
#
# Elastic Constant Matrix: (Units=GPa)
#
#
# Indices 1 2 3 4 5 6 
#
# 1 70.1224 25.8433 19.0181 -3.3997 -4.6061 32.7996
# 2 25.8433 72.6939 2.2246 0.6872 -5.6793 15.3313
# 3 19.0181 2.2246 118.5707 -22.1425 -23.1808 -3.8481
# 4 -3.3997 0.6872 -22.1425 44.0802 9.3275 5.6558
# 5 -4.6061 -5.6793 -23.1808 9.3275 31.9758 -4.4313
# 6 32.7996 15.3313 -3.8481 5.6558 -4.4313 38.4191
#
#
#
# Elastic Compliance Matrix: (Units=1/GPa)
#
#
# Indices 1 2 3 4 5 6 
#
# 1 0.029039 -0.005470 -0.005702 0.003724 -0.005383 -0.024349
# 2 -0.005470 0.016163 0.000962 -0.000616 0.002784 -0.001272
# 3 -0.005702 0.000962 0.011592 0.002947 0.007739 0.006104
# 4 0.003724 -0.000616 0.002947 0.026719 -0.006241 -0.007291
# 5 -0.005383 0.002784 0.007739 -0.006241 0.039777 0.009767
# 6 -0.024349 -0.001272 0.006104 -0.007291 0.009767 0.050135
#
#
# Mechanical properties :
#
#
# Convention : Reuss Voigt Hill
#
# Bulk Modulus (GPa) = 27.49219 39.50657 33.49938
# Shear Modulus (GPa) = 24.27523 37.18177 30.72850
#
# Velocity S-wave (km/s) = 3.12944 3.87303 3.52092
# Velocity P-wave (km/s) = 4.91417 5.99489 5.48123
#
# Compressibility (1/GPa) = 0.03637397
#
# Stress axis : x y z
#
# Youngs Moduli (GPa) = 34.43589 61.86978 86.26734
#
# Poissons Ratio (x) = 0.33841 0.49193
# Poissons Ratio (y) = 0.18835 -0.08298
# Poissons Ratio (z) = 0.19637 -0.05951
#
# Static dielectric constant tensor:
#      x y z
#    x 2.082960 -0.011630 0.021760 
#    y -0.011630 2.063450 0.028710 
#    z 0.021760 0.028710 2.006560 
# 
# From -- ./inp_files/277263.got.cif
#   From: 2010.05.17/outbox.cif.g08.bks.cpg/sg2_139_cif.got.tgz:277263.got - 2010.06.03 11:33:40.
