data_PCOD9018186
_publ_section_title
;
Structure prediction by ZEFSAII (Michael W. Deem and Ramdas Pophale) SiO2 
 PCOD9018186
Probable space group: P -1
;
_chemical_formula_sum "Si O2"
_cell_formula_units_Z 14
_cell_length_a 9.477694
_cell_length_b 19.885757
_cell_length_c 9.119572
_cell_angle_alpha 30.788959
_cell_angle_beta 108.510706
_cell_angle_gamma 123.789222
_cell_volume 677.316855
_symmetry_space_group_name_H-M "P -1"
_symmetry_group_IT_number 2
_symmetry_cell_setting 'triclinic'
loop_
_space_group_symop_operation_xyz
x,y,z
-x,-y,-z
loop_
_atom_site_type_symbol
_atom_site_label
_atom_site_fract_x
_atom_site_fract_y
_atom_site_fract_z
Si Si1 0.087431 0.434708 0.788260
Si Si2 0.345733 0.346281 0.147216
Si Si3 0.978346 0.656004 0.393374
Si Si4 0.571961 0.042580 0.708708
Si Si5 0.715570 0.967042 0.160340
Si Si6 0.673066 0.200937 0.170145
Si Si7 0.578380 0.435414 0.761571
O O1 0.118983 0.419273 0.655831
O O2 0.114178 0.597563 0.552802
O O3 0.190265 0.374497 0.019670
O O4 0.871790 0.309766 0.964152
O O5 0.269403 0.177001 0.519706
O O6 0.500000 0.500000 0.000000
O O7 0.449564 0.368737 0.986683
O O8 0.800391 0.570343 0.602217
O O9 0.107249 0.850630 0.084878
O O10 0.435435 0.940309 0.720811
O O11 0.456711 0.070419 0.730322
O O12 0.715063 0.190939 0.374569
O O13 0.659564 0.970581 0.966902
O O14 0.567289 0.283454 0.979104
O O15 0.500000 0.500000 0.500000
#
# Coordination Sequence:
#
# PCOD9018186 Si02
#       7
#     2   2   2   2   2   2   2
#     4  10  22  41  67  95 134 172 219 269 330 388
#     4  12  28  44  64 100 137 175 214 275 336 386
#     4  10  22  42  71  95 129 175 225 267 326 386
#     4  10  22  39  69  96 129 169 222 272 322 391
#     4  11  24  42  66  98 134 173 217 273 331 382
#     4  10  21  43  68  99 124 173 222 269 321 396
#     4  11  23  42  68  97 128 173 219 271 323 394
#
# _framework density 20.669795000000001
#
# number of rings (size 3 to 8) (size 9 to 14) (size 15 to 20)
#    0.000    1.429    4.286    0.000    6.000    1.714 
#    5.143    4.286    0.000    0.000    0.000    0.000 
#    0.000    0.000    0.000    0.000    0.000    0.000 
#
# Total GULP energy -77944.249109 kJ/mol
# GULP energy per Si atom -5567.446365 kJ/mol
# Density = 2.062275 g / cm^3
# Si number density = 20.669795 Si / 1000 Ang^3
#
#
#
# Elastic Constant Matrix: (Units=GPa)
#
#
# Indices 1 2 3 4 5 6 
#
# 1 55.7305 4.9858 19.4587 8.8945 23.0021 2.2338
# 2 4.9858 53.5411 31.2356 16.2277 12.8715 4.1222
# 3 19.4587 31.2356 122.8686 26.1631 36.3412 10.5011
# 4 8.8945 16.2277 26.1631 33.9778 2.3709 -2.3012
# 5 23.0021 12.8715 36.3412 2.3709 38.7118 8.0505
# 6 2.2338 4.1222 10.5011 -2.3012 8.0505 18.1535
#
#
#
# Elastic Compliance Matrix: (Units=1/GPa)
#
#
# Indices 1 2 3 4 5 6 
#
# 1 0.025712 0.003159 0.002171 -0.008512 -0.018233 0.001870
# 2 0.003159 0.024790 -0.002303 -0.010637 -0.006666 -0.003078
# 3 0.002171 -0.002303 0.014673 -0.010125 -0.012888 -0.003800
# 4 -0.008512 -0.010637 -0.010125 0.044195 0.013538 0.008918
# 5 -0.018233 -0.006666 -0.012888 0.013538 0.052286 -0.010258
# 6 0.001870 -0.003078 -0.003800 0.008918 -0.010258 0.063433
#
#
# Mechanical properties :
#
#
# Convention : Reuss Voigt Hill
#
# Bulk Modulus (GPa) = 14.03939 38.16670 26.10304
# Shear Modulus (GPa) = 20.59493 29.93261 25.26377
#
# Velocity S-wave (km/s) = 3.15997 3.80956 3.49987
# Velocity P-wave (km/s) = 4.48563 6.15267 5.38406
#
# Compressibility (1/GPa) = 0.07122818
#
# Stress axis : x y z
#
# Youngs Moduli (GPa) = 38.89213 40.33905 68.15161
#
# Poissons Ratio (x) = -0.12742 -0.14792
# Poissons Ratio (y) = -0.12285 0.15693
# Poissons Ratio (z) = -0.08442 0.09289
#
# Static dielectric constant tensor:
#      x y z
#    x 1.622860 0.150760 -0.115350 
#    y 0.150760 1.771710 -0.140310 
#    z -0.115350 -0.140310 2.288010 
# 
# From -- ./inp_files/216371.got.cif
#   From: 2010.05.17/outbox.cif.g08.bks.cpg/sg2_109_cif.got.tgz:216371.got - 2010.06.03 11:33:40.
