data_PCOD9018313
_publ_section_title
;
Structure prediction by ZEFSAII (Michael W. Deem and Ramdas Pophale) SiO2 
 PCOD9018313
Probable space group: P -1
;
_chemical_formula_sum "Si O2"
_cell_formula_units_Z 14
_cell_length_a 17.065167
_cell_length_b 11.064414
_cell_length_c 7.976783
_cell_angle_alpha 132.150327
_cell_angle_beta 111.387521
_cell_angle_gamma 31.035539
_cell_volume 480.700387
_symmetry_space_group_name_H-M "P -1"
_symmetry_group_IT_number 2
_symmetry_cell_setting 'triclinic'
loop_
_space_group_symop_operation_xyz
x,y,z
-x,-y,-z
loop_
_atom_site_type_symbol
_atom_site_label
_atom_site_fract_x
_atom_site_fract_y
_atom_site_fract_z
Si Si1 0.697740 0.730924 0.364113
Si Si2 0.379511 0.490753 0.407494
Si Si3 0.205479 0.956159 0.125122
Si Si4 0.195525 0.743833 0.169299
Si Si5 0.198721 0.476122 0.376497
Si Si6 0.860432 0.783854 0.007425
Si Si7 0.602384 0.242418 0.629943
O O1 0.807783 0.538507 0.442617
O O2 0.500000 0.000000 0.500000
O O3 0.650077 0.994607 0.526265
O O4 0.784562 0.486869 0.049302
O O5 0.360712 0.506261 0.206957
O O6 0.335676 0.387156 0.350925
O O7 0.556014 0.266611 0.427888
O O8 0.228170 0.887838 0.706829
O O9 0.195927 0.782138 0.000183
O O10 0.226579 0.952134 0.340144
O O11 0.080069 0.264746 0.183961
O O12 0.407381 0.641954 0.915656
O O13 0.001214 0.115655 0.445474
O O14 0.231956 0.236297 0.112623
O O15 0.000000 0.500000 0.000000
#
# Coordination Sequence:
#
# PCOD9018313 Si02
#       7
#     2   2   2   2   2   2   2
#     4  12  22  44  71  99 135 188 239 280 352 421
#     4  11  25  46  71 104 146 180 236 292 351 414
#     4  10  22  43  70  98 140 177 239 288 341 417
#     4  12  26  43  69 107 144 181 234 296 345 414
#     4  12  25  48  72 102 145 186 231 294 354 415
#     4  11  23  44  71  96 135 190 226 280 358 412
#     4  10  21  43  69  97 136 189 226 287 350 413
#
# _framework density 29.124168000000001
#
# number of rings (size 3 to 8) (size 9 to 14) (size 15 to 20)
#    0.000    0.857    5.714    1.714    0.000    1.714 
#    5.143    0.000    0.000    0.000    0.000    0.000 
#    0.000    0.000    0.000    0.000    0.000    0.000 
#
# Total GULP energy -78192.797929 kJ/mol
# GULP energy per Si atom -5585.199852 kJ/mol
# Density = 2.905788 g / cm^3
# Si number density = 29.124168 Si / 1000 Ang^3
#
#
#
# Elastic Constant Matrix: (Units=GPa)
#
#
# Indices 1 2 3 4 5 6 
#
# 1 75.2115 27.1130 -11.4272 -7.1577 -2.8549 32.8116
# 2 27.1130 222.9579 50.4761 -21.4218 18.4078 25.4667
# 3 -11.4272 50.4761 144.8008 -14.3842 0.0301 -4.6324
# 4 -7.1577 -21.4218 -14.3842 53.3435 -7.0263 2.4970
# 5 -2.8549 18.4078 0.0301 -7.0263 18.5052 8.4023
# 6 32.8116 25.4667 -4.6324 2.4970 8.4023 63.1244
#
#
#
# Elastic Compliance Matrix: (Units=1/GPa)
#
#
# Indices 1 2 3 4 5 6 
#
# 1 0.020343 -0.002328 0.002513 0.004623 0.012325 -0.011274
# 2 -0.002328 0.005865 -0.002172 0.000742 -0.005638 -0.000594
# 3 0.002513 -0.002172 0.008059 0.002120 0.003518 -0.000391
# 4 0.004623 0.000742 0.002120 0.021837 0.010443 -0.004801
# 5 0.012325 -0.005638 0.003518 0.010443 0.071793 -0.013843
# 6 -0.011274 -0.000594 -0.000391 -0.004801 -0.013843 0.023945
#
#
# Mechanical properties :
#
#
# Convention : Reuss Voigt Hill
#
# Bulk Modulus (GPa) = 33.01226 63.92155 48.46691
# Shear Modulus (GPa) = 30.13603 52.11517 41.12560
#
# Velocity S-wave (km/s) = 3.22023 4.23473 3.76184
# Velocity P-wave (km/s) = 5.01858 6.77541 5.96206
#
# Compressibility (1/GPa) = 0.03029177
#
# Stress axis : x y z
#
# Youngs Moduli (GPa) = 49.15645 170.51080 124.08607
#
# Poissons Ratio (x) = 0.39702 -0.31185
# Poissons Ratio (y) = 0.11446 0.26955
# Poissons Ratio (z) = -0.12354 0.37039
#
# Static dielectric constant tensor:
#      x y z
#    x 2.126920 -0.125080 -0.317430 
#    y -0.125080 2.348380 -0.143750 
#    z -0.317430 -0.143750 2.082900 
# 
# From -- ./inp_files/346495.got.cif
#   From: 2010.05.17/outbox.cif.g08.bks.cpg/sg2_174_cif.got.tgz:346495.got - 2010.06.03 11:33:40.
