data_PCOD9018659
_publ_section_title
;
Structure prediction by ZEFSAII (Michael W. Deem and Ramdas Pophale) SiO2 
 PCOD9018659
Probable space group: P -1
;
_chemical_formula_sum "Si O2"
_cell_formula_units_Z 14
_cell_length_a 13.235425
_cell_length_b 9.817489
_cell_length_c 9.465943
_cell_angle_alpha 41.659725
_cell_angle_beta 126.090178
_cell_angle_gamma 121.449909
_cell_volume 653.000282
_symmetry_space_group_name_H-M "P -1"
_symmetry_group_IT_number 2
_symmetry_cell_setting 'triclinic'
loop_
_space_group_symop_operation_xyz
x,y,z
-x,-y,-z
loop_
_atom_site_type_symbol
_atom_site_label
_atom_site_fract_x
_atom_site_fract_y
_atom_site_fract_z
Si Si1 0.796704 0.444615 0.440794
Si Si2 0.431282 0.910491 0.154768
Si Si3 0.492986 0.771587 0.603724
Si Si4 0.953777 0.829090 0.712376
Si Si5 0.309967 0.197627 0.044628
Si Si6 0.897957 0.069158 0.756102
Si Si7 0.178901 0.589583 0.183570
O O1 0.645670 0.355646 0.387312
O O2 0.793029 0.669461 0.200554
O O3 0.885439 0.308625 0.535483
O O4 0.838856 0.442397 0.638823
O O5 0.510948 0.809971 0.420499
O O6 0.314200 0.730866 0.161720
O O7 0.500000 0.000000 0.000000
O O8 0.379539 0.099918 0.048584
O O9 0.500000 0.000000 0.500000
O O10 0.597225 0.682212 0.853686
O O11 0.846234 0.640296 0.723989
O O12 0.907914 0.948888 0.713937
O O13 0.000000 0.000000 0.500000
O O14 0.073416 0.719436 0.939288
O O15 0.233083 0.006743 0.212846
O O16 0.000000 0.000000 0.000000
#
# Coordination Sequence:
#
# PCOD9018659 Si02
#       7
#     2   2   2   2   2   2   2
#     4  11  22  41  73  94 136 180 226 276 342 405
#     4  10  21  43  73  99 141 183 223 282 347 409
#     4   9  18  42  63  95 132 171 224 279 322 401
#     4  11  26  45  71  96 140 179 228 289 347 403
#     4  11  23  42  69 100 137 178 225 284 337 402
#     4  12  24  45  69 100 133 177 233 285 333 412
#     4  10  23  46  65 104 138 174 233 284 341 417
#
# _framework density 21.439501
#
# number of rings (size 3 to 8) (size 9 to 14) (size 15 to 20)
#    0.000    1.429    5.714    0.429    4.000    4.000 
#    7.714    1.429    0.000    0.000    0.000    1.000 
#    0.000    0.000    0.000    0.000    0.000    0.000 
#
# Total GULP energy -78166.097468 kJ/mol
# GULP energy per Si atom -5583.292676 kJ/mol
# Density = 2.139070 g / cm^3
# Si number density = 21.439501 Si / 1000 Ang^3
#
#
#
# Elastic Constant Matrix: (Units=GPa)
#
#
# Indices 1 2 3 4 5 6 
#
# 1 92.9465 51.7866 36.0587 6.0609 -16.1616 -17.0215
# 2 51.7866 131.2903 52.8564 10.4272 -9.1016 -14.6694
# 3 36.0587 52.8564 136.5584 -2.5635 -0.9818 -6.0107
# 4 6.0609 10.4272 -2.5635 36.0738 0.3849 4.3035
# 5 -16.1616 -9.1016 -0.9818 0.3849 30.2615 -0.7143
# 6 -17.0215 -14.6694 -6.0107 4.3035 -0.7143 38.1525
#
#
#
# Elastic Compliance Matrix: (Units=1/GPa)
#
#
# Indices 1 2 3 4 5 6 
#
# 1 0.016633 -0.004154 -0.002519 -0.002554 0.007723 0.005859
# 2 -0.004154 0.011092 -0.003145 -0.003015 0.001108 0.002277
# 3 -0.002519 -0.003145 0.009179 0.002146 -0.002048 -0.001167
# 4 -0.002554 -0.003015 0.002146 0.029845 -0.002708 -0.005378
# 5 0.007723 0.001108 -0.002048 -0.002708 0.037579 0.004558
# 6 0.005859 0.002277 -0.001167 -0.005378 0.004558 0.030208
#
#
# Mechanical properties :
#
#
# Convention : Reuss Voigt Hill
#
# Bulk Modulus (GPa) = 57.90571 71.35543 64.63057
# Shear Modulus (GPa) = 31.26434 35.57046 33.41740
#
# Velocity S-wave (km/s) = 3.82286 4.07763 3.95230
# Velocity P-wave (km/s) = 6.82299 7.45144 7.14413
#
# Compressibility (1/GPa) = 0.01726946
#
# Stress axis : x y z
#
# Youngs Moduli (GPa) = 60.12214 90.15600 108.93993
#
# Poissons Ratio (x) = 0.37449 0.27439
# Poissons Ratio (y) = 0.24973 0.34260
# Poissons Ratio (z) = 0.15143 0.28353
#
# Static dielectric constant tensor:
#      x y z
#    x 1.757620 0.048770 0.023820 
#    y 0.048770 2.285460 -0.348020 
#    z 0.023820 -0.348020 2.065480 
# 
# From -- ./inp_files/242273.got.cif
#   From: 2010.05.17/outbox.cif.g08.bks.cpg/sg2_122_cif.got.tgz:242273.got - 2010.06.03 11:33:40.
