data_PCOD9018023
_publ_section_title
;
Structure prediction by ZEFSAII (Michael W. Deem and Ramdas Pophale) SiO2 
 PCOD9018023
Probable space group: P -1
;
_chemical_formula_sum "Si O2"
_cell_formula_units_Z 16
_cell_length_a 19.054637
_cell_length_b 8.419312
_cell_length_c 19.905358
_cell_angle_alpha 139.837368
_cell_angle_beta 158.796589
_cell_angle_gamma 53.211445
_cell_volume 650.578980
_symmetry_space_group_name_H-M "P -1"
_symmetry_group_IT_number 2
_symmetry_cell_setting 'triclinic'
loop_
_space_group_symop_operation_xyz
x,y,z
-x,-y,-z
loop_
_atom_site_type_symbol
_atom_site_label
_atom_site_fract_x
_atom_site_fract_y
_atom_site_fract_z
Si Si1 0.195884 0.875126 0.209200
Si Si2 0.709468 0.589764 0.264731
Si Si3 0.278029 0.354695 0.125923
Si Si4 0.097278 0.090592 0.689303
Si Si5 0.111594 0.562684 0.384462
Si Si6 0.183694 0.165517 0.417411
Si Si7 0.263175 0.343887 0.320728
Si Si8 0.591137 0.970144 0.973244
O O1 0.267483 0.638408 0.192866
O O2 0.296032 0.078885 0.429361
O O3 0.249546 0.063286 0.250732
O O4 0.925427 0.732427 0.927713
O O5 0.924704 0.850449 0.508087
O O6 0.686918 0.688121 0.351572
O O7 0.724051 0.303420 0.189452
O O8 0.500000 0.500000 0.000000
O O9 0.476761 0.437269 0.384195
O O10 0.348481 0.214197 0.083560
O O11 0.029978 0.121968 0.845246
O O12 0.332822 0.105582 0.913877
O O13 0.090868 0.378807 0.788674
O O14 0.000000 0.000000 0.500000
O O15 0.094853 0.358342 0.363871
O O16 0.171313 0.459190 0.336315
O O17 0.332242 0.854448 0.693442
#
# Coordination Sequence:
#
# PCOD9018023 Si02
#       8
#     2   2   2   2   2   2   2   2
#     4  10  21  43  67  99 134 176 218 279 331 396
#     4  12  26  46  68  98 136 183 223 281 339 395
#     4  11  22  40  69  97 131 177 217 273 331 397
#     4  12  25  40  68  96 127 175 225 276 333 398
#     4  10  23  44  63 102 134 178 217 276 339 395
#     4  11  25  42  67  98 144 173 226 281 331 401
#     4   9  21  40  70  96 134 173 224 270 334 401
#     4  11  24  44  70  95 135 176 224 277 332 398
#
# _framework density 24.593478999999999
#
# number of rings (size 3 to 8) (size 9 to 14) (size 15 to 20)
#    0.000    1.250    2.500    2.625    3.500    1.500 
#    0.000    2.500    0.000    0.000    0.000    0.000 
#    0.000    0.000    0.000    0.000    0.000    0.000 
#
# Total GULP energy -89495.210672 kJ/mol
# GULP energy per Si atom -5593.450667 kJ/mol
# Density = 2.453750 g / cm^3
# Si number density = 24.593479 Si / 1000 Ang^3
#
#
#
# Elastic Constant Matrix: (Units=GPa)
#
#
# Indices 1 2 3 4 5 6 
#
# 1 72.9622 31.7742 28.4187 1.2533 -35.1778 -7.8434
# 2 31.7742 138.1563 26.4977 1.4502 -16.5896 -19.1900
# 3 28.4187 26.4977 120.1007 -9.4880 -26.1470 -3.8446
# 4 1.2533 1.4502 -9.4880 42.2477 2.6221 -1.5629
# 5 -35.1778 -16.5896 -26.1470 2.6221 49.2350 0.0673
# 6 -7.8434 -19.1900 -3.8446 -1.5629 0.0673 20.4502
#
#
#
# Elastic Compliance Matrix: (Units=1/GPa)
#
#
# Indices 1 2 3 4 5 6 
#
# 1 0.023356 -0.002355 -0.001653 -0.001689 0.015098 0.006259
# 2 -0.002355 0.009117 -0.001055 -0.000257 0.000833 0.007431
# 3 -0.001653 -0.001055 0.009916 0.002102 0.003617 0.000388
# 4 -0.001689 -0.000257 0.002102 0.024343 -0.001475 0.001372
# 5 0.015098 0.000833 0.003617 -0.001475 0.033368 0.007029
# 6 0.006259 0.007431 0.000388 0.001372 0.007029 0.058428
#
#
# Mechanical properties :
#
#
# Convention : Reuss Voigt Hill
#
# Bulk Modulus (GPa) = 30.99544 56.06671 43.53108
# Shear Modulus (GPa) = 27.86923 38.68849 33.27886
#
# Velocity S-wave (km/s) = 3.36995 3.97056 3.68252
# Velocity P-wave (km/s) = 5.26997 6.62324 5.98498
#
# Compressibility (1/GPa) = 0.03226281
#
# Stress axis : x y z
#
# Youngs Moduli (GPa) = 42.81561 109.68485 100.84354
#
# Poissons Ratio (x) = 0.25825 0.16672
# Poissons Ratio (y) = 0.10081 0.10644
# Poissons Ratio (z) = 0.07079 0.11577
#
# Static dielectric constant tensor:
#      x y z
#    x 2.027550 -0.029100 -0.023250 
#    y -0.029100 2.017440 0.022470 
#    z -0.023250 0.022470 2.012570 
# 
# From -- ./inp_files/601246.got.cif
#   From: 2010.05.17/outbox.cif.g08.bks.cpg/sg2_301_cif.got.tgz:601246.got - 2010.06.03 11:33:40.
