data_PCOD9018947
_publ_section_title
;
Structure prediction by ZEFSAII (Michael W. Deem and Ramdas Pophale) SiO2 
 PCOD9018947
Probable space group: P -1
;
_chemical_formula_sum "Si O2"
_cell_formula_units_Z 13
_cell_length_a 9.669872
_cell_length_b 8.167141
_cell_length_c 12.400625
_cell_angle_alpha 51.037872
_cell_angle_beta 136.589315
_cell_angle_gamma 105.285861
_cell_volume 487.932780
_symmetry_space_group_name_H-M "P -1"
_symmetry_group_IT_number 2
_symmetry_cell_setting 'triclinic'
loop_
_space_group_symop_operation_xyz
x,y,z
-x,-y,-z
loop_
_atom_site_type_symbol
_atom_site_label
_atom_site_fract_x
_atom_site_fract_y
_atom_site_fract_z
Si Si1 0.447770 0.337003 0.804874
Si Si2 0.832568 0.832211 0.430076
Si Si3 0.111800 0.835614 0.386832
Si Si4 0.035583 0.346103 0.833430
Si Si5 0.217750 0.511739 0.167007
Si Si6 0.510877 0.747415 0.900349
Si Si7 0.500000 0.000000 0.500000
O O1 0.354725 0.249790 0.686658
O O2 0.277273 0.589429 0.619465
O O3 0.678251 0.348988 0.906061
O O4 0.447368 0.212418 0.967537
O O5 0.994206 0.608641 0.671183
O O6 0.938953 0.902164 0.357910
O O7 0.708580 0.053632 0.338103
O O8 0.001181 0.785594 0.236408
O O9 0.257856 0.980546 0.384252
O O10 0.857704 0.363192 0.814330
O O11 0.285733 0.246052 0.055275
O O12 0.398997 0.263176 0.380632
O O13 0.000000 0.500000 0.000000
O O14 0.500000 0.500000 0.000000
#
# Coordination Sequence:
#
# PCOD9018947 Si02
#       7
#     2   2   2   2   2   2   1
#     4  10  21  44  66  97 133 177 226 269 335 401
#     4  11  23  42  74  93 135 179 219 284 335 389
#     4  10  21  44  70 100 134 181 220 279 338 397
#     4  11  24  45  69 102 133 176 231 273 330 405
#     4  11  26  45  68  96 143 179 217 283 333 394
#     4  12  25  39  67 104 133 172 231 273 331 403
#     4  10  26  42  70  96 140 178 220 262 358 398
#
# _framework density 26.643014999999998
#
# number of rings (size 3 to 8) (size 9 to 14) (size 15 to 20)
#    0.000    1.231    3.077    2.308    4.308    9.846 
#    0.000    1.538    0.000    0.000    0.000    0.000 
#    0.000    0.000    0.000    0.000    0.000    0.000 
#
# Total GULP energy -72668.762439 kJ/mol
# GULP energy per Si atom -5589.904803 kJ/mol
# Density = 2.658237 g / cm^3
# Si number density = 26.643015 Si / 1000 Ang^3
#
#
#
# Elastic Constant Matrix: (Units=GPa)
#
#
# Indices 1 2 3 4 5 6 
#
# 1 129.7703 18.4108 41.7155 3.2663 39.5661 7.9943
# 2 18.4108 78.4640 41.0949 -1.9765 17.2324 12.0712
# 3 41.7155 41.0949 61.9198 -11.2539 31.6957 -5.2647
# 4 3.2663 -1.9765 -11.2539 52.4604 3.4173 6.0287
# 5 39.5661 17.2324 31.6957 3.4173 44.8262 8.0539
# 6 7.9943 12.0712 -5.2647 6.0287 8.0539 40.9816
#
#
#
# Elastic Compliance Matrix: (Units=1/GPa)
#
#
# Indices 1 2 3 4 5 6 
#
# 1 0.011525 0.002645 -0.007196 -0.001498 -0.005511 -0.002648
# 2 0.002645 0.024404 -0.023137 -0.003335 0.006974 -0.011557
# 3 -0.007196 -0.023137 0.053660 0.010676 -0.026892 0.018827
# 4 -0.001498 -0.003335 0.010676 0.021669 -0.006737 0.000782
# 5 -0.005511 0.006974 -0.026892 -0.006737 0.046273 -0.012537
# 6 -0.002648 -0.011557 0.018827 0.000782 -0.012537 0.033089
#
#
# Mechanical properties :
#
#
# Convention : Reuss Voigt Hill
#
# Bulk Modulus (GPa) = 29.22887 52.51070 40.86979
# Shear Modulus (GPa) = 19.42493 38.91582 29.17037
#
# Velocity S-wave (km/s) = 2.70308 3.82598 3.31246
# Velocity P-wave (km/s) = 4.55374 6.26652 5.47749
#
# Compressibility (1/GPa) = 0.03421275
#
# Stress axis : x y z
#
# Youngs Moduli (GPa) = 86.76695 40.97665 18.63576
#
# Poissons Ratio (x) = -0.10837 0.13411
# Poissons Ratio (y) = -0.22947 0.43117
# Poissons Ratio (z) = 0.62439 0.94807
#
# Static dielectric constant tensor:
#      x y z
#    x 2.098520 -0.056930 -0.059880 
#    y -0.056930 2.102380 -0.012750 
#    z -0.059880 -0.012750 1.980570 
# 
# From -- ./inp_files/159173.got.cif
#   From: 2010.05.17/outbox.cif.g08.bks.cpg/sg2_80_cif.got.tgz:159173.got - 2010.06.03 11:33:40.
