data_PCOD9018606
_publ_section_title
;
Structure prediction by ZEFSAII (Michael W. Deem and Ramdas Pophale) SiO2 
 PCOD9018606
Probable space group: P -1
;
_chemical_formula_sum "Si O2"
_cell_formula_units_Z 16
_cell_length_a 9.810885
_cell_length_b 14.714691
_cell_length_c 5.182243
_cell_angle_alpha 76.613584
_cell_angle_beta 97.749954
_cell_angle_gamma 108.256841
_cell_volume 689.593203
_symmetry_space_group_name_H-M "P -1"
_symmetry_group_IT_number 2
_symmetry_cell_setting 'triclinic'
loop_
_space_group_symop_operation_xyz
x,y,z
-x,-y,-z
loop_
_atom_site_type_symbol
_atom_site_label
_atom_site_fract_x
_atom_site_fract_y
_atom_site_fract_z
Si Si1 0.885728 0.343060 0.554698
Si Si2 0.895958 0.530980 0.145877
Si Si3 0.940896 0.181334 0.381975
Si Si4 0.606319 0.874100 0.092577
Si Si5 0.427528 0.696768 0.444414
Si Si6 0.077770 0.116074 0.957958
Si Si7 0.617787 0.061827 0.290279
Si Si8 0.592220 0.432492 0.972463
O O1 0.863375 0.447590 0.413781
O O2 0.927658 0.289431 0.355885
O O3 0.727958 0.283526 0.651376
O O4 0.019006 0.367906 0.768178
O O5 0.749857 0.510123 0.968569
O O6 0.000000 0.500000 0.000000
O O7 0.775667 0.113476 0.403688
O O8 0.033155 0.159072 0.656019
O O9 0.012539 0.159235 0.153955
O O10 0.555221 0.794562 0.357944
O O11 0.749823 0.864493 0.999969
O O12 0.640338 0.984030 0.138382
O O13 0.462898 0.863759 0.894157
O O14 0.425196 0.651508 0.758196
O O15 0.439962 0.619114 0.278757
O O16 0.000000 0.000000 0.000000
O O17 0.500000 0.000000 0.500000
O O18 0.500000 0.500000 0.000000
#
# Coordination Sequence:
#
# PCOD9018606 Si02
#       8
#     2   2   2   2   2   2   2   2
#     4  10  24  43  70 106 136 179 246 287 356 419
#     4  10  21  43  72  97 137 185 224 297 351 423
#     4  12  28  45  77 103 144 189 244 300 352 434
#     4  11  27  45  71 106 147 188 248 290 370 428
#     4  11  25  44  73 104 141 189 232 303 351 427
#     4  12  27  50  69 104 148 196 233 301 370 417
#     4  11  25  44  75 104 140 196 242 301 345 442
#     4  11  25  46  71 102 145 184 236 290 364 430
#
# _framework density 23.202086000000001
#
# number of rings (size 3 to 8) (size 9 to 14) (size 15 to 20)
#    0.000    1.000    2.500    2.250   12.250    1.000 
#    2.250    0.000    0.000    0.000    0.000    0.000 
#    0.000    0.000    0.000    0.000    0.000    0.000 
#
# Total GULP energy -89464.004814 kJ/mol
# GULP energy per Si atom -5591.500301 kJ/mol
# Density = 2.314928 g / cm^3
# Si number density = 23.202086 Si / 1000 Ang^3
#
#
#
# Elastic Constant Matrix: (Units=GPa)
#
#
# Indices 1 2 3 4 5 6 
#
# 1 154.3271 38.7854 15.6281 7.4103 -24.5587 0.3483
# 2 38.7854 91.4850 16.2291 19.1076 -13.9702 -12.5257
# 3 15.6281 16.2291 84.2950 9.9571 -19.1729 -5.4100
# 4 7.4103 19.1076 9.9571 38.0864 -5.8198 -11.4522
# 5 -24.5587 -13.9702 -19.1729 -5.8198 36.2607 -0.5466
# 6 0.3483 -12.5257 -5.4100 -11.4522 -0.5466 29.0524
#
#
#
# Elastic Compliance Matrix: (Units=1/GPa)
#
#
# Indices 1 2 3 4 5 6 
#
# 1 0.007874 -0.002895 -0.000047 0.000220 0.004210 -0.001186
# 2 -0.002895 0.014233 -0.000832 -0.004734 0.002386 0.004195
# 3 -0.000047 -0.000832 0.013870 -0.001659 0.006741 0.001697
# 4 0.000220 -0.004734 -0.001659 0.032633 0.002845 0.010565
# 5 0.004210 0.002386 0.006741 0.002845 0.035430 0.004021
# 6 -0.001186 0.004195 0.001697 0.010565 0.004021 0.040800
#
#
# Mechanical properties :
#
#
# Convention : Reuss Voigt Hill
#
# Bulk Modulus (GPa) = 35.17583 52.37692 43.77637
# Shear Modulus (GPa) = 30.88970 37.97754 34.43362
#
# Velocity S-wave (km/s) = 3.65270 4.05015 3.85655
# Velocity P-wave (km/s) = 5.74310 6.67044 6.22407
#
# Compressibility (1/GPa) = 0.02842861
#
# Stress axis : x y z
#
# Youngs Moduli (GPa) = 126.99632 70.25772 72.09741
#
# Poissons Ratio (x) = 0.20341 0.00338
# Poissons Ratio (y) = 0.36769 0.06001
# Poissons Ratio (z) = 0.00595 0.05848
#
# Static dielectric constant tensor:
#      x y z
#    x 1.851800 0.027730 0.035670 
#    y 0.027730 1.928110 -0.047820 
#    z 0.035670 -0.047820 1.933120 
# 
# From -- ./inp_files/38057.got.cif
#   From: 2010.05.17/outbox.cif.g08.bks.cpg/sg2_20_cif.got.tgz:38057.got - 2010.06.03 11:33:40.
