data_PCOD9018299
_publ_section_title
;
Structure prediction by ZEFSAII (Michael W. Deem and Ramdas Pophale) SiO2 
 PCOD9018299
Probable space group: P -1
;
_chemical_formula_sum "Si O2"
_cell_formula_units_Z 16
_cell_length_a 8.709407
_cell_length_b 15.160168
_cell_length_c 8.587599
_cell_angle_alpha 65.493029
_cell_angle_beta 128.137212
_cell_angle_gamma 79.706605
_cell_volume 644.512467
_symmetry_space_group_name_H-M "P -1"
_symmetry_group_IT_number 2
_symmetry_cell_setting 'triclinic'
loop_
_space_group_symop_operation_xyz
x,y,z
-x,-y,-z
loop_
_atom_site_type_symbol
_atom_site_label
_atom_site_fract_x
_atom_site_fract_y
_atom_site_fract_z
Si Si1 0.380043 0.163210 0.136411
Si Si2 0.003476 0.747044 0.893390
Si Si3 0.837046 0.124445 0.604363
Si Si4 0.172477 0.376788 0.597464
Si Si5 0.273837 0.845101 0.141911
Si Si6 0.581843 0.923328 0.266894
Si Si7 0.793582 0.344851 0.340949
Si Si8 0.491364 0.554781 0.216401
O O1 0.190488 0.226731 0.115675
O O2 0.645188 0.127336 0.372925
O O3 0.424315 0.037098 0.209057
O O4 0.282407 0.261418 0.865630
O O5 0.844543 0.834782 0.583447
O O6 0.157134 0.790623 0.023556
O O7 0.232798 0.606962 0.097980
O O8 0.702847 0.181293 0.642125
O O9 0.922810 0.203529 0.546067
O O10 0.069873 0.988936 0.880043
O O11 0.370370 0.396837 0.649956
O O12 0.000000 0.500000 0.500000
O O13 0.973065 0.376263 0.375000
O O14 0.516916 0.830103 0.261800
O O15 0.500000 0.000000 0.000000
O O16 0.674008 0.413905 0.381121
O O17 0.589835 0.386049 0.051788
#
# Coordination Sequence:
#
# PCOD9018299 Si02
#       8
#     2   2   2   2   2   2   2   2
#     4  12  23  46  71  99 139 184 223 280 343 403
#     4  12  26  45  68 104 140 176 229 284 333 412
#     4  11  21  42  72  96 133 182 228 271 345 401
#     4  10  22  42  70  98 129 177 225 277 334 400
#     4  11  24  41  66  99 134 178 223 281 339 399
#     4  12  28  42  67 103 139 179 227 278 341 409
#     4  10  21  43  69  96 133 179 218 283 335 396
#     4  10  24  41  68  99 134 172 230 276 336 399
#
# _framework density 24.824967999999998
#
# number of rings (size 3 to 8) (size 9 to 14) (size 15 to 20)
#    0.000    1.000    3.750    3.375    5.250    0.500 
#    0.000    6.250    0.000    0.000    0.000    0.000 
#    0.000    0.000    0.000    0.000    0.000    0.000 
#
# Total GULP energy -89359.034667 kJ/mol
# GULP energy per Si atom -5584.939667 kJ/mol
# Density = 2.476847 g / cm^3
# Si number density = 24.824968 Si / 1000 Ang^3
#
#
#
# Elastic Constant Matrix: (Units=GPa)
#
#
# Indices 1 2 3 4 5 6 
#
# 1 63.8668 10.0254 -5.1351 -5.1712 14.0671 -18.7139
# 2 10.0254 88.1392 10.3917 10.7088 8.5244 11.2538
# 3 -5.1351 10.3917 66.1610 14.7402 14.7351 3.4872
# 4 -5.1712 10.7088 14.7402 43.8597 2.5239 11.5550
# 5 14.0671 8.5244 14.7351 2.5239 38.6437 0.4882
# 6 -18.7139 11.2538 3.4872 11.5550 0.4882 39.9858
#
#
#
# Elastic Compliance Matrix: (Units=1/GPa)
#
#
# Indices 1 2 3 4 5 6 
#
# 1 0.021549 -0.003410 0.003593 -0.000211 -0.008586 0.010897
# 2 -0.003410 0.012784 -0.001444 -0.001793 -0.000854 -0.004539
# 3 0.003593 -0.001444 0.018457 -0.005558 -0.007692 0.002178
# 4 -0.000211 -0.001793 -0.005558 0.026839 0.000926 -0.006877
# 5 -0.008586 -0.000854 -0.007692 0.000926 0.032111 -0.003767
# 6 0.010897 -0.004539 0.002178 -0.006877 -0.003767 0.033230
#
#
# Mechanical properties :
#
#
# Convention : Reuss Voigt Hill
#
# Bulk Modulus (GPa) = 19.89338 27.63678 23.76508
# Shear Modulus (GPa) = 30.44192 38.02351 34.23271
#
# Velocity S-wave (km/s) = 3.50560 3.91789 3.71747
# Velocity P-wave (km/s) = 4.94131 5.62346 5.29339
#
# Compressibility (1/GPa) = 0.05026799
#
# Stress axis : x y z
#
# Youngs Moduli (GPa) = 46.40616 78.22400 54.18056
#
# Poissons Ratio (x) = 0.26675 -0.19467
# Poissons Ratio (y) = 0.15825 0.07822
# Poissons Ratio (z) = -0.16674 0.11293
#
# Static dielectric constant tensor:
#      x y z
#    x 2.046440 -0.071840 0.054860 
#    y -0.071840 2.002210 -0.028000 
#    z 0.054860 -0.028000 1.943740 
# 
# From -- ./inp_files/206535.got.cif
#   From: 2010.05.17/outbox.cif.g08.bks.cpg/sg2_104_cif.got.tgz:206535.got - 2010.06.03 11:33:40.
