data_PCOD9018904
_publ_section_title
;
Structure prediction by ZEFSAII (Michael W. Deem and Ramdas Pophale) SiO2 
 PCOD9018904
Probable space group: P -1
;
_chemical_formula_sum "Si O2"
_cell_formula_units_Z 14
_cell_length_a 7.081950
_cell_length_b 5.622443
_cell_length_c 19.087498
_cell_angle_alpha 87.220025
_cell_angle_beta 53.727754
_cell_angle_gamma 104.440786
_cell_volume 574.372900
_symmetry_space_group_name_H-M "P -1"
_symmetry_group_IT_number 2
_symmetry_cell_setting 'triclinic'
loop_
_space_group_symop_operation_xyz
x,y,z
-x,-y,-z
loop_
_atom_site_type_symbol
_atom_site_label
_atom_site_fract_x
_atom_site_fract_y
_atom_site_fract_z
Si Si1 0.459944 0.534247 0.626277
Si Si2 0.716998 0.882008 0.452668
Si Si3 0.577919 0.026451 0.098559
Si Si4 0.522196 0.241165 0.749035
Si Si5 0.147352 0.002134 0.270468
Si Si6 0.843131 0.205965 0.237744
Si Si7 0.277940 0.616016 0.057654
O O1 0.693528 0.737899 0.533371
O O2 0.362761 0.314986 0.592311
O O3 0.515733 0.449220 0.692335
O O4 0.238253 0.642396 0.686563
O O5 0.996403 0.056146 0.367996
O O6 0.500000 0.000000 0.500000
O O7 0.649383 0.846043 0.141767
O O8 0.422873 0.163400 0.178131
O O9 0.382515 0.828703 0.091943
O O10 0.757719 0.236292 0.006097
O O11 0.790542 0.249397 0.718284
O O12 0.415532 0.983893 0.731217
O O13 0.984509 0.026558 0.239852
O O14 0.026997 0.398859 0.140634
O O15 0.500000 0.500000 0.000000
#
# Coordination Sequence:
#
# PCOD9018904 Si02
#       7
#     2   2   2   2   2   2   2
#     4  11  23  39  68  96 127 172 220 260 328 383
#     4  11  21  41  68  96 125 173 219 264 321 386
#     4   9  23  42  62  97 129 166 219 261 318 386
#     4  10  24  43  63  99 133 168 217 265 324 386
#     4  10  21  44  66  88 136 169 208 270 320 379
#     4  12  23  42  69  94 134 170 217 269 322 383
#     4  11  21  39  70  95 124 176 217 261 324 382
#
# _framework density 24.374412
#
# number of rings (size 3 to 8) (size 9 to 14) (size 15 to 20)
#    0.857    0.571    4.286    0.857    0.000    3.429 
#    0.000    4.286    0.000    0.000    0.000    0.000 
#    0.000    0.000    0.000    0.000    0.000    0.000 
#
# Total GULP energy -77941.039952 kJ/mol
# GULP energy per Si atom -5567.217139 kJ/mol
# Density = 2.431893 g / cm^3
# Si number density = 24.374412 Si / 1000 Ang^3
#
#
#
# Elastic Constant Matrix: (Units=GPa)
#
#
# Indices 1 2 3 4 5 6 
#
# 1 76.5176 27.5998 23.7812 -8.3221 24.3846 -24.3174
# 2 27.5998 68.7579 45.7778 -18.3990 7.2510 -6.2638
# 3 23.7812 45.7778 156.5835 -34.6757 9.8379 -18.9370
# 4 -8.3221 -18.3990 -34.6757 56.7172 -22.5086 10.6564
# 5 24.3846 7.2510 9.8379 -22.5086 44.1375 -15.6368
# 6 -24.3174 -6.2638 -18.9370 10.6564 -15.6368 37.8926
#
#
#
# Elastic Compliance Matrix: (Units=1/GPa)
#
#
# Indices 1 2 3 4 5 6 
#
# 1 0.021780 -0.008015 -0.000339 -0.005395 -0.009876 0.009925
# 2 -0.008015 0.021488 -0.004660 0.004898 0.002995 -0.004062
# 3 -0.000339 -0.004660 0.008985 0.004214 0.002249 0.003245
# 4 -0.005395 0.004898 0.004214 0.027086 0.014239 -0.002288
# 5 -0.009876 0.002995 0.002249 0.014239 0.036648 0.006400
# 6 0.009925 -0.004062 0.003245 -0.002288 0.006400 0.036995
#
#
# Mechanical properties :
#
#
# Convention : Reuss Voigt Hill
#
# Bulk Modulus (GPa) = 38.13071 55.13074 46.63072
# Shear Modulus (GPa) = 26.63121 41.39615 34.01368
#
# Velocity S-wave (km/s) = 3.30902 4.12557 3.73965
# Velocity P-wave (km/s) = 5.50247 6.73507 6.14973
#
# Compressibility (1/GPa) = 0.02622558
#
# Stress axis : x y z
#
# Youngs Moduli (GPa) = 45.91420 46.53733 111.30242
#
# Poissons Ratio (x) = 0.37301 0.03768
# Poissons Ratio (y) = 0.36801 0.51863
# Poissons Ratio (z) = 0.01554 0.21685
#
# Static dielectric constant tensor:
#      x y z
#    x 1.987590 0.000470 0.015750 
#    y 0.000470 2.007610 -0.040030 
#    z 0.015750 -0.040030 1.959960 
# 
# From -- ./inp_files/585306.got.cif
#   From: 2010.05.17/outbox.cif.g08.bks.cpg/sg2_293_cif.got.tgz:585306.got - 2010.06.03 11:33:40.
