data_PCOD9018571
_publ_section_title
;
Structure prediction by ZEFSAII (Michael W. Deem and Ramdas Pophale) SiO2 
 PCOD9018571
Probable space group: P -1
;
_chemical_formula_sum "Si O2"
_cell_formula_units_Z 15
_cell_length_a 13.117984
_cell_length_b 5.296943
_cell_length_c 10.577415
_cell_angle_alpha 96.658418
_cell_angle_beta 62.993426
_cell_angle_gamma 65.496726
_cell_volume 552.291447
_symmetry_space_group_name_H-M "P -1"
_symmetry_group_IT_number 2
_symmetry_cell_setting 'triclinic'
loop_
_space_group_symop_operation_xyz
x,y,z
-x,-y,-z
loop_
_atom_site_type_symbol
_atom_site_label
_atom_site_fract_x
_atom_site_fract_y
_atom_site_fract_z
Si Si1 0.500000 0.500000 0.000000
Si Si2 0.766191 0.034162 0.934575
Si Si3 0.732912 0.619321 0.105800
Si Si4 0.786711 0.150320 0.427993
Si Si5 0.030999 0.688264 0.397814
Si Si6 0.323318 0.359851 0.267454
Si Si7 0.052408 0.727439 0.853701
Si Si8 0.545631 0.103597 0.600292
O O1 0.653265 0.182892 0.897626
O O2 0.562061 0.656230 0.885723
O O3 0.773519 0.326587 0.984189
O O4 0.926473 0.788149 0.842679
O O5 0.703917 0.910326 0.063737
O O6 0.854197 0.558098 0.127582
O O7 0.597359 0.658707 0.244605
O O8 0.741187 0.346553 0.591144
O O9 0.837379 0.280667 0.301472
O O10 0.649606 0.169221 0.478396
O O11 0.916463 0.823434 0.363031
O O12 0.188978 0.452574 0.267003
O O13 0.000000 0.500000 0.500000
O O14 0.000000 0.000000 0.500000
O O15 0.377703 0.108666 0.333315
O O16 0.000000 0.000000 0.000000
O O17 0.500000 0.000000 0.500000
#
# Coordination Sequence:
#
# PCOD9018571 Si02
#       8
#     1   2   2   2   2   2   2   2
#     4  12  24  46  76 104 156 186 248 298 374 438
#     4  11  25  48  72 109 142 194 239 310 366 438
#     4  11  25  48  72 102 151 188 249 300 369 433
#     4  11  24  46  70 106 147 192 247 306 372 438
#     4  10  21  43  72 100 142 187 241 299 359 436
#     4  11  24  46  69 109 143 196 242 303 369 440
#     4  10  24  46  74 103 143 195 247 304 365 434
#     4  12  26  41  73 103 146 195 244 304 367 443
#
# _framework density 27.159573999999999
#
# number of rings (size 3 to 8) (size 9 to 14) (size 15 to 20)
#    0.000    1.067    2.667    2.800    3.733    1.600 
#    7.200    5.333    0.000    0.000    0.000    0.000 
#    0.000    0.000    0.000    0.000    0.000    0.000 
#
# Total GULP energy -83585.610119 kJ/mol
# GULP energy per Si atom -5572.374008 kJ/mol
# Density = 2.709776 g / cm^3
# Si number density = 27.159574 Si / 1000 Ang^3
#
#
#
# Elastic Constant Matrix: (Units=GPa)
#
#
# Indices 1 2 3 4 5 6 
#
# 1 130.6770 27.6408 50.9575 7.2628 -25.5308 -25.8661
# 2 27.6408 126.6934 16.0695 -5.2860 -1.8692 -34.1108
# 3 50.9575 16.0695 114.2418 -18.9770 -39.7885 -4.9815
# 4 7.2628 -5.2860 -18.9770 50.1890 -7.8390 -16.7467
# 5 -25.5308 -1.8692 -39.7885 -7.8390 45.7420 2.3416
# 6 -25.8661 -34.1108 -4.9815 -16.7467 2.3416 48.3846
#
#
#
# Elastic Compliance Matrix: (Units=1/GPa)
#
#
# Indices 1 2 3 4 5 6 
#
# 1 0.010668 -0.000720 -0.004034 -0.001443 0.001955 0.004186
# 2 -0.000720 0.010485 -0.000022 0.004042 0.000270 0.008390
# 3 -0.004034 -0.000022 0.017437 0.010273 0.014549 0.002475
# 4 -0.001443 0.004042 0.010273 0.030862 0.012909 0.013193
# 5 0.001955 0.000270 0.014549 0.012909 0.037556 0.005384
# 6 0.004186 0.008390 0.002475 0.013193 0.005384 0.033381
#
#
# Mechanical properties :
#
#
# Convention : Reuss Voigt Hill
#
# Bulk Modulus (GPa) = 34.43666 62.32754 48.38210
# Shear Modulus (GPa) = 31.32418 47.32608 39.32513
#
# Velocity S-wave (km/s) = 3.39977 4.17888 3.80929
# Velocity P-wave (km/s) = 5.30265 6.80312 6.09921
#
# Compressibility (1/GPa) = 0.02903882
#
# Stress axis : x y z
#
# Youngs Moduli (GPa) = 93.73437 95.37809 57.34839
#
# Poissons Ratio (x) = 0.06869 0.23132
# Poissons Ratio (y) = 0.06750 0.00127
# Poissons Ratio (z) = 0.37808 0.00211
#
# Static dielectric constant tensor:
#      x y z
#    x 2.931910 -0.249620 0.611660 
#    y -0.249620 2.159790 -0.233100 
#    z 0.611660 -0.233100 2.384800 
# 
# From -- ./inp_files/66133.got.cif
#   From: 2010.05.17/outbox.cif.g08.bks.cpg/sg2_34_cif.got.tgz:66133.got - 2010.06.03 11:33:40.
