data_PCOD9018341
_publ_section_title
;
Structure prediction by ZEFSAII (Michael W. Deem and Ramdas Pophale) SiO2 
 PCOD9018341
Probable space group: P -1
;
_chemical_formula_sum "Si O2"
_cell_formula_units_Z 16
_cell_length_a 7.717119
_cell_length_b 12.266867
_cell_length_c 8.747587
_cell_angle_alpha 126.721823
_cell_angle_beta 62.038070
_cell_angle_gamma 111.177601
_cell_volume 582.426091
_symmetry_space_group_name_H-M "P -1"
_symmetry_group_IT_number 2
_symmetry_cell_setting 'triclinic'
loop_
_space_group_symop_operation_xyz
x,y,z
-x,-y,-z
loop_
_atom_site_type_symbol
_atom_site_label
_atom_site_fract_x
_atom_site_fract_y
_atom_site_fract_z
Si Si1 0.250970 0.963320 0.710317
Si Si2 0.539761 0.409224 0.754558
Si Si3 0.531925 0.873326 0.776273
Si Si4 0.682281 0.610385 0.616362
Si Si5 0.923424 0.415860 0.759466
Si Si6 0.257087 0.127356 0.575651
Si Si7 0.055626 0.206894 0.131426
Si Si8 0.067964 0.714782 0.049076
O O1 0.298110 0.994113 0.541869
O O2 0.405284 0.895978 0.694873
O O3 0.211242 0.111338 0.918733
O O4 0.046294 0.872985 0.751291
O O5 0.545455 0.484605 0.648257
O O6 0.764382 0.377002 0.661603
O O7 0.391906 0.269980 0.687444
O O8 0.500000 0.500000 0.000000
O O9 0.543092 0.729247 0.734856
O O10 0.742373 0.893339 0.621941
O O11 0.500000 0.000000 0.000000
O O12 0.820588 0.659635 0.744971
O O13 0.851085 0.594066 0.402875
O O14 0.834917 0.331026 0.874193
O O15 0.935207 0.572815 0.941933
O O16 0.044679 0.163441 0.741873
O O17 0.886015 0.232170 0.098377
#
# Coordination Sequence:
#
# PCOD9018341 Si02
#       8
#     2   2   2   2   2   2   2   2
#     4  10  23  45  69  96 134 189 234 289 343 412
#     4  12  25  44  75 107 145 186 231 295 360 429
#     4  12  26  46  69  99 142 189 240 296 341 415
#     4  12  25  45  69 107 145 181 238 288 360 424
#     4  11  23  42  69 105 143 184 226 289 354 430
#     4  11  24  48  69 103 142 184 238 290 357 418
#     4  10  21  43  70  99 137 181 231 288 349 415
#     4  10  21  43  69  99 143 179 231 282 354 425
#
# _framework density 27.471299999999999
#
# number of rings (size 3 to 8) (size 9 to 14) (size 15 to 20)
#    0.000    1.000    5.000    1.500    1.750    1.500 
#    0.000    0.625    0.000    0.000    0.000    0.000 
#    0.000    0.000    0.000    0.000    0.000    0.000 
#
# Total GULP energy -89346.317917 kJ/mol
# GULP energy per Si atom -5584.144870 kJ/mol
# Density = 2.740877 g / cm^3
# Si number density = 27.471300 Si / 1000 Ang^3
#
#
#
# Elastic Constant Matrix: (Units=GPa)
#
#
# Indices 1 2 3 4 5 6 
#
# 1 90.1748 37.7130 13.7155 -2.2182 7.7499 -26.4234
# 2 37.7130 170.1599 34.7924 -40.1141 16.5832 -29.3522
# 3 13.7155 34.7924 131.6242 4.8141 2.3886 -9.7086
# 4 -2.2182 -40.1141 4.8141 42.2263 -1.8641 11.0878
# 5 7.7499 16.5832 2.3886 -1.8641 23.3635 -0.1763
# 6 -26.4234 -29.3522 -9.7086 11.0878 -0.1763 55.6861
#
#
#
# Elastic Compliance Matrix: (Units=1/GPa)
#
#
# Indices 1 2 3 4 5 6 
#
# 1 0.014120 -0.002558 -0.000175 -0.003375 -0.003075 0.005984
# 2 -0.002558 0.009817 -0.002425 0.008774 -0.005158 0.001775
# 3 -0.000175 -0.002425 0.008430 -0.003455 0.000648 0.000799
# 4 -0.003375 0.008774 -0.003455 0.033244 -0.002134 -0.004205
# 5 -0.003075 -0.005158 0.000648 -0.002134 0.047220 -0.003490
# 6 0.005984 0.001775 0.000799 -0.004205 -0.003490 0.022698
#
#
# Mechanical properties :
#
#
# Convention : Reuss Voigt Hill
#
# Bulk Modulus (GPa) = 45.34506 62.71120 54.02813
# Shear Modulus (GPa) = 32.63829 44.63771 38.63800
#
# Velocity S-wave (km/s) = 3.45060 4.03536 3.75438
# Velocity P-wave (km/s) = 5.69366 6.67755 6.20513
#
# Compressibility (1/GPa) = 0.02205312
#
# Stress axis : x y z
#
# Youngs Moduli (GPa) = 70.81912 101.86704 118.62317
#
# Poissons Ratio (x) = 0.26053 0.02072
# Poissons Ratio (y) = 0.18113 0.28763
# Poissons Ratio (z) = 0.01237 0.24700
#
# Static dielectric constant tensor:
#      x y z
#    x 2.217260 0.029030 -0.133730 
#    y 0.029030 2.247420 -0.202670 
#    z -0.133730 -0.202670 2.351470 
# 
# From -- ./inp_files/189799.got.cif
#   From: 2010.05.17/outbox.cif.g08.bks.cpg/sg2_95_cif.got.tgz:189799.got - 2010.06.03 11:33:40.
