data_PCOD9018585
_publ_section_title
;
Structure prediction by ZEFSAII (Michael W. Deem and Ramdas Pophale) SiO2 
 PCOD9018585
Probable space group: P -1
;
_chemical_formula_sum "Si O2"
_cell_formula_units_Z 16
_cell_length_a 5.513061
_cell_length_b 11.646562
_cell_length_c 12.413966
_cell_angle_alpha 55.250424
_cell_angle_beta 83.134326
_cell_angle_gamma 103.954143
_cell_volume 601.679207
_symmetry_space_group_name_H-M "P -1"
_symmetry_group_IT_number 2
_symmetry_cell_setting 'triclinic'
loop_
_space_group_symop_operation_xyz
x,y,z
-x,-y,-z
loop_
_atom_site_type_symbol
_atom_site_label
_atom_site_fract_x
_atom_site_fract_y
_atom_site_fract_z
Si Si1 0.699303 0.284475 0.555581
Si Si2 0.001876 0.107445 0.542319
Si Si3 0.276960 0.116688 0.831635
Si Si4 0.086245 0.131330 0.140518
Si Si5 0.071193 0.646657 0.843344
Si Si6 0.583123 0.625454 0.720349
Si Si7 0.936326 0.618639 0.299470
Si Si8 0.570696 0.305487 0.894911
O O1 0.445804 0.159927 0.689881
O O2 0.886691 0.340009 0.622779
O O3 0.806168 0.196744 0.510290
O O4 0.730386 0.447628 0.419891
O O5 0.280860 0.248199 0.444575
O O6 0.000000 0.000000 0.500000
O O7 0.925879 0.999749 0.706874
O O8 0.471506 0.159970 0.899393
O O9 0.161968 0.246560 0.772722
O O10 0.057351 0.952261 0.915594
O O11 0.910443 0.216514 0.152576
O O12 0.387769 0.243063 0.042271
O O13 0.342916 0.659863 0.765572
O O14 0.824027 0.642040 0.783268
O O15 0.000000 0.500000 0.000000
O O16 0.501090 0.450149 0.787662
O O17 0.116267 0.628083 0.179014
#
# Coordination Sequence:
#
# PCOD9018585 Si02
#       8
#     2   2   2   2   2   2   2   2
#     4  10  22  43  69 105 146 196 252 321 388 478
#     4  12  26  48  76 114 156 204 269 331 405 465
#     4  11  25  44  72 112 151 202 259 329 405 467
#     4  12  27  49  75 114 157 208 261 335 403 472
#     4  12  28  52  83 115 159 211 270 326 401 475
#     4  12  28  52  82 118 157 211 271 331 393 480
#     4  10  21  43  72 103 144 196 258 312 393 468
#     4  11  26  47  75 110 154 202 264 321 396 484
#
# _framework density 26.592244000000001
#
# number of rings (size 3 to 8) (size 9 to 14) (size 15 to 20)
#    0.000    0.750    5.000    1.125    3.500    3.000 
#    2.250    0.000    0.000    0.000    0.000    0.000 
#    0.000    0.000    0.000    0.000    0.000    0.000 
#
# Total GULP energy -89568.226610 kJ/mol
# GULP energy per Si atom -5598.014163 kJ/mol
# Density = 2.653172 g / cm^3
# Si number density = 26.592244 Si / 1000 Ang^3
#
#
#
# Elastic Constant Matrix: (Units=GPa)
#
#
# Indices 1 2 3 4 5 6 
#
# 1 94.2409 27.3174 22.6243 3.9823 -18.7921 -24.1256
# 2 27.3174 141.5443 7.0810 -13.2578 -6.4815 -19.8788
# 3 22.6243 7.0810 144.4442 -11.7543 -11.9368 -6.5425
# 4 3.9823 -13.2578 -11.7543 48.7758 -8.4151 -9.0739
# 5 -18.7921 -6.4815 -11.9368 -8.4151 49.2396 6.6281
# 6 -24.1256 -19.8788 -6.5425 -9.0739 6.6281 54.3573
#
#
#
# Elastic Compliance Matrix: (Units=1/GPa)
#
#
# Indices 1 2 3 4 5 6 
#
# 1 0.013444 -0.001734 -0.001529 -0.000417 0.003840 0.004611
# 2 -0.001734 0.008066 0.000292 0.003004 0.000629 0.002640
# 3 -0.001529 0.000292 0.007500 0.002388 0.001610 0.000534
# 4 -0.000417 0.003004 0.002388 0.023513 0.004213 0.004612
# 5 0.003840 0.000629 0.001610 0.004213 0.022963 0.000031
# 6 0.004611 0.002640 0.000534 0.004612 0.000031 0.022239
#
#
# Mechanical properties :
#
#
# Convention : Reuss Voigt Hill
#
# Bulk Modulus (GPa) = 43.34686 54.91942 49.13314
# Shear Modulus (GPa) = 44.90107 52.02166 48.46136
#
# Velocity S-wave (km/s) = 4.11360 4.42777 4.27357
# Velocity P-wave (km/s) = 6.23684 6.84379 6.54735
#
# Compressibility (1/GPa) = 0.02306972
#
# Stress axis : x y z
#
# Youngs Moduli (GPa) = 74.37988 123.97885 133.33820
#
# Poissons Ratio (x) = 0.21496 0.20381
# Poissons Ratio (y) = 0.12896 -0.03896
# Poissons Ratio (z) = 0.11369 -0.03622
#
# Static dielectric constant tensor:
#      x y z
#    x 2.223030 0.101230 0.053710 
#    y 0.101230 2.082530 0.072190 
#    z 0.053710 0.072190 2.045750 
# 
# From -- ./inp_files/482619.got.cif
#   From: 2010.05.17/outbox.cif.g08.bks.cpg/sg2_242_cif.got.tgz:482619.got - 2010.06.03 11:33:40.
