data_PCOD9018628
_publ_section_title
;
Structure prediction by ZEFSAII (Michael W. Deem and Ramdas Pophale) SiO2 
 PCOD9018628
Probable space group: P -1
;
_chemical_formula_sum "Si O2"
_cell_formula_units_Z 14
_cell_length_a 18.248647
_cell_length_b 11.812832
_cell_length_c 13.983518
_cell_angle_alpha 147.340807
_cell_angle_beta 19.177603
_cell_angle_gamma 150.824154
_cell_volume 479.925953
_symmetry_space_group_name_H-M "P -1"
_symmetry_group_IT_number 2
_symmetry_cell_setting 'triclinic'
loop_
_space_group_symop_operation_xyz
x,y,z
-x,-y,-z
loop_
_atom_site_type_symbol
_atom_site_label
_atom_site_fract_x
_atom_site_fract_y
_atom_site_fract_z
Si Si1 0.477389 0.639818 0.762974
Si Si2 0.407991 0.957161 0.232807
Si Si3 0.000000 0.500000 0.500000
Si Si4 0.835363 0.488949 0.317000
Si Si5 0.055211 0.269345 0.123020
Si Si6 0.803537 0.055460 0.974154
Si Si7 0.568932 0.326146 0.730426
Si Si8 0.000000 0.000000 0.500000
O O1 0.557543 0.801767 0.686748
O O2 0.643234 0.512809 0.496605
O O3 0.201350 0.431155 0.969292
O O4 0.531174 0.833516 0.920531
O O5 0.562035 0.016883 0.182295
O O6 0.138036 0.757190 0.449018
O O7 0.803062 0.589554 0.857716
O O8 0.940319 0.320407 0.025773
O O9 0.675528 0.386168 0.536327
O O10 0.023660 0.754202 0.291682
O O11 0.812640 0.319003 0.479513
O O12 0.000000 0.000000 0.000000
O O13 0.673593 0.916520 0.131321
O O14 0.947113 0.968292 0.661413
O O15 0.500000 0.500000 0.000000
#
# Coordination Sequence:
#
# PCOD9018628 Si02
#       8
#     2   2   1   2   2   2   2   1
#     4  10  23  44  75 105 149 201 252 318 388 462
#     4  10  21  43  73 103 146 194 252 312 385 454
#     4  10  22  44  74 106 144 192 254 312 386 454
#     4  12  27  48  75 111 151 202 259 319 400 467
#     4  11  25  46  74 112 149 198 261 318 385 458
#     4  12  25  48  74 107 147 204 255 325 385 471
#     4  12  25  49  80 110 158 207 258 326 387 472
#     4  12  26  48  72 104 158 192 254 322 392 474
#
# _framework density 29.171165999999999
#
# number of rings (size 3 to 8) (size 9 to 14) (size 15 to 20)
#    0.000    0.857    4.286    1.714    4.000    1.714 
#    0.000    0.000    0.000    0.000    0.000    0.000 
#    0.000    0.000    0.000    0.000    0.000    0.000 
#
# Total GULP energy -78099.011910 kJ/mol
# GULP energy per Si atom -5578.500851 kJ/mol
# Density = 2.910477 g / cm^3
# Si number density = 29.171166 Si / 1000 Ang^3
#
#
#
# Elastic Constant Matrix: (Units=GPa)
#
#
# Indices 1 2 3 4 5 6 
#
# 1 104.7918 42.7910 40.7100 -6.4176 7.7036 -25.4284
# 2 42.7910 238.3696 68.5960 -10.9071 23.0415 -24.1956
# 3 40.7100 68.5960 152.2916 -4.7773 19.0041 2.3059
# 4 -6.4176 -10.9071 -4.7773 62.5395 -7.0923 24.6435
# 5 7.7036 23.0415 19.0041 -7.0923 32.3481 -2.9718
# 6 -25.4284 -24.1956 2.3059 24.6435 -2.9718 59.5686
#
#
#
# Elastic Compliance Matrix: (Units=1/GPa)
#
#
# Indices 1 2 3 4 5 6 
#
# 1 0.012348 -0.000805 -0.003019 -0.001354 -0.000376 0.005603
# 2 -0.000805 0.005296 -0.001916 -0.000319 -0.002351 0.001896
# 3 -0.003019 -0.001916 0.008694 0.000807 -0.003113 -0.002892
# 4 -0.001354 -0.000319 0.000807 0.019696 0.003594 -0.008708
# 5 -0.000376 -0.002351 -0.003113 0.003594 0.035228 -0.000724
# 6 0.005603 0.001896 -0.002892 -0.008708 -0.000724 0.023628
#
#
# Mechanical properties :
#
#
# Convention : Reuss Voigt Hill
#
# Bulk Modulus (GPa) = 67.29700 88.84967 78.07333
# Shear Modulus (GPa) = 41.21282 53.78163 47.49722
#
# Velocity S-wave (km/s) = 3.76279 4.29844 4.03950
# Velocity P-wave (km/s) = 6.48058 7.42695 6.96985
#
# Compressibility (1/GPa) = 0.01485950
#
# Stress axis : x y z
#
# Youngs Moduli (GPa) = 80.98234 188.81845 115.02545
#
# Poissons Ratio (x) = 0.15199 0.34723
# Poissons Ratio (y) = 0.06519 0.22035
# Poissons Ratio (z) = 0.24446 0.36171
#
# Static dielectric constant tensor:
#      x y z
#    x 1.731890 -0.297370 -0.046390 
#    y -0.297370 2.107440 0.112280 
#    z -0.046390 0.112280 2.069100 
# 
# From -- ./inp_files/541157.got.cif
#   From: 2010.05.17/outbox.cif.g08.bks.cpg/sg2_271_cif.got.tgz:541157.got - 2010.06.03 11:33:40.
