data_PCOD9018530
_publ_section_title
;
Structure prediction by ZEFSAII (Michael W. Deem and Ramdas Pophale) SiO2 
 PCOD9018530
Probable space group: P -1
;
_chemical_formula_sum "Si O2"
_cell_formula_units_Z 14
_cell_length_a 5.271723
_cell_length_b 16.918893
_cell_length_c 9.243940
_cell_angle_alpha 130.472676
_cell_angle_beta 72.585599
_cell_angle_gamma 105.049553
_cell_volume 596.015684
_symmetry_space_group_name_H-M "P -1"
_symmetry_group_IT_number 2
_symmetry_cell_setting 'triclinic'
loop_
_space_group_symop_operation_xyz
x,y,z
-x,-y,-z
loop_
_atom_site_type_symbol
_atom_site_label
_atom_site_fract_x
_atom_site_fract_y
_atom_site_fract_z
Si Si1 0.337828 0.570391 0.325126
Si Si2 0.581931 0.733723 0.288840
Si Si3 0.744161 0.084213 0.528561
Si Si4 0.143073 0.541347 0.875069
Si Si5 0.184718 0.148246 0.346263
Si Si6 0.928527 0.231259 0.922478
Si Si7 0.770851 0.210777 0.254744
O O1 0.436721 0.622436 0.216203
O O2 0.582782 0.509067 0.259887
O O3 0.287776 0.671775 0.548757
O O4 0.069653 0.498018 0.258904
O O5 0.379457 0.821832 0.424145
O O6 0.777622 0.762103 0.427354
O O7 0.755690 0.744176 0.128558
O O8 0.996774 0.059195 0.357593
O O9 0.500000 0.000000 0.500000
O O10 0.844036 0.131968 0.720004
O O11 0.184697 0.665994 0.004028
O O12 0.000000 0.500000 0.000000
O O13 0.491369 0.138211 0.239033
O O14 0.015028 0.178842 0.273711
O O15 0.848389 0.213022 0.077741
#
# Coordination Sequence:
#
# PCOD9018530 Si02
#       7
#     2   2   2   2   2   2   2
#     4  11  22  40  67  93 137 187 220 265 336 403
#     4  10  21  43  72  97 134 178 232 277 338 397
#     4  11  24  47  77 104 129 175 235 287 344 406
#     4  12  24  38  66 102 133 179 235 276 323 392
#     4  10  21  43  71  94 134 183 220 271 339 406
#     4  11  27  40  68 105 141 175 230 291 329 403
#     4  11  24  43  67 100 144 187 218 271 346 405
#
# _framework density 23.489315000000001
#
# number of rings (size 3 to 8) (size 9 to 14) (size 15 to 20)
#    0.000    1.143    4.286    3.000    4.000    3.429 
#    0.000    1.429    0.000    0.000    0.000    0.000 
#    0.000    0.000    0.000    0.000    0.000    0.000 
#
# Total GULP energy -78305.273504 kJ/mol
# GULP energy per Si atom -5593.233822 kJ/mol
# Density = 2.343585 g / cm^3
# Si number density = 23.489315 Si / 1000 Ang^3
#
#
#
# Elastic Constant Matrix: (Units=GPa)
#
#
# Indices 1 2 3 4 5 6 
#
# 1 152.3306 40.2015 21.3183 -16.0261 8.2582 -0.0354
# 2 40.2015 92.2906 32.7309 -15.3157 6.4527 7.8829
# 3 21.3183 32.7309 58.1600 -45.0190 5.9518 10.0860
# 4 -16.0261 -15.3157 -45.0190 41.1125 2.9610 -5.2019
# 5 8.2582 6.4527 5.9518 2.9610 20.1791 2.0403
# 6 -0.0354 7.8829 10.0860 -5.2019 2.0403 45.2485
#
#
#
# Elastic Compliance Matrix: (Units=1/GPa)
#
#
# Indices 1 2 3 4 5 6 
#
# 1 0.008273 -0.005312 0.015281 0.018632 -0.008935 0.000071
# 2 -0.005312 0.023518 -0.065309 -0.066289 0.023464 0.001777
# 3 0.015281 -0.065309 0.409345 0.439239 -0.168357 -0.021767
# 4 0.018632 -0.066289 0.439239 0.498738 -0.187084 -0.020573
# 5 -0.008935 0.023464 -0.168357 -0.187084 0.122170 0.006416
# 6 0.000071 0.001777 -0.021767 -0.020573 0.006416 0.023988
#
#
# Mechanical properties :
#
#
# Convention : Reuss Voigt Hill
#
# Bulk Modulus (GPa) = 3.02612 54.58698 28.80655
# Shear Modulus (GPa) = 3.82596 35.21006 19.51801
#
# Velocity S-wave (km/s) = 1.27763 3.87587 2.88572
# Velocity P-wave (km/s) = 1.86214 6.58174 4.83668
#
# Compressibility (1/GPa) = 0.33045655
#
# Stress axis : x y z
#
# Youngs Moduli (GPa) = 120.88014 42.52032 2.44293
#
# Poissons Ratio (x) = 0.22589 -0.03733
# Poissons Ratio (y) = 0.64217 0.15954
# Poissons Ratio (z) = -1.84722 2.77694
#
# Static dielectric constant tensor:
#      x y z
#    x 1.947790 0.004470 0.003870 
#    y 0.004470 1.890420 0.001160 
#    z 0.003870 0.001160 1.908310 
# 
# From -- ./inp_files/138189.got.cif
#   From: 2010.05.17/outbox.cif.g08.bks.cpg/sg2_70_cif.got.tgz:138189.got - 2010.06.03 11:33:40.
