data_PCOD9018181
_publ_section_title
;
Structure prediction by ZEFSAII (Michael W. Deem and Ramdas Pophale) SiO2 
 PCOD9018181
Probable space group: P -1
;
_chemical_formula_sum "Si O2"
_cell_formula_units_Z 14
_cell_length_a 5.130196
_cell_length_b 8.564316
_cell_length_c 21.900968
_cell_angle_alpha 142.108813
_cell_angle_beta 77.831609
_cell_angle_gamma 95.208158
_cell_volume 573.108662
_symmetry_space_group_name_H-M "P -1"
_symmetry_group_IT_number 2
_symmetry_cell_setting 'triclinic'
loop_
_space_group_symop_operation_xyz
x,y,z
-x,-y,-z
loop_
_atom_site_type_symbol
_atom_site_label
_atom_site_fract_x
_atom_site_fract_y
_atom_site_fract_z
Si Si1 0.460076 0.134838 0.713039
Si Si2 0.900751 0.346270 0.284406
Si Si3 0.252247 0.782562 0.928806
Si Si4 0.713615 0.581580 0.071832
Si Si5 0.014003 0.660081 0.264985
Si Si6 0.533669 0.964118 0.856085
Si Si7 0.234395 0.393291 0.499695
O O1 0.326967 0.188352 0.802983
O O2 0.209301 0.108150 0.672396
O O3 0.673354 0.345285 0.766482
O O4 0.683574 0.905900 0.609456
O O5 0.160147 0.132455 0.206219
O O6 0.983038 0.574034 0.308367
O O7 0.658234 0.215756 0.225884
O O8 0.832136 0.485946 0.394037
O O9 0.308617 0.666005 0.958252
O O10 0.124299 0.548924 0.831206
O O11 0.476305 0.886125 0.905658
O O12 0.000000 0.000000 0.000000
O O13 0.542708 0.744958 0.076358
O O14 0.000000 0.500000 0.000000
O O15 0.500000 0.500000 0.500000
O O16 0.000000 0.500000 0.500000
#
# Coordination Sequence:
#
# PCOD9018181 Si02
#       7
#     2   2   2   2   2   2   2
#     4  11  24  43  66  98 138 172 229 285 336 409
#     4  11  23  44  69  97 135 177 225 277 345 408
#     4  10  21  43  68  98 138 177 231 284 337 398
#     4  11  22  41  68  96 133 179 226 274 346 403
#     4  10  23  43  68  96 136 177 219 286 349 399
#     4  11  24  44  68 102 138 178 225 284 337 411
#     4  12  25  42  68  99 135 179 228 284 343 406
#
# _framework density 24.428177000000002
#
# number of rings (size 3 to 8) (size 9 to 14) (size 15 to 20)
#    0.000    1.143    1.429    6.000    0.000    4.571 
#    2.571    7.857    0.000    0.000    0.000    0.000 
#    0.000    0.000    0.000    0.000    0.000    0.000 
#
# Total GULP energy -78066.767438 kJ/mol
# GULP energy per Si atom -5576.197674 kJ/mol
# Density = 2.437258 g / cm^3
# Si number density = 24.428177 Si / 1000 Ang^3
#
#
#
# Elastic Constant Matrix: (Units=GPa)
#
#
# Indices 1 2 3 4 5 6 
#
# 1 150.2828 58.2006 33.8061 -22.8183 -27.6311 -7.6830
# 2 58.2006 185.8283 89.8358 -36.9045 -7.3809 -21.3069
# 3 33.8061 89.8358 114.6752 -26.1400 -33.9530 -14.5813
# 4 -22.8183 -36.9045 -26.1400 43.3091 1.9592 -2.7280
# 5 -27.6311 -7.3809 -33.9530 1.9592 33.2333 9.7887
# 6 -7.6830 -21.3069 -14.5813 -2.7280 9.7887 52.2661
#
#
#
# Elastic Compliance Matrix: (Units=1/GPa)
#
#
# Indices 1 2 3 4 5 6 
#
# 1 0.010092 -0.004396 0.004940 0.003918 0.012547 -0.001076
# 2 -0.004396 0.012963 -0.012087 0.002347 -0.014471 0.004099
# 3 0.004940 -0.012087 0.026584 0.006936 0.028703 -0.001799
# 4 0.003918 0.002347 0.006936 0.031207 0.007963 0.003605
# 5 0.012547 -0.014471 0.028703 0.007963 0.068665 -0.008491
# 6 -0.001076 0.004099 -0.001799 0.003605 -0.008491 0.021922
#
#
# Mechanical properties :
#
#
# Convention : Reuss Voigt Hill
#
# Bulk Modulus (GPa) = 37.66217 90.49682 64.07950
# Shear Modulus (GPa) = 24.58566 43.69129 34.13848
#
# Velocity S-wave (km/s) = 3.17590 4.23373 3.74238
# Velocity P-wave (km/s) = 5.37582 7.81190 6.70541
#
# Compressibility (1/GPa) = 0.02655184
#
# Stress axis : x y z
#
# Youngs Moduli (GPa) = 99.08789 77.14392 37.61663
#
# Poissons Ratio (x) = 0.33911 -0.18581
# Poissons Ratio (y) = 0.43557 0.45468
# Poissons Ratio (z) = -0.48945 0.93246
#
# Static dielectric constant tensor:
#      x y z
#    x 2.377650 -0.537550 -0.870480 
#    y -0.537550 2.813750 1.188070 
#    z -0.870480 1.188070 3.608260 
# 
# From -- ./inp_files/603891.got.cif
#   From: 2010.05.17/outbox.cif.g08.bks.cpg/sg2_302_cif.got.tgz:603891.got - 2010.06.03 11:33:40.
