data_PCOD9018846
_publ_section_title
;
Structure prediction by ZEFSAII (Michael W. Deem and Ramdas Pophale) SiO2 
 PCOD9018846
Probable space group: P -1
;
_chemical_formula_sum "Si O2"
_cell_formula_units_Z 16
_cell_length_a 25.178979
_cell_length_b 6.569137
_cell_length_c 8.638637
_cell_angle_alpha 63.743372
_cell_angle_beta 39.735728
_cell_angle_gamma 86.909565
_cell_volume 709.704599
_symmetry_space_group_name_H-M "P -1"
_symmetry_group_IT_number 2
_symmetry_cell_setting 'triclinic'
loop_
_space_group_symop_operation_xyz
x,y,z
-x,-y,-z
loop_
_atom_site_type_symbol
_atom_site_label
_atom_site_fract_x
_atom_site_fract_y
_atom_site_fract_z
Si Si1 0.248377 0.524435 0.606970
Si Si2 0.613767 0.631879 0.698868
Si Si3 0.154314 0.177621 0.636754
Si Si4 0.421195 0.574715 0.816943
Si Si5 0.362514 0.988151 0.720241
Si Si6 0.290853 0.052985 0.164925
Si Si7 0.944278 0.691170 0.707960
Si Si8 0.034568 0.370055 0.679841
O O1 0.339753 0.502446 0.465210
O O2 0.199284 0.298176 0.661873
O O3 0.283367 0.807558 0.358395
O O4 0.164434 0.452368 0.940675
O O5 0.653799 0.922327 0.441896
O O6 0.500000 0.500000 0.000000
O O7 0.627906 0.561782 0.864463
O O8 0.214728 0.121121 0.390967
O O9 0.120087 0.372269 0.580808
O O10 0.060756 0.900670 0.974561
O O11 0.530548 0.783752 0.542742
O O12 0.371343 0.729080 0.802700
O O13 0.393788 0.317206 0.866785
O O14 0.287582 0.984836 0.014210
O O15 0.943454 0.626830 0.551471
O O16 0.005780 0.589393 0.699041
O O17 0.000000 0.000000 0.500000
#
# Coordination Sequence:
#
# PCOD9018846 Si02
#       8
#     2   2   2   2   2   2   2   2
#     4  12  24  43  66  94 132 178 218 276 336 391
#     4  10  22  44  67  95 135 174 219 277 333 389
#     4  11  23  42  65  91 127 171 215 271 326 395
#     4  10  21  44  65  90 134 173 216 283 331 388
#     4  10  22  41  66  94 129 174 223 273 333 389
#     4  12  22  41  64  95 128 172 221 272 331 402
#     4  11  23  43  67  96 132 169 216 277 329 396
#     4  10  24  43  64  95 127 167 218 268 335 391
#
# _framework density 22.544588999999998
#
# number of rings (size 3 to 8) (size 9 to 14) (size 15 to 20)
#    0.000    1.250    5.000    0.375    1.750    1.500 
#    4.500    1.250    0.000    0.000    0.000    0.000 
#    0.000    0.000    0.000    0.000    0.000    0.000 
#
# Total GULP energy -89292.677141 kJ/mol
# GULP energy per Si atom -5580.792321 kJ/mol
# Density = 2.249328 g / cm^3
# Si number density = 22.544589 Si / 1000 Ang^3
#
#
#
# Elastic Constant Matrix: (Units=GPa)
#
#
# Indices 1 2 3 4 5 6 
#
# 1 2.2924 9.9629 40.6509 -1.2875 5.8516 -33.9869
# 2 9.9629 91.6153 50.4860 -14.8832 2.9072 -30.5985
# 3 40.6509 50.4860 110.0463 2.6201 21.4990 -14.6076
# 4 -1.2875 -14.8832 2.6201 49.0632 -8.8687 -0.8084
# 5 5.8516 2.9072 21.4990 -8.8687 36.0584 -7.2177
# 6 -33.9869 -30.5985 -14.6076 -0.8084 -7.2177 37.7528
#
#
#
# Elastic Compliance Matrix: (Units=1/GPa)
#
#
# Indices 1 2 3 4 5 6 
#
# 1 -0.016470 -0.012500 0.010713 -0.006780 -0.008910 -0.022662
# 2 -0.012500 0.014741 -0.002980 0.005020 0.003932 0.000401
# 3 0.010713 -0.002980 0.008856 -0.001900 -0.005325 0.009597
# 4 -0.006780 0.005020 -0.001900 0.023142 0.007346 -0.000870
# 5 -0.008910 0.003932 -0.005325 0.007346 0.033788 -0.000279
# 6 -0.022662 0.000401 0.009597 -0.000870 -0.000279 0.010053
#
#
# Mechanical properties :
#
#
# Convention : Reuss Voigt Hill
#
# Bulk Modulus (GPa) = -415.47893 45.12817 -185.17538
# Shear Modulus (GPa) = 60.35647 31.43183 45.89415
#
# Velocity S-wave (km/s) = 5.17978 3.73796 4.51677
# Velocity P-wave (km/s) = 12.20322 6.22017 7.42388
#
# Compressibility (1/GPa) = -0.00240686
#
# Stress axis : x y z
#
# Youngs Moduli (GPa) = -60.71496 67.83697 112.91392
#
# Poissons Ratio (x) = 0.84796 -1.20962
# Poissons Ratio (y) = -0.75894 0.33646
# Poissons Ratio (z) = 0.65042 0.20214
#
# Static dielectric constant tensor:
#      x y z
#    x 1.938390 -0.006300 -0.022990 
#    y -0.006300 1.855600 0.026890 
#    z -0.022990 0.026890 1.834140 
# 
# From -- ./inp_files/105276.got.cif
#   From: 2010.05.17/outbox.cif.g08.bks.cpg/sg2_53_cif.got.tgz:105276.got - 2010.06.03 11:33:40.
