data_PCOD9018825
_publ_section_title
;
Structure prediction by ZEFSAII (Michael W. Deem and Ramdas Pophale) SiO2 
 PCOD9018825
Probable space group: P -1
;
_chemical_formula_sum "Si O2"
_cell_formula_units_Z 12
_cell_length_a 5.289170
_cell_length_b 9.593216
_cell_length_c 14.512656
_cell_angle_alpha 93.341853
_cell_angle_beta 104.485167
_cell_angle_gamma 44.111005
_cell_volume 488.156599
_symmetry_space_group_name_H-M "P -1"
_symmetry_group_IT_number 2
_symmetry_cell_setting 'triclinic'
loop_
_space_group_symop_operation_xyz
x,y,z
-x,-y,-z
loop_
_atom_site_type_symbol
_atom_site_label
_atom_site_fract_x
_atom_site_fract_y
_atom_site_fract_z
Si Si1 0.341427 0.712995 0.744666
Si Si2 0.448853 0.987770 0.714255
Si Si3 0.540387 0.077251 0.916850
Si Si4 0.568858 0.320698 0.039248
Si Si5 0.449049 0.449839 0.593502
Si Si6 0.317596 0.202047 0.542190
O O1 0.391929 0.843697 0.705625
O O2 0.531680 0.647881 0.860875
O O3 0.517633 0.524084 0.688825
O O4 0.891638 0.852429 0.725417
O O5 0.353311 0.082395 0.810835
O O6 0.198360 0.174451 0.626344
O O7 0.394669 0.282585 0.947093
O O8 0.988932 0.897754 0.928352
O O9 0.500000 0.000000 0.000000
O O10 0.500000 0.500000 0.000000
O O11 0.500000 0.500000 0.500000
O O12 0.558165 0.244316 0.595269
O O13 0.982314 0.625716 0.553199
O O14 0.500000 0.000000 0.500000
#
# Coordination Sequence:
#
# PCOD9018825 Si02
#       6
#     2   2   2   2   2   2
#     4  11  24  45  68 101 136 173 225 276 329 400
#     4  11  24  43  73  96 136 181 218 273 337 393
#     4  10  21  44  64  97 134 171 222 271 324 397
#     4  10  23  42  67  95 135 176 217 273 332 391
#     4  11  26  43  67 100 134 171 228 279 326 404
#     4  11  24  45  68  95 132 179 221 273 340 395
#
# _framework density 24.582274999999999
#
# number of rings (size 3 to 8) (size 9 to 14) (size 15 to 20)
#    0.000    1.333    3.333    1.000    7.000    2.000 
#    3.000    0.000    0.000    0.000    0.000    0.000 
#    0.000    0.000    0.000    0.000    0.000    0.000 
#
# Total GULP energy -67025.459617 kJ/mol
# GULP energy per Si atom -5585.454968 kJ/mol
# Density = 2.452632 g / cm^3
# Si number density = 24.582275 Si / 1000 Ang^3
#
#
#
# Elastic Constant Matrix: (Units=GPa)
#
#
# Indices 1 2 3 4 5 6 
#
# 1 110.3868 43.4821 20.7568 11.9301 -8.4667 34.8750
# 2 43.4821 143.5563 66.1055 31.1495 9.2593 46.7402
# 3 20.7568 66.1055 149.9524 44.7916 -21.5797 13.1826
# 4 11.9301 31.1495 44.7916 61.1184 2.0731 14.4266
# 5 -8.4667 9.2593 -21.5797 2.0731 36.4649 -4.6521
# 6 34.8750 46.7402 13.1826 14.4266 -4.6521 59.1568
#
#
#
# Elastic Compliance Matrix: (Units=1/GPa)
#
#
# Indices 1 2 3 4 5 6 
#
# 1 0.011668 -0.002167 0.000267 -0.000300 0.002805 -0.004932
# 2 -0.002167 0.014185 -0.006636 0.000570 -0.009254 -0.009318
# 3 0.000267 -0.006636 0.012914 -0.007644 0.010449 0.004894
# 4 -0.000300 0.000570 -0.007644 0.023071 -0.006652 -0.004720
# 5 0.002805 -0.009254 0.010449 -0.006652 0.037999 0.007940
# 6 -0.004932 -0.009318 0.004894 -0.004720 0.007940 0.027859
#
#
# Mechanical properties :
#
#
# Convention : Reuss Voigt Hill
#
# Bulk Modulus (GPa) = 46.09426 73.84271 59.96848
# Shear Modulus (GPa) = 32.89428 49.58476 41.23952
#
# Velocity S-wave (km/s) = 3.66201 4.49608 4.10031
# Velocity P-wave (km/s) = 6.05576 7.55362 6.84578
#
# Compressibility (1/GPa) = 0.02169468
#
# Stress axis : x y z
#
# Youngs Moduli (GPa) = 85.70151 70.49543 77.43488
#
# Poissons Ratio (x) = 0.15278 -0.02069
# Poissons Ratio (y) = 0.18574 0.51389
# Poissons Ratio (z) = -0.02290 0.46784
#
# Static dielectric constant tensor:
#      x y z
#    x 2.156000 -0.175630 0.074310 
#    y -0.175630 1.933710 -0.049540 
#    z 0.074310 -0.049540 1.947760 
# 
# From -- ./inp_files/3037.got.cif
#   From: 2010.05.17/outbox.cif.g08.bks.cpg/sg2_2_cif.got.tgz:3037.got - 2010.06.03 11:33:40.
