data_PCOD9018450
_publ_section_title
;
Structure prediction by ZEFSAII (Michael W. Deem and Ramdas Pophale) SiO2 
 PCOD9018450
Probable space group: P -1
;
_chemical_formula_sum "Si O2"
_cell_formula_units_Z 16
_cell_length_a 11.213547
_cell_length_b 8.300355
_cell_length_c 9.244735
_cell_angle_alpha 90.307550
_cell_angle_beta 131.031892
_cell_angle_gamma 97.823833
_cell_volume 637.858665
_symmetry_space_group_name_H-M "P -1"
_symmetry_group_IT_number 2
_symmetry_cell_setting 'triclinic'
loop_
_space_group_symop_operation_xyz
x,y,z
-x,-y,-z
loop_
_atom_site_type_symbol
_atom_site_label
_atom_site_fract_x
_atom_site_fract_y
_atom_site_fract_z
Si Si1 0.911511 0.824366 0.866688
Si Si2 0.521271 0.858595 0.908768
Si Si3 0.317653 0.408343 0.839362
Si Si4 0.110111 0.489174 0.933648
Si Si5 0.820331 0.146067 0.459356
Si Si6 0.775786 0.340567 0.694289
Si Si7 0.442848 0.155181 0.387966
Si Si8 0.109358 0.213240 0.469720
O O1 0.899075 0.680117 0.978708
O O2 0.723593 0.817388 0.682409
O O3 0.976360 0.806443 0.754987
O O4 0.000000 0.000000 0.000000
O O5 0.331731 0.783761 0.726910
O O6 0.584250 0.898923 0.799138
O O7 0.653393 0.764762 0.076696
O O8 0.500000 0.000000 0.000000
O O9 0.244937 0.370042 0.622215
O O10 0.500000 0.500000 0.000000
O O11 0.206375 0.481980 0.864015
O O12 0.194956 0.634045 0.109431
O O13 0.920299 0.482558 0.754821
O O14 0.818214 0.194580 0.626964
O O15 0.976876 0.215540 0.490557
O O16 0.814383 0.951382 0.450811
O O17 0.584704 0.314212 0.518128
O O18 0.500000 0.000000 0.500000
#
# Coordination Sequence:
#
# PCOD9018450 Si02
#       8
#     2   2   2   2   2   2   2   2
#     4  12  26  42  69 106 137 180 234 285 354 420
#     4  11  23  42  69  99 135 174 231 290 340 404
#     4  12  27  47  70 102 142 190 232 285 359 419
#     4  11  24  48  69  94 142 183 234 284 350 425
#     4  10  21  43  70  98 135 177 228 286 346 404
#     4  10  23  44  70  95 135 188 224 289 345 411
#     4  11  24  41  68 102 136 175 235 285 346 415
#     4  11  24  42  72  99 140 180 228 286 352 416
#
# _framework density 25.083925000000001
#
# number of rings (size 3 to 8) (size 9 to 14) (size 15 to 20)
#    0.000    1.000    3.750    3.000    5.250    2.500 
#    4.500    1.250    0.000    0.000    0.000    0.000 
#    0.000    0.000    0.000    0.000    0.000    0.000 
#
# Total GULP energy -89242.477369 kJ/mol
# GULP energy per Si atom -5577.654836 kJ/mol
# Density = 2.502683 g / cm^3
# Si number density = 25.083925 Si / 1000 Ang^3
#
#
#
# Elastic Constant Matrix: (Units=GPa)
#
#
# Indices 1 2 3 4 5 6 
#
# 1 105.5338 6.4229 26.0484 27.3349 -2.9550 -6.2748
# 2 6.4229 50.2727 39.2645 16.1256 -13.4282 3.4061
# 3 26.0484 39.2645 158.0641 24.8957 -17.3056 1.7162
# 4 27.3349 16.1256 24.8957 57.1512 -8.5036 -1.4325
# 5 -2.9550 -13.4282 -17.3056 -8.5036 50.6574 6.4272
# 6 -6.2748 3.4061 1.7162 -1.4325 6.4272 32.0089
#
#
#
# Elastic Compliance Matrix: (Units=1/GPa)
#
#
# Indices 1 2 3 4 5 6 
#
# 1 0.011173 0.000949 -0.001377 -0.005061 -0.000680 0.002073
# 2 0.000949 0.027328 -0.005555 -0.005091 0.005011 -0.003658
# 3 -0.001377 -0.005555 0.008250 -0.001213 0.001113 -0.000399
# 4 -0.005061 -0.005091 -0.001213 0.022131 0.001620 0.000280
# 5 -0.000680 0.005011 0.001113 0.001620 0.022333 -0.005138
# 6 0.002073 -0.003658 -0.000399 0.000280 -0.005138 0.033103
#
#
# Mechanical properties :
#
#
# Convention : Reuss Voigt Hill
#
# Bulk Modulus (GPa) = 28.74640 50.81581 39.78110
# Shear Modulus (GPa) = 33.81160 44.10582 38.95871
#
# Velocity S-wave (km/s) = 3.67541 4.19779 3.94526
# Velocity P-wave (km/s) = 5.43107 6.61797 6.05368
#
# Compressibility (1/GPa) = 0.03478696
#
# Stress axis : x y z
#
# Youngs Moduli (GPa) = 89.50277 36.59237 121.20566
#
# Poissons Ratio (x) = -0.03474 0.16688
# Poissons Ratio (y) = -0.08497 0.67326
# Poissons Ratio (z) = 0.12323 0.20326
#
# Static dielectric constant tensor:
#      x y z
#    x 1.954750 0.003510 0.005870 
#    y 0.003510 2.134810 0.039320 
#    z 0.005870 0.039320 1.959770 
# 
# From -- ./inp_files/244254.got.cif
#   From: 2010.05.17/outbox.cif.g08.bks.cpg/sg2_123_cif.got.tgz:244254.got - 2010.06.03 11:33:40.
