data_PCOD9018479
_publ_section_title
;
Structure prediction by ZEFSAII (Michael W. Deem and Ramdas Pophale) SiO2 
 PCOD9018479
Probable space group: P -1
;
_chemical_formula_sum "Si O2"
_cell_formula_units_Z 15
_cell_length_a 21.000640
_cell_length_b 9.177446
_cell_length_c 8.104209
_cell_angle_alpha 65.831562
_cell_angle_beta 32.505510
_cell_angle_gamma 52.054601
_cell_volume 639.579487
_symmetry_space_group_name_H-M "P -1"
_symmetry_group_IT_number 2
_symmetry_cell_setting 'triclinic'
loop_
_space_group_symop_operation_xyz
x,y,z
-x,-y,-z
loop_
_atom_site_type_symbol
_atom_site_label
_atom_site_fract_x
_atom_site_fract_y
_atom_site_fract_z
Si Si1 0.250572 0.172297 0.207257
Si Si2 0.691065 0.207869 0.240390
Si Si3 0.274155 0.530076 0.469340
Si Si4 0.000000 0.500000 0.000000
Si Si5 0.159267 0.937194 0.671900
Si Si6 0.812489 0.826038 0.027733
Si Si7 0.633472 0.583734 0.046574
Si Si8 0.453683 0.142476 0.378016
O O1 0.150102 0.125967 0.541365
O O2 0.198896 0.232467 0.104845
O O3 0.278648 0.321244 0.156272
O O4 0.400682 0.966021 0.986948
O O5 0.768949 0.116388 0.282565
O O6 0.699933 0.383891 0.086334
O O7 0.525523 0.286122 0.592688
O O8 0.773973 0.040468 0.002238
O O9 0.131182 0.527663 0.768538
O O10 0.239539 0.739694 0.484285
O O11 0.380161 0.369665 0.448949
O O12 0.359974 0.451191 0.146772
O O13 0.050361 0.328690 0.103816
O O14 0.000000 0.000000 0.000000
O O15 0.675685 0.862105 0.413343
O O16 0.500000 0.000000 0.500000
#
# Coordination Sequence:
#
# PCOD9018479 Si02
#       8
#     2   2   2   1   2   2   2   2
#     4  11  24  44  73 103 143 181 234 282 353 411
#     4  11  25  44  71 106 145 176 233 290 352 413
#     4  11  25  45  68  99 142 184 231 287 350 410
#     4  10  24  42  74  94 132 190 240 276 340 410
#     4  12  29  46  69 101 142 189 235 288 342 416
#     4  10  21  43  71 101 140 183 225 291 342 414
#     4  11  26  43  73 109 138 182 230 291 354 418
#     4   9  20  37  72 101 133 173 227 282 348 399
#
# _framework density 23.452912999999999
#
# number of rings (size 3 to 8) (size 9 to 14) (size 15 to 20)
#    0.000    1.333    1.333    2.400   11.200    5.333 
#    0.000    4.000    0.000    0.000    0.000    0.000 
#    0.000    0.000    0.000    0.000    0.000    0.000 
#
# Total GULP energy -83570.704267 kJ/mol
# GULP energy per Si atom -5571.380284 kJ/mol
# Density = 2.339953 g / cm^3
# Si number density = 23.452913 Si / 1000 Ang^3
#
#
#
# Elastic Constant Matrix: (Units=GPa)
#
#
# Indices 1 2 3 4 5 6 
#
# 1 85.9069 42.0724 11.2312 10.8114 -0.6535 -3.2792
# 2 42.0724 139.7690 27.8822 -8.7852 0.8892 0.4720
# 3 11.2312 27.8822 60.3663 -26.5831 -8.1024 -5.8698
# 4 10.8114 -8.7852 -26.5831 35.3556 0.3433 -11.9451
# 5 -0.6535 0.8892 -8.1024 0.3433 27.4731 0.2425
# 6 -3.2792 0.4720 -5.8698 -11.9451 0.2425 39.0557
#
#
#
# Elastic Compliance Matrix: (Units=1/GPa)
#
#
# Indices 1 2 3 4 5 6 
#
# 1 0.016015 -0.004180 -0.007000 -0.012342 -0.001364 -0.003423
# 2 -0.004180 0.009142 -0.003342 0.000812 -0.001385 -0.000707
# 3 -0.007000 -0.003342 0.037700 0.034864 0.010486 0.015717
# 4 -0.012342 0.000812 0.034864 0.066675 0.008913 0.024531
# 5 -0.001364 -0.001385 0.010486 0.008913 0.039358 0.003960
# 6 -0.003423 -0.000707 0.015717 0.024531 0.003960 0.035166
#
#
# Mechanical properties :
#
#
# Convention : Reuss Voigt Hill
#
# Bulk Modulus (GPa) = 29.57435 49.82376 39.69906
# Shear Modulus (GPa) = 20.46074 34.03395 27.24735
#
# Velocity S-wave (km/s) = 2.95688 3.81354 3.41220
# Velocity P-wave (km/s) = 4.92899 6.37817 5.69983
#
# Compressibility (1/GPa) = 0.03381308
#
# Stress axis : x y z
#
# Youngs Moduli (GPa) = 62.44152 109.38819 26.52507
#
# Poissons Ratio (x) = 0.45723 0.18568
# Poissons Ratio (y) = 0.26100 0.08865
# Poissons Ratio (z) = 0.43709 0.36558
#
# Static dielectric constant tensor:
#      x y z
#    x 1.884540 0.059450 0.031110 
#    y 0.059450 1.934480 0.003760 
#    z 0.031110 0.003760 1.982990 
# 
# From -- ./inp_files/343378.got.cif
#   From: 2010.05.17/outbox.cif.g08.bks.cpg/sg2_172_cif.got.tgz:343378.got - 2010.06.03 11:33:40.
