data_PCOD9018494
_publ_section_title
;
Structure prediction by ZEFSAII (Michael W. Deem and Ramdas Pophale) SiO2 
 PCOD9018494
Probable space group: P -1
;
_chemical_formula_sum "Si O2"
_cell_formula_units_Z 12
_cell_length_a 9.306883
_cell_length_b 18.975523
_cell_length_c 5.196098
_cell_angle_alpha 51.108936
_cell_angle_beta 134.085224
_cell_angle_gamma 135.497695
_cell_volume 445.954038
_symmetry_space_group_name_H-M "P -1"
_symmetry_group_IT_number 2
_symmetry_cell_setting 'triclinic'
loop_
_space_group_symop_operation_xyz
x,y,z
-x,-y,-z
loop_
_atom_site_type_symbol
_atom_site_label
_atom_site_fract_x
_atom_site_fract_y
_atom_site_fract_z
Si Si1 0.284741 0.449689 0.038992
Si Si2 0.085441 0.763604 0.122709
Si Si3 0.178983 0.140115 0.200510
Si Si4 0.290259 0.017789 0.284731
Si Si5 0.370011 0.784166 0.941288
Si Si6 0.473837 0.643685 0.125047
O O1 0.282074 0.546050 0.952723
O O2 0.344261 0.389361 0.472568
O O3 0.500000 0.500000 0.000000
O O4 0.073800 0.359969 0.830882
O O5 0.226678 0.782875 0.516006
O O6 0.936337 0.821977 0.812295
O O7 0.253803 0.799078 0.010232
O O8 0.385484 0.251903 0.106810
O O9 0.274549 0.058253 0.458958
O O10 0.951896 0.077376 0.879540
O O11 0.368059 0.122470 0.971025
O O12 0.500000 0.000000 0.500000
O O13 0.374328 0.676863 0.166605
#
# Coordination Sequence:
#
# PCOD9018494 Si02
#       6
#     2   2   2   2   2   2
#     4  11  24  42  72  97 141 191 239 288 361 422
#     4  12  25  45  71 103 144 186 237 294 353 420
#     4  10  21  43  71 103 142 188 234 291 355 422
#     4  10  21  43  74 103 143 186 238 288 358 423
#     4  11  27  45  72 107 145 183 238 298 350 426
#     4  10  24  46  69 103 143 189 236 293 357 421
#
# _framework density 26.908604
#
# number of rings (size 3 to 8) (size 9 to 14) (size 15 to 20)
#    0.000    1.333    3.333    1.000    4.667    2.000 
#    0.000    0.833    0.000    0.000    0.000    0.000 
#    0.000    0.000    0.000    0.000    0.000    0.000 
#
# Total GULP energy -67106.360108 kJ/mol
# GULP energy per Si atom -5592.196676 kJ/mol
# Density = 2.684736 g / cm^3
# Si number density = 26.908604 Si / 1000 Ang^3
#
#
#
# Elastic Constant Matrix: (Units=GPa)
#
#
# Indices 1 2 3 4 5 6 
#
# 1 175.9232 58.3145 40.9323 6.5437 16.8650 -40.9278
# 2 58.3145 191.6338 39.0897 16.9757 10.8854 -30.2932
# 3 40.9323 39.0897 85.3640 15.5016 16.8008 -10.4915
# 4 6.5437 16.9757 15.5016 43.4259 -11.0349 8.9451
# 5 16.8650 10.8854 16.8008 -11.0349 40.1526 -9.1340
# 6 -40.9278 -30.2932 -10.4915 8.9451 -9.1340 62.2521
#
#
#
# Elastic Compliance Matrix: (Units=1/GPa)
#
#
# Indices 1 2 3 4 5 6 
#
# 1 0.007685 -0.001053 -0.002209 -0.001164 -0.001399 0.004130
# 2 -0.001053 0.006517 -0.001553 -0.002549 -0.000815 0.002464
# 3 -0.002209 -0.001553 0.016176 -0.006747 -0.007175 0.000435
# 4 -0.001164 -0.002549 -0.006747 0.030643 0.011078 -0.005921
# 5 -0.001399 -0.000815 -0.007175 0.011078 0.031888 0.000562
# 6 0.004130 0.002464 0.000435 -0.005921 0.000562 0.020985
#
#
# Mechanical properties :
#
#
# Convention : Reuss Voigt Hill
#
# Bulk Modulus (GPa) = 48.19617 81.06601 64.63109
# Shear Modulus (GPa) = 38.33204 50.13843 44.23524
#
# Velocity S-wave (km/s) = 3.77839 4.32126 4.05891
# Velocity P-wave (km/s) = 6.08152 7.42224 6.78507
#
# Compressibility (1/GPa) = 0.02074854
#
# Stress axis : x y z
#
# Youngs Moduli (GPa) = 130.11550 153.44246 61.82120
#
# Poissons Ratio (x) = 0.16151 0.13655
# Poissons Ratio (y) = 0.13696 0.09604
# Poissons Ratio (z) = 0.28740 0.23837
#
# Static dielectric constant tensor:
#      x y z
#    x 2.174090 -0.045910 -0.056450 
#    y -0.045910 2.099220 -0.044130 
#    z -0.056450 -0.044130 2.241440 
# 
# From -- ./inp_files/32745.got.cif
#   From: 2010.05.17/outbox.cif.g08.bks.cpg/sg2_17_cif.got.tgz:32745.got - 2010.06.03 11:33:40.
