data_PCOD9018974
_publ_section_title
;
Structure prediction by ZEFSAII (Michael W. Deem and Ramdas Pophale) SiO2 
 PCOD9018974
Probable space group: P -1
;
_chemical_formula_sum "Si O2"
_cell_formula_units_Z 16
_cell_length_a 8.745236
_cell_length_b 11.147927
_cell_length_c 13.751220
_cell_angle_alpha 58.933239
_cell_angle_beta 85.013086
_cell_angle_gamma 45.773983
_cell_volume 737.017507
_symmetry_space_group_name_H-M "P -1"
_symmetry_group_IT_number 2
_symmetry_cell_setting 'triclinic'
loop_
_space_group_symop_operation_xyz
x,y,z
-x,-y,-z
loop_
_atom_site_type_symbol
_atom_site_label
_atom_site_fract_x
_atom_site_fract_y
_atom_site_fract_z
Si Si1 0.851348 0.956238 0.364467
Si Si2 0.119432 0.862653 0.208080
Si Si3 0.539186 0.133509 0.733983
Si Si4 0.231157 0.676435 0.075424
Si Si5 0.236827 0.665300 0.787251
Si Si6 0.401260 0.100204 0.356215
Si Si7 0.958645 0.685110 0.956775
Si Si8 0.905022 0.424153 0.336756
O O1 0.578611 0.095891 0.309067
O O2 0.990277 0.858092 0.296397
O O3 0.981488 0.763203 0.513582
O O4 0.854146 0.117250 0.327652
O O5 0.315167 0.824560 0.267112
O O6 0.221809 0.703198 0.180192
O O7 0.921215 0.098509 0.066931
O O8 0.566402 0.053407 0.656188
O O9 0.268796 0.347643 0.693431
O O10 0.681221 0.919067 0.879887
O O11 0.506993 0.494363 0.111874
O O12 0.101856 0.626981 0.068486
O O13 0.066467 0.709367 0.855882
O O14 0.249816 0.556540 0.739192
O O15 0.500000 0.000000 0.500000
O O16 0.126037 0.324944 0.300841
O O17 0.000000 0.500000 0.000000
#
# Coordination Sequence:
#
# PCOD9018974 Si02
#       8
#     2   2   2   2   2   2   2   2
#     4  11  24  42  69 103 137 189 232 286 351 421
#     4  10  21  44  67 102 138 177 234 297 339 417
#     4  11  22  46  70  98 144 180 234 286 352 417
#     4  10  22  41  68  99 138 180 233 288 354 403
#     4  12  22  43  71  99 141 184 235 292 349 418
#     4  10  24  45  68  96 144 188 232 281 344 413
#     4  11  25  44  71 102 140 185 233 295 355 420
#     4  11  24  46  71 102 143 186 234 287 355 417
#
# _framework density 21.709119999999999
#
# number of rings (size 3 to 8) (size 9 to 14) (size 15 to 20)
#    0.000    1.250    5.000    0.750    1.750    3.500 
#    9.000    0.625    0.000    0.000    0.000    0.000 
#    0.000    0.000    0.000    0.000    0.000    0.000 
#
# Total GULP energy -89338.081320 kJ/mol
# GULP energy per Si atom -5583.630082 kJ/mol
# Density = 2.165971 g / cm^3
# Si number density = 21.709120 Si / 1000 Ang^3
#
#
#
# Elastic Constant Matrix: (Units=GPa)
#
#
# Indices 1 2 3 4 5 6 
#
# 1 103.4882 59.4357 41.6464 2.4839 4.5332 10.4594
# 2 59.4357 154.3922 41.8462 0.4181 6.1623 -1.9045
# 3 41.6464 41.8462 51.9455 10.0541 9.8068 4.9089
# 4 2.4839 0.4181 10.0541 44.1017 1.1252 7.9950
# 5 4.5332 6.1623 9.8068 1.1252 39.4364 5.1778
# 6 10.4594 -1.9045 4.9089 7.9950 5.1778 33.0372
#
#
#
# Elastic Compliance Matrix: (Units=1/GPa)
#
#
# Indices 1 2 3 4 5 6 
#
# 1 0.016278 -0.003543 -0.010556 0.002317 0.001851 -0.004640
# 2 -0.003543 0.009205 -0.004922 0.000839 -0.000120 0.002199
# 3 -0.010556 -0.004922 0.034201 -0.007120 -0.006412 0.000704
# 4 0.002317 0.000839 -0.007120 0.025202 0.001435 -0.005951
# 5 0.001851 -0.000120 -0.006412 0.001435 0.027276 -0.004262
# 6 -0.004640 0.002199 0.000704 -0.005951 -0.004262 0.033868
#
#
# Mechanical properties :
#
#
# Convention : Reuss Voigt Hill
#
# Bulk Modulus (GPa) = 46.20679 66.18693 56.19686
# Shear Modulus (GPa) = 26.13886 34.44157 30.29022
#
# Velocity S-wave (km/s) = 3.47371 3.98741 3.73939
# Velocity P-wave (km/s) = 6.11715 7.19399 6.67732
#
# Compressibility (1/GPa) = 0.02164184
#
# Stress axis : x y z
#
# Youngs Moduli (GPa) = 61.43310 108.64108 29.23868
#
# Poissons Ratio (x) = 0.38489 0.30864
# Poissons Ratio (y) = 0.21764 0.14392
# Poissons Ratio (z) = 0.64848 0.53477
#
# Static dielectric constant tensor:
#      x y z
#    x 1.809790 0.002860 0.019400 
#    y 0.002860 1.833360 -0.006000 
#    z 0.019400 -0.006000 1.788440 
# 
# From -- ./inp_files/498950.got.cif
#   From: 2010.05.17/outbox.cif.g08.bks.cpg/sg2_250_cif.got.tgz:498950.got - 2010.06.03 11:33:40.
