data_PCOD9018701
_publ_section_title
;
Structure prediction by ZEFSAII (Michael W. Deem and Ramdas Pophale) SiO2 
 PCOD9018701
Probable space group: P -1
;
_chemical_formula_sum "Si O2"
_cell_formula_units_Z 16
_cell_length_a 11.655655
_cell_length_b 15.004645
_cell_length_c 9.702488
_cell_angle_alpha 130.384836
_cell_angle_beta 57.810384
_cell_angle_gamma 152.081564
_cell_volume 601.395366
_symmetry_space_group_name_H-M "P -1"
_symmetry_group_IT_number 2
_symmetry_cell_setting 'triclinic'
loop_
_space_group_symop_operation_xyz
x,y,z
-x,-y,-z
loop_
_atom_site_type_symbol
_atom_site_label
_atom_site_fract_x
_atom_site_fract_y
_atom_site_fract_z
Si Si1 0.657844 0.728601 0.581037
Si Si2 0.486720 0.611281 0.276471
Si Si3 0.219320 0.802368 0.535035
Si Si4 0.263763 0.835097 0.082834
Si Si5 0.403221 0.683065 0.916335
Si Si6 0.017329 0.399358 0.237150
Si Si7 0.275041 0.203909 0.969222
Si Si8 0.980203 0.204189 0.588178
O O1 0.500000 0.500000 0.500000
O O2 0.554741 0.696949 0.470811
O O3 0.622218 0.806408 0.791386
O O4 0.918698 0.853057 0.520432
O O5 0.261029 0.519904 0.266513
O O6 0.399000 0.414457 0.148473
O O7 0.698800 0.773341 0.188731
O O8 0.066594 0.573463 0.369911
O O9 0.084400 0.807064 0.538552
O O10 0.190688 0.786347 0.703017
O O11 0.500000 0.000000 0.500000
O O12 0.281444 0.721661 0.029499
O O13 0.046741 0.690705 0.963958
O O14 0.245939 0.921297 0.295654
O O15 0.500000 0.000000 0.000000
O O16 0.541179 0.760137 0.049005
O O17 0.189840 0.441957 0.756029
O O18 0.000000 0.000000 0.000000
#
# Coordination Sequence:
#
# PCOD9018701 Si02
#       8
#     2   2   2   2   2   2   2   2
#     4  10  21  43  75  96 130 182 231 282 350 416
#     4  11  24  44  70  97 140 184 230 291 358 412
#     4  11  25  44  69 100 138 182 232 289 353 418
#     4  12  27  43  69 102 140 184 236 289 347 419
#     4  11  23  46  71  98 138 182 233 285 352 418
#     4  11  25  43  69  99 140 182 229 292 350 418
#     4  11  26  43  68 102 138 183 236 291 348 423
#     4  11  22  45  71  95 134 181 228 282 350 411
#
# _framework density 26.604793999999998
#
# number of rings (size 3 to 8) (size 9 to 14) (size 15 to 20)
#    0.000    1.000    3.750    3.375    7.000    1.000 
#    0.000    1.250    0.000    0.000    0.000    0.000 
#    0.000    0.000    0.000    0.000    0.000    0.000 
#
# Total GULP energy -89722.423638 kJ/mol
# GULP energy per Si atom -5607.651477 kJ/mol
# Density = 2.654424 g / cm^3
# Si number density = 26.604794 Si / 1000 Ang^3
#
#
#
# Elastic Constant Matrix: (Units=GPa)
#
#
# Indices 1 2 3 4 5 6 
#
# 1 165.9878 42.3049 46.6594 -5.1573 13.9573 5.4509
# 2 42.3049 136.4639 25.0694 -21.3649 7.3465 -1.0745
# 3 46.6594 25.0694 123.4342 -27.4006 17.3029 -6.8293
# 4 -5.1573 -21.3649 -27.4006 47.5724 4.7945 -3.2440
# 5 13.9573 7.3465 17.3029 4.7945 52.2896 -3.9319
# 6 5.4509 -1.0745 -6.8293 -3.2440 -3.9319 37.4253
#
#
#
# Elastic Compliance Matrix: (Units=1/GPa)
#
#
# Indices 1 2 3 4 5 6 
#
# 1 0.007391 -0.002032 -0.002770 -0.001759 -0.000750 -0.001872
# 2 -0.002032 0.008606 0.000049 0.003825 -0.000975 0.000781
# 3 -0.002770 0.000049 0.011260 0.006734 -0.003409 0.002685
# 4 -0.001759 0.003825 0.006734 0.027118 -0.004522 0.003470
# 5 -0.000750 -0.000975 -0.003409 -0.004522 0.021101 0.001284
# 6 -0.001872 0.000781 0.002685 0.003470 0.001284 0.027941
#
#
# Mechanical properties :
#
#
# Convention : Reuss Voigt Hill
#
# Bulk Modulus (GPa) = 56.33424 72.66148 64.49786
# Shear Modulus (GPa) = 42.07345 48.24762 45.16053
#
# Velocity S-wave (km/s) = 3.98103 4.26313 4.12449
# Velocity P-wave (km/s) = 6.50783 7.18353 6.85401
#
# Compressibility (1/GPa) = 0.01775119
#
# Stress axis : x y z
#
# Youngs Moduli (GPa) = 135.29980 116.19373 88.81134
#
# Poissons Ratio (x) = 0.23612 0.24600
# Poissons Ratio (y) = 0.27495 -0.00436
# Poissons Ratio (z) = 0.37478 -0.00571
#
# Static dielectric constant tensor:
#      x y z
#    x 2.115570 -0.027110 -0.009130 
#    y -0.027110 2.275460 -0.079690 
#    z -0.009130 -0.079690 2.098450 
# 
# From -- ./inp_files/273680.got.cif
#   From: 2010.05.17/outbox.cif.g08.bks.cpg/sg2_137_cif.got.tgz:273680.got - 2010.06.03 11:33:40.
