data_PCOD9018802
_publ_section_title
;
Structure prediction by ZEFSAII (Michael W. Deem and Ramdas Pophale) SiO2 
 PCOD9018802
Probable space group: P -1
;
_chemical_formula_sum "Si O2"
_cell_formula_units_Z 14
_cell_length_a 9.814033
_cell_length_b 13.176079
_cell_length_c 11.536105
_cell_angle_alpha 37.034381
_cell_angle_beta 71.943082
_cell_angle_gamma 98.925008
_cell_volume 607.484832
_symmetry_space_group_name_H-M "P -1"
_symmetry_group_IT_number 2
_symmetry_cell_setting 'triclinic'
loop_
_space_group_symop_operation_xyz
x,y,z
-x,-y,-z
loop_
_atom_site_type_symbol
_atom_site_label
_atom_site_fract_x
_atom_site_fract_y
_atom_site_fract_z
Si Si1 0.655950 0.914170 0.800194
Si Si2 0.280082 0.577082 0.368027
Si Si3 0.758538 0.823848 0.236220
Si Si4 0.156519 0.814358 0.277797
Si Si5 0.127910 0.771997 0.737640
Si Si6 0.254642 0.343333 0.129761
Si Si7 0.655878 0.818117 0.534162
O O1 0.675080 0.744158 0.897850
O O2 0.830834 0.099587 0.676742
O O3 0.685888 0.064621 0.548775
O O4 0.450932 0.763396 0.061177
O O5 0.323322 0.428809 0.544516
O O6 0.250631 0.706077 0.346387
O O7 0.068813 0.386165 0.528645
O O8 0.693765 0.808517 0.399031
O O9 0.719428 0.952796 0.048310
O O10 0.000000 0.000000 0.000000
O O11 0.966621 0.779739 0.731927
O O12 0.217746 0.912084 0.707325
O O13 0.000000 0.500000 0.000000
O O14 0.269999 0.273842 0.316739
O O15 0.419848 0.626981 0.806640
#
# Coordination Sequence:
#
# PCOD9018802 Si02
#       7
#     2   2   2   2   2   2   2
#     4  11  22  42  67  91 127 171 216 267 326 390
#     4  10  22  42  61  94 131 176 215 257 333 383
#     4  10  22  38  65  96 125 175 215 257 328 384
#     4  10  24  40  64  96 135 170 214 272 317 393
#     4  11  27  41  64 101 126 167 220 276 330 386
#     4  10  23  41  71  91 120 179 216 266 330 380
#     4  10  21  44  64  91 129 164 220 269 316 400
#
# _framework density 23.045840999999999
#
# number of rings (size 3 to 8) (size 9 to 14) (size 15 to 20)
#    0.000    1.714    1.429    2.143    8.000    5.714 
#    0.000    0.000    0.000    0.000    0.000    0.000 
#    0.000    0.000    0.000    0.000    0.000    0.000 
#
# Total GULP energy -78250.015032 kJ/mol
# GULP energy per Si atom -5589.286788 kJ/mol
# Density = 2.299339 g / cm^3
# Si number density = 23.045841 Si / 1000 Ang^3
#
#
#
# Elastic Constant Matrix: (Units=GPa)
#
#
# Indices 1 2 3 4 5 6 
#
# 1 45.6135 18.5749 5.0728 -7.7771 -2.2199 0.7571
# 2 18.5749 103.4202 22.1128 -15.9590 21.0245 1.1622
# 3 5.0728 22.1128 94.3801 -21.0423 -8.7199 -15.7460
# 4 -7.7771 -15.9590 -21.0423 47.1879 -4.0110 2.0540
# 5 -2.2199 21.0245 -8.7199 -4.0110 33.2039 -3.2986
# 6 0.7571 1.1622 -15.7460 2.0540 -3.2986 15.7775
#
#
#
# Elastic Compliance Matrix: (Units=1/GPa)
#
#
# Indices 1 2 3 4 5 6 
#
# 1 0.024854 -0.005543 0.001549 0.003365 0.006145 0.001608
# 2 -0.005543 0.014447 -0.005423 0.000942 -0.011701 -0.008779
# 3 0.001549 -0.005423 0.017348 0.006240 0.010742 0.019072
# 4 0.003365 0.000942 0.006240 0.025083 0.004666 0.003707
# 5 0.006145 -0.011701 0.010742 0.004666 0.043281 0.019729
# 6 0.001608 -0.008779 0.019072 0.003707 0.019729 0.086627
#
#
# Mechanical properties :
#
#
# Convention : Reuss Voigt Hill
#
# Bulk Modulus (GPa) = 26.44374 37.21497 31.82935
# Shear Modulus (GPa) = 20.56935 32.41074 26.49004
#
# Velocity S-wave (km/s) = 2.99078 3.75421 3.39403
# Velocity P-wave (km/s) = 4.84001 5.91401 5.40376
#
# Compressibility (1/GPa) = 0.03781614
#
# Stress axis : x y z
#
# Youngs Moduli (GPa) = 40.23427 69.21853 57.64237
#
# Poissons Ratio (x) = 0.38370 -0.08929
# Poissons Ratio (y) = 0.22303 0.31257
# Poissons Ratio (z) = -0.06232 0.37535
#
# Static dielectric constant tensor:
#      x y z
#    x 1.882760 -0.007710 0.016520 
#    y -0.007710 1.839330 -0.058090 
#    z 0.016520 -0.058090 1.902590 
# 
# From -- ./inp_files/254417.got.cif
#   From: 2010.05.17/outbox.cif.g08.bks.cpg/sg2_128_cif.got.tgz:254417.got - 2010.06.03 11:33:40.
