data_PCOD9018194
_publ_section_title
;
Structure prediction by ZEFSAII (Michael W. Deem and Ramdas Pophale) SiO2 
 PCOD9018194
Probable space group: P -1
;
_chemical_formula_sum "Si O2"
_cell_formula_units_Z 16
_cell_length_a 19.221035
_cell_length_b 8.786664
_cell_length_c 21.530280
_cell_angle_alpha 135.743216
_cell_angle_beta 23.308871
_cell_angle_gamma 148.803986
_cell_volume 701.272856
_symmetry_space_group_name_H-M "P -1"
_symmetry_group_IT_number 2
_symmetry_cell_setting 'triclinic'
loop_
_space_group_symop_operation_xyz
x,y,z
-x,-y,-z
loop_
_atom_site_type_symbol
_atom_site_label
_atom_site_fract_x
_atom_site_fract_y
_atom_site_fract_z
Si Si1 0.012169 0.179265 0.487339
Si Si2 0.034878 0.671371 0.959206
Si Si3 0.540433 0.269370 0.168311
Si Si4 0.815517 0.705480 0.968392
Si Si5 0.003725 0.940340 0.303464
Si Si6 0.470525 0.747057 0.045366
Si Si7 0.245171 0.746643 0.676660
Si Si8 0.015654 0.631915 0.592001
O O1 0.111406 0.510145 0.518331
O O2 0.714386 0.934030 0.644902
O O3 0.000000 0.000000 0.500000
O O4 0.122013 0.157477 0.331593
O O5 0.230582 0.782940 0.774670
O O6 0.000000 0.500000 0.000000
O O7 0.766975 0.422008 0.072249
O O8 0.079906 0.960480 0.026322
O O9 0.504572 0.031263 0.082612
O O10 0.621983 0.538639 0.136459
O O11 0.666596 0.498458 0.969398
O O12 0.034407 0.724797 0.813383
O O13 0.844320 0.586863 0.349331
O O14 0.866502 0.022016 0.405702
O O15 0.257828 0.086341 0.104583
O O16 0.268376 0.571696 0.214428
O O17 0.500000 0.000000 0.500000
O O18 0.000000 0.500000 0.500000
#
# Coordination Sequence:
#
# PCOD9018194 Si02
#       8
#     2   2   2   2   2   2   2   2
#     4  10  22  37  65  99 142 173 225 278 357 418
#     4  11  26  48  71 100 138 192 239 286 357 424
#     4  10  21  43  68  99 139 180 229 285 344 423
#     4  11  24  41  71  99 140 176 239 285 357 419
#     4  11  22  39  69  97 139 178 228 288 358 405
#     4  11  21  39  73 105 136 170 237 290 354 415
#     4  11  26  47  72 100 138 190 242 293 347 421
#     4   9  22  40  58  99 141 179 214 283 357 414
#
# _framework density 22.815655
#
# number of rings (size 3 to 8) (size 9 to 14) (size 15 to 20)
#    0.000    1.500    2.500    3.000    8.750    2.000 
#    0.000    5.625    0.000    0.000    0.000    0.000 
#    0.000    0.000    0.000    0.000    0.000    0.000 
#
# Total GULP energy -89175.404528 kJ/mol
# GULP energy per Si atom -5573.462783 kJ/mol
# Density = 2.276373 g / cm^3
# Si number density = 22.815655 Si / 1000 Ang^3
#
#
#
# Elastic Constant Matrix: (Units=GPa)
#
#
# Indices 1 2 3 4 5 6 
#
# 1 95.4059 59.9391 32.9968 -4.0549 16.0295 -17.0299
# 2 59.9391 197.2599 47.4877 23.0667 -9.0162 -37.6521
# 3 32.9968 47.4877 86.6167 -13.1649 18.5931 -3.3724
# 4 -4.0549 23.0667 -13.1649 30.9799 -8.8143 -8.3402
# 5 16.0295 -9.0162 18.5931 -8.8143 19.9005 1.9227
# 6 -17.0299 -37.6521 -3.3724 -8.3402 1.9227 45.8763
#
#
#
# Elastic Compliance Matrix: (Units=1/GPa)
#
#
# Indices 1 2 3 4 5 6 
#
# 1 0.017408 -0.006079 0.000819 0.003251 -0.016373 0.002810
# 2 -0.006079 0.011002 -0.007491 -0.007226 0.013259 0.004353
# 3 0.000819 -0.007491 0.020728 0.008413 -0.019504 -0.001973
# 4 0.003251 -0.007226 0.008413 0.044214 0.005473 0.003703
# 5 -0.016373 0.013259 -0.019504 0.005473 0.090035 0.000591
# 6 0.002810 0.004353 -0.001973 0.003703 0.000591 0.026917
#
#
# Mechanical properties :
#
#
# Convention : Reuss Voigt Hill
#
# Bulk Modulus (GPa) = 42.30606 73.34774 57.82690
# Shear Modulus (GPa) = 20.51840 35.27527 27.89683
#
# Velocity S-wave (km/s) = 3.00211 3.93631 3.50051
# Velocity P-wave (km/s) = 5.53170 7.27167 6.46053
#
# Compressibility (1/GPa) = 0.02363728
#
# Stress axis : x y z
#
# Youngs Moduli (GPa) = 57.44483 90.89406 48.24304
#
# Poissons Ratio (x) = 0.55254 -0.03953
# Poissons Ratio (y) = 0.34920 0.36139
# Poissons Ratio (z) = -0.04707 0.68088
#
# Static dielectric constant tensor:
#      x y z
#    x 1.971740 -0.114570 -0.032760 
#    y -0.114570 1.963630 0.061270 
#    z -0.032760 0.061270 1.915430 
# 
# From -- ./inp_files/613604.got.cif
#   From: 2010.05.17/outbox.cif.g08.bks.cpg/sg2_307_cif.got.tgz:613604.got - 2010.06.03 11:33:40.
