data_PCOD9018185
_publ_section_title
;
Structure prediction by ZEFSAII (Michael W. Deem and Ramdas Pophale) SiO2 
 PCOD9018185
Probable space group: P -1
;
_chemical_formula_sum "Si O2"
_cell_formula_units_Z 16
_cell_length_a 6.869993
_cell_length_b 7.822082
_cell_length_c 14.669257
_cell_angle_alpha 63.820413
_cell_angle_beta 100.612111
_cell_angle_gamma 76.737411
_cell_volume 650.772699
_symmetry_space_group_name_H-M "P -1"
_symmetry_group_IT_number 2
_symmetry_cell_setting 'triclinic'
loop_
_space_group_symop_operation_xyz
x,y,z
-x,-y,-z
loop_
_atom_site_type_symbol
_atom_site_label
_atom_site_fract_x
_atom_site_fract_y
_atom_site_fract_z
Si Si1 0.256772 0.633111 0.840371
Si Si2 0.103380 0.688294 0.240960
Si Si3 0.921899 0.864806 0.892130
Si Si4 0.338661 0.312541 0.219536
Si Si5 0.086188 0.173545 0.550259
Si Si6 0.715108 0.809221 0.065252
Si Si7 0.725460 0.516703 0.504055
Si Si8 0.118700 0.118810 0.360505
O O1 0.436792 0.700551 0.795687
O O2 0.667153 0.607619 0.081929
O O3 0.064334 0.679574 0.739364
O O4 0.154348 0.755101 0.894781
O O5 0.159397 0.895265 0.196160
O O6 0.233928 0.527906 0.212094
O O7 0.162793 0.562765 0.369950
O O8 0.852560 0.767225 0.179338
O O9 0.794277 0.735507 0.862780
O O10 0.879258 0.844819 0.998570
O O11 0.326899 0.138297 0.330162
O O12 0.261220 0.266641 0.571291
O O13 0.154155 0.082144 0.478480
O O14 0.868515 0.366386 0.476310
O O15 0.000675 0.036717 0.639948
O O16 0.500000 0.000000 0.000000
O O17 0.500000 0.500000 0.500000
#
# Coordination Sequence:
#
# PCOD9018185 Si02
#       8
#     2   2   2   2   2   2   2   2
#     4  11  24  44  75 104 150 199 240 303 379 433
#     4  12  25  50  72 106 158 190 247 314 364 441
#     4  11  26  47  74 110 150 192 250 307 364 451
#     4  11  24  45  72 104 145 196 242 299 375 438
#     4  10  22  41  68 104 142 185 247 302 364 431
#     4  12  26  49  77 113 147 200 249 306 375 440
#     4  11  24  43  71 107 147 191 240 301 371 443
#     4  10  21  43  68  98 145 191 238 307 358 439
#
# _framework density 24.586158000000001
#
# number of rings (size 3 to 8) (size 9 to 14) (size 15 to 20)
#    0.000    1.000    3.750    3.000    3.500    2.500 
#    4.500    2.500    0.000    0.000    0.000    0.000 
#    0.000    0.000    0.000    0.000    0.000    0.000 
#
# Total GULP energy -89352.919656 kJ/mol
# GULP energy per Si atom -5584.557479 kJ/mol
# Density = 2.453020 g / cm^3
# Si number density = 24.586158 Si / 1000 Ang^3
#
#
#
# Elastic Constant Matrix: (Units=GPa)
#
#
# Indices 1 2 3 4 5 6 
#
# 1 202.4924 56.1130 35.5464 -9.0853 -32.3411 9.0643
# 2 56.1130 129.7736 19.9038 -21.3113 -9.7799 8.6920
# 3 35.5464 19.9038 77.4222 -0.4140 -14.4853 -1.5024
# 4 -9.0853 -21.3113 -0.4140 27.3150 7.1992 -5.6682
# 5 -32.3411 -9.7799 -14.4853 7.1992 46.8286 -14.8197
# 6 9.0643 8.6920 -1.5024 -5.6682 -14.8197 35.9148
#
#
#
# Elastic Compliance Matrix: (Units=1/GPa)
#
#
# Indices 1 2 3 4 5 6 
#
# 1 0.006424 -0.002373 -0.001662 -0.000635 0.003611 0.000273
# 2 -0.002373 0.010177 -0.001828 0.007254 -0.001663 -0.001482
# 3 -0.001662 -0.001828 0.015017 -0.002300 0.004401 0.002943
# 4 -0.000635 0.007254 -0.002300 0.044088 -0.005459 0.003014
# 5 0.003611 -0.001663 0.004401 -0.005459 0.029130 0.010834
# 6 0.000273 -0.001482 0.002943 0.003014 0.010834 0.033202
#
#
# Mechanical properties :
#
#
# Convention : Reuss Voigt Hill
#
# Bulk Modulus (GPa) = 50.26970 70.31272 60.29121
# Shear Modulus (GPa) = 31.97021 41.88668 36.92845
#
# Velocity S-wave (km/s) = 3.60993 4.13203 3.87977
# Velocity P-wave (km/s) = 6.15355 7.17116 6.68175
#
# Compressibility (1/GPa) = 0.01989270
#
# Stress axis : x y z
#
# Youngs Moduli (GPa) = 155.67118 98.25630 66.59011
#
# Poissons Ratio (x) = 0.23318 0.11065
# Poissons Ratio (y) = 0.36944 0.12173
# Poissons Ratio (z) = 0.25868 0.17961
#
# Static dielectric constant tensor:
#      x y z
#    x 1.946880 0.035860 -0.002070 
#    y 0.035860 2.055620 0.000150 
#    z -0.002070 0.000150 2.018310 
# 
# From -- ./inp_files/480344.got.cif
#   From: 2010.05.17/outbox.cif.g08.bks.cpg/sg2_241_cif.got.tgz:480344.got - 2010.06.03 11:33:40.
