data_PCOD9018660
_publ_section_title
;
Structure prediction by ZEFSAII (Michael W. Deem and Ramdas Pophale) SiO2 
 PCOD9018660
Probable space group: P -1
;
_chemical_formula_sum "Si O2"
_cell_formula_units_Z 16
_cell_length_a 12.645981
_cell_length_b 12.325325
_cell_length_c 9.868577
_cell_angle_alpha 134.469930
_cell_angle_beta 127.555345
_cell_angle_gamma 38.402160
_cell_volume 675.458388
_symmetry_space_group_name_H-M "P -1"
_symmetry_group_IT_number 2
_symmetry_cell_setting 'triclinic'
loop_
_space_group_symop_operation_xyz
x,y,z
-x,-y,-z
loop_
_atom_site_type_symbol
_atom_site_label
_atom_site_fract_x
_atom_site_fract_y
_atom_site_fract_z
Si Si1 0.380682 0.000407 0.577570
Si Si2 0.194080 0.757660 0.839938
Si Si3 0.943844 0.620828 0.923258
Si Si4 0.489249 0.559789 0.695572
Si Si5 0.603760 0.122922 0.812982
Si Si6 0.364802 0.964861 0.844753
Si Si7 0.269292 0.560662 0.011712
Si Si8 0.013682 0.373526 0.527588
O O1 0.547645 0.992787 0.699732
O O2 0.354557 0.947376 0.658951
O O3 0.208725 0.220963 0.601254
O O4 0.393283 0.884256 0.354492
O O5 0.340737 0.601570 0.711740
O O6 0.037775 0.762520 0.673593
O O7 0.227535 0.916720 0.024346
O O8 0.229074 0.682953 0.954799
O O9 0.896471 0.526912 0.691706
O O10 0.808084 0.844576 0.058756
O O11 0.000000 0.500000 0.000000
O O12 0.104756 0.585247 0.947477
O O13 0.500000 0.500000 0.500000
O O14 0.667547 0.400797 0.770692
O O15 0.439007 0.771548 0.816918
O O16 0.439808 0.342401 0.917264
O O17 0.500000 0.000000 0.000000
O O18 0.000000 0.500000 0.500000
#
# Coordination Sequence:
#
# PCOD9018660 Si02
#       8
#     2   2   2   2   2   2   2   2
#     4  11  24  44  72 107 145 191 248 310 361 448
#     4  11  25  45  71 105 147 192 245 303 376 438
#     4  12  24  47  75 102 153 190 245 314 364 442
#     4  11  27  45  74 110 147 193 249 305 374 451
#     4  10  21  43  73  99 144 188 248 293 370 432
#     4  12  27  45  74 109 145 195 251 299 378 440
#     4  11  23  47  71 102 142 196 238 304 373 427
#     4  12  25  44  71 111 141 195 251 301 377 438
#
# _framework density 23.687615999999998
#
# number of rings (size 3 to 8) (size 9 to 14) (size 15 to 20)
#    0.000    0.750    3.750    3.750    7.000    4.500 
#    2.250    1.250    0.000    0.000    0.000    0.000 
#    0.000    0.000    0.000    0.000    0.000    0.000 
#
# Total GULP energy -89377.538821 kJ/mol
# GULP energy per Si atom -5586.096176 kJ/mol
# Density = 2.363370 g / cm^3
# Si number density = 23.687616 Si / 1000 Ang^3
#
#
#
# Elastic Constant Matrix: (Units=GPa)
#
#
# Indices 1 2 3 4 5 6 
#
# 1 127.6631 42.8687 59.4913 -8.0266 -7.8693 15.1330
# 2 42.8687 61.2875 9.3568 -15.7064 -4.3444 16.5014
# 3 59.4913 9.3568 160.9885 -17.2063 -14.4772 2.1858
# 4 -8.0266 -15.7064 -17.2063 35.5446 6.1518 -14.3496
# 5 -7.8693 -4.3444 -14.4772 6.1518 51.8160 -8.1636
# 6 15.1330 16.5014 2.1858 -14.3496 -8.1636 34.0554
#
#
#
# Elastic Compliance Matrix: (Units=1/GPa)
#
#
# Indices 1 2 3 4 5 6 
#
# 1 0.013070 -0.008710 -0.004763 -0.004479 -0.000045 -0.003180
# 2 -0.008710 0.025565 0.002700 0.008613 -0.000255 -0.005122
# 3 -0.004763 0.002700 0.008471 0.005054 0.001712 0.002805
# 4 -0.004479 0.008613 0.005054 0.039090 -0.001026 0.013718
# 5 -0.000045 -0.000255 0.001712 -0.001026 0.020585 0.004536
# 6 -0.003180 -0.005122 0.002805 0.013718 0.004536 0.039946
#
#
# Mechanical properties :
#
#
# Convention : Reuss Voigt Hill
#
# Bulk Modulus (GPa) = 39.12414 63.70808 51.41611
# Shear Modulus (GPa) = 28.28159 40.16469 34.22314
#
# Velocity S-wave (km/s) = 3.45909 4.12223 3.80514
# Velocity P-wave (km/s) = 5.70143 7.04348 6.40769
#
# Compressibility (1/GPa) = 0.02555967
#
# Stress axis : x y z
#
# Youngs Moduli (GPa) = 76.51096 39.11622 118.05118
#
# Poissons Ratio (x) = 0.34069 0.56231
# Poissons Ratio (y) = 0.66639 -0.31873
# Poissons Ratio (z) = 0.36444 -0.10561
#
# Static dielectric constant tensor:
#      x y z
#    x 1.909530 -0.005250 0.024520 
#    y -0.005250 1.870630 0.037490 
#    z 0.024520 0.037490 2.082300 
# 
# From -- ./inp_files/263561.got.cif
#   From: 2010.05.17/outbox.cif.g08.bks.cpg/sg2_132_cif.got.tgz:263561.got - 2010.06.03 11:33:40.
