data_PCOD9018155
_publ_section_title
;
Structure prediction by ZEFSAII (Michael W. Deem and Ramdas Pophale) SiO2 
 PCOD9018155
Probable space group: P -1
;
_chemical_formula_sum "Si O2"
_cell_formula_units_Z 15
_cell_length_a 9.887285
_cell_length_b 12.112410
_cell_length_c 8.525791
_cell_angle_alpha 116.530108
_cell_angle_beta 78.209961
_cell_angle_gamma 127.751340
_cell_volume 718.842140
_symmetry_space_group_name_H-M "P -1"
_symmetry_group_IT_number 2
_symmetry_cell_setting 'triclinic'
loop_
_space_group_symop_operation_xyz
x,y,z
-x,-y,-z
loop_
_atom_site_type_symbol
_atom_site_label
_atom_site_fract_x
_atom_site_fract_y
_atom_site_fract_z
Si Si1 0.927205 0.206834 0.475959
Si Si2 0.686225 0.597555 0.944280
Si Si3 0.035199 0.430829 0.091964
Si Si4 0.680898 0.543124 0.548605
Si Si5 0.174915 0.895547 0.210737
Si Si6 0.500000 0.000000 0.000000
Si Si7 0.060492 0.046352 0.835593
Si Si8 0.769673 0.311447 0.334125
O O1 0.858537 0.163106 0.641131
O O2 0.831849 0.261470 0.432920
O O3 0.136656 0.328080 0.497937
O O4 0.881225 0.054287 0.304423
O O5 0.769676 0.508293 0.905952
O O6 0.694519 0.604901 0.759192
O O7 0.500000 0.500000 0.000000
O O8 0.788852 0.771956 0.092379
O O9 0.944184 0.431733 0.269356
O O10 0.000000 0.500000 0.000000
O O11 0.945391 0.253574 0.963382
O O12 0.500000 0.500000 0.500000
O O13 0.681981 0.394158 0.453190
O O14 0.099925 0.991348 0.254946
O O15 0.363200 0.972907 0.150715
O O16 0.351103 0.831862 0.844377
O O17 0.000000 0.000000 0.000000
#
# Coordination Sequence:
#
# PCOD9018155 Si02
#       8
#     2   2   2   2   2   1   2   2
#     4  12  24  46  75 100 142 190 236 295 362 430
#     4  11  26  45  68 107 142 182 242 291 353 420
#     4  10  21  43  68  96 137 193 224 283 356 426
#     4  12  28  43  71 105 143 182 235 302 352 417
#     4  10  24  40  69 103 134 184 234 284 355 423
#     4  10  24  46  66 100 142 172 240 286 352 420
#     4  11  22  46  73  98 144 194 235 286 361 427
#     4  11  25  46  72 100 141 185 237 292 360 424
#
# _framework density 20.866890000000001
#
# number of rings (size 3 to 8) (size 9 to 14) (size 15 to 20)
#    0.000    1.067    2.667    3.200    9.333    2.667 
#    4.800    0.000    0.000    0.000    0.000    0.000 
#    0.000    0.000    0.000    0.000    0.000    0.000 
#
# Total GULP energy -83500.671150 kJ/mol
# GULP energy per Si atom -5566.711410 kJ/mol
# Density = 2.081940 g / cm^3
# Si number density = 20.866890 Si / 1000 Ang^3
#
#
#
# Elastic Constant Matrix: (Units=GPa)
#
#
# Indices 1 2 3 4 5 6 
#
# 1 159.3860 70.5798 50.0425 -17.4508 -21.9643 0.0142
# 2 70.5798 103.4948 37.2608 -13.4032 -12.6542 18.2829
# 3 50.0425 37.2608 107.5131 -1.8084 -20.0014 7.0091
# 4 -17.4508 -13.4032 -1.8084 54.1751 -0.4738 -4.3971
# 5 -21.9643 -12.6542 -20.0014 -0.4738 26.3848 -6.3646
# 6 0.0142 18.2829 7.0091 -4.3971 -6.3646 40.8660
#
#
#
# Elastic Compliance Matrix: (Units=1/GPa)
#
#
# Indices 1 2 3 4 5 6 
#
# 1 0.010725 -0.006402 -0.002010 0.002199 0.005407 0.004284
# 2 -0.006402 0.016116 -0.002322 0.001285 -0.000983 -0.006824
# 3 -0.002010 -0.002322 0.012236 -0.000768 0.006442 -0.000139
# 4 0.002199 0.001285 -0.000768 0.019653 0.002723 0.002095
# 5 0.005407 -0.000983 0.006442 0.002723 0.048598 0.007195
# 6 0.004284 -0.006824 -0.000139 0.002095 0.007195 0.028892
#
#
# Mechanical properties :
#
#
# Convention : Reuss Voigt Hill
#
# Bulk Modulus (GPa) = 56.78542 76.24002 66.51272
# Shear Modulus (GPa) = 30.57041 38.45257 34.51149
#
# Velocity S-wave (km/s) = 3.83171 4.29739 4.07121
# Velocity P-wave (km/s) = 6.84458 7.82554 7.35144
#
# Compressibility (1/GPa) = 0.01761016
#
# Stress axis : x y z
#
# Youngs Moduli (GPa) = 93.23619 62.05134 81.72644
#
# Poissons Ratio (x) = 0.39723 0.16426
# Poissons Ratio (y) = 0.59686 0.18977
# Poissons Ratio (z) = 0.18740 0.14408
#
# Static dielectric constant tensor:
#      x y z
#    x 1.768250 -0.005240 0.049790 
#    y -0.005240 1.749610 0.031800 
#    z 0.049790 0.031800 1.745170 
# 
# From -- ./inp_files/189959.got.cif
#   From: 2010.05.17/outbox.cif.g08.bks.cpg/sg2_95_cif.got.tgz:189959.got - 2010.06.03 11:33:40.
