data_PCOD9018139
_publ_section_title
;
Structure prediction by ZEFSAII (Michael W. Deem and Ramdas Pophale) SiO2 
 PCOD9018139
Probable space group: P -1
;
_chemical_formula_sum "Si O2"
_cell_formula_units_Z 16
_cell_length_a 27.495512
_cell_length_b 26.588501
_cell_length_c 9.499694
_cell_angle_alpha 40.680729
_cell_angle_beta 39.453855
_cell_angle_gamma 10.666252
_cell_volume 816.819131
_symmetry_space_group_name_H-M "P -1"
_symmetry_group_IT_number 2
_symmetry_cell_setting 'triclinic'
loop_
_space_group_symop_operation_xyz
x,y,z
-x,-y,-z
loop_
_atom_site_type_symbol
_atom_site_label
_atom_site_fract_x
_atom_site_fract_y
_atom_site_fract_z
Si Si1 0.767175 0.743666 0.348854
Si Si2 0.742191 0.800722 0.967036
Si Si3 0.376690 0.875912 0.004808
Si Si4 0.923495 0.439597 0.762636
Si Si5 0.620984 0.467997 0.789654
Si Si6 0.187760 0.978218 0.492261
Si Si7 0.131390 0.149359 0.502261
Si Si8 0.564985 0.639431 0.799131
O O1 0.889580 0.538507 0.508709
O O2 0.988661 0.589240 0.243074
O O3 0.500000 0.000000 0.500000
O O4 0.682606 0.854433 0.151151
O O5 0.798194 0.831880 0.724096
O O6 0.000000 0.500000 0.000000
O O7 0.500000 0.000000 0.000000
O O8 0.250894 0.948928 0.258888
O O9 0.640280 0.667678 0.914270
O O10 0.460538 0.738328 0.981862
O O11 0.163137 0.145083 0.849555
O O12 0.606694 0.521924 0.862188
O O13 0.927194 0.175325 0.671037
O O14 0.440678 0.692402 0.608096
O O15 0.500000 0.500000 0.000000
O O16 0.116035 0.120639 0.448110
O O17 0.847201 0.411313 0.656067
O O18 0.356828 0.890677 0.640720
#
# Coordination Sequence:
#
# PCOD9018139 Si02
#       8
#     2   2   2   2   2   2   2   2
#     4  11  26  45  60  86 119 167 230 258 342 381
#     4  12  29  39  60  87 124 160 215 276 325 359
#     4  12  23  39  64  93 122 159 216 260 314 354
#     4  11  25  38  66  83 122 167 213 272 317 376
#     4  10  21  43  68  96 130 165 195 240 307 383
#     4  10  22  40  65  94 121 161 208 249 299 374
#     4  10  22  41  56  83 119 163 206 254 309 376
#     4  10  23  39  65  89 123 161 204 246 314 374
#
# _framework density 19.588180000000001
#
# number of rings (size 3 to 8) (size 9 to 14) (size 15 to 20)
#    0.000    1.250    1.250    3.375    8.750    2.000 
#    0.000    1.250    0.000    0.000    0.000    0.000 
#    0.000    0.000    0.000    0.000    0.000    0.000 
#
# Total GULP energy -89427.678021 kJ/mol
# GULP energy per Si atom -5589.229876 kJ/mol
# Density = 1.954360 g / cm^3
# Si number density = 19.588180 Si / 1000 Ang^3
#
#
#
# Elastic Constant Matrix: (Units=GPa)
#
#
# Indices 1 2 3 4 5 6 
#
# 1 90.9190 20.6001 61.7905 28.3550 10.9804 -14.8503
# 2 20.6001 105.3945 10.5224 16.4701 6.8688 -20.4803
# 3 61.7905 10.5224 70.8341 26.8965 6.3513 -4.2966
# 4 28.3550 16.4701 26.8965 33.9764 7.4007 -6.9516
# 5 10.9804 6.8688 6.3513 7.4007 39.9725 6.6717
# 6 -14.8503 -20.4803 -4.2966 -6.9516 6.6717 35.8123
#
#
#
# Elastic Compliance Matrix: (Units=1/GPa)
#
#
# Indices 1 2 3 4 5 6 
#
# 1 0.031490 -0.000906 -0.025243 -0.002557 -0.005692 0.010075
# 2 -0.000906 0.011476 0.001179 -0.004056 -0.002151 0.005942
# 3 -0.025243 0.001179 0.040455 -0.014221 0.004357 -0.008512
# 4 -0.002557 -0.004056 -0.014221 0.047139 -0.005932 0.005169
# 5 -0.005692 -0.002151 0.004357 -0.005932 0.028961 -0.009615
# 6 0.010075 0.005942 -0.008512 0.005169 -0.009615 0.037273
#
#
# Mechanical properties :
#
#
# Convention : Reuss Voigt Hill
#
# Bulk Modulus (GPa) = 29.86694 50.33042 40.09868
# Shear Modulus (GPa) = 19.38772 33.56789 26.47780
#
# Velocity S-wave (km/s) = 3.14947 4.14415 3.68057
# Velocity P-wave (km/s) = 5.33911 6.97486 6.21107
#
# Compressibility (1/GPa) = 0.03348183
#
# Stress axis : x y z
#
# Youngs Moduli (GPa) = 31.75603 87.13614 24.71873
#
# Poissons Ratio (x) = 0.07898 0.62397
# Poissons Ratio (y) = 0.02878 -0.02915
# Poissons Ratio (z) = 0.80161 -0.10276
#
# Static dielectric constant tensor:
#      x y z
#    x 1.706730 0.022980 0.023620 
#    y 0.022980 1.700410 0.005670 
#    z 0.023620 0.005670 1.649090 
# 
# From -- ./inp_files/357947.got.cif
#   From: 2010.05.17/outbox.cif.g08.bks.cpg/sg2_179_cif.got.tgz:357947.got - 2010.06.03 11:33:40.
