data_PCOD9018737
_publ_section_title
;
Structure prediction by ZEFSAII (Michael W. Deem and Ramdas Pophale) SiO2 
 PCOD9018737
Probable space group: P -1
;
_chemical_formula_sum "Si O2"
_cell_formula_units_Z 16
_cell_length_a 5.070857
_cell_length_b 25.748837
_cell_length_c 9.212908
_cell_angle_alpha 132.270414
_cell_angle_beta 130.730546
_cell_angle_gamma 53.663952
_cell_volume 648.722160
_symmetry_space_group_name_H-M "P -1"
_symmetry_group_IT_number 2
_symmetry_cell_setting 'triclinic'
loop_
_space_group_symop_operation_xyz
x,y,z
-x,-y,-z
loop_
_atom_site_type_symbol
_atom_site_label
_atom_site_fract_x
_atom_site_fract_y
_atom_site_fract_z
Si Si1 0.503519 0.975483 0.291167
Si Si2 0.447110 0.657843 0.540882
Si Si3 0.919445 0.816927 0.156643
Si Si4 0.237321 0.064641 0.115605
Si Si5 0.922046 0.609922 0.099367
Si Si6 0.357392 0.698460 0.279332
Si Si7 0.862797 0.211625 0.133740
Si Si8 0.803591 0.539892 0.646716
O O1 0.843234 0.903829 0.261511
O O2 0.500000 0.000000 0.500000
O O3 0.427661 0.050038 0.312017
O O4 0.160569 0.947929 0.064022
O O5 0.581928 0.682702 0.483093
O O6 0.169865 0.727880 0.641164
O O7 0.685417 0.622122 0.694801
O O8 0.252448 0.596225 0.305684
O O9 0.216309 0.778517 0.310768
O O10 0.528605 0.805976 0.038141
O O11 0.047380 0.774254 0.972284
O O12 0.180989 0.142456 0.170575
O O13 0.500000 0.000000 0.000000
O O14 0.562584 0.640299 0.122366
O O15 0.999492 0.677956 0.168589
O O16 0.966086 0.547612 0.878591
O O17 0.500000 0.500000 0.500000
O O18 0.000000 0.500000 0.500000
#
# Coordination Sequence:
#
# PCOD9018737 Si02
#       8
#     2   2   2   2   2   2   2   2
#     4  10  23  39  63  88 132 172 224 276 333 397
#     4  10  27  43  70  99 130 173 221 264 326 387
#     4  11  22  41  63  97 128 177 217 274 330 382
#     4  10  21  44  59  96 130 175 222 279 331 393
#     4  10  24  45  66  98 134 166 215 271 307 398
#     4  10  22  41  65  95 134 165 217 269 315 376
#     4  11  24  41  71  91 136 175 219 274 330 385
#     4  12  27  45  72  98 132 175 210 263 331 389
#
# _framework density 24.663872999999999
#
# number of rings (size 3 to 8) (size 9 to 14) (size 15 to 20)
#    0.750    0.750    1.250    3.000    5.250    1.500 
#    2.250    0.000    0.000    0.000    0.000    0.000 
#    0.000    0.000    0.000    0.000    0.000    0.000 
#
# Total GULP energy -89198.721999 kJ/mol
# GULP energy per Si atom -5574.920125 kJ/mol
# Density = 2.460774 g / cm^3
# Si number density = 24.663873 Si / 1000 Ang^3
#
#
#
# Elastic Constant Matrix: (Units=GPa)
#
#
# Indices 1 2 3 4 5 6 
#
# 1 101.8254 21.9318 8.1429 -7.6429 -27.8721 -5.0896
# 2 21.9318 81.7372 7.4573 -13.6820 -13.1620 15.3671
# 3 8.1429 7.4573 106.0941 -15.0501 -24.2910 -3.7191
# 4 -7.6429 -13.6820 -15.0501 33.1548 -2.2564 -15.2734
# 5 -27.8721 -13.1620 -24.2910 -2.2564 43.6956 -0.3451
# 6 -5.0896 15.3671 -3.7191 -15.2734 -0.3451 28.9336
#
#
#
# Elastic Compliance Matrix: (Units=1/GPa)
#
#
# Indices 1 2 3 4 5 6 
#
# 1 0.014007 -0.002638 0.002918 0.008156 0.010252 0.008668
# 2 -0.002638 0.015190 -0.000095 0.002505 0.002913 -0.007187
# 3 0.002918 -0.000095 0.013355 0.011198 0.009901 0.008309
# 4 0.008156 0.002505 0.011198 0.052830 0.015144 0.029612
# 5 0.010252 0.002913 0.009901 0.015144 0.036667 0.009960
# 6 0.008668 -0.007187 0.008309 0.029612 0.009960 0.056722
#
#
# Mechanical properties :
#
#
# Convention : Reuss Voigt Hill
#
# Bulk Modulus (GPa) = 23.29758 40.52451 31.91105
# Shear Modulus (GPa) = 24.66584 37.96513 31.31548
#
# Velocity S-wave (km/s) = 3.16583 3.92765 3.56714
# Velocity P-wave (km/s) = 4.77806 6.08564 5.47105
#
# Compressibility (1/GPa) = 0.04292291
#
# Stress axis : x y z
#
# Youngs Moduli (GPa) = 71.39149 65.83115 74.87884
#
# Poissons Ratio (x) = 0.17368 -0.21853
# Poissons Ratio (y) = 0.18835 0.00712
# Poissons Ratio (z) = -0.20835 0.00626
#
# Static dielectric constant tensor:
#      x y z
#    x 1.733120 -0.205750 0.180270 
#    y -0.205750 1.754310 0.153900 
#    z 0.180270 0.153900 1.888900 
# 
# From -- ./inp_files/143422.got.cif
#   From: 2010.05.17/outbox.cif.g08.bks.cpg/sg2_72_cif.got.tgz:143422.got - 2010.06.03 11:33:40.
