data_PCOD9018686
_publ_section_title
;
Structure prediction by ZEFSAII (Michael W. Deem and Ramdas Pophale) SiO2 
 PCOD9018686
Probable space group: P -1
;
_chemical_formula_sum "Si O2"
_cell_formula_units_Z 16
_cell_length_a 16.593865
_cell_length_b 8.801415
_cell_length_c 5.144816
_cell_angle_alpha 90.623308
_cell_angle_beta 102.056230
_cell_angle_gamma 79.081902
_cell_volume 721.201187
_symmetry_space_group_name_H-M "P -1"
_symmetry_group_IT_number 2
_symmetry_cell_setting 'triclinic'
loop_
_space_group_symop_operation_xyz
x,y,z
-x,-y,-z
loop_
_atom_site_type_symbol
_atom_site_label
_atom_site_fract_x
_atom_site_fract_y
_atom_site_fract_z
Si Si1 0.324101 0.236399 0.173465
Si Si2 0.819393 0.188342 0.409580
Si Si3 0.985122 0.145240 0.806730
Si Si4 0.917375 0.382601 0.161642
Si Si5 0.260452 0.104328 0.604236
Si Si6 0.408605 0.472344 0.003724
Si Si7 0.905689 0.706010 0.412380
Si Si8 0.304164 0.549369 0.399782
O O1 0.324383 0.118807 0.411824
O O2 0.273730 0.400030 0.257149
O O3 0.287424 0.172936 0.892137
O O4 0.405349 0.303006 0.124034
O O5 0.912254 0.113125 0.568767
O O6 0.845000 0.288761 0.190951
O O7 0.770152 0.313566 0.577816
O O8 0.760863 0.062374 0.349724
O O9 0.075382 0.163824 0.768518
O O10 0.946432 0.317466 0.897345
O O11 0.000000 0.000000 0.000000
O O12 0.889724 0.558534 0.236752
O O13 0.006401 0.332799 0.374655
O O14 0.172402 0.215253 0.468915
O O15 0.353994 0.498440 0.702149
O O16 0.500000 0.500000 0.000000
O O17 0.365308 0.584296 0.209856
#
# Coordination Sequence:
#
# PCOD9018686 Si02
#       8
#     2   2   2   2   2   2   2   2
#     4  10  23  40  64  98 125 164 213 253 322 390
#     4  11  26  38  60  91 132 172 220 276 323 381
#     4  11  23  39  58  84 121 176 231 272 334 372
#     4  10  22  39  57  79 119 165 233 272 330 366
#     4  12  24  39  62  91 135 171 212 270 323 381
#     4  10  21  43  75 104 128 161 210 262 312 391
#     4  10  23  38  56  84 115 172 225 280 322 377
#     4  10  22  41  68 103 127 168 210 264 315 384
#
# _framework density 22.185212
#
# number of rings (size 3 to 8) (size 9 to 14) (size 15 to 20)
#    0.750    0.750    1.250    3.000    8.750    2.000 
#    0.000    0.000    0.000    4.500    0.000    0.000 
#    0.000    0.000    0.000    0.000    0.000    0.000 
#
# Total GULP energy -89199.102313 kJ/mol
# GULP energy per Si atom -5574.943895 kJ/mol
# Density = 2.213472 g / cm^3
# Si number density = 22.185212 Si / 1000 Ang^3
#
#
#
# Elastic Constant Matrix: (Units=GPa)
#
#
# Indices 1 2 3 4 5 6 
#
# 1 93.9488 26.9573 34.7504 -10.7416 -22.6418 37.7237
# 2 26.9573 84.9979 26.9967 7.0081 1.7204 39.4869
# 3 34.7504 26.9967 113.2555 5.5249 -11.0104 14.7393
# 4 -10.7416 7.0081 5.5249 24.9111 4.6313 -1.1304
# 5 -22.6418 1.7204 -11.0104 4.6313 30.1771 -2.7590
# 6 37.7237 39.4869 14.7393 -1.1304 -2.7590 34.9809
#
#
#
# Elastic Compliance Matrix: (Units=1/GPa)
#
#
# Indices 1 2 3 4 5 6 
#
# 1 0.030554 0.009890 -0.005277 0.006811 0.015694 -0.040432
# 2 0.009890 0.030691 -0.004311 -0.005572 0.000967 -0.043597
# 3 -0.005277 -0.004311 0.011011 -0.003493 0.001381 0.005913
# 4 0.006811 -0.005572 -0.003493 0.046010 -0.002754 0.001686
# 5 0.015694 0.000967 0.001381 -0.002754 0.044396 -0.015185
# 6 -0.040432 -0.043597 0.005913 0.001686 -0.015185 0.117768
#
#
# Mechanical properties :
#
#
# Convention : Reuss Voigt Hill
#
# Bulk Modulus (GPa) = 13.72482 52.17901 32.95191
# Shear Modulus (GPa) = 16.44127 31.58032 24.01079
#
# Velocity S-wave (km/s) = 2.72525 3.77700 3.29338
# Velocity P-wave (km/s) = 4.01280 6.52624 5.41730
#
# Compressibility (1/GPa) = 0.07286069
#
# Stress axis : x y z
#
# Youngs Moduli (GPa) = 32.72886 32.58286 90.81493
#
# Poissons Ratio (x) = -0.32224 0.47923
# Poissons Ratio (y) = -0.32368 0.39148
# Poissons Ratio (z) = 0.17271 0.14046
#
# Static dielectric constant tensor:
#      x y z
#    x 1.836090 0.010960 -0.034900 
#    y 0.010960 1.853870 -0.034920 
#    z -0.034900 -0.034920 1.905440 
# 
# From -- ./inp_files/104062.got.cif
#   From: 2010.05.17/outbox.cif.g08.bks.cpg/sg2_53_cif.got.tgz:104062.got - 2010.06.03 11:33:40.
