data_PCOD9018144
_publ_section_title
;
Structure prediction by ZEFSAII (Michael W. Deem and Ramdas Pophale) SiO2 
 PCOD9018144
Probable space group: P -1
;
_chemical_formula_sum "Si O2"
_cell_formula_units_Z 14
_cell_length_a 23.361132
_cell_length_b 17.859722
_cell_length_c 8.943412
_cell_angle_alpha 35.342872
_cell_angle_beta 153.208857
_cell_angle_gamma 158.450828
_cell_volume 615.364927
_symmetry_space_group_name_H-M "P -1"
_symmetry_group_IT_number 2
_symmetry_cell_setting 'triclinic'
loop_
_space_group_symop_operation_xyz
x,y,z
-x,-y,-z
loop_
_atom_site_type_symbol
_atom_site_label
_atom_site_fract_x
_atom_site_fract_y
_atom_site_fract_z
Si Si1 0.810753 0.759186 0.093329
Si Si2 0.458705 0.841174 0.065099
Si Si3 0.693463 0.223565 0.518192
Si Si4 0.949352 0.577478 0.138400
Si Si5 0.489706 0.691824 0.907697
Si Si6 0.127252 0.994916 0.902290
Si Si7 0.753230 0.902627 0.476082
O O1 0.790880 0.795568 0.818591
O O2 0.620376 0.519900 0.068241
O O3 0.820106 0.886560 0.019395
O O4 0.031882 0.871644 0.439582
O O5 0.651281 0.913086 0.344953
O O6 0.370375 0.809150 0.749508
O O7 0.289801 0.622974 0.110662
O O8 0.500000 0.000000 0.000000
O O9 0.688231 0.350849 0.392972
O O10 0.914144 0.337881 0.828527
O O11 0.500000 0.000000 0.500000
O O12 0.000000 0.500000 0.500000
O O13 0.007557 0.767040 0.020490
O O14 0.608753 0.767555 0.218390
O O15 0.664249 0.876445 0.903329
O O16 0.000000 0.000000 0.500000
#
# Coordination Sequence:
#
# PCOD9018144 Si02
#       7
#     2   2   2   2   2   2   2
#     4  11  25  41  72  97 138 192 227 284 347 427
#     4  10  24  41  66  98 134 176 230 289 341 415
#     4  10  21  43  68  96 132 178 230 290 344 404
#     4  10  24  44  72  96 135 187 229 283 353 408
#     4  11  23  44  68  99 142 181 232 293 349 407
#     4  12  25  45  70 103 144 178 235 288 355 414
#     4  10  24  42  64 100 139 174 242 279 344 409
#
# _framework density 22.750727000000001
#
# number of rings (size 3 to 8) (size 9 to 14) (size 15 to 20)
#    0.000    1.429    2.857    0.857    8.000    5.714 
#    2.571    0.714    0.000    0.000    0.000    0.000 
#    0.000    0.000    0.000    0.000    0.000    0.000 
#
# Total GULP energy -78153.054727 kJ/mol
# GULP energy per Si atom -5582.361052 kJ/mol
# Density = 2.269895 g / cm^3
# Si number density = 22.750727 Si / 1000 Ang^3
#
#
#
# Elastic Constant Matrix: (Units=GPa)
#
#
# Indices 1 2 3 4 5 6 
#
# 1 140.8214 62.9448 30.0565 22.1637 31.5873 0.5207
# 2 62.9448 178.9475 22.6804 11.3787 8.7165 -12.8921
# 3 30.0565 22.6804 41.9359 1.9326 9.6546 -3.9808
# 4 22.1637 11.3787 1.9326 27.2922 7.0814 4.0084
# 5 31.5873 8.7165 9.6546 7.0814 23.9980 -0.1437
# 6 0.5207 -12.8921 -3.9808 4.0084 -0.1437 42.0628
#
#
#
# Elastic Compliance Matrix: (Units=1/GPa)
#
#
# Indices 1 2 3 4 5 6 
#
# 1 0.013284 -0.003172 -0.004706 -0.005657 -0.012776 -0.001087
# 2 -0.003172 0.007046 -0.001913 -0.001260 0.002771 0.002148
# 3 -0.004706 -0.001913 0.029677 0.003841 -0.006172 0.001893
# 4 -0.005657 -0.001260 0.003841 0.043808 -0.006593 -0.004150
# 5 -0.012776 0.002771 -0.006172 -0.006593 0.061917 0.001263
# 6 -0.001087 0.002148 0.001893 -0.004150 0.001263 0.025025
#
#
# Mechanical properties :
#
#
# Convention : Reuss Voigt Hill
#
# Bulk Modulus (GPa) = 32.86858 65.89647 49.38252
# Shear Modulus (GPa) = 23.75492 35.07215 29.41353
#
# Velocity S-wave (km/s) = 3.23482 3.93056 3.59954
# Velocity P-wave (km/s) = 5.33204 7.04461 6.24729
#
# Compressibility (1/GPa) = 0.03042419
#
# Stress axis : x y z
#
# Youngs Moduli (GPa) = 75.27896 141.91444 33.69567
#
# Poissons Ratio (x) = 0.45021 0.15858
# Poissons Ratio (y) = 0.23881 0.06447
# Poissons Ratio (z) = 0.35428 0.27151
#
# Static dielectric constant tensor:
#      x y z
#    x 1.873530 0.050970 0.029520 
#    y 0.050970 1.924850 -0.069930 
#    z 0.029520 -0.069930 2.040360 
# 
# From -- ./inp_files/242051.got.cif
#   From: 2010.05.17/outbox.cif.g08.bks.cpg/sg2_122_cif.got.tgz:242051.got - 2010.06.03 11:33:40.
