data_PCOD9018390
_publ_section_title
;
Structure prediction by ZEFSAII (Michael W. Deem and Ramdas Pophale) SiO2 
 PCOD9018390
Probable space group: P -1
;
_chemical_formula_sum "Si O2"
_cell_formula_units_Z 14
_cell_length_a 13.499530
_cell_length_b 8.621591
_cell_length_c 7.274290
_cell_angle_alpha 130.285460
_cell_angle_beta 87.980821
_cell_angle_gamma 94.163233
_cell_volume 644.060853
_symmetry_space_group_name_H-M "P -1"
_symmetry_group_IT_number 2
_symmetry_cell_setting 'triclinic'
loop_
_space_group_symop_operation_xyz
x,y,z
-x,-y,-z
loop_
_atom_site_type_symbol
_atom_site_label
_atom_site_fract_x
_atom_site_fract_y
_atom_site_fract_z
Si Si1 0.219811 0.712403 0.035952
Si Si2 0.393247 0.382898 0.456689
Si Si3 0.115928 0.901577 0.519422
Si Si4 0.932245 0.660568 0.226460
Si Si5 0.419468 0.611526 0.981316
Si Si6 0.714384 0.258119 0.359144
Si Si7 0.505160 0.026028 0.295410
O O1 0.152767 0.855191 0.272056
O O2 0.160267 0.494353 0.836255
O O3 0.320400 0.692914 0.135660
O O4 0.255779 0.786378 0.888862
O O5 0.500000 0.500000 0.500000
O O6 0.373070 0.453932 0.718526
O O7 0.313156 0.502348 0.438175
O O8 0.417883 0.152063 0.309794
O O9 0.195678 0.808820 0.575271
O O10 0.008804 0.777037 0.453508
O O11 0.105294 0.143144 0.728845
O O12 0.000000 0.500000 0.000000
O O13 0.500000 0.500000 0.000000
O O14 0.484564 0.802793 0.042946
O O15 0.612164 0.129929 0.318926
O O16 0.500000 0.000000 0.500000
#
# Coordination Sequence:
#
# PCOD9018390 Si02
#       7
#     2   2   2   2   2   2   2
#     4  10  23  40  60  93 130 159 212 263 309 377
#     4   9  21  38  53  84 126 157 211 257 292 364
#     4  10  21  43  70  90 122 167 206 257 333 374
#     4   9  21  44  69  94 122 159 209 266 318 389
#     4  11  22  35  58  88 119 168 209 248 302 359
#     4  10  23  38  61  97 125 165 216 259 314 378
#     4  11  21  38  62  85 126 177 215 258 307 359
#
# _framework density 21.737076999999999
#
# number of rings (size 3 to 8) (size 9 to 14) (size 15 to 20)
#    0.000    2.000    1.429    0.857    4.000    8.000 
#    0.000   16.429    0.000    0.000    0.000    0.000 
#    0.000    0.000    0.000    0.000    0.000    0.000 
#
# Total GULP energy -77936.497615 kJ/mol
# GULP energy per Si atom -5566.892687 kJ/mol
# Density = 2.168760 g / cm^3
# Si number density = 21.737077 Si / 1000 Ang^3
#
#
#
# Elastic Constant Matrix: (Units=GPa)
#
#
# Indices 1 2 3 4 5 6 
#
# 1 138.3946 70.7737 22.2537 1.2503 5.1301 -17.9695
# 2 70.7737 140.4550 54.3963 21.3169 -2.2592 -25.5393
# 3 22.2537 54.3963 64.1930 12.2358 -4.1017 -1.7181
# 4 1.2503 21.3169 12.2358 41.8247 -0.1159 -7.9588
# 5 5.1301 -2.2592 -4.1017 -0.1159 25.1977 7.2875
# 6 -17.9695 -25.5393 -1.7181 -7.9588 7.2875 53.2217
#
#
#
# Elastic Compliance Matrix: (Units=1/GPa)
#
#
# Indices 1 2 3 4 5 6 
#
# 1 0.010267 -0.005499 0.000446 0.002671 -0.002975 0.001649
# 2 -0.005499 0.015250 -0.010214 -0.003737 -0.000536 0.004646
# 3 0.000446 -0.010214 0.024802 -0.003005 0.004466 -0.005011
# 4 0.002671 -0.003737 -0.003005 0.027253 -0.002223 0.003391
# 5 -0.002975 -0.000536 0.004466 -0.002223 0.043086 -0.007350
# 6 0.001649 0.004646 -0.005011 0.003391 -0.007350 0.022927
#
#
# Mechanical properties :
#
#
# Convention : Reuss Voigt Hill
#
# Bulk Modulus (GPa) = 50.54440 70.87667 60.71054
# Shear Modulus (GPa) = 27.66813 37.09009 32.37911
#
# Velocity S-wave (km/s) = 3.57158 4.13523 3.86369
# Velocity P-wave (km/s) = 6.34912 7.44831 6.92057
#
# Compressibility (1/GPa) = 0.01978458
#
# Stress axis : x y z
#
# Youngs Moduli (GPa) = 97.40367 65.57500 40.31890
#
# Poissons Ratio (x) = 0.36062 -0.01798
# Poissons Ratio (y) = 0.53566 0.41180
# Poissons Ratio (z) = -0.04343 0.66975
#
# Static dielectric constant tensor:
#      x y z
#    x 1.936010 -0.049020 -0.118880 
#    y -0.049020 1.889100 0.002680 
#    z -0.118880 0.002680 1.969600 
# 
# From -- ./inp_files/45867.got.cif
#   From: 2010.05.17/outbox.cif.g08.bks.cpg/sg2_23_cif.got.tgz:45867.got - 2010.06.03 11:33:40.
