data_PCOD9018421
_publ_section_title
;
Structure prediction by ZEFSAII (Michael W. Deem and Ramdas Pophale) SiO2 
 PCOD9018421
Probable space group: P -1
;
_chemical_formula_sum "Si O2"
_cell_formula_units_Z 14
_cell_length_a 28.070149
_cell_length_b 8.486868
_cell_length_c 10.454900
_cell_angle_alpha 119.924176
_cell_angle_beta 32.017762
_cell_angle_gamma 142.821371
_cell_volume 665.641505
_symmetry_space_group_name_H-M "P -1"
_symmetry_group_IT_number 2
_symmetry_cell_setting 'triclinic'
loop_
_space_group_symop_operation_xyz
x,y,z
-x,-y,-z
loop_
_atom_site_type_symbol
_atom_site_label
_atom_site_fract_x
_atom_site_fract_y
_atom_site_fract_z
Si Si1 0.918279 0.052213 0.250492
Si Si2 0.516199 0.672057 0.416332
Si Si3 0.199201 0.197154 0.024438
Si Si4 0.202497 0.780380 0.856688
Si Si5 0.392084 0.312361 0.292262
Si Si6 0.336572 0.829424 0.320417
Si Si7 0.114633 0.140149 0.476529
O O1 0.762330 0.824935 0.433569
O O2 0.875268 0.964302 0.462319
O O3 0.040408 0.415081 0.098960
O O4 0.000000 0.000000 0.000000
O O5 0.500000 0.500000 0.500000
O O6 0.486177 0.530837 0.291536
O O7 0.684466 0.032079 0.201418
O O8 0.363854 0.540542 0.738874
O O9 0.186557 0.175868 0.198605
O O10 0.061752 0.094696 0.244202
O O11 0.179758 0.952149 0.931636
O O12 0.297715 0.827286 0.551779
O O13 0.339721 0.019162 0.310591
O O14 0.500000 0.500000 0.000000
O O15 0.205922 0.475636 0.431428
O O16 0.500000 0.000000 0.000000
#
# Coordination Sequence:
#
# PCOD9018421 Si02
#       7
#     2   2   2   2   2   2   2
#     4  12  26  44  69 106 145 181 233 298 349 411
#     4  10  21  43  70  95 132 186 227 276 349 420
#     4  10  22  44  70  98 133 192 235 286 347 429
#     4  11  24  43  75  95 139 188 233 282 360 418
#     4  12  27  45  72 107 144 181 236 295 352 414
#     4  12  24  43  72 101 137 187 238 286 350 422
#     4  11  24  42  70 100 141 178 243 289 345 421
#
# _framework density 21.032340000000001
#
# number of rings (size 3 to 8) (size 9 to 14) (size 15 to 20)
#    0.000    0.857    4.286    3.429    6.000    1.714 
#    5.143    1.429    0.000    0.000    0.000    0.000 
#    0.000    0.000    0.000    0.000    0.000    0.000 
#
# Total GULP energy -78288.668679 kJ/mol
# GULP energy per Si atom -5592.047763 kJ/mol
# Density = 2.098447 g / cm^3
# Si number density = 21.032340 Si / 1000 Ang^3
#
#
#
# Elastic Constant Matrix: (Units=GPa)
#
#
# Indices 1 2 3 4 5 6 
#
# 1 87.3510 20.1718 25.4211 0.9156 7.0395 17.9548
# 2 20.1718 70.8806 24.5315 -2.2677 3.8231 15.8883
# 3 25.4211 24.5315 82.5582 5.3368 -2.3933 10.5217
# 4 0.9156 -2.2677 5.3368 41.2629 1.1006 0.1907
# 5 7.0395 3.8231 -2.3933 1.1006 37.9789 3.5515
# 6 17.9548 15.8883 10.5217 0.1907 3.5515 29.8054
#
#
#
# Elastic Compliance Matrix: (Units=1/GPa)
#
#
# Indices 1 2 3 4 5 6 
#
# 1 0.014189 -0.001368 -0.003210 0.000111 -0.002096 -0.006436
# 2 -0.001368 0.017578 -0.004047 0.001583 -0.001163 -0.006989
# 3 -0.003210 -0.004047 0.014670 -0.002099 0.002112 -0.001325
# 4 0.000111 0.001583 -0.002099 0.024619 -0.001006 -0.000207
# 5 -0.002096 -0.001163 0.002112 -0.001006 0.027194 -0.002097
# 6 -0.006436 -0.006989 -0.001325 -0.000207 -0.002097 0.041873
#
#
# Mechanical properties :
#
#
# Convention : Reuss Voigt Hill
#
# Bulk Modulus (GPa) = 34.26297 42.33762 38.30030
# Shear Modulus (GPa) = 29.92187 33.18714 31.55450
#
# Velocity S-wave (km/s) = 3.77591 3.97660 3.87755
# Velocity P-wave (km/s) = 5.94441 6.42323 6.18845
#
# Compressibility (1/GPa) = 0.02918603
#
# Stress axis : x y z
#
# Youngs Moduli (GPa) = 70.47806 56.88824 68.16808
#
# Poissons Ratio (x) = 0.07780 0.21884
# Poissons Ratio (y) = 0.09639 0.27591
# Poissons Ratio (z) = 0.22625 0.23025
#
# Static dielectric constant tensor:
#      x y z
#    x 1.771450 0.022110 -0.018330 
#    y 0.022110 1.749520 -0.000560 
#    z -0.018330 -0.000560 1.805150 
# 
# From -- ./inp_files/352291.got.cif
#   From: 2010.05.17/outbox.cif.g08.bks.cpg/sg2_177_cif.got.tgz:352291.got - 2010.06.03 11:33:40.
