data_PCOD9018030
_publ_section_title
;
Structure prediction by ZEFSAII (Michael W. Deem and Ramdas Pophale) SiO2 
 PCOD9018030
Probable space group: P -1
;
_chemical_formula_sum "Si O2"
_cell_formula_units_Z 16
_cell_length_a 5.280778
_cell_length_b 12.841111
_cell_length_c 10.452524
_cell_angle_alpha 59.433136
_cell_angle_beta 97.721343
_cell_angle_gamma 104.642531
_cell_volume 590.463908
_symmetry_space_group_name_H-M "P -1"
_symmetry_group_IT_number 2
_symmetry_cell_setting 'triclinic'
loop_
_space_group_symop_operation_xyz
x,y,z
-x,-y,-z
loop_
_atom_site_type_symbol
_atom_site_label
_atom_site_fract_x
_atom_site_fract_y
_atom_site_fract_z
Si Si1 0.543928 0.480763 0.243592
Si Si2 0.413816 0.130473 0.406800
Si Si3 0.703936 0.952381 0.952020
Si Si4 0.506743 0.274921 0.788650
Si Si5 0.264139 0.718961 0.468437
Si Si6 0.842712 0.607246 0.941971
Si Si7 0.139072 0.859133 0.749254
Si Si8 0.064595 0.105546 0.693955
O O1 0.461535 0.581674 0.266677
O O2 0.730545 0.411493 0.382350
O O3 0.313938 0.389822 0.204652
O O4 0.678356 0.561656 0.084030
O O5 0.474046 0.199766 0.501744
O O6 0.112764 0.119114 0.361919
O O7 0.630469 0.188767 0.278911
O O8 0.500000 0.000000 0.500000
O O9 0.783777 0.020284 0.780608
O O10 0.551152 0.808110 0.033209
O O11 0.500000 0.000000 0.000000
O O12 0.000000 0.000000 0.000000
O O13 0.719384 0.276250 0.688065
O O14 0.248165 0.197730 0.747570
O O15 0.046980 0.790589 0.456611
O O16 0.011296 0.742475 0.899806
O O17 0.000000 0.500000 0.000000
O O18 0.205384 0.993135 0.737212
#
# Coordination Sequence:
#
# PCOD9018030 Si02
#       8
#     2   2   2   2   2   2   2   2
#     4  11  26  48  71 106 145 198 257 308 369 447
#     4  12  25  44  72 112 153 190 244 308 380 445
#     4  10  21  43  67  99 140 185 238 294 360 437
#     4  11  25  45  69 105 153 191 247 300 377 450
#     4  12  24  42  72 104 151 193 244 305 374 445
#     4  11  26  50  76 102 144 200 257 314 369 439
#     4  12  26  46  77 109 148 195 250 311 372 443
#     4  11  25  42  73 109 146 194 240 310 383 448
#
# _framework density 27.097342000000001
#
# number of rings (size 3 to 8) (size 9 to 14) (size 15 to 20)
#    0.000    0.750    3.750    3.000    3.500    2.500 
#    4.500    0.000    0.000    0.000    0.000    0.000 
#    0.000    0.000    0.000    0.000    0.000    0.000 
#
# Total GULP energy -89248.149298 kJ/mol
# GULP energy per Si atom -5578.009331 kJ/mol
# Density = 2.703567 g / cm^3
# Si number density = 27.097342 Si / 1000 Ang^3
#
#
#
# Elastic Constant Matrix: (Units=GPa)
#
#
# Indices 1 2 3 4 5 6 
#
# 1 124.9637 35.3293 13.4663 13.7250 -4.4623 -18.3713
# 2 35.3293 144.2422 35.0495 -2.6447 -5.4841 -23.9268
# 3 13.4663 35.0495 92.8439 -18.0165 -13.3402 -12.9486
# 4 13.7250 -2.6447 -18.0165 50.9516 -8.2887 -5.3376
# 5 -4.4623 -5.4841 -13.3402 -8.2887 38.8377 2.4194
# 6 -18.3713 -23.9268 -12.9486 -5.3376 2.4194 50.3642
#
#
#
# Elastic Compliance Matrix: (Units=1/GPa)
#
#
# Indices 1 2 3 4 5 6 
#
# 1 0.009184 -0.001744 -0.000958 -0.002731 -0.000227 0.001997
# 2 -0.001744 0.008427 -0.002474 0.000328 0.000038 0.002764
# 3 -0.000958 -0.002474 0.014237 0.006345 0.005627 0.002538
# 4 -0.002731 0.000328 0.006345 0.024054 0.006858 0.003011
# 5 -0.000227 0.000038 0.005627 0.006858 0.029080 0.000712
# 6 0.001997 0.002764 0.002538 0.003011 0.000712 0.022834
#
#
# Mechanical properties :
#
#
# Convention : Reuss Voigt Hill
#
# Bulk Modulus (GPa) = 46.51786 58.85999 52.68892
# Shear Modulus (GPa) = 39.89367 46.57767 43.23567
#
# Velocity S-wave (km/s) = 3.84113 4.15046 3.99879
# Velocity P-wave (km/s) = 6.07261 6.68859 6.38803
#
# Compressibility (1/GPa) = 0.02149712
#
# Stress axis : x y z
#
# Youngs Moduli (GPa) = 108.88482 118.66527 70.23805
#
# Poissons Ratio (x) = 0.20698 0.06727
# Poissons Ratio (y) = 0.18992 0.17375
# Poissons Ratio (z) = 0.10428 0.29354
#
# Static dielectric constant tensor:
#      x y z
#    x 2.274440 -0.024300 -0.008950 
#    y -0.024300 2.227840 0.129120 
#    z -0.008950 0.129120 2.645430 
# 
# From -- ./inp_files/363857.got.cif
#   From: 2010.05.17/outbox.cif.g08.bks.cpg/sg2_182_cif.got.tgz:363857.got - 2010.06.03 11:33:40.
