data_PCOD9018296
_publ_section_title
;
Structure prediction by ZEFSAII (Michael W. Deem and Ramdas Pophale) SiO2 
 PCOD9018296
Probable space group: P -1
;
_chemical_formula_sum "Si O2"
_cell_formula_units_Z 14
_cell_length_a 15.131288
_cell_length_b 28.878571
_cell_length_c 15.039028
_cell_angle_alpha 18.509011
_cell_angle_beta 160.796787
_cell_angle_gamma 160.851343
_cell_volume 605.375354
_symmetry_space_group_name_H-M "P -1"
_symmetry_group_IT_number 2
_symmetry_cell_setting 'triclinic'
loop_
_space_group_symop_operation_xyz
x,y,z
-x,-y,-z
loop_
_atom_site_type_symbol
_atom_site_label
_atom_site_fract_x
_atom_site_fract_y
_atom_site_fract_z
Si Si1 0.693357 0.026573 0.427927
Si Si2 0.059135 0.191791 0.314713
Si Si3 0.029037 0.804670 0.147644
Si Si4 0.004275 0.538602 0.830381
Si Si5 0.464291 0.524081 0.633335
Si Si6 0.144793 0.891349 0.374507
Si Si7 0.176239 0.885071 0.946942
O O1 0.329116 0.925257 0.269055
O O2 0.870999 0.132127 0.490784
O O3 0.790761 0.140150 0.225816
O O4 0.812571 0.890950 0.781647
O O5 0.355870 0.328150 0.396402
O O6 0.008299 0.240101 0.079776
O O7 0.065356 0.020016 0.617766
O O8 0.821708 0.624479 0.318695
O O9 0.154712 0.800983 0.174483
O O10 0.028336 0.720103 0.525241
O O11 0.687665 0.427933 0.680416
O O12 0.290467 0.532132 0.067387
O O13 0.000000 0.500000 0.000000
O O14 0.500000 0.000000 0.500000
O O15 0.000000 0.000000 0.000000
O O16 0.500000 0.000000 0.000000
#
# Coordination Sequence:
#
# PCOD9018296 Si02
#       7
#     2   2   2   2   2   2   2
#     4  11  22  41  65  93 128 180 226 272 334 401
#     4  10  24  41  67  97 130 176 229 280 338 420
#     4  11  23  41  67  97 137 171 217 287 339 400
#     4  12  27  46  68 100 146 187 231 289 346 412
#     4  12  26  44  67 104 140 180 229 285 356 406
#     4  12  24  41  67  97 133 179 233 282 333 401
#     4  10  21  43  69  96 131 174 232 278 339 416
#
# _framework density 23.126149000000002
#
# number of rings (size 3 to 8) (size 9 to 14) (size 15 to 20)
#    0.000    0.857    1.429    6.429    2.000    4.000 
#    0.000    0.714    0.000    0.000    0.000    0.000 
#    0.000    0.000    0.000    0.000    0.000    0.000 
#
# Total GULP energy -78299.246349 kJ/mol
# GULP energy per Si atom -5592.803311 kJ/mol
# Density = 2.307351 g / cm^3
# Si number density = 23.126149 Si / 1000 Ang^3
#
#
#
# Elastic Constant Matrix: (Units=GPa)
#
#
# Indices 1 2 3 4 5 6 
#
# 1 145.7157 52.0854 23.6919 6.7304 -14.3581 -27.5689
# 2 52.0854 143.6168 28.6274 19.5325 -9.4696 -25.9104
# 3 23.6919 28.6274 99.7484 20.6948 5.8360 -9.8311
# 4 6.7304 19.5325 20.6948 34.0053 -1.1237 -1.8078
# 5 -14.3581 -9.4696 5.8360 -1.1237 30.8903 11.1032
# 6 -27.5689 -25.9104 -9.8311 -1.8078 11.1032 44.8733
#
#
#
# Elastic Compliance Matrix: (Units=1/GPa)
#
#
# Indices 1 2 3 4 5 6 
#
# 1 0.008702 -0.002232 -0.001400 0.000663 0.002515 0.003155
# 2 -0.002232 0.009166 -0.000961 -0.004038 0.000584 0.003403
# 3 -0.001400 -0.000961 0.012509 -0.006813 -0.004318 0.002119
# 4 0.000663 -0.004038 -0.006813 0.035688 0.002598 -0.002622
# 5 0.002515 0.000584 -0.004318 0.002598 0.037601 -0.008263
# 6 0.003155 0.003403 0.002119 -0.002622 -0.008263 0.028592
#
#
# Mechanical properties :
#
#
# Convention : Reuss Voigt Hill
#
# Bulk Modulus (GPa) = 47.19217 66.43224 56.81220
# Shear Modulus (GPa) = 33.66827 40.93219 37.30023
#
# Velocity S-wave (km/s) = 3.81970 4.21164 4.02045
# Velocity P-wave (km/s) = 6.31698 7.24148 6.79497
#
# Compressibility (1/GPa) = 0.02118996
#
# Stress axis : x y z
#
# Youngs Moduli (GPa) = 114.91182 109.10184 79.94426
#
# Poissons Ratio (x) = 0.24352 0.11192
# Poissons Ratio (y) = 0.25648 0.07686
# Poissons Ratio (z) = 0.16088 0.10489
#
# Static dielectric constant tensor:
#      x y z
#    x 1.985720 -0.037500 -0.035330 
#    y -0.037500 1.861810 0.002560 
#    z -0.035330 0.002560 1.906600 
# 
# From -- ./inp_files/535719.got.cif
#   From: 2010.05.17/outbox.cif.g08.bks.cpg/sg2_268_cif.got.tgz:535719.got - 2010.06.03 11:33:40.
