data_PCOD9018120
_publ_section_title
;
Structure prediction by ZEFSAII (Michael W. Deem and Ramdas Pophale) SiO2 
 PCOD9018120
Probable space group: P -1
;
_chemical_formula_sum "Si O2"
_cell_formula_units_Z 14
_cell_length_a 8.615768
_cell_length_b 23.597244
_cell_length_c 5.456510
_cell_angle_alpha 117.140862
_cell_angle_beta 56.959434
_cell_angle_gamma 139.189945
_cell_volume 605.855960
_symmetry_space_group_name_H-M "P -1"
_symmetry_group_IT_number 2
_symmetry_cell_setting 'triclinic'
loop_
_space_group_symop_operation_xyz
x,y,z
-x,-y,-z
loop_
_atom_site_type_symbol
_atom_site_label
_atom_site_fract_x
_atom_site_fract_y
_atom_site_fract_z
Si Si1 0.348978 0.425147 0.682629
Si Si2 0.255013 0.731008 0.601356
Si Si3 0.127181 0.462065 0.301025
Si Si4 0.895953 0.235227 0.697102
Si Si5 0.181526 0.138100 0.671507
Si Si6 0.234661 0.017203 0.610430
Si Si7 0.754209 0.085458 0.239603
O O1 0.500000 0.500000 0.500000
O O2 0.578006 0.461178 0.737067
O O3 0.188355 0.323975 0.580783
O O4 0.144302 0.428001 0.964605
O O5 0.234097 0.761791 0.420656
O O6 0.541787 0.773018 0.463908
O O7 0.041558 0.626278 0.570466
O O8 0.194898 0.760768 0.951308
O O9 0.000000 0.500000 0.500000
O O10 0.837053 0.147923 0.524584
O O11 0.227235 0.090965 0.732786
O O12 0.025488 0.069044 0.450561
O O13 0.986727 0.142156 0.964957
O O14 0.483114 0.048772 0.315611
O O15 0.271795 0.992854 0.793742
#
# Coordination Sequence:
#
# PCOD9018120 Si02
#       7
#     2   2   2   2   2   2   2
#     4  10  21  43  68  94 136 177 220 274 336 390
#     4  11  25  46  68 100 143 174 223 285 339 392
#     4  10  23  43  68 100 133 178 225 276 330 404
#     4  11  25  45  70  98 142 179 222 282 338 400
#     4  11  24  42  69  95 136 176 227 278 344 393
#     4  10  24  42  64 100 133 172 229 283 335 398
#     4  11  24  42  69  96 132 178 232 270 343 403
#
# _framework density 23.107804999999999
#
# number of rings (size 3 to 8) (size 9 to 14) (size 15 to 20)
#    0.000    1.429    2.857    0.857    4.000    7.429 
#    2.571    0.000    0.000    0.000    0.000    0.000 
#    0.000    0.000    0.000    0.000    0.000    0.000 
#
# Total GULP energy -78128.092228 kJ/mol
# GULP energy per Si atom -5580.578016 kJ/mol
# Density = 2.305521 g / cm^3
# Si number density = 23.107805 Si / 1000 Ang^3
#
#
#
# Elastic Constant Matrix: (Units=GPa)
#
#
# Indices 1 2 3 4 5 6 
#
# 1 70.2394 18.9201 31.2019 -5.2320 -6.8512 0.0947
# 2 18.9201 98.9236 6.6664 -12.8809 -6.8234 31.7060
# 3 31.2019 6.6664 78.9356 -9.6997 -15.3161 6.3276
# 4 -5.2320 -12.8809 -9.6997 32.2764 8.9174 -9.9724
# 5 -6.8512 -6.8234 -15.3161 8.9174 36.5505 -2.1068
# 6 0.0947 31.7060 6.3276 -9.9724 -2.1068 47.3349
#
#
#
# Elastic Compliance Matrix: (Units=1/GPa)
#
#
# Indices 1 2 3 4 5 6 
#
# 1 0.018641 -0.004283 -0.007318 0.000378 -0.000241 0.003878
# 2 -0.004283 0.014140 0.001803 0.002240 0.001518 -0.009164
# 3 -0.007318 0.001803 0.016949 0.002304 0.005347 -0.002735
# 4 0.000378 0.002240 0.002304 0.036293 -0.007082 0.005522
# 5 -0.000241 0.001518 0.005347 -0.007082 0.031461 -0.001823
# 6 0.003878 -0.009164 -0.002735 0.005522 -0.001823 0.028705
#
#
# Mechanical properties :
#
#
# Convention : Reuss Voigt Hill
#
# Bulk Modulus (GPa) = 33.18402 40.18615 36.68509
# Shear Modulus (GPa) = 28.43693 35.98638 32.21165
#
# Velocity S-wave (km/s) = 3.51183 3.95058 3.73765
# Velocity P-wave (km/s) = 5.55298 6.18368 5.87680
#
# Compressibility (1/GPa) = 0.03013499
#
# Stress axis : x y z
#
# Youngs Moduli (GPa) = 53.64570 70.72142 59.00096
#
# Poissons Ratio (x) = 0.30287 0.43176
# Poissons Ratio (y) = 0.22974 -0.10638
# Poissons Ratio (z) = 0.39257 -0.12751
#
# Static dielectric constant tensor:
#      x y z
#    x 1.919730 -0.020710 0.038200 
#    y -0.020710 1.961300 -0.000460 
#    z 0.038200 -0.000460 1.936690 
# 
# From -- ./inp_files/45637.got.cif
#   From: 2010.05.17/outbox.cif.g08.bks.cpg/sg2_23_cif.got.tgz:45637.got - 2010.06.03 11:33:40.
