data_PCOD9018029
_publ_section_title
;
Structure prediction by ZEFSAII (Michael W. Deem and Ramdas Pophale) SiO2 
 PCOD9018029
Probable space group: P -1
;
_chemical_formula_sum "Si O2"
_cell_formula_units_Z 16
_cell_length_a 13.497885
_cell_length_b 14.150537
_cell_length_c 8.942819
_cell_angle_alpha 42.612858
_cell_angle_beta 136.143396
_cell_angle_gamma 140.419277
_cell_volume 688.388873
_symmetry_space_group_name_H-M "P -1"
_symmetry_group_IT_number 2
_symmetry_cell_setting 'triclinic'
loop_
_space_group_symop_operation_xyz
x,y,z
-x,-y,-z
loop_
_atom_site_type_symbol
_atom_site_label
_atom_site_fract_x
_atom_site_fract_y
_atom_site_fract_z
Si Si1 0.144854 0.481518 0.260010
Si Si2 0.142383 0.977903 0.251500
Si Si3 0.670009 0.148872 0.574062
Si Si4 0.263655 0.508430 0.685953
Si Si5 0.519839 0.671209 0.366295
Si Si6 0.638653 0.014664 0.020084
Si Si7 0.362724 0.315183 0.204484
Si Si8 0.029366 0.872922 0.589368
O O1 0.144219 0.469065 0.457014
O O2 0.330632 0.623888 0.254477
O O3 0.119820 0.312092 0.366558
O O4 0.000000 0.500000 0.000000
O O5 0.183694 0.864231 0.331357
O O6 0.084381 0.921381 0.422123
O O7 0.308980 0.154568 0.237904
O O8 0.000000 0.000000 0.000000
O O9 0.707682 0.330699 0.388425
O O10 0.500000 0.000000 0.500000
O O11 0.652073 0.108910 0.775786
O O12 0.442599 0.553146 0.757988
O O13 0.243202 0.378813 0.940814
O O14 0.500000 0.500000 0.500000
O O15 0.595256 0.829003 0.157950
O O16 0.640639 0.729631 0.574219
O O17 0.814962 0.117237 0.170622
O O18 0.500000 0.000000 0.000000
O O19 0.000000 0.000000 0.500000
#
# Coordination Sequence:
#
# PCOD9018029 Si02
#       8
#     2   2   2   2   2   2   2   2
#     4  11  24  44  68 102 141 182 231 293 358 417
#     4  12  25  44  69 104 141 184 236 292 359 424
#     4  12  25  43  70 106 140 187 239 291 355 422
#     4  10  22  43  69  98 143 185 230 288 354 424
#     4  11  24  42  69 102 134 182 239 286 347 419
#     4  12  24  44  72 103 138 181 235 290 347 421
#     4  10  21  43  67  99 139 184 234 286 346 426
#     4  12  25  46  70 100 139 185 234 290 351 419
#
# _framework density 23.242677
#
# number of rings (size 3 to 8) (size 9 to 14) (size 15 to 20)
#    0.000    0.750    2.500    6.000    1.750    1.000 
#    0.000    1.250    0.000    0.000    0.000    0.000 
#    0.000    0.000    0.000    0.000    0.000    0.000 
#
# Total GULP energy -89455.171750 kJ/mol
# GULP energy per Si atom -5590.948234 kJ/mol
# Density = 2.318978 g / cm^3
# Si number density = 23.242677 Si / 1000 Ang^3
#
#
#
# Elastic Constant Matrix: (Units=GPa)
#
#
# Indices 1 2 3 4 5 6 
#
# 1 90.4200 11.8562 26.1251 2.8077 12.2600 -16.2062
# 2 11.8562 119.4274 27.2565 -3.3981 11.6095 -12.8682
# 3 26.1251 27.2565 117.9463 16.4549 10.7977 -6.8499
# 4 2.8077 -3.3981 16.4549 55.6532 -4.8023 8.8612
# 5 12.2600 11.6095 10.7977 -4.8023 27.4996 -10.7338
# 6 -16.2062 -12.8682 -6.8499 8.8612 -10.7338 38.7551
#
#
#
# Elastic Compliance Matrix: (Units=1/GPa)
#
#
# Indices 1 2 3 4 5 6 
#
# 1 0.012953 -0.000025 -0.002162 -0.000996 -0.003407 0.004310
# 2 -0.000025 0.009259 -0.001898 0.000620 -0.002281 0.001955
# 3 -0.002162 -0.001898 0.010112 -0.003269 -0.002675 0.000259
# 4 -0.000996 0.000620 -0.003269 0.020013 0.003214 -0.004474
# 5 -0.003407 -0.002281 -0.002675 0.003214 0.043878 0.008763
# 6 0.004310 0.001955 0.000259 -0.004474 0.008763 0.031750
#
#
# Mechanical properties :
#
#
# Convention : Reuss Voigt Hill
#
# Bulk Modulus (GPa) = 41.40307 50.91881 46.16094
# Shear Modulus (GPa) = 34.67725 41.88530 38.28127
#
# Velocity S-wave (km/s) = 3.86679 4.24970 4.06276
# Velocity P-wave (km/s) = 6.14720 6.78491 6.47391
#
# Compressibility (1/GPa) = 0.02415280
#
# Stress axis : x y z
#
# Youngs Moduli (GPa) = 77.20308 108.00273 98.89276
#
# Poissons Ratio (x) = 0.00272 0.21381
# Poissons Ratio (y) = 0.00195 0.18772
# Poissons Ratio (z) = 0.16692 0.20501
#
# Static dielectric constant tensor:
#      x y z
#    x 1.948910 0.039560 -0.019810 
#    y 0.039560 1.900220 -0.048020 
#    z -0.019810 -0.048020 1.848480 
# 
# From -- ./inp_files/314510.got.cif
#   From: 2010.05.17/outbox.cif.g08.bks.cpg/sg2_158_cif.got.tgz:314510.got - 2010.06.03 11:33:40.
