data_PCOD9018319
_publ_section_title
;
Structure prediction by ZEFSAII (Michael W. Deem and Ramdas Pophale) SiO2 
 PCOD9018319
Probable space group: P -1
;
_chemical_formula_sum "Si O2"
_cell_formula_units_Z 16
_cell_length_a 11.381940
_cell_length_b 12.122286
_cell_length_c 12.583756
_cell_angle_alpha 53.135277
_cell_angle_beta 97.445976
_cell_angle_gamma 52.837563
_cell_volume 704.101842
_symmetry_space_group_name_H-M "P -1"
_symmetry_group_IT_number 2
_symmetry_cell_setting 'triclinic'
loop_
_space_group_symop_operation_xyz
x,y,z
-x,-y,-z
loop_
_atom_site_type_symbol
_atom_site_label
_atom_site_fract_x
_atom_site_fract_y
_atom_site_fract_z
Si Si1 0.792035 0.826710 0.489994
Si Si2 0.874569 0.184600 0.776351
Si Si3 0.478578 0.938028 0.284875
Si Si4 0.914964 0.471042 0.092019
Si Si5 0.871814 0.414005 0.493839
Si Si6 0.780820 0.279835 0.377520
Si Si7 0.348266 0.785945 0.429494
Si Si8 0.568235 0.591680 0.972278
O O1 0.634503 0.849212 0.447263
O O2 0.909206 0.726253 0.675934
O O3 0.974324 0.633102 0.525999
O O4 0.634856 0.114191 0.271593
O O5 0.982013 0.215409 0.719009
O O6 0.610138 0.488121 0.597773
O O7 0.838537 0.102942 0.731070
O O8 0.000000 0.000000 0.000000
O O9 0.640911 0.713384 0.341601
O O10 0.330966 0.964077 0.305266
O O11 0.311120 0.225948 0.059309
O O12 0.806176 0.435347 0.055770
O O13 0.000000 0.500000 0.000000
O O14 0.833949 0.331562 0.449560
O O15 0.671122 0.254936 0.432107
O O16 0.612595 0.536380 0.135146
O O17 0.000000 0.000000 0.500000
O O18 0.500000 0.500000 0.000000
#
# Coordination Sequence:
#
# PCOD9018319 Si02
#       8
#     2   2   2   2   2   2   2   2
#     4  11  24  46  67 106 140 179 240 287 352 423
#     4   9  19  37  64  96 130 177 222 278 348 404
#     4  10  24  43  67 104 139 190 232 283 356 414
#     4  11  27  48  73 101 143 190 235 293 354 423
#     4  10  21  43  69  97 142 179 233 292 343 423
#     4  11  23  42  72 100 138 180 231 295 354 410
#     4   9  21  39  61  98 135 171 225 284 336 416
#     4  11  26  44  71 105 135 182 233 292 360 414
#
# _framework density 22.723984000000002
#
# number of rings (size 3 to 8) (size 9 to 14) (size 15 to 20)
#    0.000    1.750    1.250    1.875    3.500    5.500 
#    2.250    0.000    0.000    0.000    0.000    0.000 
#    0.000    0.000    0.000    0.000    0.000    0.000 
#
# Total GULP energy -89268.561513 kJ/mol
# GULP energy per Si atom -5579.285095 kJ/mol
# Density = 2.267226 g / cm^3
# Si number density = 22.723984 Si / 1000 Ang^3
#
#
#
# Elastic Constant Matrix: (Units=GPa)
#
#
# Indices 1 2 3 4 5 6 
#
# 1 140.0037 28.8915 26.6010 7.0778 -10.1450 -3.7044
# 2 28.8915 87.0815 39.7811 -5.8519 -8.4841 3.6358
# 3 26.6010 39.7811 147.5125 19.0430 -15.1060 3.7473
# 4 7.0778 -5.8519 19.0430 31.0396 -0.0441 -13.9647
# 5 -10.1450 -8.4841 -15.1060 -0.0441 31.8710 3.7708
# 6 -3.7044 3.6358 3.7473 -13.9647 3.7708 33.6225
#
#
#
# Elastic Compliance Matrix: (Units=1/GPa)
#
#
# Indices 1 2 3 4 5 6 
#
# 1 0.007942 -0.002453 -0.000346 -0.001984 0.001689 0.000165
# 2 -0.002453 0.014749 -0.004311 0.006535 0.000967 0.001221
# 3 -0.000346 -0.004311 0.009653 -0.008777 0.003865 -0.004727
# 4 -0.001984 0.006535 -0.008777 0.048672 -0.005455 0.020880
# 5 0.001689 0.000967 0.003865 -0.005455 0.034766 -0.006514
# 6 0.000165 0.001221 -0.004727 0.020880 -0.006514 0.039558
#
#
# Mechanical properties :
#
#
# Convention : Reuss Voigt Hill
#
# Bulk Modulus (GPa) = 55.17284 62.79388 58.98336
# Shear Modulus (GPa) = 28.47380 37.92823 33.20101
#
# Velocity S-wave (km/s) = 3.54365 4.08987 3.82652
# Velocity P-wave (km/s) = 6.40902 7.07079 6.74802
#
# Compressibility (1/GPa) = 0.01812486
#
# Stress axis : x y z
#
# Youngs Moduli (GPa) = 125.91997 67.80164 103.59583
#
# Poissons Ratio (x) = 0.16629 0.03582
# Poissons Ratio (y) = 0.30883 0.44659
# Poissons Ratio (z) = 0.04354 0.29229
#
# Static dielectric constant tensor:
#      x y z
#    x 1.950530 -0.023070 0.023970 
#    y -0.023070 1.927200 -0.049990 
#    z 0.023970 -0.049990 1.822380 
# 
# From -- ./inp_files/427828.got.cif
#   From: 2010.05.17/outbox.cif.g08.bks.cpg/sg2_214_cif.got.tgz:427828.got - 2010.06.03 11:33:40.
