data_PCOD9018152
_publ_section_title
;
Structure prediction by ZEFSAII (Michael W. Deem and Ramdas Pophale) SiO2 
 PCOD9018152
Probable space group: P -1
;
_chemical_formula_sum "Si O2"
_cell_formula_units_Z 16
_cell_length_a 28.244456
_cell_length_b 12.779553
_cell_length_c 10.692233
_cell_angle_alpha 41.465878
_cell_angle_beta 150.993601
_cell_angle_gamma 156.994917
_cell_volume 699.123810
_symmetry_space_group_name_H-M "P -1"
_symmetry_group_IT_number 2
_symmetry_cell_setting 'triclinic'
loop_
_space_group_symop_operation_xyz
x,y,z
-x,-y,-z
loop_
_atom_site_type_symbol
_atom_site_label
_atom_site_fract_x
_atom_site_fract_y
_atom_site_fract_z
Si Si1 0.058404 0.522581 0.322768
Si Si2 0.652633 0.906347 0.663239
Si Si3 0.317942 0.459224 0.614921
Si Si4 0.415424 0.629964 0.148009
Si Si5 0.161481 0.315682 0.638839
Si Si6 0.408447 0.817634 0.326053
Si Si7 0.705565 0.198570 0.163576
Si Si8 0.711034 0.913058 0.056893
O O1 0.169766 0.800460 0.254741
O O2 0.112909 0.426337 0.474223
O O3 0.120575 0.611285 0.530733
O O4 0.852170 0.239886 0.091759
O O5 0.514176 0.668776 0.451517
O O6 0.557750 0.929807 0.489407
O O7 0.683293 0.835805 0.915353
O O8 0.276452 0.483722 0.628914
O O9 0.278350 0.511974 0.355641
O O10 0.229572 0.168808 0.666351
O O11 0.524110 0.704554 0.865373
O O12 0.563277 0.885380 0.164970
O O13 0.258757 0.363587 0.938198
O O14 0.347487 0.700401 0.993827
O O15 0.000000 0.000000 0.500000
O O16 0.500000 0.000000 0.500000
O O17 0.310039 0.802909 0.018845
#
# Coordination Sequence:
#
# PCOD9018152 Si02
#       8
#     2   2   2   2   2   2   2   2
#     4  10  18  33  57  81 103 130 177 220 254 296
#     4   9  18  32  55  79 100 138 179 212 250 306
#     4  10  21  34  50  74 107 142 172 201 263 315
#     4   8  15  29  50  77 103 128 170 217 259 297
#     4  11  19  32  55  77 103 133 173 224 259 295
#     4  10  17  30  53  79 104 134 172 214 258 309
#     4   8  15  28  50  79 101 129 166 217 262 297
#     4  10  20  35  52  73 108 144 172 203 256 320
#
# _framework density 22.885788000000002
#
# number of rings (size 3 to 8) (size 9 to 14) (size 15 to 20)
#    0.000    2.500    1.250    4.125    0.000    0.000 
#    0.000    1.250    5.500   13.500    0.000    0.000 
#    0.000    0.000    0.000    0.000    0.000    0.000 
#
# Total GULP energy -89292.050191 kJ/mol
# GULP energy per Si atom -5580.753137 kJ/mol
# Density = 2.283370 g / cm^3
# Si number density = 22.885788 Si / 1000 Ang^3
#
#
#
# Elastic Constant Matrix: (Units=GPa)
#
#
# Indices 1 2 3 4 5 6 
#
# 1 83.8544 22.1270 22.5636 8.6452 -20.6607 12.4736
# 2 22.1270 68.9846 37.1701 6.1723 -19.0184 13.2973
# 3 22.5636 37.1701 111.6815 6.6498 -43.0782 14.9704
# 4 8.6452 6.1723 6.6498 39.1994 1.5595 -7.5001
# 5 -20.6607 -19.0184 -43.0782 1.5595 32.8391 -0.7077
# 6 12.4736 13.2973 14.9704 -7.5001 -0.7077 34.2315
#
#
#
# Elastic Compliance Matrix: (Units=1/GPa)
#
#
# Indices 1 2 3 4 5 6 
#
# 1 0.017094 -0.001198 0.005080 -0.006863 0.016854 -0.009140
# 2 -0.001198 0.020009 -0.002026 -0.004250 0.008223 -0.007211
# 3 0.005080 -0.002026 0.023521 -0.008502 0.033012 -0.012531
# 4 -0.006863 -0.004250 -0.008502 0.032699 -0.019170 0.014638
# 5 0.016854 0.008223 0.033012 -0.019170 0.089470 -0.026123
# 6 -0.009140 -0.007211 -0.012531 0.014638 -0.026123 0.043492
#
#
# Mechanical properties :
#
#
# Convention : Reuss Voigt Hill
#
# Bulk Modulus (GPa) = 15.54319 47.58244 31.56281
# Shear Modulus (GPa) = 20.49021 33.43132 26.96077
#
# Velocity S-wave (km/s) = 2.99544 3.82617 3.43601
# Velocity P-wave (km/s) = 4.33243 6.35263 5.43718
#
# Compressibility (1/GPa) = 0.06433688
#
# Stress axis : x y z
#
# Youngs Moduli (GPa) = 58.49889 49.97726 42.51443
#
# Poissons Ratio (x) = 0.05986 -0.21596
# Poissons Ratio (y) = 0.07007 0.08613
# Poissons Ratio (z) = -0.29716 0.10125
#
# Static dielectric constant tensor:
#      x y z
#    x 1.905950 -0.049250 0.051620 
#    y -0.049250 1.915150 -0.035180 
#    z 0.051620 -0.035180 1.912510 
# 
# From -- ./inp_files/358856.got.cif
#   From: 2010.05.17/outbox.cif.g08.bks.cpg/sg2_180_cif.got.tgz:358856.got - 2010.06.03 11:33:40.
