data_PCOD9018060
_publ_section_title
;
Structure prediction by ZEFSAII (Michael W. Deem and Ramdas Pophale) SiO2 
 PCOD9018060
Probable space group: P -1
;
_chemical_formula_sum "Si O2"
_cell_formula_units_Z 16
_cell_length_a 9.878626
_cell_length_b 22.207233
_cell_length_c 12.599216
_cell_angle_alpha 27.541081
_cell_angle_beta 48.037964
_cell_angle_gamma 38.873204
_cell_volume 799.843907
_symmetry_space_group_name_H-M "P -1"
_symmetry_group_IT_number 2
_symmetry_cell_setting 'triclinic'
loop_
_space_group_symop_operation_xyz
x,y,z
-x,-y,-z
loop_
_atom_site_type_symbol
_atom_site_label
_atom_site_fract_x
_atom_site_fract_y
_atom_site_fract_z
Si Si1 0.206388 0.319808 0.778459
Si Si2 0.991186 0.683055 0.327752
Si Si3 0.019255 0.669381 0.914463
Si Si4 0.248688 0.111151 0.486185
Si Si5 0.381999 0.909318 0.188201
Si Si6 0.766945 0.153175 0.414230
Si Si7 0.292010 0.295964 0.363958
Si Si8 0.050166 0.929277 0.967353
O O1 0.116410 0.499066 0.552823
O O2 0.447330 0.239844 0.734403
O O3 0.080728 0.284537 0.808928
O O4 0.164404 0.274457 0.985946
O O5 0.790579 0.731876 0.436752
O O6 0.133883 0.748697 0.193356
O O7 0.184899 0.713692 0.801388
O O8 0.900053 0.770949 0.713717
O O9 0.154667 0.482269 0.125079
O O10 0.233167 0.214019 0.433449
O O11 0.500000 0.000000 0.500000
O O12 0.172375 0.995983 0.737727
O O13 0.305448 0.879122 0.385377
O O14 0.176237 0.005020 0.074050
O O15 0.500000 0.000000 0.000000
O O16 0.552843 0.216002 0.355630
O O17 0.000000 0.000000 0.500000
O O18 0.000000 0.000000 0.000000
#
# Coordination Sequence:
#
# PCOD9018060 Si02
#       8
#     2   2   2   2   2   2   2   2
#     4  10  22  41  71  98 137 168 224 278 343 401
#     4  10  21  43  68 103 127 176 224 282 334 401
#     4  11  25  44  68 100 136 180 227 283 347 411
#     4  12  27  46  65  99 139 184 229 281 344 412
#     4  12  23  42  68 100 136 175 224 284 337 403
#     4  12  24  41  65 103 135 172 234 281 339 405
#     4  11  23  45  70  95 139 182 224 284 348 407
#     4  12  25  44  69  95 136 178 234 278 336 409
#
# _framework density 20.003903999999999
#
# number of rings (size 3 to 8) (size 9 to 14) (size 15 to 20)
#    0.000    0.750    5.000    2.250    1.750    0.000 
#    2.250    0.625    0.000    0.000    0.000    0.000 
#    0.000    0.000    0.000    0.000    0.000    0.000 
#
# Total GULP energy -89316.062131 kJ/mol
# GULP energy per Si atom -5582.253883 kJ/mol
# Density = 1.995837 g / cm^3
# Si number density = 20.003904 Si / 1000 Ang^3
#
#
#
# Elastic Constant Matrix: (Units=GPa)
#
#
# Indices 1 2 3 4 5 6 
#
# 1 108.8808 32.4054 45.9353 -1.2337 -19.9151 6.8518
# 2 32.4054 122.5686 46.8321 8.8362 -14.3016 0.7753
# 3 45.9353 46.8321 103.0660 8.3005 -21.2134 5.9976
# 4 -1.2337 8.8362 8.3005 27.2970 6.8118 -5.7207
# 5 -19.9151 -14.3016 -21.2134 6.8118 39.5249 -3.4967
# 6 6.8518 0.7753 5.9976 -5.7207 -3.4967 36.9445
#
#
#
# Elastic Compliance Matrix: (Units=1/GPa)
#
#
# Indices 1 2 3 4 5 6 
#
# 1 0.011957 -0.001306 -0.004157 0.001258 0.003013 -0.001035
# 2 -0.001306 0.010235 -0.003542 -0.002628 0.001628 0.000350
# 3 -0.004157 -0.003542 0.014787 -0.005252 0.005300 -0.001867
# 4 0.001258 -0.002628 -0.005252 0.042965 -0.009975 0.006383
# 5 0.003013 0.001628 0.005300 -0.009975 0.031974 0.000028
# 6 -0.001035 0.000350 -0.001867 0.006383 0.000028 0.028546
#
#
# Mechanical properties :
#
#
# Convention : Reuss Voigt Hill
#
# Bulk Modulus (GPa) = 52.71607 64.98455 58.85031
# Shear Modulus (GPa) = 30.34029 34.70944 32.52487
#
# Velocity S-wave (km/s) = 3.89873 4.17001 4.03665
# Velocity P-wave (km/s) = 6.83205 7.46604 7.15607
#
# Compressibility (1/GPa) = 0.01896955
#
# Stress axis : x y z
#
# Youngs Moduli (GPa) = 83.63201 97.70858 67.62617
#
# Poissons Ratio (x) = 0.12757 0.28111
# Poissons Ratio (y) = 0.10919 0.23954
# Poissons Ratio (z) = 0.34765 0.34610
#
# Static dielectric constant tensor:
#      x y z
#    x 1.754170 0.268890 -0.145980 
#    y 0.268890 3.041220 -0.736950 
#    z -0.145980 -0.736950 2.165840 
# 
# From -- ./inp_files/184365.got.cif
#   From: 2010.05.17/outbox.cif.g08.bks.cpg/sg2_93_cif.got.tgz:184365.got - 2010.06.03 11:33:40.
