data_PCOD9018041
_publ_section_title
;
Structure prediction by ZEFSAII (Michael W. Deem and Ramdas Pophale) SiO2 
 PCOD9018041
Probable space group: P -1
;
_chemical_formula_sum "Si O2"
_cell_formula_units_Z 14
_cell_length_a 8.916228
_cell_length_b 8.631709
_cell_length_c 13.004701
_cell_angle_alpha 113.654956
_cell_angle_beta 47.650906
_cell_angle_gamma 102.546162
_cell_volume 675.463153
_symmetry_space_group_name_H-M "P -1"
_symmetry_group_IT_number 2
_symmetry_cell_setting 'triclinic'
loop_
_space_group_symop_operation_xyz
x,y,z
-x,-y,-z
loop_
_atom_site_type_symbol
_atom_site_label
_atom_site_fract_x
_atom_site_fract_y
_atom_site_fract_z
Si Si1 0.476732 0.265939 0.328374
Si Si2 0.288259 0.607277 0.152093
Si Si3 0.506178 0.796226 0.453194
Si Si4 0.223752 0.568146 0.413367
Si Si5 0.041513 0.350670 0.856860
Si Si6 0.848911 0.087383 0.014407
Si Si7 0.537830 0.044760 0.876656
O O1 0.485193 0.251399 0.442543
O O2 0.364699 0.430925 0.376049
O O3 0.376655 0.109342 0.276388
O O4 0.705318 0.238966 0.172342
O O5 0.261872 0.579889 0.277615
O O6 0.337399 0.798553 0.157576
O O7 0.089392 0.585669 0.167081
O O8 0.500000 0.500000 0.000000
O O9 0.302975 0.736868 0.474913
O O10 0.717707 0.702859 0.285585
O O11 0.500000 0.000000 0.500000
O O12 0.000000 0.500000 0.500000
O O13 0.949510 0.177507 0.896489
O O14 0.000000 0.500000 0.000000
O O15 0.699586 0.934531 0.034965
O O16 0.000000 0.000000 0.000000
O O17 0.500000 0.000000 0.000000
#
# Coordination Sequence:
#
# PCOD9018041 Si02
#       7
#     2   2   2   2   2   2   2
#     4  10  23  45  67 101 141 185 230 295 343 429
#     4  12  24  44  70 103 140 183 236 295 351 419
#     4  12  26  48  73 105 145 188 240 294 358 430
#     4  12  27  47  68 100 138 189 234 291 357 418
#     4  12  26  44  72 104 141 186 237 290 352 427
#     4  10  22  40  68 100 134 178 230 278 354 411
#     4  10  21  43  68 100 142 176 235 290 353 411
#
# _framework density 20.726520000000001
#
# number of rings (size 3 to 8) (size 9 to 14) (size 15 to 20)
#    0.857    0.000    1.429    6.429    4.000    2.286 
#    5.143    2.857    0.000    0.000    0.000    0.000 
#    0.000    0.000    0.000    0.000    0.000    0.000 
#
# Total GULP energy -77935.474632 kJ/mol
# GULP energy per Si atom -5566.819617 kJ/mol
# Density = 2.067935 g / cm^3
# Si number density = 20.726520 Si / 1000 Ang^3
#
#
#
# Elastic Constant Matrix: (Units=GPa)
#
#
# Indices 1 2 3 4 5 6 
#
# 1 148.8079 46.2869 43.7267 -3.0576 12.6643 -4.0479
# 2 46.2869 94.5846 36.2264 -5.9145 11.9830 10.4078
# 3 43.7267 36.2264 100.7043 -22.1070 19.0958 8.6242
# 4 -3.0576 -5.9145 -22.1070 38.8162 -4.1653 7.4771
# 5 12.6643 11.9830 19.0958 -4.1653 43.4340 -5.1655
# 6 -4.0479 10.4078 8.6242 7.4771 -5.1655 41.2236
#
#
#
# Elastic Compliance Matrix: (Units=1/GPa)
#
#
# Indices 1 2 3 4 5 6 
#
# 1 0.008813 -0.003499 -0.003305 -0.002273 -0.000030 0.002849
# 2 -0.003499 0.014016 -0.002621 0.000869 -0.002057 -0.003749
# 3 -0.003305 -0.002621 0.015587 0.008673 -0.004943 -0.005116
# 4 -0.002273 0.000869 0.008673 0.032104 -0.001291 -0.008242
# 5 -0.000030 -0.002057 -0.004943 -0.001291 0.026253 0.005074
# 6 0.002849 -0.003749 -0.005116 -0.008242 0.005074 0.028685
#
#
# Mechanical properties :
#
#
# Convention : Reuss Voigt Hill
#
# Bulk Modulus (GPa) = 51.10779 66.28633 58.69706
# Shear Modulus (GPa) = 33.14975 39.21854 36.18414
#
# Velocity S-wave (km/s) = 4.00357 4.35465 4.18280
# Velocity P-wave (km/s) = 6.78846 7.57198 7.19090
#
# Compressibility (1/GPa) = 0.01956649
#
# Stress axis : x y z
#
# Youngs Moduli (GPa) = 113.46928 71.34712 64.15406
#
# Poissons Ratio (x) = 0.24961 0.21205
# Poissons Ratio (y) = 0.39698 0.16815
# Poissons Ratio (z) = 0.37506 0.18700
#
# Static dielectric constant tensor:
#      x y z
#    x 1.692490 0.049780 0.006670 
#    y 0.049780 1.737220 0.001190 
#    z 0.006670 0.001190 1.751120 
# 
# From -- ./inp_files/383092.got.cif
#   From: 2010.05.17/outbox.cif.g08.bks.cpg/sg2_192_cif.got.tgz:383092.got - 2010.06.03 11:33:40.
