data_PCOD9018345
_publ_section_title
;
Structure prediction by ZEFSAII (Michael W. Deem and Ramdas Pophale) SiO2 
 PCOD9018345
Probable space group: P -1
;
_chemical_formula_sum "Si O2"
_cell_formula_units_Z 16
_cell_length_a 9.099615
_cell_length_b 15.359756
_cell_length_c 8.757939
_cell_angle_alpha 139.634098
_cell_angle_beta 86.742882
_cell_angle_gamma 79.901258
_cell_volume 744.896266
_symmetry_space_group_name_H-M "P -1"
_symmetry_group_IT_number 2
_symmetry_cell_setting 'triclinic'
loop_
_space_group_symop_operation_xyz
x,y,z
-x,-y,-z
loop_
_atom_site_type_symbol
_atom_site_label
_atom_site_fract_x
_atom_site_fract_y
_atom_site_fract_z
Si Si1 0.140790 0.359903 0.348984
Si Si2 0.089200 0.087916 0.020420
Si Si3 0.362962 0.203162 0.874295
Si Si4 0.439338 0.425585 0.543061
Si Si5 0.400690 0.822398 0.605401
Si Si6 0.361053 0.047968 0.356873
Si Si7 0.883529 0.083110 0.751008
Si Si8 0.611397 0.321549 0.903996
O O1 0.281561 0.399534 0.468823
O O2 0.000000 0.500000 0.500000
O O3 0.098218 0.237584 0.281460
O O4 0.212259 0.282812 0.083910
O O5 0.261866 0.973121 0.828546
O O6 0.986978 0.129642 0.928168
O O7 0.000000 0.000000 0.000000
O O8 0.335700 0.108422 0.612202
O O9 0.444705 0.308534 0.941056
O O10 0.494425 0.099768 0.838506
O O11 0.500000 0.500000 0.500000
O O12 0.572723 0.277325 0.381921
O O13 0.401157 0.522751 0.828678
O O14 0.564488 0.851795 0.606704
O O15 0.363429 0.737057 0.348751
O O16 0.204925 0.013443 0.286397
O O17 0.747098 0.211156 0.850119
O O18 0.000000 0.000000 0.500000
#
# Coordination Sequence:
#
# PCOD9018345 Si02
#       8
#     2   2   2   2   2   2   2   2
#     4  12  26  45  66  98 147 185 224 281 363 422
#     4  12  28  43  67 105 146 181 231 297 346 408
#     4   9  17  37  66  98 128 168 226 277 335 403
#     4  12  27  44  67  97 135 188 233 280 358 426
#     4  11  24  44  71  97 136 177 242 295 340 405
#     4   9  19  36  69  99 127 171 228 288 332 398
#     4  11  21  40  71 103 136 172 225 279 353 407
#     4  10  21  43  70 100 130 180 228 288 337 419
#
# _framework density 21.479499000000001
#
# number of rings (size 3 to 8) (size 9 to 14) (size 15 to 20)
#    0.000    1.250    3.750    2.625    5.250    0.500 
#    0.000    0.000    0.000    3.000    0.000    0.000 
#    0.000    0.000    0.000    0.000    0.000    0.000 
#
# Total GULP energy -89380.000293 kJ/mol
# GULP energy per Si atom -5586.250018 kJ/mol
# Density = 2.143061 g / cm^3
# Si number density = 21.479499 Si / 1000 Ang^3
#
#
#
# Elastic Constant Matrix: (Units=GPa)
#
#
# Indices 1 2 3 4 5 6 
#
# 1 131.1972 39.2173 46.9088 15.7940 16.7480 2.4785
# 2 39.2173 97.3671 22.5281 19.7312 5.8913 -4.2154
# 3 46.9088 22.5281 93.0142 19.8225 4.4486 0.3583
# 4 15.7940 19.7312 19.8225 22.8382 0.1545 -3.2274
# 5 16.7480 5.8913 4.4486 0.1545 46.8591 0.8960
# 6 2.4785 -4.2154 0.3583 -3.2274 0.8960 34.0571
#
#
#
# Elastic Compliance Matrix: (Units=1/GPa)
#
#
# Indices 1 2 3 4 5 6 
#
# 1 0.010541 -0.002880 -0.004195 -0.001299 -0.002981 -0.001124
# 2 -0.002880 0.013412 0.000304 -0.009719 -0.000672 0.000963
# 3 -0.004195 0.000304 0.015036 -0.010528 0.000084 -0.000815
# 4 -0.001299 -0.009719 -0.010528 0.062895 0.002385 0.004900
# 5 -0.002981 -0.000672 0.000084 0.002385 0.022479 -0.000233
# 6 -0.001124 0.000963 -0.000815 0.004900 -0.000233 0.030043
#
#
# Mechanical properties :
#
#
# Convention : Reuss Voigt Hill
#
# Bulk Modulus (GPa) = 39.29820 59.87634 49.58727
# Shear Modulus (GPa) = 28.33988 34.94584 31.64286
#
# Velocity S-wave (km/s) = 3.63628 4.03791 3.84235
# Velocity P-wave (km/s) = 5.99712 7.04813 6.54376
#
# Compressibility (1/GPa) = 0.02544646
#
# Stress axis : x y z
#
# Youngs Moduli (GPa) = 94.86711 74.56011 66.50884
#
# Poissons Ratio (x) = 0.21474 0.27898
# Poissons Ratio (y) = 0.27323 -0.02020
# Poissons Ratio (z) = 0.39793 -0.02264
#
# Static dielectric constant tensor:
#      x y z
#    x 1.771500 0.036760 0.034610 
#    y 0.036760 1.833520 -0.000350 
#    z 0.034610 -0.000350 1.807470 
# 
# From -- ./inp_files/209363.got.cif
#   From: 2010.05.17/outbox.cif.g08.bks.cpg/sg2_105_cif.got.tgz:209363.got - 2010.06.03 11:33:40.
