data_PCOD9018184
_publ_section_title
;
Structure prediction by ZEFSAII (Michael W. Deem and Ramdas Pophale) SiO2 
 PCOD9018184
Probable space group: P -1
;
_chemical_formula_sum "Si O2"
_cell_formula_units_Z 16
_cell_length_a 14.407251
_cell_length_b 9.400036
_cell_length_c 11.473479
_cell_angle_alpha 80.573140
_cell_angle_beta 30.027525
_cell_angle_gamma 71.479671
_cell_volume 716.756055
_symmetry_space_group_name_H-M "P -1"
_symmetry_group_IT_number 2
_symmetry_cell_setting 'triclinic'
loop_
_space_group_symop_operation_xyz
x,y,z
-x,-y,-z
loop_
_atom_site_type_symbol
_atom_site_label
_atom_site_fract_x
_atom_site_fract_y
_atom_site_fract_z
Si Si1 0.845791 0.798565 0.030841
Si Si2 0.608176 0.254362 0.854630
Si Si3 0.415009 0.902766 0.856396
Si Si4 0.712419 0.239938 0.496433
Si Si5 0.168029 0.737406 0.041331
Si Si6 0.222722 0.051936 0.658625
Si Si7 0.352887 0.454314 0.748295
Si Si8 0.803029 0.463492 0.735889
O O1 0.802006 0.887884 0.190858
O O2 0.752016 0.665067 0.155680
O O3 0.728837 0.924440 0.043542
O O4 0.079665 0.736120 0.752170
O O5 0.695270 0.167983 0.650852
O O6 0.739853 0.361561 0.722476
O O7 0.612506 0.145458 0.975219
O O8 0.383139 0.376042 0.074336
O O9 0.632780 0.888099 0.582035
O O10 0.354914 0.787127 0.853205
O O11 0.507288 0.385109 0.695797
O O12 0.697074 0.131832 0.420224
O O13 0.153576 0.646027 0.184166
O O14 0.986474 0.889440 0.187470
O O15 0.184997 0.616068 0.938404
O O16 0.500000 0.500000 0.500000
O O17 0.000000 0.500000 0.500000
#
# Coordination Sequence:
#
# PCOD9018184 Si02
#       8
#     2   2   2   2   2   2   2   2
#     4  12  27  46  72 104 144 193 237 291 361 422
#     4  10  24  43  68 107 143 182 238 291 353 419
#     4  11  24  45  72 101 141 190 235 289 356 422
#     4  12  26  45  71 105 148 182 237 298 348 432
#     4  11  24  43  69 104 133 183 236 284 359 414
#     4  12  25  45  72 101 140 191 240 289 354 422
#     4  12  27  46  70 105 141 182 239 302 352 416
#     4  10  21  43  68  98 142 185 228 291 351 420
#
# _framework density 22.322797999999999
#
# number of rings (size 3 to 8) (size 9 to 14) (size 15 to 20)
#    0.000    0.750    3.750    3.000    3.500    4.000 
#    0.000    0.000    0.000    0.000    0.000    0.000 
#    0.000    0.000    0.000    0.000    0.000    0.000 
#
# Total GULP energy -89385.283277 kJ/mol
# GULP energy per Si atom -5586.580205 kJ/mol
# Density = 2.227199 g / cm^3
# Si number density = 22.322798 Si / 1000 Ang^3
#
#
#
# Elastic Constant Matrix: (Units=GPa)
#
#
# Indices 1 2 3 4 5 6 
#
# 1 68.1863 15.4937 45.0919 -18.1558 6.6057 -5.7632
# 2 15.4937 83.6056 24.1933 -25.5970 3.9529 6.0644
# 3 45.0919 24.1933 98.5555 -28.7464 -10.1522 21.9621
# 4 -18.1558 -25.5970 -28.7464 40.2744 4.9685 -6.8393
# 5 6.6057 3.9529 -10.1522 4.9685 30.0647 -3.2981
# 6 -5.7632 6.0644 21.9621 -6.8393 -3.2981 25.9693
#
#
#
# Elastic Compliance Matrix: (Units=1/GPa)
#
#
# Indices 1 2 3 4 5 6 
#
# 1 0.032533 0.000515 -0.019713 0.006504 -0.012323 0.023919
# 2 0.000515 0.015426 -0.001717 0.009317 -0.004275 -0.000125
# 3 -0.019713 -0.001717 0.027352 0.004064 0.010411 -0.024713
# 4 0.006504 0.009317 0.004064 0.038308 -0.007062 0.005023
# 5 -0.012323 -0.004275 0.010411 -0.007062 0.040416 -0.007268
# 6 0.023919 -0.000125 -0.024713 0.005023 -0.007268 0.065144
#
#
# Mechanical properties :
#
#
# Convention : Reuss Voigt Hill
#
# Bulk Modulus (GPa) = 29.86913 46.65612 38.26262
# Shear Modulus (GPa) = 18.37081 30.29959 24.33520
#
# Velocity S-wave (km/s) = 2.87184 3.68820 3.30532
# Velocity P-wave (km/s) = 4.94027 6.25165 5.63424
#
# Compressibility (1/GPa) = 0.03347938
#
# Stress axis : x y z
#
# Youngs Moduli (GPa) = 30.73836 64.82532 36.56000
#
# Poissons Ratio (x) = -0.03337 0.72072
# Poissons Ratio (y) = -0.01582 0.06278
# Poissons Ratio (z) = 0.60595 0.11132
#
# Static dielectric constant tensor:
#      x y z
#    x 1.861050 -0.046950 -0.005790 
#    y -0.046950 1.818090 -0.071430 
#    z -0.005790 -0.071430 1.723840 
# 
# From -- ./inp_files/246083.got.cif
#   From: 2010.05.17/outbox.cif.g08.bks.cpg/sg2_124_cif.got.tgz:246083.got - 2010.06.03 11:33:40.
