data_PCOD9018467
_publ_section_title
;
Structure prediction by ZEFSAII (Michael W. Deem and Ramdas Pophale) SiO2 
 PCOD9018467
Probable space group: P -1
;
_chemical_formula_sum "Si O2"
_cell_formula_units_Z 14
_cell_length_a 5.588435
_cell_length_b 5.049197
_cell_length_c 17.547016
_cell_angle_alpha 84.292927
_cell_angle_beta 75.193405
_cell_angle_gamma 86.838509
_cell_volume 476.084583
_symmetry_space_group_name_H-M "P -1"
_symmetry_group_IT_number 2
_symmetry_cell_setting 'triclinic'
loop_
_space_group_symop_operation_xyz
x,y,z
-x,-y,-z
loop_
_atom_site_type_symbol
_atom_site_label
_atom_site_fract_x
_atom_site_fract_y
_atom_site_fract_z
Si Si1 0.073430 0.979906 0.796544
Si Si2 0.859621 0.490178 0.432284
Si Si3 0.742350 0.404734 0.720902
Si Si4 0.500000 0.000000 0.000000
Si Si5 0.313561 0.403357 0.124370
Si Si6 0.500000 0.000000 0.500000
Si Si7 0.973722 0.227042 0.956966
Si Si8 0.550569 0.906685 0.358622
O O1 0.297403 0.945520 0.721053
O O2 0.865767 0.140305 0.758215
O O3 0.104790 0.155932 0.865320
O O4 0.962811 0.703889 0.839859
O O5 0.710351 0.779508 0.421358
O O6 0.000000 0.500000 0.500000
O O7 0.031872 0.461914 0.344153
O O8 0.666363 0.262259 0.456465
O O9 0.607591 0.546514 0.798119
O O10 0.555477 0.331703 0.673151
O O11 0.809564 0.945542 0.001806
O O12 0.540270 0.828119 0.922548
O O13 0.311425 0.671876 0.065745
O O14 0.347656 0.040684 0.424190
O O15 0.000000 0.500000 0.000000
#
# Coordination Sequence:
#
# PCOD9018467 Si02
#       8
#     2   2   2   1   2   1   2   2
#     4   9  22  41  63  97 136 180 236 294 361 437
#     4  11  24  45  67 102 144 184 250 309 362 444
#     4  10  22  43  65  95 144 189 234 310 360 437
#     4  10  22  40  64 102 134 178 242 296 374 436
#     4  10  21  43  70  99 142 188 240 308 373 437
#     4  12  24  40  70 102 134 192 238 298 376 430
#     4  10  22  41  68  99 138 183 236 301 370 443
#     4  11  24  44  67 101 139 186 247 291 372 445
#
# _framework density 29.406538999999999
#
# number of rings (size 3 to 8) (size 9 to 14) (size 15 to 20)
#    0.000    1.714    1.429    1.714    0.000    7.429 
#    0.000   10.000    0.000    2.571    0.000    0.000 
#    0.000    0.000    0.000    0.000    0.000    0.000 
#
# Total GULP energy -78208.279799 kJ/mol
# GULP energy per Si atom -5586.305700 kJ/mol
# Density = 2.933961 g / cm^3
# Si number density = 29.406539 Si / 1000 Ang^3
#
#
#
# Elastic Constant Matrix: (Units=GPa)
#
#
# Indices 1 2 3 4 5 6 
#
# 1 117.4758 57.3157 58.1404 -5.9210 14.8304 -5.7285
# 2 57.3157 204.3885 85.9339 3.4850 16.0626 -19.7150
# 3 58.1404 85.9339 292.6981 30.6848 -8.3066 3.7606
# 4 -5.9210 3.4850 30.6848 70.9592 9.8337 7.7154
# 5 14.8304 16.0626 -8.3066 9.8337 60.9559 -11.2915
# 6 -5.7285 -19.7150 3.7606 7.7154 -11.2915 54.0827
#
#
#
# Elastic Compliance Matrix: (Units=1/GPa)
#
#
# Indices 1 2 3 4 5 6 
#
# 1 0.010917 -0.002142 -0.001849 0.002244 -0.002779 -0.000396
# 2 -0.002142 0.006402 -0.001518 0.000088 -0.001019 0.001987
# 3 -0.001849 -0.001518 0.004518 -0.002236 0.001756 -0.000378
# 4 0.002244 0.000088 -0.002236 0.016086 -0.003969 -0.002698
# 5 -0.002779 -0.001019 0.001756 -0.003969 0.018920 0.003729
# 6 -0.000396 0.001987 -0.000378 -0.002698 0.003729 0.020362
#
#
# Mechanical properties :
#
#
# Convention : Reuss Voigt Hill
#
# Bulk Modulus (GPa) = 92.42060 113.03803 102.72932
# Shear Modulus (GPa) = 54.44923 64.74438 59.59681
#
# Velocity S-wave (km/s) = 4.30769 4.69732 4.50672
# Velocity P-wave (km/s) = 7.49923 8.24275 7.87976
#
# Compressibility (1/GPa) = 0.01082010
#
# Stress axis : x y z
#
# Youngs Moduli (GPa) = 91.59986 156.20870 221.32074
#
# Poissons Ratio (x) = 0.33465 0.40912
# Poissons Ratio (y) = 0.19624 0.33588
# Poissons Ratio (z) = 0.16933 0.23707
#
# Static dielectric constant tensor:
#      x y z
#    x 2.307400 -0.449170 0.057100 
#    y -0.449170 2.141840 0.328430 
#    z 0.057100 0.328430 2.287260 
# 
# From -- ./inp_files/6367.got.cif
#   From: 2010.05.17/outbox.cif.g08.bks.cpg/sg2_4_cif.got.tgz:6367.got - 2010.06.03 11:33:40.
