data_PCOD9018383
_publ_section_title
;
Structure prediction by ZEFSAII (Michael W. Deem and Ramdas Pophale) SiO2 
 PCOD9018383
Probable space group: P -1
;
_chemical_formula_sum "Si O2"
_cell_formula_units_Z 14
_cell_length_a 20.693173
_cell_length_b 7.231395
_cell_length_c 7.955933
_cell_angle_alpha 56.416437
_cell_angle_beta 38.902657
_cell_angle_gamma 44.327707
_cell_volume 522.413031
_symmetry_space_group_name_H-M "P -1"
_symmetry_group_IT_number 2
_symmetry_cell_setting 'triclinic'
loop_
_space_group_symop_operation_xyz
x,y,z
-x,-y,-z
loop_
_atom_site_type_symbol
_atom_site_label
_atom_site_fract_x
_atom_site_fract_y
_atom_site_fract_z
Si Si1 0.316784 0.896462 0.697284
Si Si2 0.852470 0.175339 0.403401
Si Si3 0.410604 0.942661 0.814735
Si Si4 0.978493 0.323468 0.501774
Si Si5 0.921966 0.777842 0.164305
Si Si6 0.383514 0.299148 0.242190
Si Si7 0.290052 0.461528 0.977306
O O1 0.173012 0.107691 0.853326
O O2 0.273403 0.555594 0.432731
O O3 0.355332 0.842215 0.841636
O O4 0.344047 0.621598 0.706336
O O5 0.849574 0.992226 0.354439
O O6 0.911717 0.977914 0.542736
O O7 0.641598 0.652336 0.927856
O O8 0.952829 0.235583 0.107186
O O9 0.489183 0.767857 0.901451
O O10 0.500000 0.000000 0.500000
O O11 0.377743 0.041184 0.421188
O O12 0.949287 0.493741 0.307015
O O13 0.854126 0.345477 0.795921
O O14 0.000000 0.500000 0.500000
O O15 0.305656 0.226817 0.952090
#
# Coordination Sequence:
#
# PCOD9018383 Si02
#       7
#     2   2   2   2   2   2   2
#     4  11  25  45  73 108 138 191 236 288 362 418
#     4  10  23  41  73 105 147 184 237 289 357 424
#     4  10  27  49  74 105 142 186 244 300 348 426
#     4  10  22  42  70 106 143 186 229 291 355 418
#     4  10  21  43  70 108 145 188 229 295 356 422
#     4  11  26  48  69 108 142 189 241 294 354 425
#     4  12  25  49  73 102 148 185 241 295 356 420
#
# _framework density 26.798717
#
# number of rings (size 3 to 8) (size 9 to 14) (size 15 to 20)
#    0.000    1.429    2.857    0.429    4.000    7.429 
#    2.571    0.000    0.000    0.000    0.000    0.000 
#    0.000    0.000    0.000    0.000    0.000    0.000 
#
# Total GULP energy -78519.273697 kJ/mol
# GULP energy per Si atom -5608.519550 kJ/mol
# Density = 2.673772 g / cm^3
# Si number density = 26.798717 Si / 1000 Ang^3
#
#
#
# Elastic Constant Matrix: (Units=GPa)
#
#
# Indices 1 2 3 4 5 6 
#
# 1 109.1583 16.5621 3.6695 -0.2350 -3.0355 -18.9458
# 2 16.5621 99.0135 25.8094 3.6298 -13.8596 9.5696
# 3 3.6695 25.8094 78.3869 -23.8330 -12.3368 0.0122
# 4 -0.2350 3.6298 -23.8330 46.9957 3.0575 0.2729
# 5 -3.0355 -13.8596 -12.3368 3.0575 24.9368 -1.1617
# 6 -18.9458 9.5696 0.0122 0.2729 -1.1617 44.6814
#
#
#
# Elastic Compliance Matrix: (Units=1/GPa)
#
#
# Indices 1 2 3 4 5 6 
#
# 1 0.010352 -0.002281 0.000450 0.000402 0.000393 0.004885
# 2 -0.002281 0.012791 -0.004404 -0.003532 0.004920 -0.003556
# 3 0.000450 -0.004404 0.017763 0.008995 0.005348 0.001213
# 4 0.000402 -0.003532 0.008995 0.026152 -0.000636 0.000748
# 5 0.000393 0.004920 0.005348 -0.000636 0.045622 0.000302
# 6 0.004885 -0.003556 0.001213 0.000748 0.000302 0.025217
#
#
# Mechanical properties :
#
#
# Convention : Reuss Voigt Hill
#
# Bulk Modulus (GPa) = 35.16673 42.07120 38.61897
# Shear Modulus (GPa) = 31.28050 39.35727 35.31888
#
# Velocity S-wave (km/s) = 3.42019 3.83642 3.63427
# Velocity P-wave (km/s) = 5.36172 5.94619 5.66150
#
# Compressibility (1/GPa) = 0.02843596
#
# Stress axis : x y z
#
# Youngs Moduli (GPa) = 96.60309 78.18071 56.29771
#
# Poissons Ratio (x) = 0.17830 -0.02532
# Poissons Ratio (y) = 0.22031 0.24792
# Poissons Ratio (z) = -0.04344 0.34429
#
# Static dielectric constant tensor:
#      x y z
#    x 2.095830 0.005690 0.051450 
#    y 0.005690 2.080590 -0.002260 
#    z 0.051450 -0.002260 2.112530 
# 
# From -- ./inp_files/327004.got.cif
#   From: 2010.05.17/outbox.cif.g08.bks.cpg/sg2_164_cif.got.tgz:327004.got - 2010.06.03 11:33:40.
