data_PCOD9018347
_publ_section_title
;
Structure prediction by ZEFSAII (Michael W. Deem and Ramdas Pophale) SiO2 
 PCOD9018347
Probable space group: P -1
;
_chemical_formula_sum "Si O2"
_cell_formula_units_Z 14
_cell_length_a 9.374781
_cell_length_b 18.613237
_cell_length_c 12.339975
_cell_angle_alpha 141.987708
_cell_angle_beta 133.763126
_cell_angle_gamma 26.941354
_cell_volume 600.361226
_symmetry_space_group_name_H-M "P -1"
_symmetry_group_IT_number 2
_symmetry_cell_setting 'triclinic'
loop_
_space_group_symop_operation_xyz
x,y,z
-x,-y,-z
loop_
_atom_site_type_symbol
_atom_site_label
_atom_site_fract_x
_atom_site_fract_y
_atom_site_fract_z
Si Si1 0.111798 0.994974 0.669259
Si Si2 0.789543 0.702823 0.596709
Si Si3 0.051348 0.336263 0.819563
Si Si4 0.747565 0.966443 0.835199
Si Si5 0.819808 0.378063 0.959363
Si Si6 0.949545 0.461747 0.684994
Si Si7 0.785121 0.168544 0.256779
O O1 0.020341 0.171488 0.846469
O O2 0.480685 0.822850 0.643890
O O3 0.036856 0.950927 0.681636
O O4 0.000000 0.000000 0.500000
O O5 0.859021 0.805480 0.773430
O O6 0.000000 0.500000 0.500000
O O7 0.804624 0.686831 0.455646
O O8 0.798947 0.392251 0.833455
O O9 0.010556 0.349260 0.685723
O O10 0.390990 0.133429 0.797898
O O11 0.000000 0.500000 0.000000
O O12 0.990993 0.859375 0.736248
O O13 0.747534 0.073841 0.045581
O O14 0.500000 0.500000 0.000000
O O15 0.971726 0.435108 0.133633
O O16 0.571979 0.624826 0.660125
#
# Coordination Sequence:
#
# PCOD9018347 Si02
#       7
#     2   2   2   2   2   2   2
#     4  12  27  46  67 102 143 185 238 295 357 416
#     4  12  26  47  68 104 147 184 237 294 355 416
#     4  10  21  43  70 100 136 177 239 280 350 422
#     4  11  25  46  73 105 136 191 232 295 354 419
#     4  11  24  43  73 105 135 185 235 292 351 421
#     4  11  24  45  70 103 141 188 231 290 352 421
#     4  11  25  46  72 102 141 182 242 289 355 423
#
# _framework density 23.319296000000001
#
# number of rings (size 3 to 8) (size 9 to 14) (size 15 to 20)
#    0.000    0.857    5.714    0.857    8.000    3.429 
#    2.571    0.000    0.000    0.000    0.000    0.000 
#    0.000    0.000    0.000    0.000    0.000    0.000 
#
# Total GULP energy -78122.466579 kJ/mol
# GULP energy per Si atom -5580.176184 kJ/mol
# Density = 2.326622 g / cm^3
# Si number density = 23.319296 Si / 1000 Ang^3
#
#
#
# Elastic Constant Matrix: (Units=GPa)
#
#
# Indices 1 2 3 4 5 6 
#
# 1 137.7765 42.7980 -5.9316 -0.1265 -5.7732 5.7878
# 2 42.7980 89.5152 13.6467 24.6098 6.7172 6.6586
# 3 -5.9316 13.6467 44.2390 11.7001 -2.2699 -1.7163
# 4 -0.1265 24.6098 11.7001 39.8896 11.0487 -14.1398
# 5 -5.7732 6.7172 -2.2699 11.0487 37.6895 3.7346
# 6 5.7878 6.6586 -1.7163 -14.1398 3.7346 38.5796
#
#
#
# Elastic Compliance Matrix: (Units=1/GPa)
#
#
# Indices 1 2 3 4 5 6 
#
# 1 0.009153 -0.005569 0.002418 0.002400 0.001797 0.000401
# 2 -0.005569 0.018462 -0.003245 -0.013117 0.000232 -0.007325
# 3 0.002418 -0.003245 0.026156 -0.007737 0.004986 -0.001957
# 4 0.002400 -0.013117 -0.007737 0.046099 -0.013230 0.019736
# 5 0.001797 0.000232 0.004986 -0.013230 0.031739 -0.008009
# 6 0.000401 -0.007325 -0.001957 0.019736 -0.008009 0.035046
#
#
# Mechanical properties :
#
#
# Convention : Reuss Voigt Hill
#
# Bulk Modulus (GPa) = 24.40292 41.39521 32.89906
# Shear Modulus (GPa) = 25.89231 37.96625 31.92928
#
# Velocity S-wave (km/s) = 3.33579 4.03936 3.70431
# Velocity P-wave (km/s) = 5.03230 6.28850 5.69514
#
# Compressibility (1/GPa) = 0.04097870
#
# Stress axis : x y z
#
# Youngs Moduli (GPa) = 109.25495 54.16398 38.23225
#
# Poissons Ratio (x) = 0.30166 -0.09245
# Poissons Ratio (y) = 0.60848 0.12407
# Poissons Ratio (z) = -0.26420 0.17577
#
# Static dielectric constant tensor:
#      x y z
#    x 0.571070 0.568520 0.803520 
#    y 0.568520 1.626390 -0.412910 
#    z 0.803520 -0.412910 1.438950 
# 
# From -- ./inp_files/177495.got.cif
#   From: 2010.05.17/outbox.cif.g08.bks.cpg/sg2_89_cif.got.tgz:177495.got - 2010.06.03 11:33:40.
