data_PCOD9018404
_publ_section_title
;
Structure prediction by ZEFSAII (Michael W. Deem and Ramdas Pophale) SiO2 
 PCOD9018404
Probable space group: P -1
;
_chemical_formula_sum "Si O2"
_cell_formula_units_Z 13
_cell_length_a 12.550546
_cell_length_b 7.933834
_cell_length_c 17.948466
_cell_angle_alpha 134.265768
_cell_angle_beta 150.827739
_cell_angle_gamma 63.613463
_cell_volume 549.712157
_symmetry_space_group_name_H-M "P -1"
_symmetry_group_IT_number 2
_symmetry_cell_setting 'triclinic'
loop_
_space_group_symop_operation_xyz
x,y,z
-x,-y,-z
loop_
_atom_site_type_symbol
_atom_site_label
_atom_site_fract_x
_atom_site_fract_y
_atom_site_fract_z
Si Si1 0.143592 0.190861 0.319103
Si Si2 0.952087 0.708057 0.942443
Si Si3 0.611941 0.056846 0.969800
Si Si4 0.839261 0.164565 0.667409
Si Si5 0.500000 0.500000 0.500000
Si Si6 0.476357 0.904562 0.243500
Si Si7 0.590484 0.658874 0.955035
O O1 0.353187 0.399785 0.460122
O O2 0.258040 0.114064 0.435886
O O3 0.000031 0.907359 0.100037
O O4 0.912303 0.239465 0.213014
O O5 0.850520 0.393766 0.799495
O O6 0.756430 0.706583 0.763960
O O7 0.207823 0.787776 0.080456
O O8 0.547015 0.783350 0.890488
O O9 0.528459 0.022981 0.822707
O O10 0.488263 0.206531 0.985738
O O11 0.658724 0.145978 0.483505
O O12 0.113706 0.241174 0.830516
O O13 0.542195 0.660510 0.215392
#
# Coordination Sequence:
#
# PCOD9018404 Si02
#       7
#     2   2   2   2   1   2   2
#     4  11  24  43  64  96 136 174 216 273 322 395
#     4  11  24  41  64  94 133 171 222 268 330 388
#     4  10  21  43  70  93 137 173 216 277 328 386
#     4  10  24  43  66  98 129 172 224 267 331 391
#     4  12  24  38  64  94 126 172 222 258 326 392
#     4  11  22  43  67  99 133 172 219 275 324 393
#     4   9  22  44  67  98 131 174 218 272 333 391
#
# _framework density 23.64874
#
# number of rings (size 3 to 8) (size 9 to 14) (size 15 to 20)
#    0.000    1.538    1.538    2.308    2.154    6.769 
#    0.000    8.462    0.000    0.000    0.000    0.000 
#    0.000    0.000    0.000    0.000    0.000    0.000 
#
# Total GULP energy -72556.130589 kJ/mol
# GULP energy per Si atom -5581.240815 kJ/mol
# Density = 2.359491 g / cm^3
# Si number density = 23.648740 Si / 1000 Ang^3
#
#
#
# Elastic Constant Matrix: (Units=GPa)
#
#
# Indices 1 2 3 4 5 6 
#
# 1 89.2923 16.7343 18.4127 -4.1883 10.0219 3.5193
# 2 16.7343 83.7338 31.3955 -0.2343 3.6872 8.2229
# 3 18.4127 31.3955 69.2206 -10.0902 -9.9501 -1.2669
# 4 -4.1883 -0.2343 -10.0902 33.3079 4.3092 -4.2400
# 5 10.0219 3.6872 -9.9501 4.3092 38.5323 -10.9225
# 6 3.5193 8.2229 -1.2669 -4.2400 -10.9225 43.1434
#
#
#
# Elastic Compliance Matrix: (Units=1/GPa)
#
#
# Indices 1 2 3 4 5 6 
#
# 1 0.012774 -0.000739 -0.003686 0.000844 -0.004913 -0.002170
# 2 -0.000739 0.015719 -0.007998 -0.002413 -0.004388 -0.004519
# 3 -0.003686 -0.007998 0.021091 0.005474 0.007976 0.005002
# 4 0.000844 -0.002413 0.005474 0.032364 -0.001224 0.003422
# 5 -0.004913 -0.004388 0.007976 -0.001224 0.032566 0.009596
# 6 -0.002170 -0.004519 0.005002 0.003422 0.009596 0.027129
#
#
# Mechanical properties :
#
#
# Convention : Reuss Voigt Hill
#
# Bulk Modulus (GPa) = 40.42342 41.70351 41.06347
# Shear Modulus (GPa) = 28.61448 34.71036 31.66242
#
# Velocity S-wave (km/s) = 3.48225 3.83527 3.66302
# Velocity P-wave (km/s) = 5.77048 6.10617 5.94070
#
# Compressibility (1/GPa) = 0.02473813
#
# Stress axis : x y z
#
# Youngs Moduli (GPa) = 78.28251 63.61534 47.41457
#
# Poissons Ratio (x) = 0.04703 0.17475
# Poissons Ratio (y) = 0.05787 0.37923
# Poissons Ratio (z) = 0.28852 0.50881
#
# Static dielectric constant tensor:
#      x y z
#    x 1.764520 0.130150 -0.040180 
#    y 0.130150 1.702460 0.059170 
#    z -0.040180 0.059170 1.905170 
# 
# From -- ./inp_files/24297.got.cif
#   From: 2010.05.17/outbox.cif.g08.bks.cpg/sg2_13_cif.got.tgz:24297.got - 2010.06.03 11:33:40.
