data_PCOD9018823
_publ_section_title
;
Structure prediction by ZEFSAII (Michael W. Deem and Ramdas Pophale) SiO2 
 PCOD9018823
Probable space group: P -1
;
_chemical_formula_sum "Si O2"
_cell_formula_units_Z 16
_cell_length_a 7.472450
_cell_length_b 13.379560
_cell_length_c 11.449423
_cell_angle_alpha 38.694593
_cell_angle_beta 121.335253
_cell_angle_gamma 114.209098
_cell_volume 611.225061
_symmetry_space_group_name_H-M "P -1"
_symmetry_group_IT_number 2
_symmetry_cell_setting 'triclinic'
loop_
_space_group_symop_operation_xyz
x,y,z
-x,-y,-z
loop_
_atom_site_type_symbol
_atom_site_label
_atom_site_fract_x
_atom_site_fract_y
_atom_site_fract_z
Si Si1 0.772008 0.914105 0.768079
Si Si2 0.301725 0.065120 0.005424
Si Si3 0.449379 0.186313 0.415647
Si Si4 0.322434 0.534718 0.636080
Si Si5 0.272998 0.607608 0.034994
Si Si6 0.130411 0.363579 0.530033
Si Si7 0.769094 0.150519 0.017969
Si Si8 0.913937 0.728853 0.668420
O O1 0.765560 0.908748 0.909744
O O2 0.651391 0.776576 0.779394
O O3 0.011662 0.924499 0.800788
O O4 0.639103 0.070583 0.554903
O O5 0.552354 0.085146 0.058045
O O6 0.182168 0.200420 0.766921
O O7 0.249122 0.893959 0.084200
O O8 0.559402 0.303039 0.439374
O O9 0.237383 0.132085 0.462478
O O10 0.476216 0.406531 0.866202
O O11 0.295375 0.485389 0.536834
O O12 0.093003 0.555585 0.592676
O O13 0.184598 0.428324 0.155327
O O14 0.216296 0.671667 0.087277
O O15 0.154337 0.720922 0.799573
O O16 0.125694 0.310547 0.443311
#
# Coordination Sequence:
#
# PCOD9018823 Si02
#       8
#     2   2   2   2   2   2   2   2
#     4  11  24  45  69  95 138 175 223 278 328 398
#     4  11  26  43  66 100 134 181 217 273 338 396
#     4  10  23  44  66 100 123 177 229 270 331 390
#     4  10  23  43  64  95 135 169 222 273 331 397
#     4  10  21  44  64  97 127 176 221 265 340 385
#     4  11  24  44  62 102 134 172 221 275 338 391
#     4  11  23  43  67  98 132 178 225 265 333 399
#     4  10  23  41  71  93 132 170 221 278 325 402
#
# _framework density 26.176938
#
# number of rings (size 3 to 8) (size 9 to 14) (size 15 to 20)
#    0.000    1.500    2.500    1.125    3.500    6.500 
#    2.250    1.875    0.000    0.000    0.000    0.000 
#    0.000    0.000    0.000    0.000    0.000    0.000 
#
# Total GULP energy -89310.290772 kJ/mol
# GULP energy per Si atom -5581.893173 kJ/mol
# Density = 2.611736 g / cm^3
# Si number density = 26.176938 Si / 1000 Ang^3
#
#
#
# Elastic Constant Matrix: (Units=GPa)
#
#
# Indices 1 2 3 4 5 6 
#
# 1 108.9956 27.7335 63.9317 13.2797 46.0518 -23.8138
# 2 27.7335 127.9556 68.3135 24.2789 5.1545 -27.0423
# 3 63.9317 68.3135 108.1991 31.2377 39.7262 -5.9078
# 4 13.2797 24.2789 31.2377 46.5919 -5.2186 2.3327
# 5 46.0518 5.1545 39.7262 -5.2186 56.8236 4.0688
# 6 -23.8138 -27.0423 -5.9078 2.3327 4.0688 42.8711
#
#
#
# Elastic Compliance Matrix: (Units=1/GPa)
#
#
# Indices 1 2 3 4 5 6 
#
# 1 0.024351 0.005030 -0.009168 -0.006022 -0.015570 0.017242
# 2 0.005030 0.016317 -0.013403 -0.001175 0.002916 0.011027
# 3 -0.009168 -0.013403 0.031622 -0.012828 -0.014128 -0.007151
# 4 -0.006022 -0.001175 -0.012828 0.034863 0.017833 -0.009444
# 5 -0.015570 0.002916 -0.014128 0.017833 0.042452 -0.013755
# 6 0.017242 0.011027 -0.007151 -0.009444 -0.013755 0.040692
#
#
# Mechanical properties :
#
#
# Convention : Reuss Voigt Hill
#
# Bulk Modulus (GPa) = 26.87589 73.90086 50.38837
# Shear Modulus (GPa) = 21.02776 41.60209 31.31492
#
# Velocity S-wave (km/s) = 2.83732 3.99088 3.46248
# Velocity P-wave (km/s) = 4.58510 7.03767 5.93936
#
# Compressibility (1/GPa) = 0.03720808
#
# Stress axis : x y z
#
# Youngs Moduli (GPa) = 41.06553 61.28669 31.62380
#
# Poissons Ratio (x) = -0.30829 0.28992
# Poissons Ratio (y) = -0.20657 0.42387
# Poissons Ratio (z) = 0.37648 0.82145
#
# Static dielectric constant tensor:
#      x y z
#    x 2.078560 0.024160 0.018580 
#    y 0.024160 2.135670 -0.076330 
#    z 0.018580 -0.076330 2.119860 
# 
# From -- ./inp_files/389571.got.cif
#   From: 2010.05.17/outbox.cif.g08.bks.cpg/sg2_195_cif.got.tgz:389571.got - 2010.06.03 11:33:40.
