data_PCOD9018521
_publ_section_title
;
Structure prediction by ZEFSAII (Michael W. Deem and Ramdas Pophale) SiO2 
 PCOD9018521
Probable space group: P -1
;
_chemical_formula_sum "Si O2"
_cell_formula_units_Z 14
_cell_length_a 12.349376
_cell_length_b 10.461666
_cell_length_c 6.550853
_cell_angle_alpha 129.032707
_cell_angle_beta 74.960060
_cell_angle_gamma 106.488197
_cell_volume 626.673526
_symmetry_space_group_name_H-M "P -1"
_symmetry_group_IT_number 2
_symmetry_cell_setting 'triclinic'
loop_
_space_group_symop_operation_xyz
x,y,z
-x,-y,-z
loop_
_atom_site_type_symbol
_atom_site_label
_atom_site_fract_x
_atom_site_fract_y
_atom_site_fract_z
Si Si1 0.142414 0.786646 0.121720
Si Si2 0.919678 0.544521 0.400221
Si Si3 0.669178 0.199924 0.637029
Si Si4 0.500339 0.742791 0.877471
Si Si5 0.071973 0.081218 0.237687
Si Si6 0.695341 0.998356 0.033260
Si Si7 0.657110 0.478138 0.598885
O O1 0.080985 0.603473 0.911607
O O2 0.243496 0.840299 0.957205
O O3 0.209212 0.793187 0.306398
O O4 0.071620 0.935600 0.260251
O O5 0.956411 0.737550 0.509491
O O6 0.787477 0.528933 0.516038
O O7 0.000000 0.500000 0.500000
O O8 0.661557 0.368601 0.688260
O O9 0.660369 0.055154 0.328182
O O10 0.573319 0.186624 0.842214
O O11 0.586240 0.628760 0.818134
O O12 0.417737 0.632713 0.648871
O O13 0.586744 0.889844 0.874865
O O14 0.202281 0.107259 0.121791
O O15 0.000000 0.000000 0.000000
#
# Coordination Sequence:
#
# PCOD9018521 Si02
#       7
#     2   2   2   2   2   2   2
#     4  10  23  42  64  97 130 165 218 265 315 387
#     4  12  20  43  77  87 125 179 210 267 331 376
#     4  12  22  40  61  95 135 166 216 260 327 385
#     4  11  23  40  65  94 131 175 214 265 318 386
#     4  10  21  43  71  92 125 170 220 268 323 378
#     4  10  22  40  63  90 133 170 209 269 317 378
#     4  11  23  42  63  95 133 165 220 270 318 380
#
# _framework density 22.340181999999999
#
# number of rings (size 3 to 8) (size 9 to 14) (size 15 to 20)
#    0.857    0.286    5.714    0.857    0.000    3.429 
#    2.571    1.429    0.000    0.000    0.000    0.000 
#    0.000    0.000    0.000    0.000    0.000    0.000 
#
# Total GULP energy -78146.381042 kJ/mol
# GULP energy per Si atom -5581.884360 kJ/mol
# Density = 2.228933 g / cm^3
# Si number density = 22.340182 Si / 1000 Ang^3
#
#
#
# Elastic Constant Matrix: (Units=GPa)
#
#
# Indices 1 2 3 4 5 6 
#
# 1 146.0794 52.5671 33.3783 4.6891 3.3083 -17.4004
# 2 52.5671 137.0025 35.7248 22.2442 7.0603 -24.3812
# 3 33.3783 35.7248 64.7577 14.8098 -13.1850 -6.0124
# 4 4.6891 22.2442 14.8098 37.9520 -5.5822 -2.7212
# 5 3.3083 7.0603 -13.1850 -5.5822 40.0023 -4.0110
# 6 -17.4004 -24.3812 -6.0124 -2.7212 -4.0110 54.7831
#
#
#
# Elastic Compliance Matrix: (Units=1/GPa)
#
#
# Indices 1 2 3 4 5 6 
#
# 1 0.008653 -0.002345 -0.003658 0.001657 -0.001146 0.001302
# 2 -0.002345 0.010745 -0.004042 -0.004704 -0.003379 0.003112
# 3 -0.003658 -0.004042 0.022176 -0.004722 0.007646 -0.000202
# 4 0.001657 -0.004704 -0.004722 0.031234 0.003467 -0.000280
# 5 -0.001146 -0.003379 0.007646 0.003467 0.028819 0.001254
# 6 0.001302 0.003112 -0.000202 -0.000280 0.001254 0.020108
#
#
# Mechanical properties :
#
#
# Convention : Reuss Voigt Hill
#
# Bulk Modulus (GPa) = 46.54718 65.68668 56.11693
# Shear Modulus (GPa) = 33.56023 41.62543 37.59283
#
# Velocity S-wave (km/s) = 3.88007 4.32123 4.10658
# Velocity P-wave (km/s) = 6.39954 7.37320 6.90356
#
# Compressibility (1/GPa) = 0.02148358
#
# Stress axis : x y z
#
# Youngs Moduli (GPa) = 115.56733 93.06956 45.09471
#
# Poissons Ratio (x) = 0.21821 0.16496
# Poissons Ratio (y) = 0.27096 0.18228
# Poissons Ratio (z) = 0.42275 0.37620
#
# Static dielectric constant tensor:
#      x y z
#    x 1.856010 0.009330 -0.038470 
#    y 0.009330 1.863280 0.010310 
#    z -0.038470 0.010310 1.796590 
# 
# From -- ./inp_files/72310.got.cif
#   From: 2010.05.17/outbox.cif.g08.bks.cpg/sg2_37_cif.got.tgz:72310.got - 2010.06.03 11:33:40.
