data_PCOD9018070
_publ_section_title
;
Structure prediction by ZEFSAII (Michael W. Deem and Ramdas Pophale) SiO2 
 PCOD9018070
Probable space group: P -1
;
_chemical_formula_sum "Si O2"
_cell_formula_units_Z 13
_cell_length_a 11.653864
_cell_length_b 5.167742
_cell_length_c 9.868040
_cell_angle_alpha 58.795882
_cell_angle_beta 100.956276
_cell_angle_gamma 79.375322
_cell_volume 469.890246
_symmetry_space_group_name_H-M "P -1"
_symmetry_group_IT_number 2
_symmetry_cell_setting 'triclinic'
loop_
_space_group_symop_operation_xyz
x,y,z
-x,-y,-z
loop_
_atom_site_type_symbol
_atom_site_label
_atom_site_fract_x
_atom_site_fract_y
_atom_site_fract_z
Si Si1 0.000000 0.500000 0.500000
Si Si2 0.396027 0.820877 0.624598
Si Si3 0.211103 0.582157 0.540643
Si Si4 0.200329 0.449201 0.054647
Si Si5 0.021468 0.237440 0.268405
Si Si6 0.337075 0.490929 0.312632
Si Si7 0.526262 0.836092 0.906427
O O1 0.155042 0.303909 0.616983
O O2 0.026033 0.429721 0.352926
O O3 0.289318 0.665634 0.652719
O O4 0.521607 0.545682 0.676882
O O5 0.434051 0.982858 0.720614
O O6 0.351413 0.110911 0.428954
O O7 0.281385 0.608716 0.413032
O O8 0.069017 0.852580 0.419048
O O9 0.117043 0.286875 0.165912
O O10 0.246053 0.646029 0.127097
O O11 0.332354 0.221860 0.088870
O O12 0.111040 0.643714 0.864708
O O13 0.500000 0.500000 0.000000
O O14 0.500000 0.000000 0.000000
#
# Coordination Sequence:
#
# PCOD9018070 Si02
#       7
#     1   2   2   2   2   2   2
#     4  12  26  44  64 102 144 186 250 302 364 454
#     4  10  23  42  73  99 146 189 242 310 380 446
#     4  12  23  42  71 103 141 192 249 303 380 447
#     4  10  23  49  69 107 146 189 257 297 381 449
#     4  11  25  46  71  99 144 199 240 312 368 451
#     4  10  21  43  68 105 134 184 247 310 366 457
#     4  11  28  50  75 115 153 199 248 319 389 453
#
# _framework density 27.666036999999999
#
# number of rings (size 3 to 8) (size 9 to 14) (size 15 to 20)
#    0.000    1.231    3.077    0.923    4.308    4.308 
#    2.769    0.000    0.000    0.000    0.000    0.000 
#    0.000    0.000    0.000    0.000    0.000    0.000 
#
# Total GULP energy -72662.145910 kJ/mol
# GULP energy per Si atom -5589.395839 kJ/mol
# Density = 2.760307 g / cm^3
# Si number density = 27.666037 Si / 1000 Ang^3
#
#
#
# Elastic Constant Matrix: (Units=GPa)
#
#
# Indices 1 2 3 4 5 6 
#
# 1 227.4437 56.9926 87.0204 28.7288 23.1984 -0.6525
# 2 56.9926 119.8388 57.1774 45.0403 4.6267 -4.2268
# 3 87.0204 57.1774 119.7312 20.6790 15.4069 -12.6666
# 4 28.7288 45.0403 20.6790 49.5276 -6.6934 -5.6120
# 5 23.1984 4.6267 15.4069 -6.6934 68.4748 9.2350
# 6 -0.6525 -4.2268 -12.6666 -5.6120 9.2350 44.3694
#
#
#
# Elastic Compliance Matrix: (Units=1/GPa)
#
#
# Indices 1 2 3 4 5 6 
#
# 1 0.006440 -0.000325 -0.004130 -0.002013 -0.001279 -0.001104
# 2 -0.000325 0.015405 -0.005100 -0.011948 -0.000770 -0.001344
# 3 -0.004130 -0.005100 0.014238 0.001296 -0.001883 0.004074
# 4 -0.002013 -0.011948 0.001296 0.032510 0.004042 0.002473
# 5 -0.001279 -0.000770 -0.001883 0.004042 0.016384 -0.003528
# 6 -0.001104 -0.001344 0.004074 0.002473 -0.003528 0.024604
#
#
# Mechanical properties :
#
#
# Convention : Reuss Voigt Hill
#
# Bulk Modulus (GPa) = 58.91412 96.59940 77.75676
# Shear Modulus (GPa) = 37.21669 50.19591 43.70630
#
# Velocity S-wave (km/s) = 3.67169 4.26414 3.97896
# Velocity P-wave (km/s) = 6.27025 7.69649 7.01969
#
# Compressibility (1/GPa) = 0.01697386
#
# Stress axis : x y z
#
# Youngs Moduli (GPa) = 155.28657 64.91251 70.23234
#
# Poissons Ratio (x) = 0.02111 0.29003
# Poissons Ratio (y) = 0.05049 0.35819
# Poissons Ratio (z) = 0.64127 0.33106
#
# Static dielectric constant tensor:
#      x y z
#    x 2.371810 0.168450 0.046770 
#    y 0.168450 2.427560 -0.059320 
#    z 0.046770 -0.059320 2.210610 
# 
# From -- ./inp_files/229023.got.cif
#   From: 2010.05.17/outbox.cif.g08.bks.cpg/sg2_115_cif.got.tgz:229023.got - 2010.06.03 11:33:40.
