data_PCOD9018963
_publ_section_title
;
Structure prediction by ZEFSAII (Michael W. Deem and Ramdas Pophale) SiO2 
 PCOD9018963
Probable space group: P -1
;
_chemical_formula_sum "Si O2"
_cell_formula_units_Z 10
_cell_length_a 4.841806
_cell_length_b 6.463956
_cell_length_c 14.100778
_cell_angle_alpha 73.921965
_cell_angle_beta 125.168462
_cell_angle_gamma 98.263008
_cell_volume 346.577358
_symmetry_space_group_name_H-M "P -1"
_symmetry_group_IT_number 2
_symmetry_cell_setting 'triclinic'
loop_
_space_group_symop_operation_xyz
x,y,z
-x,-y,-z
loop_
_atom_site_type_symbol
_atom_site_label
_atom_site_fract_x
_atom_site_fract_y
_atom_site_fract_z
Si Si1 0.168023 0.355555 0.453113
Si Si2 0.947470 0.938547 0.364845
Si Si3 0.172808 0.079728 0.203574
Si Si4 0.232764 0.696074 0.053920
Si Si5 0.028064 0.460031 0.798783
O O1 0.500000 0.500000 0.500000
O O2 0.057826 0.278918 0.545789
O O3 0.948685 0.477605 0.315171
O O4 0.185882 0.112126 0.442045
O O5 0.571633 0.046860 0.272287
O O6 0.088447 0.306283 0.212127
O O7 0.063562 0.909888 0.283226
O O8 0.934945 0.106121 0.061497
O O9 0.601300 0.637176 0.095572
O O10 0.215210 0.691510 0.166048
O O11 0.000000 0.500000 0.000000
#
# Coordination Sequence:
#
# PCOD9018963 Si02
#       5
#     2   2   2   2   2
#     4  10  22  40  60  84 118 154 191 236 282 335
#     4  10  22  38  60  88 114 149 193 233 283 342
#     4  10  18  35  58  85 118 147 187 240 286 336
#     4  10  17  30  54  84 114 145 186 235 283 335
#     4  10  19  31  53  85 113 146 191 230 278 341
#
# _framework density 28.853586
#
# number of rings (size 3 to 8) (size 9 to 14) (size 15 to 20)
#    0.000    2.000    0.000    8.400    0.000    8.800 
#    0.000   16.000    0.000    7.200    0.000    0.000 
#    0.000    0.000    0.000    0.000    0.000    0.000 
#
# Total GULP energy -55960.127157 kJ/mol
# GULP energy per Si atom -5596.012716 kJ/mol
# Density = 2.878791 g / cm^3
# Si number density = 28.853586 Si / 1000 Ang^3
#
#
#
# Elastic Constant Matrix: (Units=GPa)
#
#
# Indices 1 2 3 4 5 6 
#
# 1 210.6321 25.8483 66.0901 2.8205 -15.8300 -2.6446
# 2 25.8483 134.9666 35.3700 -12.9535 -2.0349 45.0517
# 3 66.0901 35.3700 135.2040 -16.1175 -12.1834 -0.7497
# 4 2.8205 -12.9535 -16.1175 54.9172 3.7163 -13.0148
# 5 -15.8300 -2.0349 -12.1834 3.7163 97.3169 -4.0755
# 6 -2.6446 45.0517 -0.7497 -13.0148 -4.0755 58.9045
#
#
#
# Elastic Compliance Matrix: (Units=1/GPa)
#
#
# Indices 1 2 3 4 5 6 
#
# 1 0.005752 -0.000666 -0.002716 -0.001170 0.000648 0.000519
# 2 -0.000666 0.011099 -0.002694 -0.000144 -0.000569 -0.008624
# 3 -0.002716 -0.002694 0.009869 0.003009 0.000739 0.002781
# 4 -0.001170 -0.000144 0.003009 0.020221 -0.000399 0.004536
# 5 0.000648 -0.000569 0.000739 -0.000399 0.010524 0.001114
# 6 0.000519 -0.008624 0.002781 0.004536 0.001114 0.024711
#
#
# Mechanical properties :
#
#
# Convention : Reuss Voigt Hill
#
# Bulk Modulus (GPa) = 68.63973 81.71326 75.17650
# Shear Modulus (GPa) = 50.41096 65.79400 58.10248
#
# Velocity S-wave (km/s) = 4.18440 4.78040 4.49230
# Velocity P-wave (km/s) = 6.86923 7.67144 7.28139
#
# Compressibility (1/GPa) = 0.01456882
#
# Stress axis : x y z
#
# Youngs Moduli (GPa) = 173.84035 90.09587 101.32256
#
# Poissons Ratio (x) = 0.05998 0.27519
# Poissons Ratio (y) = 0.11574 0.27301
# Poissons Ratio (z) = 0.47214 0.24276
#
# Static dielectric constant tensor:
#      x y z
#    x 2.263160 -0.127760 -0.153010 
#    y -0.127760 2.542420 0.151790 
#    z -0.153010 0.151790 2.253880 
# 
# From -- ./inp_files/2463.got.cif
#   From: 2010.05.17/outbox.cif.g08.bks.cpg/sg2_2_cif.got.tgz:2463.got - 2010.06.03 11:33:40.
