data_PCOD9018512
_publ_section_title
;
Structure prediction by ZEFSAII (Michael W. Deem and Ramdas Pophale) SiO2 
 PCOD9018512
Probable space group: P -1
;
_chemical_formula_sum "Si O2"
_cell_formula_units_Z 12
_cell_length_a 12.625502
_cell_length_b 15.903585
_cell_length_c 7.466240
_cell_angle_alpha 121.845803
_cell_angle_beta 132.814633
_cell_angle_gamma 25.140408
_cell_volume 448.357290
_symmetry_space_group_name_H-M "P -1"
_symmetry_group_IT_number 2
_symmetry_cell_setting 'triclinic'
loop_
_space_group_symop_operation_xyz
x,y,z
-x,-y,-z
loop_
_atom_site_type_symbol
_atom_site_label
_atom_site_fract_x
_atom_site_fract_y
_atom_site_fract_z
Si Si1 0.819363 0.137304 0.269546
Si Si2 0.194925 0.290350 0.915075
Si Si3 0.741307 0.417708 0.948321
Si Si4 0.350293 0.970359 0.166553
Si Si5 0.358350 0.927563 0.519017
Si Si6 0.657339 0.530544 0.390420
O O1 0.483214 0.377862 0.190710
O O2 0.784956 0.059932 0.025903
O O3 0.000000 0.000000 0.500000
O O4 0.012233 0.105956 0.358054
O O5 0.357081 0.211493 0.822614
O O6 0.949091 0.355925 0.656673
O O7 0.471456 0.118542 0.178273
O O8 0.000000 0.500000 0.000000
O O9 0.583926 0.405389 0.755328
O O10 0.735454 0.460854 0.194654
O O11 0.084753 0.198678 0.040729
O O12 0.400397 0.961243 0.421900
O O13 0.516679 0.724779 0.455424
#
# Coordination Sequence:
#
# PCOD9018512 Si02
#       6
#     2   2   2   2   2   2
#     4  12  24  45  74 108 144 188 242 298 352 422
#     4  10  25  45  73 109 146 191 240 292 360 426
#     4  11  24  43  74 108 140 189 241 292 359 422
#     4  12  24  46  77 105 146 190 239 298 355 422
#     4  11  21  44  75 107 145 194 239 290 357 424
#     4  10  21  43  71 107 147 185 239 296 350 427
#
# _framework density 26.764368000000001
#
# number of rings (size 3 to 8) (size 9 to 14) (size 15 to 20)
#    0.000    1.000    5.000    2.500    0.000    4.000 
#    0.000    3.333    0.000    0.000    0.000    0.000 
#    0.000    0.000    0.000    0.000    0.000    0.000 
#
# Total GULP energy -67370.494621 kJ/mol
# GULP energy per Si atom -5614.207885 kJ/mol
# Density = 2.670345 g / cm^3
# Si number density = 26.764368 Si / 1000 Ang^3
#
#
#
# Elastic Constant Matrix: (Units=GPa)
#
#
# Indices 1 2 3 4 5 6 
#
# 1 77.8047 15.7905 24.0564 -0.6490 -3.2392 -20.6992
# 2 15.7905 138.2434 25.6196 -19.7202 10.5152 -0.9662
# 3 24.0564 25.6196 164.5181 4.5364 3.5837 -4.5828
# 4 -0.6490 -19.7202 4.5364 49.6520 6.0234 -0.0589
# 5 -3.2392 10.5152 3.5837 6.0234 52.6068 -5.2618
# 6 -20.6992 -0.9662 -4.5828 -0.0589 -5.2618 47.1591
#
#
#
# Elastic Compliance Matrix: (Units=1/GPa)
#
#
# Indices 1 2 3 4 5 6 
#
# 1 0.015691 -0.001636 -0.001880 -0.000528 0.002173 0.006913
# 2 -0.001636 0.008311 -0.001133 0.003648 -0.002192 -0.000898
# 3 -0.001880 -0.001133 0.006557 -0.001045 -0.000240 -0.000239
# 4 -0.000528 0.003648 -0.001045 0.022075 -0.003278 -0.000597
# 5 0.002173 -0.002192 -0.000240 -0.003278 0.020287 0.003145
# 6 0.006913 -0.000898 -0.000239 -0.000597 0.003145 0.024548
#
#
# Mechanical properties :
#
#
# Convention : Reuss Voigt Hill
#
# Bulk Modulus (GPa) = 47.03315 56.83323 51.93319
# Shear Modulus (GPa) = 43.91592 50.89023 47.40308
#
# Velocity S-wave (km/s) = 4.05512 4.36525 4.21304
# Velocity P-wave (km/s) = 6.28781 6.83286 6.56599
#
# Compressibility (1/GPa) = 0.02126160
#
# Stress axis : x y z
#
# Youngs Moduli (GPa) = 63.73011 120.31768 152.50814
#
# Poissons Ratio (x) = 0.19687 0.28669
# Poissons Ratio (y) = 0.10428 0.17277
# Poissons Ratio (z) = 0.11980 0.13630
#
# Static dielectric constant tensor:
#      x y z
#    x 2.065800 0.014190 -0.010850 
#    y 0.014190 2.103840 -0.007330 
#    z -0.010850 -0.007330 2.055510 
# 
# From -- ./inp_files/318118.got.cif
#   From: 2010.05.17/outbox.cif.g08.bks.cpg/sg2_160_cif.got.tgz:318118.got - 2010.06.03 11:33:40.
