data_PCOD9018039
_publ_section_title
;
Structure prediction by ZEFSAII (Michael W. Deem and Ramdas Pophale) SiO2 
 PCOD9018039
Probable space group: P -1
;
_chemical_formula_sum "Si O2"
_cell_formula_units_Z 16
_cell_length_a 8.832159
_cell_length_b 11.998975
_cell_length_c 11.423904
_cell_angle_alpha 53.997909
_cell_angle_beta 104.435517
_cell_angle_gamma 67.906923
_cell_volume 706.598917
_symmetry_space_group_name_H-M "P -1"
_symmetry_group_IT_number 2
_symmetry_cell_setting 'triclinic'
loop_
_space_group_symop_operation_xyz
x,y,z
-x,-y,-z
loop_
_atom_site_type_symbol
_atom_site_label
_atom_site_fract_x
_atom_site_fract_y
_atom_site_fract_z
Si Si1 0.374688 0.449820 0.062955
Si Si2 0.256209 0.497125 0.483873
Si Si3 0.500920 0.082705 0.787997
Si Si4 0.818942 0.913355 0.145084
Si Si5 0.481334 0.561663 0.655071
Si Si6 0.008931 0.232096 0.307730
Si Si7 0.980740 0.067690 0.620908
Si Si8 0.631068 0.862958 0.714503
O O1 0.367348 0.508350 0.160477
O O2 0.435853 0.254862 0.205155
O O3 0.500000 0.500000 0.000000
O O4 0.191868 0.553857 0.866022
O O5 0.314895 0.303260 0.610310
O O6 0.363635 0.493336 0.626277
O O7 0.382006 0.477755 0.406658
O O8 0.014968 0.690392 0.309563
O O9 0.382530 0.025981 0.861681
O O10 0.586102 0.980837 0.744810
O O11 0.706275 0.016568 0.938086
O O12 0.918735 0.973146 0.207326
O O13 0.272965 0.774690 0.514708
O O14 0.144507 0.239794 0.236179
O O15 0.058566 0.147982 0.500491
O O16 0.960972 0.112772 0.311423
O O17 0.500000 0.000000 0.500000
#
# Coordination Sequence:
#
# PCOD9018039 Si02
#       8
#     2   2   2   2   2   2   2   2
#     4  12  26  43  71 105 137 181 230 289 343 417
#     4  10  22  43  67  94 134 179 227 286 345 404
#     4  11  24  43  67  96 137 179 234 281 352 405
#     4  10  24  41  66 100 134 180 231 284 344 420
#     4  10  22  42  65  98 131 175 228 283 341 415
#     4  11  24  41  71 101 139 180 235 281 350 414
#     4  10  21  43  68 100 138 184 229 282 354 410
#     4  12  27  47  70 100 143 182 228 290 350 410
#
# _framework density 22.643681000000001
#
# number of rings (size 3 to 8) (size 9 to 14) (size 15 to 20)
#    0.000    1.250    1.250    3.750    7.000    1.000 
#    4.500    2.500    0.000    0.000    0.000    0.000 
#    0.000    0.000    0.000    0.000    0.000    0.000 
#
# Total GULP energy -89080.104961 kJ/mol
# GULP energy per Si atom -5567.506560 kJ/mol
# Density = 2.259214 g / cm^3
# Si number density = 22.643681 Si / 1000 Ang^3
#
#
#
# Elastic Constant Matrix: (Units=GPa)
#
#
# Indices 1 2 3 4 5 6 
#
# 1 -151.2680 48.1492 -25.7605 -43.7231 -58.8832 44.9588
# 2 48.1492 77.0124 41.4246 26.5845 -5.2382 -9.6574
# 3 -25.7605 41.4246 64.0042 0.4451 -17.9534 13.6950
# 4 -43.7231 26.5845 0.4451 29.0605 -12.0171 6.0715
# 5 -58.8832 -5.2382 -17.9534 -12.0171 12.6388 5.2621
# 6 44.9588 -9.6574 13.6950 6.0715 5.2621 12.9623
#
#
#
# Elastic Compliance Matrix: (Units=1/GPa)
#
#
# Indices 1 2 3 4 5 6 
#
# 1 0.001692 0.004111 -0.005254 -0.005203 -0.005992 0.007614
# 2 0.004111 0.016607 -0.006432 -0.004762 0.011312 0.002547
# 3 -0.005254 -0.006432 0.018185 -0.002017 -0.001462 -0.004244
# 4 -0.005203 -0.004762 -0.002017 0.027459 -0.005464 0.005986
# 5 -0.005992 0.011312 -0.001462 -0.005464 0.041817 0.016340
# 6 0.007614 0.002547 -0.004244 0.005986 0.016340 0.047682
#
#
# Mechanical properties :
#
#
# Convention : Reuss Voigt Hill
#
# Bulk Modulus (GPa) = 46.87233 13.04168 29.95700
# Shear Modulus (GPa) = 28.45713 5.99470 17.22591
#
# Velocity S-wave (km/s) = 3.54889 1.62885 2.76114
# Velocity P-wave (km/s) = 6.12681 3.05116 4.83980
#
# Compressibility (1/GPa) = 0.02133455
#
# Stress axis : x y z
#
# Youngs Moduli (GPa) = 590.92575 60.21569 54.99145
#
# Poissons Ratio (x) = -0.24757 0.28891
# Poissons Ratio (y) = -2.42951 0.35372
# Poissons Ratio (z) = 3.10459 0.38732
#
# Static dielectric constant tensor:
#      x y z
#    x 1.797930 0.016420 -0.020170 
#    y 0.016420 1.842190 0.018190 
#    z -0.020170 0.018190 1.876310 
# 
# From -- ./inp_files/389468.got.cif
#   From: 2010.05.17/outbox.cif.g08.bks.cpg/sg2_195_cif.got.tgz:389468.got - 2010.06.03 11:33:40.
