data_PCOD9018891
_publ_section_title
;
Structure prediction by ZEFSAII (Michael W. Deem and Ramdas Pophale) SiO2 
 PCOD9018891
Probable space group: P -1
;
_chemical_formula_sum "Si O2"
_cell_formula_units_Z 14
_cell_length_a 11.282805
_cell_length_b 14.911228
_cell_length_c 4.895551
_cell_angle_alpha 49.957384
_cell_angle_beta 115.004136
_cell_angle_gamma 123.763461
_cell_volume 521.443320
_symmetry_space_group_name_H-M "P -1"
_symmetry_group_IT_number 2
_symmetry_cell_setting 'triclinic'
loop_
_space_group_symop_operation_xyz
x,y,z
-x,-y,-z
loop_
_atom_site_type_symbol
_atom_site_label
_atom_site_fract_x
_atom_site_fract_y
_atom_site_fract_z
Si Si1 0.246598 0.703837 0.576302
Si Si2 0.237463 0.047372 0.502532
Si Si3 0.635029 0.002600 0.791322
Si Si4 0.746372 0.631427 0.391682
Si Si5 0.952514 0.880081 0.408159
Si Si6 0.120382 0.547257 0.264654
Si Si7 0.465030 0.593041 0.985040
O O1 0.271101 0.849464 0.335541
O O2 0.119546 0.615632 0.418262
O O3 0.233187 0.660734 0.964130
O O4 0.382521 0.678631 0.647299
O O5 0.290684 0.060886 0.218467
O O6 0.105757 0.904100 0.638909
O O7 0.150789 0.115103 0.454710
O O8 0.370394 0.062002 0.795999
O O9 0.500000 0.000000 0.500000
O O10 0.871011 0.746337 0.440098
O O11 0.821206 0.562969 0.404839
O O12 0.626472 0.677619 0.076701
O O13 0.646194 0.511707 0.715167
O O14 0.000000 0.000000 0.000000
O O15 0.000000 0.500000 0.000000
O O16 0.500000 0.500000 0.000000
#
# Coordination Sequence:
#
# PCOD9018891 Si02
#       7
#     2   2   2   2   2   2   2
#     4  11  25  43  69  99 137 181 231 284 350 423
#     4  11  26  49  69 106 141 187 252 291 369 433
#     4  12  27  47  72 104 146 194 239 302 364 436
#     4  10  24  41  70 102 138 185 235 298 358 426
#     4  11  25  47  75 105 144 192 243 308 368 430
#     4  11  24  44  66 102 136 181 223 283 358 424
#     4  10  21  44  66 101 139 180 241 291 355 425
#
# _framework density 26.848555000000001
#
# number of rings (size 3 to 8) (size 9 to 14) (size 15 to 20)
#    0.000    1.143    2.857    1.714    6.000    3.429 
#    0.000    0.000    0.000    0.000    0.000    0.000 
#    0.000    0.000    0.000    0.000    0.000    0.000 
#
# Total GULP energy -78164.457911 kJ/mol
# GULP energy per Si atom -5583.175565 kJ/mol
# Density = 2.678745 g / cm^3
# Si number density = 26.848555 Si / 1000 Ang^3
#
#
#
# Elastic Constant Matrix: (Units=GPa)
#
#
# Indices 1 2 3 4 5 6 
#
# 1 87.3429 24.3868 26.9299 5.7290 -7.6024 -17.0942
# 2 24.3868 175.4307 31.9454 18.4040 -0.1107 -20.1141
# 3 26.9299 31.9454 99.7380 30.4376 2.6924 -3.1476
# 4 5.7290 18.4040 30.4376 44.4594 -1.8540 7.5084
# 5 -7.6024 -0.1107 2.6924 -1.8540 42.5648 18.5945
# 6 -17.0942 -20.1141 -3.1476 7.5084 18.5945 50.1298
#
#
#
# Elastic Compliance Matrix: (Units=1/GPa)
#
#
# Indices 1 2 3 4 5 6 
#
# 1 0.013515 -0.000890 -0.003401 0.000396 0.001081 0.003577
# 2 -0.000890 0.006648 -0.000941 -0.002620 -0.001640 0.003306
# 3 -0.003401 -0.000941 0.014214 -0.009309 -0.002675 0.001742
# 4 0.000396 -0.002620 -0.009309 0.031541 0.005664 -0.008326
# 5 0.001081 -0.001640 -0.002675 0.005664 0.029439 -0.012226
# 6 0.003577 0.003306 0.001742 -0.008326 -0.012226 0.028386
#
#
# Mechanical properties :
#
#
# Convention : Reuss Voigt Hill
#
# Bulk Modulus (GPa) = 41.81914 58.78174 50.30044
# Shear Modulus (GPa) = 35.16713 46.04743 40.60728
#
# Velocity S-wave (km/s) = 3.62309 4.14585 3.89325
# Velocity P-wave (km/s) = 5.75431 6.69767 6.24383
#
# Compressibility (1/GPa) = 0.02391250
#
# Stress axis : x y z
#
# Youngs Moduli (GPa) = 73.99429 150.41764 70.35255
#
# Poissons Ratio (x) = 0.13388 0.23928
# Poissons Ratio (y) = 0.06586 0.06619
# Poissons Ratio (z) = 0.25167 0.14153
#
# Static dielectric constant tensor:
#      x y z
#    x 1.779600 0.342250 -0.032130 
#    y 0.342250 2.036980 0.033610 
#    z -0.032130 0.033610 2.238970 
# 
# From -- ./inp_files/75585.got.cif
#   From: 2010.05.17/outbox.cif.g08.bks.cpg/sg2_38_cif.got.tgz:75585.got - 2010.06.03 11:33:40.
