data_PCOD9018874
_publ_section_title
;
Structure prediction by ZEFSAII (Michael W. Deem and Ramdas Pophale) SiO2 
 PCOD9018874
Probable space group: P -1
;
_chemical_formula_sum "Si O2"
_cell_formula_units_Z 16
_cell_length_a 7.878041
_cell_length_b 18.872251
_cell_length_c 5.487243
_cell_angle_alpha 85.823320
_cell_angle_beta 121.517361
_cell_angle_gamma 85.271336
_cell_volume 686.624515
_symmetry_space_group_name_H-M "P -1"
_symmetry_group_IT_number 2
_symmetry_cell_setting 'triclinic'
loop_
_space_group_symop_operation_xyz
x,y,z
-x,-y,-z
loop_
_atom_site_type_symbol
_atom_site_label
_atom_site_fract_x
_atom_site_fract_y
_atom_site_fract_z
Si Si1 0.210153 0.810670 0.720805
Si Si2 0.034278 0.172747 0.977882
Si Si3 0.793925 0.570049 0.584799
Si Si4 0.697887 0.042925 0.370892
Si Si5 0.131442 0.320718 0.987635
Si Si6 0.480619 0.659558 0.022336
Si Si7 0.747482 0.982902 0.919871
Si Si8 0.178412 0.585783 0.518414
O O1 0.099936 0.837068 0.883257
O O2 0.344582 0.872278 0.736980
O O3 0.324298 0.732119 0.894605
O O4 0.072993 0.809637 0.372728
O O5 0.138199 0.241847 0.118989
O O6 0.181592 0.099864 0.064425
O O7 0.847642 0.609225 0.856264
O O8 0.776261 0.486310 0.587100
O O9 0.984619 0.577342 0.547345
O O10 0.580893 0.615819 0.338505
O O11 0.494699 0.007919 0.247817
O O12 0.800595 0.029509 0.716363
O O13 0.809692 0.006278 0.227511
O O14 0.319952 0.316807 0.952374
O O15 0.907093 0.343209 0.711571
O O16 0.370921 0.602536 0.805445
#
# Coordination Sequence:
#
# PCOD9018874 Si02
#       8
#     2   2   2   2   2   2   2   2
#     4  12  26  43  68  98 139 182 228 288 337 410
#     4  12  26  43  68  97 140 181 227 289 340 404
#     4  10  23  40  69  96 131 183 221 292 345 412
#     4  10  22  43  67  98 133 176 228 280 341 406
#     4  11  24  41  65  97 134 182 227 286 349 407
#     4  11  24  41  65  98 136 180 231 283 345 414
#     4  10  22  43  67  97 135 176 225 284 338 407
#     4  10  21  44  65  97 136 169 234 284 348 415
#
# _framework density 23.302403000000002
#
# number of rings (size 3 to 8) (size 9 to 14) (size 15 to 20)
#    0.000    1.250    1.250    3.750    3.500    4.500 
#    6.750    0.000    0.000    0.000    0.000    0.000 
#    0.000    0.000    0.000    0.000    0.000    0.000 
#
# Total GULP energy -89306.262020 kJ/mol
# GULP energy per Si atom -5581.641376 kJ/mol
# Density = 2.324937 g / cm^3
# Si number density = 23.302403 Si / 1000 Ang^3
#
#
#
# Elastic Constant Matrix: (Units=GPa)
#
#
# Indices 1 2 3 4 5 6 
#
# 1 64.9521 -7.1627 22.6254 -11.5603 -18.4914 -3.7658
# 2 -7.1627 193.7490 43.4679 19.6496 16.0280 -39.2531
# 3 22.6254 43.4679 126.1208 15.2328 8.0398 -25.6962
# 4 -11.5603 19.6496 15.2328 46.3965 12.1415 -8.7404
# 5 -18.4914 16.0280 8.0398 12.1415 41.6529 -0.7572
# 6 -3.7658 -39.2531 -25.6962 -8.7404 -0.7572 50.5050
#
#
#
# Elastic Compliance Matrix: (Units=1/GPa)
#
#
# Indices 1 2 3 4 5 6 
#
# 1 0.020374 0.000830 -0.004879 0.004218 0.008448 0.000539
# 2 0.000830 0.006589 -0.001328 -0.000924 -0.001562 0.004324
# 3 -0.004879 -0.001328 0.010465 -0.002706 -0.002824 0.003418
# 4 0.004218 -0.000924 -0.002706 0.025590 -0.004662 0.002578
# 5 0.008448 -0.001562 -0.002824 -0.004662 0.030220 -0.002375
# 6 0.000539 0.004324 0.003418 0.002578 -0.002375 0.025350
#
#
# Mechanical properties :
#
#
# Convention : Reuss Voigt Hill
#
# Bulk Modulus (GPa) = 37.48835 55.85369 46.67102
# Shear Modulus (GPa) = 36.17068 49.43697 42.80383
#
# Velocity S-wave (km/s) = 3.94411 4.61101 4.29054
# Velocity P-wave (km/s) = 6.07157 7.23669 6.67959
#
# Compressibility (1/GPa) = 0.02667495
#
# Stress axis : x y z
#
# Youngs Moduli (GPa) = 49.08200 151.77031 95.55527
#
# Poissons Ratio (x) = -0.12604 0.46625
# Poissons Ratio (y) = -0.04076 0.12686
# Poissons Ratio (z) = 0.23949 0.20150
#
# Static dielectric constant tensor:
#      x y z
#    x 1.879140 0.007700 -0.031430 
#    y 0.007700 1.841150 0.001340 
#    z -0.031430 0.001340 1.926690 
# 
# From -- ./inp_files/44395.got.cif
#   From: 2010.05.17/outbox.cif.g08.bks.cpg/sg2_23_cif.got.tgz:44395.got - 2010.06.03 11:33:40.
