data_PCOD9018615
_publ_section_title
;
Structure prediction by ZEFSAII (Michael W. Deem and Ramdas Pophale) SiO2 
 PCOD9018615
Probable space group: P -1
;
_chemical_formula_sum "Si O2"
_cell_formula_units_Z 12
_cell_length_a 20.141320
_cell_length_b 17.653569
_cell_length_c 7.020618
_cell_angle_alpha 144.733796
_cell_angle_beta 136.967550
_cell_angle_gamma 19.465165
_cell_volume 470.399577
_symmetry_space_group_name_H-M "P -1"
_symmetry_group_IT_number 2
_symmetry_cell_setting 'triclinic'
loop_
_space_group_symop_operation_xyz
x,y,z
-x,-y,-z
loop_
_atom_site_type_symbol
_atom_site_label
_atom_site_fract_x
_atom_site_fract_y
_atom_site_fract_z
Si Si1 0.388312 0.523855 0.937065
Si Si2 0.901898 0.712797 0.960632
Si Si3 0.301557 0.917483 0.049221
Si Si4 0.926271 0.193203 0.893697
Si Si5 0.268070 0.326779 0.703298
Si Si6 0.392247 0.988973 0.711737
O O1 0.500409 0.396146 0.117268
O O2 0.445219 0.318287 0.535361
O O3 0.500000 0.500000 0.000000
O O4 0.157977 0.783424 0.051987
O O5 0.861411 0.618443 0.588532
O O6 0.132647 0.487135 0.944120
O O7 0.331845 0.019384 0.433082
O O8 0.804957 0.809294 0.161121
O O9 0.237502 0.022988 0.916647
O O10 0.119395 0.056209 0.054509
O O11 0.762548 0.491385 0.074885
O O12 0.000000 0.000000 0.500000
O O13 0.500000 0.000000 0.500000
O O14 0.500000 0.000000 0.000000
#
# Coordination Sequence:
#
# PCOD9018615 Si02
#       6
#     2   2   2   2   2   2
#     4  10  24  45  67 108 151 181 252 307 354 453
#     4  10  21  43  72  99 143 188 237 303 375 424
#     4   9  24  45  70 104 147 182 250 306 352 447
#     4  11  24  45  74 103 147 200 243 294 377 440
#     4  10  22  42  69 108 141 182 250 303 350 448
#     4  10  23  45  71 105 145 192 242 304 377 430
#
# _framework density 25.510227
#
# number of rings (size 3 to 8) (size 9 to 14) (size 15 to 20)
#    1.000    1.000    0.000    2.000    7.000    1.333 
#    6.000    8.333    0.000    0.000    0.000    0.000 
#    0.000    0.000    0.000    0.000    0.000    0.000 
#
# Total GULP energy -66967.135259 kJ/mol
# GULP energy per Si atom -5580.594605 kJ/mol
# Density = 2.545216 g / cm^3
# Si number density = 25.510227 Si / 1000 Ang^3
#
#
#
# Elastic Constant Matrix: (Units=GPa)
#
#
# Indices 1 2 3 4 5 6 
#
# 1 155.4365 56.9733 35.4260 2.4775 6.1817 -63.5612
# 2 56.9733 120.5095 32.7240 0.9311 2.6765 -24.5245
# 3 35.4260 32.7240 110.4409 -4.7421 11.7880 -23.6685
# 4 2.4775 0.9311 -4.7421 32.2475 -13.8139 5.6682
# 5 6.1817 2.6765 11.7880 -13.8139 43.5956 8.2201
# 6 -63.5612 -24.5245 -23.6685 5.6682 8.2201 60.5266
#
#
#
# Elastic Compliance Matrix: (Units=1/GPa)
#
#
# Indices 1 2 3 4 5 6 
#
# 1 0.014238 -0.003493 0.000151 -0.006527 -0.006766 0.015125
# 2 -0.003493 0.010446 -0.002092 -0.000096 0.000447 -0.000306
# 3 0.000151 -0.002092 0.010899 -0.000733 -0.003858 0.004166
# 4 -0.006527 -0.000096 -0.000733 0.040833 0.016568 -0.013254
# 5 -0.006766 0.000447 -0.003858 0.016568 0.032887 -0.014450
# 6 0.015125 -0.000306 0.004166 -0.013254 -0.014450 0.037114
#
#
# Mechanical properties :
#
#
# Convention : Reuss Voigt Hill
#
# Bulk Modulus (GPa) = 40.46136 70.73708 55.59922
# Shear Modulus (GPa) = 30.20704 44.69149 37.44927
#
# Velocity S-wave (km/s) = 3.44483 4.19012 3.83562
# Velocity P-wave (km/s) = 5.63185 7.15532 6.43880
#
# Compressibility (1/GPa) = 0.02471494
#
# Stress axis : x y z
#
# Youngs Moduli (GPa) = 70.23667 95.72690 91.75139
#
# Poissons Ratio (x) = 0.33442 -0.01390
# Poissons Ratio (y) = 0.24537 0.19195
# Poissons Ratio (z) = -0.01064 0.20026
#
# Static dielectric constant tensor:
#      x y z
#    x 2.183060 0.087880 0.013100 
#    y 0.087880 2.140140 0.090200 
#    z 0.013100 0.090200 2.046550 
# 
# From -- ./inp_files/349358.got.cif
#   From: 2010.05.17/outbox.cif.g08.bks.cpg/sg2_175_cif.got.tgz:349358.got - 2010.06.03 11:33:40.
