data_PCOD9018389
_publ_section_title
;
Structure prediction by ZEFSAII (Michael W. Deem and Ramdas Pophale) SiO2 
 PCOD9018389
Probable space group: P -1
;
_chemical_formula_sum "Si O2"
_cell_formula_units_Z 10
_cell_length_a 12.108544
_cell_length_b 10.955684
_cell_length_c 8.192218
_cell_angle_alpha 73.523922
_cell_angle_beta 131.397319
_cell_angle_gamma 140.949456
_cell_volume 448.712406
_symmetry_space_group_name_H-M "P -1"
_symmetry_group_IT_number 2
_symmetry_cell_setting 'triclinic'
loop_
_space_group_symop_operation_xyz
x,y,z
-x,-y,-z
loop_
_atom_site_type_symbol
_atom_site_label
_atom_site_fract_x
_atom_site_fract_y
_atom_site_fract_z
Si Si1 0.982732 0.122603 0.033339
Si Si2 0.233890 0.928872 0.617858
Si Si3 0.743122 0.778372 0.430865
Si Si4 0.524387 0.894190 0.871390
Si Si5 0.752946 0.543834 0.106242
O O1 0.172219 0.248346 0.326764
O O2 0.071017 0.299393 0.936741
O O3 0.697639 0.946640 0.887718
O O4 0.000000 0.000000 0.000000
O O5 0.377769 0.917707 0.668635
O O6 0.344115 0.146688 0.607498
O O7 0.934766 0.719284 0.362682
O O8 0.286025 0.938718 0.855660
O O9 0.514698 0.579053 0.161390
O O10 0.000000 0.000000 0.500000
O O11 0.323497 0.652693 0.844502
#
# Coordination Sequence:
#
# PCOD9018389 Si02
#       5
#     2   2   2   2   2
#     4  12  24  42  66  96 128 167 209 265 313 373
#     4  10  21  43  70  89 129 171 206 262 314 372
#     4  11  22  44  65  93 130 165 211 263 312 375
#     4  10  24  45  64  94 131 165 212 259 312 377
#     4  11  23  41  68  92 128 167 215 253 322 371
#
# _framework density 22.285990000000002
#
# number of rings (size 3 to 8) (size 9 to 14) (size 15 to 20)
#    0.000    1.200    6.000    1.200    0.000    4.000 
#    3.600    9.000    0.000    0.000    0.000    0.000 
#    0.000    0.000    0.000    0.000    0.000    0.000 
#
# Total GULP energy -55800.888911 kJ/mol
# GULP energy per Si atom -5580.088891 kJ/mol
# Density = 2.223527 g / cm^3
# Si number density = 22.285990 Si / 1000 Ang^3
#
#
#
# Elastic Constant Matrix: (Units=GPa)
#
#
# Indices 1 2 3 4 5 6 
#
# 1 117.2674 37.4216 27.6360 0.7582 23.2476 -8.0981
# 2 37.4216 108.5595 23.8708 -5.1951 7.6937 6.2815
# 3 27.6360 23.8708 147.0264 14.9161 -13.3863 -4.9357
# 4 0.7582 -5.1951 14.9161 31.2825 -12.1163 -1.3077
# 5 23.2476 7.6937 -13.3863 -12.1163 32.3412 -5.6395
# 6 -8.0981 6.2815 -4.9357 -1.3077 -5.6395 17.6213
#
#
#
# Elastic Compliance Matrix: (Units=1/GPa)
#
#
# Indices 1 2 3 4 5 6 
#
# 1 0.012274 -0.003391 -0.002194 -0.003459 -0.009721 0.002867
# 2 -0.003391 0.011321 -0.001739 0.002010 -0.001331 -0.006358
# 3 -0.002194 -0.001739 0.008297 -0.002001 0.005282 0.003478
# 4 -0.003459 0.002010 -0.002001 0.040253 0.017244 0.005639
# 5 -0.009721 -0.001331 0.005282 0.017244 0.049414 0.014581
# 6 0.002867 -0.006358 0.003478 0.005639 0.014581 0.066393
#
#
# Mechanical properties :
#
#
# Convention : Reuss Voigt Hill
#
# Bulk Modulus (GPa) = 57.99432 61.19003 59.59218
# Shear Modulus (GPa) = 23.99817 35.17732 29.58775
#
# Velocity S-wave (km/s) = 3.28507 3.97728 3.64763
# Velocity P-wave (km/s) = 6.36146 6.97195 6.67369
#
# Compressibility (1/GPa) = 0.01724307
#
# Stress axis : x y z
#
# Youngs Moduli (GPa) = 81.47143 88.32856 120.52573
#
# Poissons Ratio (x) = 0.29953 0.26448
# Poissons Ratio (y) = 0.27628 0.20963
# Poissons Ratio (z) = 0.17878 0.15363
#
# Static dielectric constant tensor:
#      x y z
#    x 1.915440 -0.016760 -0.003050 
#    y -0.016760 1.790840 0.008440 
#    z -0.003050 0.008440 1.869720 
# 
# From -- ./inp_files/163153.got.cif
#   From: 2010.05.17/outbox.cif.g08.bks.cpg/sg2_82_cif.got.tgz:163153.got - 2010.06.03 11:33:40.
