data_PCOD9018116
_publ_section_title
;
Structure prediction by ZEFSAII (Michael W. Deem and Ramdas Pophale) SiO2 
 PCOD9018116
Probable space group: P -1
;
_chemical_formula_sum "Si O2"
_cell_formula_units_Z 16
_cell_length_a 15.973075
_cell_length_b 9.139884
_cell_length_c 6.792369
_cell_angle_alpha 55.102585
_cell_angle_beta 86.393883
_cell_angle_gamma 56.847603
_cell_volume 634.201068
_symmetry_space_group_name_H-M "P -1"
_symmetry_group_IT_number 2
_symmetry_cell_setting 'triclinic'
loop_
_space_group_symop_operation_xyz
x,y,z
-x,-y,-z
loop_
_atom_site_type_symbol
_atom_site_label
_atom_site_fract_x
_atom_site_fract_y
_atom_site_fract_z
Si Si1 0.399711 0.351857 0.761824
Si Si2 0.919681 0.559133 0.787889
Si Si3 0.443887 0.011775 0.699458
Si Si4 0.198075 0.438343 0.879726
Si Si5 0.142994 0.903136 0.678210
Si Si6 0.933384 0.271735 0.669637
Si Si7 0.784345 0.140830 0.713183
Si Si8 0.237125 0.052898 0.762776
O O1 0.443779 0.195093 0.684127
O O2 0.330324 0.620060 0.517951
O O3 0.315890 0.316426 0.883468
O O4 0.489351 0.231334 0.008502
O O5 0.813794 0.669535 0.850353
O O6 0.876717 0.745428 0.479046
O O7 0.955788 0.341604 0.817473
O O8 0.000000 0.500000 0.000000
O O9 0.500000 0.000000 0.500000
O O10 0.324763 0.082464 0.668589
O O11 0.123655 0.514487 0.639512
O O12 0.158100 0.679030 0.790206
O O13 0.035061 0.059793 0.701195
O O14 0.147441 0.987591 0.395594
O O15 0.246782 0.844525 0.820664
O O16 0.847940 0.223141 0.742039
O O17 0.770817 0.990060 0.973920
#
# Coordination Sequence:
#
# PCOD9018116 Si02
#       8
#     2   2   2   2   2   2   2   2
#     4   9  22  44  70  97 128 173 220 272 339 402
#     4  12  27  42  63  97 139 181 228 279 327 392
#     4  11  24  44  72 100 131 171 220 276 341 409
#     4  10  21  43  68  94 133 177 221 270 332 403
#     4  10  23  41  67 100 132 178 227 272 326 392
#     4  10  22  44  70  93 132 185 225 268 332 395
#     4  10  23  45  70  99 138 176 224 277 329 399
#     4  12  26  41  65  99 134 175 224 279 339 396
#
# _framework density 25.228591999999999
#
# number of rings (size 3 to 8) (size 9 to 14) (size 15 to 20)
#    0.000    1.750    0.000    5.250    0.000   13.500 
#    0.000    6.875    0.000    0.000    0.000    0.000 
#    0.000    0.000    0.000    0.000    0.000    0.000 
#
# Total GULP energy -89379.320191 kJ/mol
# GULP energy per Si atom -5586.207512 kJ/mol
# Density = 2.517117 g / cm^3
# Si number density = 25.228592 Si / 1000 Ang^3
#
#
#
# Elastic Constant Matrix: (Units=GPa)
#
#
# Indices 1 2 3 4 5 6 
#
# 1 69.9271 13.3242 43.6894 6.5567 6.1882 2.0475
# 2 13.3242 96.3166 47.4738 17.8763 6.8973 -4.6817
# 3 43.6894 47.4738 148.4363 3.8536 -6.9215 -3.3043
# 4 6.5567 17.8763 3.8536 58.7751 -0.5054 2.8880
# 5 6.1882 6.8973 -6.9215 -0.5054 52.2371 3.2676
# 6 2.0475 -4.6817 -3.3043 2.8880 3.2676 32.3613
#
#
#
# Elastic Compliance Matrix: (Units=1/GPa)
#
#
# Indices 1 2 3 4 5 6 
#
# 1 0.018199 0.000811 -0.005731 -0.001870 -0.002968 -0.001153
# 2 0.000811 0.013551 -0.004546 -0.004039 -0.002656 0.002074
# 3 -0.005731 -0.004546 0.009970 0.001374 0.002592 0.000339
# 4 -0.001870 -0.004039 0.001374 0.018475 0.001247 -0.002100
# 5 -0.002968 -0.002656 0.002592 0.001247 0.020333 -0.002096
# 6 -0.001153 0.002074 0.000339 -0.002100 -0.002096 0.031708
#
#
# Mechanical properties :
#
#
# Convention : Reuss Voigt Hill
#
# Bulk Modulus (GPa) = 43.88189 58.18388 51.03289
# Shear Modulus (GPa) = 36.03246 42.68754 39.36000
#
# Velocity S-wave (km/s) = 3.78330 4.11789 3.95414
# Velocity P-wave (km/s) = 6.04285 6.76181 6.41241
#
# Compressibility (1/GPa) = 0.02278844
#
# Stress axis : x y z
#
# Youngs Moduli (GPa) = 54.94896 73.79325 100.29718
#
# Poissons Ratio (x) = -0.05984 0.57484
# Poissons Ratio (y) = -0.04456 0.45591
# Poissons Ratio (z) = 0.31493 0.33544
#
# Static dielectric constant tensor:
#      x y z
#    x 2.147440 0.081480 -0.002020 
#    y 0.081480 2.081150 -0.038650 
#    z -0.002020 -0.038650 2.081650 
# 
# From -- ./inp_files/108850.got.cif
#   From: 2010.05.17/outbox.cif.g08.bks.cpg/sg2_55_cif.got.tgz:108850.got - 2010.06.03 11:33:40.
