data_PCOD9018175
_publ_section_title
;
Structure prediction by ZEFSAII (Michael W. Deem and Ramdas Pophale) SiO2 
 PCOD9018175
Probable space group: P -1
;
_chemical_formula_sum "Si O2"
_cell_formula_units_Z 14
_cell_length_a 8.735828
_cell_length_b 12.672213
_cell_length_c 17.868788
_cell_angle_alpha 32.249451
_cell_angle_beta 131.098612
_cell_angle_gamma 145.638363
_cell_volume 590.270361
_symmetry_space_group_name_H-M "P -1"
_symmetry_group_IT_number 2
_symmetry_cell_setting 'triclinic'
loop_
_space_group_symop_operation_xyz
x,y,z
-x,-y,-z
loop_
_atom_site_type_symbol
_atom_site_label
_atom_site_fract_x
_atom_site_fract_y
_atom_site_fract_z
Si Si1 0.738717 0.767699 0.314992
Si Si2 0.254528 0.424186 0.917702
Si Si3 0.684909 0.982717 0.688830
Si Si4 0.993296 0.897276 0.477095
Si Si5 0.381755 0.624474 0.609486
Si Si6 0.871500 0.095695 0.840002
Si Si7 0.220778 0.664217 0.202970
O O1 0.632805 0.492656 0.407398
O O2 0.521794 0.787215 0.204282
O O3 0.049655 0.980880 0.258122
O O4 0.783475 0.811788 0.392964
O O5 0.410433 0.687221 0.759028
O O6 0.998560 0.376572 0.898879
O O7 0.500000 0.500000 0.000000
O O8 0.154083 0.156840 0.008643
O O9 0.723835 0.218765 0.521123
O O10 0.676224 0.022703 0.750273
O O11 0.303614 0.148741 0.399675
O O12 0.000000 0.000000 0.500000
O O13 0.921091 0.623412 0.635835
O O14 0.170907 0.356996 0.749882
O O15 0.766741 0.162281 0.833278
#
# Coordination Sequence:
#
# PCOD9018175 Si02
#       7
#     2   2   2   2   2   2   2
#     4  11  25  41  65 104 139 170 217 277 336 391
#     4  10  23  43  67  95 130 177 228 268 324 401
#     4  10  21  43  68  98 131 173 223 275 323 393
#     4  12  25  38  67 104 140 168 220 277 337 389
#     4  11  22  43  68 100 134 173 221 277 327 390
#     4  10  23  40  67  94 129 173 223 271 327 394
#     4  12  23  41  67  94 135 177 217 275 335 387
#
# _framework density 23.717945
#
# number of rings (size 3 to 8) (size 9 to 14) (size 15 to 20)
#    0.000    1.143    2.857    4.286    4.000    1.143 
#    0.000    7.143    0.000    0.000    0.000    0.000 
#    0.000    0.000    0.000    0.000    0.000    0.000 
#
# Total GULP energy -78083.375552 kJ/mol
# GULP energy per Si atom -5577.383968 kJ/mol
# Density = 2.366396 g / cm^3
# Si number density = 23.717945 Si / 1000 Ang^3
#
#
#
# Elastic Constant Matrix: (Units=GPa)
#
#
# Indices 1 2 3 4 5 6 
#
# 1 98.7937 34.3744 40.8325 0.3502 22.0811 22.2860
# 2 34.3744 143.6032 21.6905 -8.2891 18.6797 16.4196
# 3 40.8325 21.6905 116.8083 -17.8618 18.3762 18.7585
# 4 0.3502 -8.2891 -17.8618 47.7449 9.9982 1.2757
# 5 22.0811 18.6797 18.3762 9.9982 38.1116 2.7949
# 6 22.2860 16.4196 18.7585 1.2757 2.7949 48.5337
#
#
#
# Elastic Compliance Matrix: (Units=1/GPa)
#
#
# Indices 1 2 3 4 5 6 
#
# 1 0.014245 -0.001736 -0.003132 -0.000310 -0.005487 -0.004419
# 2 -0.001736 0.008160 0.000339 0.002370 -0.003636 -0.001948
# 3 -0.003132 0.000339 0.011791 0.005685 -0.005302 -0.003078
# 4 -0.000310 0.002370 0.005685 0.025711 -0.010252 -0.002942
# 5 -0.005487 -0.003636 -0.005302 -0.010252 0.036154 0.003987
# 6 -0.004419 -0.001948 -0.003078 -0.002942 0.003987 0.024330
#
#
# Mechanical properties :
#
#
# Convention : Reuss Voigt Hill
#
# Bulk Modulus (GPa) = 39.78027 61.44445 50.61236
# Shear Modulus (GPa) = 36.27734 44.36523 40.32128
#
# Velocity S-wave (km/s) = 3.91517 4.32966 4.12762
# Velocity P-wave (km/s) = 6.10300 7.13843 6.64093
#
# Compressibility (1/GPa) = 0.02513809
#
# Stress axis : x y z
#
# Youngs Moduli (GPa) = 70.20128 122.54305 84.81237
#
# Poissons Ratio (x) = 0.21269 0.26561
# Poissons Ratio (y) = 0.12184 -0.02871
# Poissons Ratio (z) = 0.21986 -0.04148
#
# Static dielectric constant tensor:
#      x y z
#    x 1.973240 -0.024060 -0.058420 
#    y -0.024060 2.093070 0.073520 
#    z -0.058420 0.073520 1.914620 
# 
# From -- ./inp_files/589393.got.cif
#   From: 2010.05.17/outbox.cif.g08.bks.cpg/sg2_295_cif.got.tgz:589393.got - 2010.06.03 11:33:40.
