data_PCOD9018358
_publ_section_title
;
Structure prediction by ZEFSAII (Michael W. Deem and Ramdas Pophale) SiO2 
 PCOD9018358
Probable space group: P -1
;
_chemical_formula_sum "Si O2"
_cell_formula_units_Z 16
_cell_length_a 9.261034
_cell_length_b 12.367677
_cell_length_c 12.220393
_cell_angle_alpha 124.914267
_cell_angle_beta 49.722242
_cell_angle_gamma 91.272022
_cell_volume 727.836064
_symmetry_space_group_name_H-M "P -1"
_symmetry_group_IT_number 2
_symmetry_cell_setting 'triclinic'
loop_
_space_group_symop_operation_xyz
x,y,z
-x,-y,-z
loop_
_atom_site_type_symbol
_atom_site_label
_atom_site_fract_x
_atom_site_fract_y
_atom_site_fract_z
Si Si1 0.002590 0.140834 0.320924
Si Si2 0.233375 0.941984 0.288007
Si Si3 0.655885 0.266811 0.376006
Si Si4 0.792205 0.664588 0.653617
Si Si5 0.401329 0.636210 0.783262
Si Si6 0.742699 0.769942 0.496648
Si Si7 0.422808 0.662344 0.191313
Si Si8 0.142632 0.555782 0.020962
O O1 0.869165 0.152674 0.283566
O O2 0.803822 0.258822 0.575596
O O3 0.164712 0.203041 0.251939
O O4 0.154853 0.978509 0.220508
O O5 0.398954 0.777228 0.172708
O O6 0.316467 0.057958 0.342388
O O7 0.000000 0.000000 0.500000
O O8 0.560622 0.447857 0.563565
O O9 0.694462 0.265536 0.225666
O O10 0.458719 0.232606 0.464997
O O11 0.560270 0.676276 0.794718
O O12 0.793598 0.671486 0.525648
O O13 0.000000 0.500000 0.500000
O O14 0.214324 0.643728 0.955669
O O15 0.977719 0.680660 0.264583
O O16 0.633729 0.602416 0.133930
O O17 0.500000 0.500000 0.000000
O O18 0.000000 0.500000 0.000000
#
# Coordination Sequence:
#
# PCOD9018358 Si02
#       8
#     2   2   2   2   2   2   2   2
#     4  10  18  34  57  86 116 155 195 238 287 354
#     4   9  20  37  55  84 117 156 192 235 297 359
#     4  10  18  35  55  87 121 154 199 239 283 349
#     4  10  17  30  53  82 115 157 201 236 282 344
#     4  10  20  31  52  86 126 151 198 247 282 332
#     4  10  21  35  57  86 122 155 191 242 297 346
#     4  11  21  37  58  88 121 145 188 250 298 346
#     4  12  21  35  55  90 123 152 191 250 292 337
#
# _framework density 21.982970999999999
#
# number of rings (size 3 to 8) (size 9 to 14) (size 15 to 20)
#    0.000    1.750    3.750    2.250    0.000    0.000 
#    0.000    6.875    0.000    0.000    0.000  166.250 
#    0.000    0.000    0.000    0.000    0.000    0.000 
#
# Total GULP energy -89392.057768 kJ/mol
# GULP energy per Si atom -5587.003611 kJ/mol
# Density = 2.193294 g / cm^3
# Si number density = 21.982971 Si / 1000 Ang^3
#
#
#
# Elastic Constant Matrix: (Units=GPa)
#
#
# Indices 1 2 3 4 5 6 
#
# 1 170.5485 70.1640 27.8713 -1.4047 -22.9400 -2.4826
# 2 70.1640 158.0619 35.8409 2.1875 -12.3899 -7.2512
# 3 27.8713 35.8409 62.2288 -4.4390 -11.0347 2.1961
# 4 -1.4047 2.1875 -4.4390 38.4943 0.7446 -10.5607
# 5 -22.9400 -12.3899 -11.0347 0.7446 15.9804 -13.1824
# 6 -2.4826 -7.2512 2.1961 -10.5607 -13.1824 30.1312
#
#
#
# Elastic Compliance Matrix: (Units=1/GPa)
#
#
# Indices 1 2 3 4 5 6 
#
# 1 0.009753 -0.002373 0.000576 0.003018 0.021041 0.010454
# 2 -0.002373 0.008655 -0.003280 0.000077 0.004400 0.004078
# 3 0.000576 -0.003280 0.021077 0.004320 0.018786 0.007455
# 4 0.003018 0.000077 0.004320 0.032028 0.023633 0.021517
# 5 0.021041 0.004400 0.018786 0.023633 0.181615 0.089163
# 6 0.010454 0.004078 0.007455 0.021517 0.089163 0.081038
#
#
# Mechanical properties :
#
#
# Convention : Reuss Voigt Hill
#
# Bulk Modulus (GPa) = 34.09403 73.17685 53.63544
# Shear Modulus (GPa) = 14.12045 34.05204 24.08624
#
# Velocity S-wave (km/s) = 2.53718 3.94003 3.31369
# Velocity P-wave (km/s) = 4.91183 7.35246 6.25239
#
# Compressibility (1/GPa) = 0.02933065
#
# Stress axis : x y z
#
# Youngs Moduli (GPa) = 102.53641 115.54608 47.44438
#
# Poissons Ratio (x) = 0.27415 -0.02733
# Poissons Ratio (y) = 0.24329 0.15563
# Poissons Ratio (z) = -0.05906 0.37902
#
# Static dielectric constant tensor:
#      x y z
#    x 1.916090 0.000770 0.032800 
#    y 0.000770 1.787830 -0.009740 
#    z 0.032800 -0.009740 1.857400 
# 
# From -- ./inp_files/392781.got.cif
#   From: 2010.05.17/outbox.cif.g08.bks.cpg/sg2_197_cif.got.tgz:392781.got - 2010.06.03 11:33:40.
