data_PCOD9018411
_publ_section_title
;
Structure prediction by ZEFSAII (Michael W. Deem and Ramdas Pophale) SiO2 
 PCOD9018411
Probable space group: P -1
;
_chemical_formula_sum "Si O2"
_cell_formula_units_Z 16
_cell_length_a 7.726131
_cell_length_b 12.724806
_cell_length_c 14.774979
_cell_angle_alpha 34.619951
_cell_angle_beta 54.915862
_cell_angle_gamma 68.256011
_cell_volume 658.680105
_symmetry_space_group_name_H-M "P -1"
_symmetry_group_IT_number 2
_symmetry_cell_setting 'triclinic'
loop_
_space_group_symop_operation_xyz
x,y,z
-x,-y,-z
loop_
_atom_site_type_symbol
_atom_site_label
_atom_site_fract_x
_atom_site_fract_y
_atom_site_fract_z
Si Si1 0.981484 0.413894 0.966504
Si Si2 0.184551 0.318707 0.314890
Si Si3 0.464260 0.923134 0.964630
Si Si4 0.119148 0.567634 0.323386
Si Si5 0.387145 0.534452 0.640221
Si Si6 0.450955 0.868892 0.695471
Si Si7 0.243620 0.922036 0.382861
Si Si8 0.264515 0.248510 0.722131
O O1 0.871635 0.545454 0.841622
O O2 0.226485 0.441555 0.834314
O O3 0.806554 0.212596 0.156580
O O4 0.000000 0.500000 0.000000
O O5 0.140574 0.403863 0.364155
O O6 0.429906 0.300934 0.242729
O O7 0.013829 0.116665 0.497980
O O8 0.682522 0.965085 0.810919
O O9 0.313506 0.043654 0.870264
O O10 0.500000 0.000000 0.000000
O O11 0.353970 0.703999 0.162797
O O12 0.000000 0.500000 0.500000
O O13 0.970701 0.706932 0.230564
O O14 0.277709 0.706369 0.516039
O O15 0.382865 0.371164 0.683909
O O16 0.632948 0.660116 0.469126
O O17 0.500000 0.000000 0.500000
O O18 0.589991 0.976930 0.661334
#
# Coordination Sequence:
#
# PCOD9018411 Si02
#       8
#     2   2   2   2   2   2   2   2
#     4  11  23  44  70  97 136 179 229 275 341 407
#     4  11  24  48  67  97 139 178 228 282 342 405
#     4  11  25  43  65 104 137 175 227 277 339 405
#     4  12  25  43  70 101 136 181 227 278 345 408
#     4   9  20  40  73  93 132 173 223 269 348 385
#     4  12  26  45  68 101 135 180 233 282 339 401
#     4  10  21  43  70  94 137 175 224 286 336 398
#     4  10  21  44  72  94 138 179 221 284 334 403
#
# _framework density 24.291004000000001
#
# number of rings (size 3 to 8) (size 9 to 14) (size 15 to 20)
#    0.000    1.250    2.500    4.125    3.500    3.000 
#    6.750    0.000    0.000    0.000    0.000    0.000 
#    0.000    0.000    0.000    0.000    0.000    0.000 
#
# Total GULP energy -89334.327135 kJ/mol
# GULP energy per Si atom -5583.395446 kJ/mol
# Density = 2.423572 g / cm^3
# Si number density = 24.291004 Si / 1000 Ang^3
#
#
#
# Elastic Constant Matrix: (Units=GPa)
#
#
# Indices 1 2 3 4 5 6 
#
# 1 69.8573 24.0013 23.8018 3.4438 -1.4871 6.2513
# 2 24.0013 107.8492 53.0892 18.0858 -7.6933 17.0020
# 3 23.8018 53.0892 171.7505 8.7048 -9.3079 29.9696
# 4 3.4438 18.0858 8.7048 30.8811 8.8983 3.0726
# 5 -1.4871 -7.6933 -9.3079 8.8983 41.4942 0.0395
# 6 6.2513 17.0020 29.9696 3.0726 0.0395 50.2300
#
#
#
# Elastic Compliance Matrix: (Units=1/GPa)
#
#
# Indices 1 2 3 4 5 6 
#
# 1 0.015751 -0.002943 -0.001276 0.000455 -0.000365 -0.000230
# 2 -0.002943 0.013037 -0.002732 -0.007280 0.003262 -0.001974
# 3 -0.001276 -0.002732 0.007520 -0.000393 0.001222 -0.003380
# 4 0.000455 -0.007280 -0.000393 0.039536 -0.009900 0.000232
# 5 -0.000365 0.003262 0.001222 -0.009900 0.027090 -0.001204
# 6 -0.000230 -0.001974 -0.003380 0.000232 -0.001204 0.022609
#
#
# Mechanical properties :
#
#
# Convention : Reuss Voigt Hill
#
# Bulk Modulus (GPa) = 44.63075 61.24905 52.93990
# Shear Modulus (GPa) = 34.03403 41.09205 37.56304
#
# Velocity S-wave (km/s) = 3.74718 4.11744 3.93667
# Velocity P-wave (km/s) = 6.09386 6.91909 6.51954
#
# Compressibility (1/GPa) = 0.02240607
#
# Stress axis : x y z
#
# Youngs Moduli (GPa) = 63.48702 76.70704 132.98726
#
# Poissons Ratio (x) = 0.22578 0.16965
# Poissons Ratio (y) = 0.18687 0.36327
# Poissons Ratio (z) = 0.08099 0.20953
#
# Static dielectric constant tensor:
#      x y z
#    x 2.048480 -0.031760 -0.055120 
#    y -0.031760 1.921140 -0.019730 
#    z -0.055120 -0.019730 2.004790 
# 
# From -- ./inp_files/499853.got.cif
#   From: 2010.05.17/outbox.cif.g08.bks.cpg/sg2_250_cif.got.tgz:499853.got - 2010.06.03 11:33:40.
