data_PCOD9018049
_publ_section_title
;
Structure prediction by ZEFSAII (Michael W. Deem and Ramdas Pophale) SiO2 
 PCOD9018049
Probable space group: P -1
;
_chemical_formula_sum "Si O2"
_cell_formula_units_Z 14
_cell_length_a 11.678945
_cell_length_b 12.286642
_cell_length_c 9.217719
_cell_angle_alpha 156.156687
_cell_angle_beta 78.055162
_cell_angle_gamma 102.004174
_cell_volume 522.521783
_symmetry_space_group_name_H-M "P -1"
_symmetry_group_IT_number 2
_symmetry_cell_setting 'triclinic'
loop_
_space_group_symop_operation_xyz
x,y,z
-x,-y,-z
loop_
_atom_site_type_symbol
_atom_site_label
_atom_site_fract_x
_atom_site_fract_y
_atom_site_fract_z
Si Si1 0.194896 0.458869 0.509267
Si Si2 0.571442 0.729555 0.672052
Si Si3 0.914246 0.974171 0.194414
Si Si4 0.721587 0.276952 0.459111
Si Si5 0.257964 0.185174 0.714151
Si Si6 0.898624 0.631865 0.279748
Si Si7 0.480376 0.238657 0.590358
O O1 0.297116 0.259558 0.287048
O O2 0.262135 0.687872 0.674702
O O3 0.139594 0.536189 0.771412
O O4 0.105355 0.297838 0.226721
O O5 0.500000 0.500000 0.500000
O O6 0.572370 0.647830 0.405202
O O7 0.500000 0.000000 0.000000
O O8 0.842707 0.184105 0.376715
O O9 0.044450 0.089581 0.328027
O O10 0.845345 0.970582 0.361395
O O11 0.607105 0.127562 0.382111
O O12 0.708521 0.580393 0.892631
O O13 0.200718 0.308841 0.737239
O O14 0.378150 0.055903 0.472981
O O15 0.000000 0.500000 0.000000
O O16 0.500000 0.500000 0.000000
#
# Coordination Sequence:
#
# PCOD9018049 Si02
#       7
#     2   2   2   2   2   2   2
#     4  11  25  44  70 100 142 184 240 294 365 436
#     4  12  25  48  74 111 152 193 243 305 373 453
#     4  11  24  44  67  95 139 186 237 293 356 438
#     4  10  21  43  68 101 135 179 228 286 363 437
#     4  10  22  43  65  99 137 177 234 292 359 422
#     4  12  24  47  69  98 136 185 244 302 360 424
#     4  10  21  43  70 103 143 180 236 294 373 437
#
# _framework density 26.793140999999999
#
# number of rings (size 3 to 8) (size 9 to 14) (size 15 to 20)
#    0.000    1.143    4.286    1.714    0.000    1.143 
#   12.857    0.000    0.000    0.000    0.000    0.000 
#    0.000    0.000    0.000    0.000    0.000    0.000 
#
# Total GULP energy -78310.430662 kJ/mol
# GULP energy per Si atom -5593.602190 kJ/mol
# Density = 2.673216 g / cm^3
# Si number density = 26.793141 Si / 1000 Ang^3
#
#
#
# Elastic Constant Matrix: (Units=GPa)
#
#
# Indices 1 2 3 4 5 6 
#
# 1 97.9141 46.2266 34.7666 -17.6255 -12.8625 18.1318
# 2 46.2266 202.5947 41.0567 -31.8640 -16.4404 17.8544
# 3 34.7666 41.0567 59.8382 -16.6919 -11.7358 0.3105
# 4 -17.6255 -31.8640 -16.6919 49.2460 -4.1265 -0.9774
# 5 -12.8625 -16.4404 -11.7358 -4.1265 40.6175 -7.4021
# 6 18.1318 17.8544 0.3105 -0.9774 -7.4021 40.2397
#
#
#
# Elastic Compliance Matrix: (Units=1/GPa)
#
#
# Indices 1 2 3 4 5 6 
#
# 1 0.014856 -0.000969 -0.007004 0.002321 0.001452 -0.005887
# 2 -0.000969 0.006488 -0.002758 0.002996 0.001447 -0.002082
# 3 -0.007004 -0.002758 0.025015 0.004739 0.005338 0.005284
# 4 0.002321 0.002996 0.004739 0.025148 0.005736 -0.000746
# 5 0.001452 0.001447 0.005338 0.005736 0.028529 0.004050
# 6 -0.005887 -0.002082 0.005284 -0.000746 0.004050 0.029114
#
#
# Mechanical properties :
#
#
# Convention : Reuss Voigt Hill
#
# Bulk Modulus (GPa) = 40.16525 67.16074 53.66300
# Shear Modulus (GPa) = 31.46416 41.90711 36.68563
#
# Velocity S-wave (km/s) = 3.43058 3.95916 3.70431
# Velocity P-wave (km/s) = 5.54213 6.78386 6.19419
#
# Compressibility (1/GPa) = 0.02489714
#
# Stress axis : x y z
#
# Youngs Moduli (GPa) = 67.31312 154.12572 39.97548
#
# Poissons Ratio (x) = 0.14930 0.27999
# Poissons Ratio (y) = 0.06520 0.11027
# Poissons Ratio (z) = 0.47147 0.42514
#
# Static dielectric constant tensor:
#      x y z
#    x 2.126500 0.056970 -0.103450 
#    y 0.056970 2.068110 -0.080910 
#    z -0.103450 -0.080910 1.842210 
# 
# From -- ./inp_files/77051.got.cif
#   From: 2010.05.17/outbox.cif.g08.bks.cpg/sg2_39_cif.got.tgz:77051.got - 2010.06.03 11:33:40.
