data_PCOD9018297
_publ_section_title
;
Structure prediction by ZEFSAII (Michael W. Deem and Ramdas Pophale) SiO2 
 PCOD9018297
Probable space group: P -1
;
_chemical_formula_sum "Si O2"
_cell_formula_units_Z 14
_cell_length_a 8.810177
_cell_length_b 13.902287
_cell_length_c 5.676197
_cell_angle_alpha 116.280684
_cell_angle_beta 107.582204
_cell_angle_gamma 100.664096
_cell_volume 551.366971
_symmetry_space_group_name_H-M "P -1"
_symmetry_group_IT_number 2
_symmetry_cell_setting 'triclinic'
loop_
_space_group_symop_operation_xyz
x,y,z
-x,-y,-z
loop_
_atom_site_type_symbol
_atom_site_label
_atom_site_fract_x
_atom_site_fract_y
_atom_site_fract_z
Si Si1 0.873932 0.011899 0.153147
Si Si2 0.336567 0.856921 0.807869
Si Si3 0.873911 0.794782 0.219032
Si Si4 0.816339 0.242324 0.871595
Si Si5 0.907388 0.490869 0.196463
Si Si6 0.477505 0.321969 0.226633
Si Si7 0.645054 0.557856 0.319579
O O1 0.681911 0.015942 0.041856
O O2 0.993808 0.138259 0.444462
O O3 0.857580 0.904867 0.195568
O O4 0.000000 0.000000 0.000000
O O5 0.285989 0.830716 0.478247
O O6 0.452683 0.779436 0.816214
O O7 0.225256 0.810997 0.948399
O O8 0.982877 0.733810 0.058203
O O9 0.676264 0.716024 0.077759
O O10 0.777127 0.358665 0.979169
O O11 0.821334 0.584007 0.292095
O O12 0.000000 0.500000 0.500000
O O13 0.000000 0.500000 0.000000
O O14 0.618571 0.449547 0.372321
O O15 0.384146 0.342592 0.440339
O O16 0.500000 0.500000 0.000000
#
# Coordination Sequence:
#
# PCOD9018297 Si02
#       7
#     2   2   2   2   2   2   2
#     4  10  21  43  69  96 132 174 229 292 340 406
#     4  11  23  43  69  93 137 177 222 283 344 404
#     4  10  23  41  69  98 132 177 230 283 347 410
#     4  11  22  42  65  95 133 179 225 278 337 403
#     4  12  26  42  69  99 134 181 239 282 331 403
#     4  11  25  44  65 101 139 184 226 280 350 412
#     4  11  26  44  66  96 146 184 224 285 340 405
#
# _framework density 25.391437
#
# number of rings (size 3 to 8) (size 9 to 14) (size 15 to 20)
#    0.000    1.143    2.857    2.571    6.000    1.714 
#    0.000    0.714    0.000    0.000    0.000    0.000 
#    0.000    0.000    0.000    0.000    0.000    0.000 
#
# Total GULP energy -77962.134429 kJ/mol
# GULP energy per Si atom -5568.723888 kJ/mol
# Density = 2.533365 g / cm^3
# Si number density = 25.391437 Si / 1000 Ang^3
#
#
#
# Elastic Constant Matrix: (Units=GPa)
#
#
# Indices 1 2 3 4 5 6 
#
# 1 109.4723 24.1510 42.8382 -7.8588 -42.6226 -65.3502
# 2 24.1510 116.1319 16.0622 -7.0329 -13.7620 -23.9924
# 3 42.8382 16.0622 90.2208 -9.8125 -23.7297 -3.0658
# 4 -7.8588 -7.0329 -9.8125 44.7643 -6.4217 -2.7121
# 5 -42.6226 -13.7620 -23.7297 -6.4217 45.3959 -2.1350
# 6 -65.3502 -23.9924 -3.0658 -2.7121 -2.1350 56.0825
#
#
#
# Elastic Compliance Matrix: (Units=1/GPa)
#
#
# Indices 1 2 3 4 5 6 
#
# 1 -0.039338 -0.009220 0.005930 -0.016126 -0.041348 -0.051813
# 2 -0.009220 0.007993 0.000855 -0.001548 -0.006363 -0.007595
# 3 0.005930 0.000855 0.012759 0.006490 0.013829 0.008813
# 4 -0.016126 -0.001548 0.006490 0.018047 -0.010541 -0.018627
# 5 -0.041348 -0.006363 0.013829 -0.010541 -0.015395 -0.051243
# 6 -0.051813 -0.007595 0.008813 -0.018627 -0.051243 -0.048163
#
#
# Mechanical properties :
#
#
# Convention : Reuss Voigt Hill
#
# Bulk Modulus (GPa) = -42.63106 53.54755 5.45824
# Shear Modulus (GPa) = -74.57657 44.76679 -14.90489
#
# Velocity S-wave (km/s) = -5.42536 4.20344 -2.42545
# Velocity P-wave (km/s) = 7.48812 6.68530 2.38525
#
# Compressibility (1/GPa) = -0.02345707
#
# Stress axis : x y z
#
# Youngs Moduli (GPa) = -25.42069 125.10505 78.37835
#
# Poissons Ratio (x) = 1.15349 -0.46478
# Poissons Ratio (y) = -0.23438 -0.06699
# Poissons Ratio (z) = 0.15074 -0.10693
#
# Static dielectric constant tensor:
#      x y z
#    x 2.268110 0.049890 0.058670 
#    y 0.049890 2.172250 -0.068120 
#    z 0.058670 -0.068120 2.092420 
# 
# From -- ./inp_files/37650.got.cif
#   From: 2010.05.17/outbox.cif.g08.bks.cpg/sg2_19_cif.got.tgz:37650.got - 2010.06.03 11:33:40.
