data_PCOD9018520
_publ_section_title
;
Structure prediction by ZEFSAII (Michael W. Deem and Ramdas Pophale) SiO2 
 PCOD9018520
Probable space group: P -1
;
_chemical_formula_sum "Si O2"
_cell_formula_units_Z 16
_cell_length_a 8.855332
_cell_length_b 9.161304
_cell_length_c 12.368672
_cell_angle_alpha 108.612253
_cell_angle_beta 96.353041
_cell_angle_gamma 130.964230
_cell_volume 642.341044
_symmetry_space_group_name_H-M "P -1"
_symmetry_group_IT_number 2
_symmetry_cell_setting 'triclinic'
loop_
_space_group_symop_operation_xyz
x,y,z
-x,-y,-z
loop_
_atom_site_type_symbol
_atom_site_label
_atom_site_fract_x
_atom_site_fract_y
_atom_site_fract_z
Si Si1 0.265171 0.314924 0.806158
Si Si2 0.018972 0.597921 0.143353
Si Si3 0.418363 0.200627 0.160531
Si Si4 0.739031 0.132577 0.109950
Si Si5 0.254448 0.257971 0.451134
Si Si6 0.529804 0.038518 0.295466
Si Si7 0.989131 0.037607 0.153585
Si Si8 0.185651 0.969886 0.553692
O O1 0.444846 0.557536 0.820853
O O2 0.249803 0.159739 0.684270
O O3 0.072710 0.297192 0.820954
O O4 0.254324 0.216587 0.897434
O O5 0.279908 0.793474 0.238441
O O6 0.857187 0.381622 0.156484
O O7 0.000000 0.500000 0.000000
O O8 0.162654 0.064815 0.109723
O O9 0.500677 0.191025 0.280013
O O10 0.407657 0.048735 0.041545
O O11 0.955464 0.181693 0.142284
O O12 0.632576 0.034708 0.196110
O O13 0.500000 0.500000 0.500000
O O14 0.122437 0.152109 0.303956
O O15 0.255286 0.093158 0.473094
O O16 0.085172 0.237602 0.506382
O O17 0.691937 0.096291 0.416693
#
# Coordination Sequence:
#
# PCOD9018520 Si02
#       8
#     2   2   2   2   2   2   2   2
#     4  11  22  41  62  92 129 168 211 261 309 373
#     4  12  24  40  63  91 134 179 211 255 315 371
#     4  12  24  39  65  93 137 173 206 258 317 373
#     4  12  24  42  61  96 133 175 215 251 312 389
#     4  10  21  43  71  91 121 161 214 270 329 374
#     4  12  23  41  63  93 131 171 210 261 316 376
#     4  11  24  43  65  97 125 164 221 262 313 388
#     4  10  24  43  68  96 121 163 218 269 318 382
#
# _framework density 24.908885999999999
#
# number of rings (size 3 to 8) (size 9 to 14) (size 15 to 20)
#    0.000    0.750    6.250    2.250    3.500    0.500 
#    0.000    0.625    0.000    8.250    0.000    0.000 
#    0.000    0.000    0.000    0.000    0.000    0.000 
#
# Total GULP energy -89239.798448 kJ/mol
# GULP energy per Si atom -5577.487403 kJ/mol
# Density = 2.485219 g / cm^3
# Si number density = 24.908886 Si / 1000 Ang^3
#
#
#
# Elastic Constant Matrix: (Units=GPa)
#
#
# Indices 1 2 3 4 5 6 
#
# 1 63.5136 29.2410 -2.6543 2.2580 11.8165 -5.1857
# 2 29.2410 139.4245 2.0977 31.3482 17.7250 25.1186
# 3 -2.6543 2.0977 45.6656 -1.3623 8.1903 -1.2653
# 4 2.2580 31.3482 -1.3623 18.1990 -4.6653 -3.1976
# 5 11.8165 17.7250 8.1903 -4.6653 46.7286 -3.8616
# 6 -5.1857 25.1186 -1.2653 -3.1976 -3.8616 47.1467
#
#
#
# Elastic Compliance Matrix: (Units=1/GPa)
#
#
# Indices 1 2 3 4 5 6 
#
# 1 0.020103 -0.008985 0.002229 0.014578 0.000054 0.008051
# 2 -0.008985 0.025370 -0.001244 -0.049517 -0.013648 -0.019014
# 3 0.002229 -0.001244 0.022873 0.002879 -0.003697 0.001414
# 4 0.014578 -0.049517 0.002879 0.154470 0.033425 0.041277
# 5 0.000054 -0.013648 -0.003697 0.033425 0.031542 0.012029
# 6 0.008051 -0.019014 0.001414 0.041277 0.012029 0.036049
#
#
# Mechanical properties :
#
#
# Convention : Reuss Voigt Hill
#
# Bulk Modulus (GPa) = 19.10307 33.99696 26.55001
# Shear Modulus (GPa) = 15.43900 37.07615 26.25758
#
# Velocity S-wave (km/s) = 2.49232 3.86226 3.25028
# Velocity P-wave (km/s) = 3.99600 5.79375 4.97672
#
# Compressibility (1/GPa) = 0.05234761
#
# Stress axis : x y z
#
# Youngs Moduli (GPa) = 49.74318 39.41734 43.71942
#
# Poissons Ratio (x) = 0.35415 -0.09747
# Poissons Ratio (y) = 0.44693 0.05438
# Poissons Ratio (z) = -0.11090 0.04903
#
# Static dielectric constant tensor:
#      x y z
#    x 2.074700 0.074460 0.015550 
#    y 0.074460 2.127850 -0.030180 
#    z 0.015550 -0.030180 2.056630 
# 
# From -- ./inp_files/297498.got.cif
#   From: 2010.05.17/outbox.cif.g08.bks.cpg/sg2_149_cif.got.tgz:297498.got - 2010.06.03 11:33:40.
