data_PCOD9018925
_publ_section_title
;
Structure prediction by ZEFSAII (Michael W. Deem and Ramdas Pophale) SiO2 
 PCOD9018925
Probable space group: P -1
;
_chemical_formula_sum "Si O2"
_cell_formula_units_Z 16
_cell_length_a 11.189526
_cell_length_b 6.637094
_cell_length_c 14.247222
_cell_angle_alpha 54.378532
_cell_angle_beta 56.221426
_cell_angle_gamma 81.444915
_cell_volume 690.493750
_symmetry_space_group_name_H-M "P -1"
_symmetry_group_IT_number 2
_symmetry_cell_setting 'triclinic'
loop_
_space_group_symop_operation_xyz
x,y,z
-x,-y,-z
loop_
_atom_site_type_symbol
_atom_site_label
_atom_site_fract_x
_atom_site_fract_y
_atom_site_fract_z
Si Si1 0.830795 0.301945 0.419950
Si Si2 0.390727 0.519509 0.811598
Si Si3 0.823880 0.995999 0.964968
Si Si4 0.162458 0.139585 0.789882
Si Si5 0.674056 0.059357 0.383918
Si Si6 0.575221 0.749866 0.841089
Si Si7 0.835543 0.536756 0.718030
Si Si8 0.650425 0.312532 0.682268
O O1 0.845764 0.567951 0.286004
O O2 0.767666 0.079222 0.433023
O O3 0.715820 0.297849 0.555037
O O4 0.991926 0.319743 0.387360
O O5 0.290233 0.248117 0.965657
O O6 0.292019 0.666019 0.757343
O O7 0.474438 0.713371 0.801890
O O8 0.519079 0.452736 0.709969
O O9 0.801173 0.958111 0.097832
O O10 0.806896 0.269419 0.862200
O O11 0.994520 0.986737 0.875998
O O12 0.279519 0.119867 0.664256
O O13 0.500000 0.000000 0.500000
O O14 0.736692 0.717599 0.751065
O O15 0.583817 0.013628 0.818169
O O16 0.500000 0.500000 0.000000
O O17 0.777583 0.448585 0.663008
#
# Coordination Sequence:
#
# PCOD9018925 Si02
#       8
#     2   2   2   2   2   2   2   2
#     4  11  24  44  66  94 129 173 213 266 325 378
#     4  11  24  39  63  97 128 168 212 262 319 382
#     4  10  21  44  66  93 134 168 211 266 325 379
#     4  10  24  43  65  96 131 172 210 265 323 384
#     4  12  26  40  64  99 130 171 216 260 323 388
#     4  11  24  40  64  95 126 172 211 265 324 375
#     4  10  24  43  65  96 125 166 222 264 320 384
#     4  11  24  43  66  92 132 171 216 267 318 384
#
# _framework density 23.171825999999999
#
# number of rings (size 3 to 8) (size 9 to 14) (size 15 to 20)
#    0.000    1.250    1.250    3.375    5.250    8.000 
#    0.000    0.000    0.000    0.000    0.000    0.000 
#    0.000    0.000    0.000    0.000    0.000    0.000 
#
# Total GULP energy -89557.520720 kJ/mol
# GULP energy per Si atom -5597.345045 kJ/mol
# Density = 2.311909 g / cm^3
# Si number density = 23.171826 Si / 1000 Ang^3
#
#
#
# Elastic Constant Matrix: (Units=GPa)
#
#
# Indices 1 2 3 4 5 6 
#
# 1 70.6947 21.7511 -8.0383 -1.9977 -6.2779 5.9853
# 2 21.7511 67.0380 -9.7179 -0.9860 -10.3532 -1.3018
# 3 -8.0383 -9.7179 52.4289 -1.0667 -4.6766 5.2022
# 4 -1.9977 -0.9860 -1.0667 36.1958 -0.7189 2.3476
# 5 -6.2779 -10.3532 -4.6766 -0.7189 38.9825 -8.5950
# 6 5.9853 -1.3018 5.2022 2.3476 -8.5950 25.4194
#
#
#
# Elastic Compliance Matrix: (Units=1/GPa)
#
#
# Indices 1 2 3 4 5 6 
#
# 1 0.016381 -0.004985 0.002105 0.001130 0.000608 -0.004442
# 2 -0.004985 0.017746 0.002652 0.000177 0.004935 0.003192
# 3 0.002105 0.002652 0.020523 0.001090 0.002699 -0.003748
# 4 0.001130 0.000177 0.001090 0.027925 0.000217 -0.002986
# 5 0.000608 0.004935 0.002699 0.000217 0.029485 0.009507
# 6 -0.004442 0.003192 -0.003748 -0.002986 0.009507 0.044807
#
#
# Mechanical properties :
#
#
# Convention : Reuss Voigt Hill
#
# Bulk Modulus (GPa) = 18.45261 22.01683 20.23472
# Shear Modulus (GPa) = 28.50851 32.53065 30.51958
#
# Velocity S-wave (km/s) = 3.51138 3.75091 3.63312
# Velocity P-wave (km/s) = 4.94170 5.31802 5.13331
#
# Compressibility (1/GPa) = 0.05419286
#
# Stress axis : x y z
#
# Youngs Moduli (GPa) = 61.04766 56.35156 48.72676
#
# Poissons Ratio (x) = 0.28094 -0.10259
# Poissons Ratio (y) = 0.30435 -0.12922
# Poissons Ratio (z) = -0.12853 -0.14944
#
# Static dielectric constant tensor:
#      x y z
#    x 1.882410 0.033910 0.021240 
#    y 0.033910 1.854190 -0.033020 
#    z 0.021240 -0.033020 1.904640 
# 
# From -- ./inp_files/69184.got.cif
#   From: 2010.05.17/outbox.cif.g08.bks.cpg/sg2_35_cif.got.tgz:69184.got - 2010.06.03 11:33:40.
