data_PCOD9018532
_publ_section_title
;
Structure prediction by ZEFSAII (Michael W. Deem and Ramdas Pophale) SiO2 
 PCOD9018532
Probable space group: P -1
;
_chemical_formula_sum "Si O2"
_cell_formula_units_Z 14
_cell_length_a 9.037041
_cell_length_b 8.396798
_cell_length_c 13.423843
_cell_angle_alpha 132.414021
_cell_angle_beta 62.224897
_cell_angle_gamma 105.125918
_cell_volume 663.172788
_symmetry_space_group_name_H-M "P -1"
_symmetry_group_IT_number 2
_symmetry_cell_setting 'triclinic'
loop_
_space_group_symop_operation_xyz
x,y,z
-x,-y,-z
loop_
_atom_site_type_symbol
_atom_site_label
_atom_site_fract_x
_atom_site_fract_y
_atom_site_fract_z
Si Si1 0.094456 0.217517 0.546100
Si Si2 0.326609 0.445879 0.074928
Si Si3 0.978114 0.954771 0.823003
Si Si4 0.592947 0.656654 0.608041
Si Si5 0.736209 0.060026 0.118991
Si Si6 0.188271 0.482781 0.343510
Si Si7 0.006711 0.660131 0.160465
O O1 0.278353 0.202279 0.433105
O O2 0.970615 0.356395 0.568064
O O3 0.105008 0.336070 0.701525
O O4 0.000000 0.000000 0.500000
O O5 0.312693 0.495977 0.216987
O O6 0.186877 0.596324 0.124696
O O7 0.500000 0.500000 0.000000
O O8 0.288394 0.195462 0.969570
O O9 0.145968 0.881967 0.801344
O O10 0.882329 0.752044 0.735250
O O11 0.015261 0.104607 0.782626
O O12 0.850827 0.085320 0.995938
O O13 0.500000 0.500000 0.500000
O O14 0.444314 0.808250 0.771092
O O15 0.706578 0.507279 0.585638
O O16 0.000000 0.500000 0.000000
#
# Coordination Sequence:
#
# PCOD9018532 Si02
#       7
#     2   2   2   2   2   2   2
#     4  11  26  47  69  99 137 184 225 273 349 414
#     4  10  23  38  64  98 134 163 222 280 329 385
#     4  10  21  43  71  95 133 173 228 271 338 402
#     4  12  27  43  67  98 138 175 229 277 334 411
#     4  10  23  40  65 100 130 175 221 277 327 396
#     4  10  24  44  68  92 130 184 219 272 337 408
#     4  11  23  41  70  97 130 179 224 280 334 397
#
# _framework density 21.110636
#
# number of rings (size 3 to 8) (size 9 to 14) (size 15 to 20)
#    0.000    1.429    1.429    2.143   12.000    2.286 
#    0.000    1.429    0.000    0.000    0.000    0.000 
#    0.000    0.000    0.000    0.000    0.000    0.000 
#
# Total GULP energy -78226.183042 kJ/mol
# GULP energy per Si atom -5587.584503 kJ/mol
# Density = 2.106259 g / cm^3
# Si number density = 21.110636 Si / 1000 Ang^3
#
#
#
# Elastic Constant Matrix: (Units=GPa)
#
#
# Indices 1 2 3 4 5 6 
#
# 1 101.1867 42.8952 37.7732 -18.7833 14.7462 -14.1237
# 2 42.8952 58.3557 14.8083 -18.3821 -0.6323 -11.9976
# 3 37.7732 14.8083 88.6341 -24.7752 -7.5353 -5.3547
# 4 -18.7833 -18.3821 -24.7752 38.4172 4.1702 -4.4379
# 5 14.7462 -0.6323 -7.5353 4.1702 39.4018 -4.0676
# 6 -14.1237 -11.9976 -5.3547 -4.4379 -4.0676 37.3858
#
#
#
# Elastic Compliance Matrix: (Units=1/GPa)
#
#
# Indices 1 2 3 4 5 6 
#
# 1 0.018872 -0.011857 -0.006571 0.000403 -0.008396 0.001518
# 2 -0.011857 0.030099 0.004192 0.011627 0.005290 0.007736
# 3 -0.006571 0.004192 0.016574 0.009270 0.005013 0.002882
# 4 0.000403 0.011627 0.009270 0.039033 -0.001321 0.009701
# 5 -0.008396 0.005290 0.005013 -0.001321 0.029947 0.002345
# 6 0.001518 0.007736 0.002882 0.009701 0.002345 0.031623
#
#
# Mechanical properties :
#
#
# Convention : Reuss Voigt Hill
#
# Bulk Modulus (GPa) = 26.97502 48.79219 37.88360
# Shear Modulus (GPa) = 24.15702 33.22094 28.68898
#
# Velocity S-wave (km/s) = 3.38643 3.97124 3.69044
# Velocity P-wave (km/s) = 5.30058 6.64759 6.01193
#
# Compressibility (1/GPa) = 0.03707134
#
# Stress axis : x y z
#
# Youngs Moduli (GPa) = 52.98729 33.22417 60.33529
#
# Poissons Ratio (x) = 0.39394 0.39649
# Poissons Ratio (y) = 0.62827 -0.25290
# Poissons Ratio (z) = 0.34820 -0.13926
#
# Static dielectric constant tensor:
#      x y z
#    x 1.708390 0.012800 0.037240 
#    y 0.012800 1.726570 0.008890 
#    z 0.037240 0.008890 1.834650 
# 
# From -- ./inp_files/404732.got.cif
#   From: 2010.05.17/outbox.cif.g08.bks.cpg/sg2_203_cif.got.tgz:404732.got - 2010.06.03 11:33:40.
