data_PCOD9018331
_publ_section_title
;
Structure prediction by ZEFSAII (Michael W. Deem and Ramdas Pophale) SiO2 
 PCOD9018331
Probable space group: P -1
;
_chemical_formula_sum "Si O2"
_cell_formula_units_Z 16
_cell_length_a 9.135579
_cell_length_b 19.742351
_cell_length_c 9.081633
_cell_angle_alpha 38.489304
_cell_angle_beta 48.024737
_cell_angle_gamma 58.914804
_cell_volume 757.768261
_symmetry_space_group_name_H-M "P -1"
_symmetry_group_IT_number 2
_symmetry_cell_setting 'triclinic'
loop_
_space_group_symop_operation_xyz
x,y,z
-x,-y,-z
loop_
_atom_site_type_symbol
_atom_site_label
_atom_site_fract_x
_atom_site_fract_y
_atom_site_fract_z
Si Si1 0.916852 0.098794 0.793026
Si Si2 0.473413 0.030187 0.137101
Si Si3 0.043350 0.478613 0.681374
Si Si4 0.781384 0.287978 0.747736
Si Si5 0.448852 0.390360 0.629478
Si Si6 0.706482 0.200707 0.271620
Si Si7 0.069949 0.113704 0.333687
Si Si8 0.613066 0.403653 0.168933
O O1 0.919725 0.211000 0.689785
O O2 0.025133 0.109197 0.545292
O O3 0.685952 0.071680 0.972499
O O4 0.000000 0.000000 0.000000
O O5 0.401646 0.916737 0.452893
O O6 0.300635 0.116845 0.133977
O O7 0.500000 0.000000 0.000000
O O8 0.117044 0.594247 0.499393
O O9 0.215827 0.394238 0.748540
O O10 0.000000 0.500000 0.500000
O O11 0.841226 0.437469 0.956436
O O12 0.568011 0.301635 0.791953
O O13 0.746038 0.237164 0.017728
O O14 0.500000 0.500000 0.500000
O O15 0.541609 0.392535 0.401570
O O16 0.587423 0.291908 0.285025
O O17 0.917332 0.194217 0.223377
O O18 0.000000 0.000000 0.500000
O O19 0.500000 0.500000 0.000000
#
# Coordination Sequence:
#
# PCOD9018331 Si02
#       8
#     2   2   2   2   2   2   2   2
#     4  12  25  44  67 100 143 172 220 296 339 392
#     4  11  24  45  74  97 130 184 231 278 340 401
#     4  11  22  47  72  99 132 186 227 276 340 407
#     4  11  25  43  68 103 140 177 224 286 351 391
#     4  10  23  43  67 100 142 168 223 294 333 398
#     4  11  23  43  71 101 132 181 234 275 336 413
#     4  10  21  43  69  99 130 173 236 278 324 416
#     4  12  23  42  72 100 134 177 231 276 329 414
#
# _framework density 21.114633999999999
#
# number of rings (size 3 to 8) (size 9 to 14) (size 15 to 20)
#    0.000    1.000    5.000    3.000    0.000    6.000 
#    0.000    3.750    0.000    0.000    0.000    0.000 
#    0.000    0.000    0.000    0.000    0.000    0.000 
#
# Total GULP energy -89455.432523 kJ/mol
# GULP energy per Si atom -5590.964533 kJ/mol
# Density = 2.106658 g / cm^3
# Si number density = 21.114634 Si / 1000 Ang^3
#
#
#
# Elastic Constant Matrix: (Units=GPa)
#
#
# Indices 1 2 3 4 5 6 
#
# 1 119.1585 46.4182 28.4197 16.5232 16.6101 -19.1348
# 2 46.4182 145.9571 26.2537 15.5047 19.5146 -0.5752
# 3 28.4197 26.2537 72.1085 24.7240 12.2929 -1.8770
# 4 16.5232 15.5047 24.7240 45.1799 2.8574 -1.4994
# 5 16.6101 19.5146 12.2929 2.8574 55.9020 0.5836
# 6 -19.1348 -0.5752 -1.8770 -1.4994 0.5836 48.1368
#
#
#
# Elastic Compliance Matrix: (Units=1/GPa)
#
#
# Indices 1 2 3 4 5 6 
#
# 1 0.011187 -0.002688 -0.002477 -0.001557 -0.001806 0.004292
# 2 -0.002688 0.008285 -0.001324 -0.001060 -0.001737 -0.001033
# 3 -0.002477 -0.001324 0.018735 -0.008753 -0.002469 -0.000513
# 4 -0.001557 -0.001060 -0.008753 0.027768 0.001339 -0.000124
# 5 -0.001806 -0.001737 -0.002469 0.001339 0.019517 -0.001030
# 6 0.004292 -0.001033 -0.000513 -0.000124 -0.001030 0.022456
#
#
# Mechanical properties :
#
#
# Convention : Reuss Voigt Hill
#
# Bulk Modulus (GPa) = 39.63860 59.93413 49.78636
# Shear Modulus (GPa) = 38.65866 45.58592 42.12229
#
# Velocity S-wave (km/s) = 4.28354 4.65152 4.47131
# Velocity P-wave (km/s) = 6.57866 7.56938 7.09134
#
# Compressibility (1/GPa) = 0.02522794
#
# Stress axis : x y z
#
# Youngs Moduli (GPa) = 89.38954 120.69521 53.37584
#
# Poissons Ratio (x) = 0.32449 0.13221
# Poissons Ratio (y) = 0.24032 0.07069
# Poissons Ratio (z) = 0.22141 0.15984
#
# Static dielectric constant tensor:
#      x y z
#    x 1.843310 -0.031340 -0.118750 
#    y -0.031340 1.742310 -0.027170 
#    z -0.118750 -0.027170 1.879210 
# 
# From -- ./inp_files/222977.got.cif
#   From: 2010.05.17/outbox.cif.g08.bks.cpg/sg2_112_cif.got.tgz:222977.got - 2010.06.03 11:33:40.
