data_PCOD9018949
_publ_section_title
;
Structure prediction by ZEFSAII (Michael W. Deem and Ramdas Pophale) SiO2 
 PCOD9018949
Probable space group: P -1
;
_chemical_formula_sum "Si O2"
_cell_formula_units_Z 16
_cell_length_a 8.836271
_cell_length_b 14.756186
_cell_length_c 8.522971
_cell_angle_alpha 61.892803
_cell_angle_beta 125.279805
_cell_angle_gamma 93.083538
_cell_volume 762.552029
_symmetry_space_group_name_H-M "P -1"
_symmetry_group_IT_number 2
_symmetry_cell_setting 'triclinic'
loop_
_space_group_symop_operation_xyz
x,y,z
-x,-y,-z
loop_
_atom_site_type_symbol
_atom_site_label
_atom_site_fract_x
_atom_site_fract_y
_atom_site_fract_z
Si Si1 0.204059 0.923264 0.744878
Si Si2 0.933395 0.591724 0.019236
Si Si3 0.477801 0.250213 0.441027
Si Si4 0.673525 0.412856 0.584221
Si Si5 0.481106 0.993735 0.307666
Si Si6 0.782394 0.234129 0.367603
Si Si7 0.895583 0.955834 0.109218
Si Si8 0.275571 0.530834 0.783394
O O1 0.234359 0.805856 0.786002
O O2 0.357276 0.971232 0.714681
O O3 0.194991 0.947378 0.902311
O O4 0.000000 0.000000 0.500000
O O5 0.837773 0.544096 0.145469
O O6 0.125460 0.619648 0.170656
O O7 0.750891 0.687111 0.765569
O O8 0.000000 0.500000 0.000000
O O9 0.587623 0.316426 0.559775
O O10 0.503797 0.130264 0.612877
O O11 0.588001 0.242200 0.345180
O O12 0.500000 0.500000 0.500000
O O13 0.719003 0.464024 0.405649
O O14 0.500000 0.000000 0.500000
O O15 0.279266 0.071994 0.058522
O O16 0.819866 0.348005 0.309095
O O17 0.954236 0.142991 0.631731
O O18 0.000000 0.000000 0.000000
O O19 0.500000 0.500000 0.000000
#
# Coordination Sequence:
#
# PCOD9018949 Si02
#       8
#     2   2   2   2   2   2   2   2
#     4  10  22  43  64  96 134 173 223 280 328 399
#     4  12  24  45  71 100 138 183 225 283 351 404
#     4  11  23  44  70 102 139 179 233 276 345 406
#     4  11  23  46  68  98 142 174 229 288 336 407
#     4  12  23  42  70  98 139 177 226 279 338 403
#     4  10  21  44  66  97 135 175 224 279 337 398
#     4  11  22  42  67  94 135 177 218 276 335 399
#     4  11  22  43  71  98 138 177 225 284 337 405
#
# _framework density 20.982173
#
# number of rings (size 3 to 8) (size 9 to 14) (size 15 to 20)
#    0.000    1.000    6.250    1.500    0.000    4.000 
#    9.000    0.000    0.000    0.000    0.000    0.000 
#    0.000    0.000    0.000    0.000    0.000    0.000 
#
# Total GULP energy -89407.186070 kJ/mol
# GULP energy per Si atom -5587.949129 kJ/mol
# Density = 2.093442 g / cm^3
# Si number density = 20.982173 Si / 1000 Ang^3
#
#
#
# Elastic Constant Matrix: (Units=GPa)
#
#
# Indices 1 2 3 4 5 6 
#
# 1 110.7737 38.0211 36.1152 16.5681 13.7719 -6.3514
# 2 38.0211 104.7300 42.3639 6.2911 -2.3707 -15.3552
# 3 36.1152 42.3639 129.7686 15.7836 27.0425 -4.9978
# 4 16.5681 6.2911 15.7836 37.2892 0.8732 -4.8600
# 5 13.7719 -2.3707 27.0425 0.8732 44.1693 5.8726
# 6 -6.3514 -15.3552 -4.9978 -4.8600 5.8726 39.5155
#
#
#
# Elastic Compliance Matrix: (Units=1/GPa)
#
#
# Indices 1 2 3 4 5 6 
#
# 1 0.011585 -0.003644 -0.000852 -0.004054 -0.003249 0.000323
# 2 -0.003644 0.013047 -0.004092 0.001527 0.003835 0.003585
# 3 -0.000852 -0.004092 0.011108 -0.003442 -0.006720 0.000253
# 4 -0.004054 0.001527 -0.003442 0.030131 0.002480 0.002844
# 5 -0.003249 0.003835 -0.006720 0.002480 0.028430 -0.003802
# 6 0.000323 0.003585 0.000253 0.002844 -0.003802 0.027698
#
#
# Mechanical properties :
#
#
# Convention : Reuss Voigt Hill
#
# Bulk Modulus (GPa) = 53.86827 64.25252 59.06040
# Shear Modulus (GPa) = 34.39690 39.44627 36.92159
#
# Velocity S-wave (km/s) = 4.05327 4.34059 4.19939
# Velocity P-wave (km/s) = 6.90177 7.47060 7.19181
#
# Compressibility (1/GPa) = 0.01856380
#
# Stress axis : x y z
#
# Youngs Moduli (GPa) = 86.32206 76.64537 90.02545
#
# Poissons Ratio (x) = 0.27927 0.07671
# Poissons Ratio (y) = 0.31453 0.36840
# Poissons Ratio (z) = 0.07355 0.31364
#
# Static dielectric constant tensor:
#      x y z
#    x 1.718500 -0.014190 -0.012380 
#    y -0.014190 1.781360 0.027640 
#    z -0.012380 0.027640 1.760320 
# 
# From -- ./inp_files/201069.got.cif
#   From: 2010.05.17/outbox.cif.g08.bks.cpg/sg2_101_cif.got.tgz:201069.got - 2010.06.03 11:33:40.
