data_PCOD9018637
_publ_section_title
;
Structure prediction by ZEFSAII (Michael W. Deem and Ramdas Pophale) SiO2 
 PCOD9018637
Probable space group: P -1
;
_chemical_formula_sum "Si O2"
_cell_formula_units_Z 16
_cell_length_a 10.324236
_cell_length_b 11.427699
_cell_length_c 11.549317
_cell_angle_alpha 146.615028
_cell_angle_beta 112.437657
_cell_angle_gamma 77.411096
_cell_volume 679.300044
_symmetry_space_group_name_H-M "P -1"
_symmetry_group_IT_number 2
_symmetry_cell_setting 'triclinic'
loop_
_space_group_symop_operation_xyz
x,y,z
-x,-y,-z
loop_
_atom_site_type_symbol
_atom_site_label
_atom_site_fract_x
_atom_site_fract_y
_atom_site_fract_z
Si Si1 0.123452 0.807400 0.798566
Si Si2 0.388811 0.053794 0.809748
Si Si3 0.360468 0.636664 0.584790
Si Si4 0.626526 0.160501 0.609093
Si Si5 0.555694 0.506440 0.271039
Si Si6 0.076337 0.603791 0.995999
Si Si7 0.872091 0.581203 0.366632
Si Si8 0.819770 0.767263 0.936592
O O1 0.247729 0.724774 0.702157
O O2 0.111941 0.662025 0.788363
O O3 0.983330 0.737672 0.614118
O O4 0.160008 0.066053 0.026761
O O5 0.439137 0.855946 0.730170
O O6 0.330916 0.962447 0.591165
O O7 0.514410 0.260867 0.007263
O O8 0.273545 0.138117 0.920557
O O9 0.445005 0.520115 0.611155
O O10 0.262811 0.465917 0.326941
O O11 0.557071 0.358307 0.701784
O O12 0.766683 0.256578 0.809665
O O13 0.500000 0.000000 0.500000
O O14 0.712942 0.609055 0.364150
O O15 0.091935 0.416645 0.754105
O O16 0.000000 0.500000 0.000000
O O17 0.968706 0.744904 0.023870
#
# Coordination Sequence:
#
# PCOD9018637 Si02
#       8
#     2   2   2   2   2   2   2   2
#     4   9  21  42  69 107 135 171 225 293 358 411
#     4  11  24  45  70 102 139 179 234 288 352 422
#     4  10  21  43  73 109 136 167 231 294 364 418
#     4  12  30  48  66 100 143 194 246 280 333 424
#     4  11  25  45  72 100 142 189 223 289 355 414
#     4  12  26  45  71 100 144 189 238 286 336 419
#     4  10  22  44  71 101 141 173 231 291 347 419
#     4  11  24  42  74 103 138 179 224 297 358 406
#
# _framework density 23.553654000000002
#
# number of rings (size 3 to 8) (size 9 to 14) (size 15 to 20)
#    0.000    1.250    1.250    3.375    3.500   10.000 
#    0.000    0.000    0.000    0.000    0.000    0.000 
#    0.000    0.000    0.000    0.000    0.000    0.000 
#
# Total GULP energy -89609.519625 kJ/mol
# GULP energy per Si atom -5600.594977 kJ/mol
# Density = 2.350004 g / cm^3
# Si number density = 23.553654 Si / 1000 Ang^3
#
#
#
# Elastic Constant Matrix: (Units=GPa)
#
#
# Indices 1 2 3 4 5 6 
#
# 1 58.3859 29.8139 20.3179 -12.3027 19.0923 -7.0380
# 2 29.8139 96.7924 39.4828 6.9632 4.3406 -10.0292
# 3 20.3179 39.4828 83.6981 -0.4166 3.6256 -12.7863
# 4 -12.3027 6.9632 -0.4166 40.0655 4.9277 4.9694
# 5 19.0923 4.3406 3.6256 4.9277 40.9070 -12.4033
# 6 -7.0380 -10.0292 -12.7863 4.9694 -12.4033 48.6952
#
#
#
# Elastic Compliance Matrix: (Units=1/GPa)
#
#
# Indices 1 2 3 4 5 6 
#
# 1 0.029910 -0.008589 -0.003010 0.012972 -0.015400 -0.003483
# 2 -0.008589 0.015561 -0.005114 -0.006210 0.004269 0.002342
# 3 -0.003010 -0.005114 0.015482 -0.000438 0.001542 0.003015
# 4 0.012972 -0.006210 -0.000438 0.032049 -0.010905 -0.005568
# 5 -0.015400 0.004269 0.001542 -0.010905 0.035122 0.009117
# 6 -0.003483 0.002342 0.003015 -0.005568 0.009117 0.024197
#
#
# Mechanical properties :
#
#
# Convention : Reuss Voigt Hill
#
# Bulk Modulus (GPa) = 36.32524 46.45618 41.39071
# Shear Modulus (GPa) = 25.65162 35.88434 30.76798
#
# Velocity S-wave (km/s) = 3.30369 3.90746 3.61819
# Velocity P-wave (km/s) = 5.47798 6.33435 5.92167
#
# Compressibility (1/GPa) = 0.02752907
#
# Stress axis : x y z
#
# Youngs Moduli (GPa) = 33.43398 64.26437 64.59094
#
# Poissons Ratio (x) = 0.55194 0.19439
# Poissons Ratio (y) = 0.28715 0.33029
# Poissons Ratio (z) = 0.10062 0.32862
#
# Static dielectric constant tensor:
#      x y z
#    x 1.925780 0.022320 -0.031700 
#    y 0.022320 1.933080 0.021580 
#    z -0.031700 0.021580 1.869470 
# 
# From -- ./inp_files/429292.got.cif
#   From: 2010.05.17/outbox.cif.g08.bks.cpg/sg2_215_cif.got.tgz:429292.got - 2010.06.03 11:33:40.
