data_PCOD9018395
_publ_section_title
;
Structure prediction by ZEFSAII (Michael W. Deem and Ramdas Pophale) SiO2 
 PCOD9018395
Probable space group: P -1
;
_chemical_formula_sum "Si O2"
_cell_formula_units_Z 16
_cell_length_a 16.361473
_cell_length_b 15.491651
_cell_length_c 15.179678
_cell_angle_alpha 153.605076
_cell_angle_beta 149.640384
_cell_angle_gamma 26.507206
_cell_volume 726.063779
_symmetry_space_group_name_H-M "P -1"
_symmetry_group_IT_number 2
_symmetry_cell_setting 'triclinic'
loop_
_space_group_symop_operation_xyz
x,y,z
-x,-y,-z
loop_
_atom_site_type_symbol
_atom_site_label
_atom_site_fract_x
_atom_site_fract_y
_atom_site_fract_z
Si Si1 0.984914 0.109978 0.405841
Si Si2 0.889958 0.375653 0.258075
Si Si3 0.468508 0.223497 0.626272
Si Si4 0.352274 0.757741 0.503647
Si Si5 0.369319 0.318634 0.146656
Si Si6 0.894632 0.093075 0.859492
Si Si7 0.719206 0.933633 0.034329
Si Si8 0.297196 0.351666 0.392804
O O1 0.872232 0.380222 0.526897
O O2 0.170638 0.012125 0.550172
O O3 0.062723 0.961432 0.252746
O O4 0.839308 0.051006 0.259109
O O5 0.667065 0.557310 0.237930
O O6 0.000000 0.500000 0.500000
O O7 0.925891 0.281919 0.106084
O O8 0.969203 0.150471 0.186648
O O9 0.675165 0.178710 0.755466
O O10 0.353692 0.270734 0.471210
O O11 0.500000 0.000000 0.500000
O O12 0.280129 0.581277 0.276671
O O13 0.463595 0.732689 0.674017
O O14 0.513796 0.678954 0.506727
O O15 0.243206 0.247322 0.018471
O O16 0.493068 0.138164 0.020032
O O17 0.751019 0.804167 0.853354
#
# Coordination Sequence:
#
# PCOD9018395 Si02
#       8
#     2   2   2   2   2   2   2   2
#     4  12  24  42  67  97 129 180 216 268 333 385
#     4  11  24  44  67  95 131 167 220 278 321 392
#     4  12  24  45  71  96 133 178 220 272 339 384
#     4  10  21  43  70  91 135 175 214 273 332 384
#     4   9  20  45  66  97 135 171 219 273 325 390
#     4  11  25  42  66  97 129 172 221 269 330 392
#     4  10  23  42  67  98 132 175 215 272 328 386
#     4  11  24  45  64  97 138 169 219 277 324 389
#
# _framework density 22.036632000000001
#
# number of rings (size 3 to 8) (size 9 to 14) (size 15 to 20)
#    0.000    1.250    5.000    0.375    1.750    1.000 
#   11.250    0.000    0.000    0.000    0.000    0.000 
#    0.000    0.000    0.000    0.000    0.000    0.000 
#
# Total GULP energy -89486.001005 kJ/mol
# GULP energy per Si atom -5592.875063 kJ/mol
# Density = 2.198648 g / cm^3
# Si number density = 22.036632 Si / 1000 Ang^3
#
#
#
# Elastic Constant Matrix: (Units=GPa)
#
#
# Indices 1 2 3 4 5 6 
#
# 1 66.5786 23.8279 26.0742 7.2931 -7.2854 1.2523
# 2 23.8279 133.7653 27.6061 18.7575 -2.3844 6.5115
# 3 26.0742 27.6061 88.9751 12.1978 -13.6555 -1.5643
# 4 7.2931 18.7575 12.1978 22.9883 -5.2658 -2.6665
# 5 -7.2854 -2.3844 -13.6555 -5.2658 32.5091 -1.7792
# 6 1.2523 6.5115 -1.5643 -2.6665 -1.7792 27.5781
#
#
#
# Elastic Compliance Matrix: (Units=1/GPa)
#
#
# Indices 1 2 3 4 5 6 
#
# 1 0.017724 -0.002053 -0.004089 -0.001422 0.001842 -0.000571
# 2 -0.002053 0.009243 -0.001659 -0.006749 -0.001734 -0.002948
# 3 -0.004089 -0.001659 0.014155 -0.003706 0.004379 0.001304
# 4 -0.001422 -0.006749 -0.003706 0.053788 0.006730 0.007083
# 5 0.001842 -0.001734 0.004379 0.006730 0.034163 0.003429
# 6 -0.000571 -0.002948 0.001304 0.007083 0.003429 0.037963
#
#
# Mechanical properties :
#
#
# Convention : Reuss Voigt Hill
#
# Bulk Modulus (GPa) = 39.18554 49.37059 44.27807
# Shear Modulus (GPa) = 26.15808 30.73583 28.44695
#
# Velocity S-wave (km/s) = 3.44906 3.73870 3.59680
# Velocity P-wave (km/s) = 5.80362 6.41012 6.11440
#
# Compressibility (1/GPa) = 0.02551962
#
# Stress axis : x y z
#
# Youngs Moduli (GPa) = 56.41964 108.19172 70.64572
#
# Poissons Ratio (x) = 0.22215 0.28890
# Poissons Ratio (y) = 0.11585 0.11718
# Poissons Ratio (z) = 0.23072 0.17945
#
# Static dielectric constant tensor:
#      x y z
#    x 1.816900 -0.014480 -0.004660 
#    y -0.014480 1.798730 -0.010110 
#    z -0.004660 -0.010110 1.845730 
# 
# From -- ./inp_files/533937.got.cif
#   From: 2010.05.17/outbox.cif.g08.bks.cpg/sg2_267_cif.got.tgz:533937.got - 2010.06.03 11:33:40.
