data_PCOD9018343
_publ_section_title
;
Structure prediction by ZEFSAII (Michael W. Deem and Ramdas Pophale) SiO2 
 PCOD9018343
Probable space group: P -1
;
_chemical_formula_sum "Si O2"
_cell_formula_units_Z 12
_cell_length_a 6.350921
_cell_length_b 13.357925
_cell_length_c 7.440465
_cell_angle_alpha 81.623992
_cell_angle_beta 44.207323
_cell_angle_gamma 81.364164
_cell_volume 434.464759
_symmetry_space_group_name_H-M "P -1"
_symmetry_group_IT_number 2
_symmetry_cell_setting 'triclinic'
loop_
_space_group_symop_operation_xyz
x,y,z
-x,-y,-z
loop_
_atom_site_type_symbol
_atom_site_label
_atom_site_fract_x
_atom_site_fract_y
_atom_site_fract_z
Si Si1 0.789962 0.760276 0.365344
Si Si2 0.257319 0.671200 0.594639
Si Si3 0.814388 0.860260 0.948702
Si Si4 0.824981 0.970987 0.421616
Si Si5 0.177870 0.452386 0.235011
Si Si6 0.570045 0.275638 0.932587
O O1 0.556401 0.674631 0.530076
O O2 0.813898 0.849903 0.470036
O O3 0.126174 0.712243 0.151004
O O4 0.722740 0.824430 0.209491
O O5 0.367417 0.678737 0.316320
O O6 0.073969 0.776340 0.743130
O O7 0.081502 0.568494 0.749363
O O8 0.521999 0.838710 0.014073
O O9 0.940032 0.968853 0.854631
O O10 0.500000 0.000000 0.500000
O O11 0.000000 0.000000 0.500000
O O12 0.000000 0.500000 0.500000
O O13 0.500000 0.500000 0.000000
O O14 0.298536 0.333798 0.190692
#
# Coordination Sequence:
#
# PCOD9018343 Si02
#       6
#     2   2   2   2   2   2
#     4  11  24  42  70 103 144 192 256 318 382 460
#     4  10  21  43  69  99 144 182 249 302 396 447
#     4  10  23  41  66  99 144 196 251 313 378 453
#     4  12  26  44  71 105 154 209 264 320 382 457
#     4  11  22  44  75 105 146 193 248 320 397 476
#     4  10  23  41  71 102 137 196 243 318 387 464
#
# _framework density 27.620190999999998
#
# number of rings (size 3 to 8) (size 9 to 14) (size 15 to 20)
#    0.000    1.333    3.333    1.500    4.667    3.333 
#    0.000    1.667    0.000    0.000    0.000    0.000 
#    0.000    0.000    0.000    0.000    0.000    0.000 
#
# Total GULP energy -66819.737654 kJ/mol
# GULP energy per Si atom -5568.311471 kJ/mol
# Density = 2.755733 g / cm^3
# Si number density = 27.620191 Si / 1000 Ang^3
#
#
#
# Elastic Constant Matrix: (Units=GPa)
#
#
# Indices 1 2 3 4 5 6 
#
# 1 113.5524 46.5883 53.0209 -15.8897 -7.2830 42.9167
# 2 46.5883 134.3154 53.1173 -16.9120 -11.8250 45.3928
# 3 53.0209 53.1173 133.9417 2.6782 -7.9742 31.9549
# 4 -15.8897 -16.9120 2.6782 69.8334 12.2531 -19.8129
# 5 -7.2830 -11.8250 -7.9742 12.2531 57.1447 -12.3915
# 6 42.9167 45.3928 31.9549 -19.8129 -12.3915 47.2702
#
#
#
# Elastic Compliance Matrix: (Units=1/GPa)
#
#
# Indices 1 2 3 4 5 6 
#
# 1 0.014468 -0.000092 -0.003135 0.000455 -0.001101 -0.011026
# 2 -0.000092 0.011598 -0.002327 0.000215 -0.000020 -0.009396
# 3 -0.003135 -0.002327 0.010405 -0.002588 0.000495 -0.002908
# 4 0.000455 0.000215 -0.002588 0.017165 -0.002263 0.007732
# 5 -0.001101 -0.000020 0.000495 -0.002263 0.018928 0.004697
# 6 -0.011026 -0.009396 -0.002908 0.007732 0.004697 0.046627
#
#
# Mechanical properties :
#
#
# Convention : Reuss Voigt Hill
#
# Bulk Modulus (GPa) = 39.42651 76.36251 57.89451
# Shear Modulus (GPa) = 36.03535 50.12185 43.07860
#
# Velocity S-wave (km/s) = 3.61595 4.26453 3.95356
# Velocity P-wave (km/s) = 5.63373 7.20803 6.46895
#
# Compressibility (1/GPa) = 0.02536364
#
# Stress axis : x y z
#
# Youngs Moduli (GPa) = 69.11603 86.22151 96.11144
#
# Poissons Ratio (x) = 0.00793 0.30130
# Poissons Ratio (y) = 0.00635 0.22364
# Poissons Ratio (z) = 0.21667 0.20062
#
# Static dielectric constant tensor:
#      x y z
#    x 2.382740 -0.067410 0.002490 
#    y -0.067410 2.396190 -0.022470 
#    z 0.002490 -0.022470 2.228920 
# 
# From -- ./inp_files/4376.got.cif
#   From: 2010.05.17/outbox.cif.g08.bks.cpg/sg2_3_cif.got.tgz:4376.got - 2010.06.03 11:33:40.
