data_PCOD9018642
_publ_section_title
;
Structure prediction by ZEFSAII (Michael W. Deem and Ramdas Pophale) SiO2 
 PCOD9018642
Probable space group: P -1
;
_chemical_formula_sum "Si O2"
_cell_formula_units_Z 11
_cell_length_a 12.924609
_cell_length_b 9.444448
_cell_length_c 9.382410
_cell_angle_alpha 39.278917
_cell_angle_beta 34.248130
_cell_angle_gamma 48.279396
_cell_volume 406.993351
_symmetry_space_group_name_H-M "P -1"
_symmetry_group_IT_number 2
_symmetry_cell_setting 'triclinic'
loop_
_space_group_symop_operation_xyz
x,y,z
-x,-y,-z
loop_
_atom_site_type_symbol
_atom_site_label
_atom_site_fract_x
_atom_site_fract_y
_atom_site_fract_z
Si Si1 0.939648 0.117936 0.693084
Si Si2 0.677124 0.023430 0.561795
Si Si3 0.673937 0.535923 0.674593
Si Si4 0.852150 0.692356 0.963527
Si Si5 0.478150 0.678071 0.243198
Si Si6 0.500000 0.000000 0.500000
O O1 0.820441 0.335702 0.717588
O O2 0.048350 0.211612 0.362689
O O3 0.828393 0.910949 0.924015
O O4 0.106287 0.020061 0.676704
O O5 0.648809 0.168676 0.625799
O O6 0.574294 0.122920 0.462631
O O7 0.568750 0.812522 0.904189
O O8 0.648119 0.473449 0.587428
O O9 0.674235 0.803318 0.475050
O O10 0.500000 0.500000 0.000000
O O11 0.658740 0.612044 0.185296
O O12 0.000000 0.500000 0.000000
#
# Coordination Sequence:
#
# PCOD9018642 Si02
#       6
#     2   2   2   2   2   1
#     4  10  23  43  66  97 139 172 220 278 342 386
#     4  10  22  45  71 101 129 178 221 281 334 406
#     4  12  26  46  66  98 139 182 221 282 332 398
#     4  10  22  39  70 107 128 170 227 282 325 405
#     4  10  21  43  73  93 139 174 220 275 346 389
#     4  12  28  42  70 102 132 178 236 266 342 398
#
# _framework density 27.027467999999999
#
# number of rings (size 3 to 8) (size 9 to 14) (size 15 to 20)
#    0.000    1.455    1.818    4.364    5.091    1.455 
#    0.000    0.909    0.000    0.000    0.000    0.000 
#    0.000    0.000    0.000    0.000    0.000    0.000 
#
# Total GULP energy -61272.442678 kJ/mol
# GULP energy per Si atom -5570.222062 kJ/mol
# Density = 2.696595 g / cm^3
# Si number density = 27.027468 Si / 1000 Ang^3
#
#
#
# Elastic Constant Matrix: (Units=GPa)
#
#
# Indices 1 2 3 4 5 6 
#
# 1 161.9238 28.2916 12.2750 13.7596 -12.1909 -15.2838
# 2 28.2916 169.5958 17.8134 24.4568 -36.4689 -14.8557
# 3 12.2750 17.8134 52.3219 26.3606 -10.9149 -9.8590
# 4 13.7596 24.4568 26.3606 42.6900 -3.0563 -7.6378
# 5 -12.1909 -36.4689 -10.9149 -3.0563 42.5781 7.5649
# 6 -15.2838 -14.8557 -9.8590 -7.6378 7.5649 56.6314
#
#
#
# Elastic Compliance Matrix: (Units=1/GPa)
#
#
# Indices 1 2 3 4 5 6 
#
# 1 0.006603 -0.000543 -0.000207 -0.001386 0.001046 0.001277
# 2 -0.000543 0.007983 0.001190 -0.004545 0.006542 0.000668
# 3 -0.000207 0.001190 0.029700 -0.018091 0.006908 0.002064
# 4 -0.001386 -0.004545 -0.018091 0.037397 -0.006454 0.001190
# 5 0.001046 0.006542 0.006908 -0.006454 0.031019 -0.001813
# 6 0.001277 0.000668 0.002064 0.001190 -0.001813 0.018940
#
#
# Mechanical properties :
#
#
# Convention : Reuss Voigt Hill
#
# Bulk Modulus (GPa) = 22.14052 55.62240 38.88146
# Shear Modulus (GPa) = 34.28931 50.07734 42.18333
#
# Velocity S-wave (km/s) = 3.56572 4.30912 3.95493
# Velocity P-wave (km/s) = 5.01619 6.73667 5.93906
#
# Compressibility (1/GPa) = 0.04516605
#
# Stress axis : x y z
#
# Youngs Moduli (GPa) = 151.43706 125.27153 33.66954
#
# Poissons Ratio (x) = 0.06804 0.00698
# Poissons Ratio (y) = 0.08226 -0.04007
# Poissons Ratio (z) = 0.03138 -0.14909
#
# Static dielectric constant tensor:
#      x y z
#    x 1.923900 -0.118750 -0.097350 
#    y -0.118750 2.197510 -0.139660 
#    z -0.097350 -0.139660 2.200240 
# 
# From -- ./inp_files/204955.got.cif
#   From: 2010.05.17/outbox.cif.g08.bks.cpg/sg2_103_cif.got.tgz:204955.got - 2010.06.03 11:33:40.
