data_PCOD9018862
_publ_section_title
;
Structure prediction by ZEFSAII (Michael W. Deem and Ramdas Pophale) SiO2 
 PCOD9018862
Probable space group: P -1
;
_chemical_formula_sum "Si O2"
_cell_formula_units_Z 16
_cell_length_a 15.393259
_cell_length_b 12.925039
_cell_length_c 9.243176
_cell_angle_alpha 32.507142
_cell_angle_beta 131.273914
_cell_angle_gamma 128.463604
_cell_volume 732.869090
_symmetry_space_group_name_H-M "P -1"
_symmetry_group_IT_number 2
_symmetry_cell_setting 'triclinic'
loop_
_space_group_symop_operation_xyz
x,y,z
-x,-y,-z
loop_
_atom_site_type_symbol
_atom_site_label
_atom_site_fract_x
_atom_site_fract_y
_atom_site_fract_z
Si Si1 0.011226 0.215355 0.455604
Si Si2 0.335026 0.495875 0.708071
Si Si3 0.165608 0.504821 0.095092
Si Si4 0.469535 0.177945 0.350878
Si Si5 0.398373 0.681750 0.249824
Si Si6 0.373728 0.114319 0.648927
Si Si7 0.077756 0.364845 0.661504
Si Si8 0.117580 0.190365 0.199226
O O1 0.127945 0.335289 0.371917
O O2 0.017916 0.251782 0.591055
O O3 0.982940 0.987207 0.660853
O O4 0.904295 0.318142 0.157960
O O5 0.414367 0.659655 0.698336
O O6 0.365478 0.558356 0.503773
O O7 0.199112 0.491092 0.593566
O O8 0.374543 0.290641 0.036115
O O9 0.303416 0.583604 0.144720
O O10 0.109505 0.397794 0.016706
O O11 0.427695 0.118494 0.539499
O O12 0.500000 0.000000 0.500000
O O13 0.539958 0.725639 0.349522
O O14 0.372758 0.904077 0.967946
O O15 0.242625 0.151067 0.439852
O O16 0.000000 0.500000 0.500000
O O17 0.113675 0.214800 0.995341
#
# Coordination Sequence:
#
# PCOD9018862 Si02
#       8
#     2   2   2   2   2   2   2   2
#     4  11  24  44  62  92 135 172 223 279 328 393
#     4  10  22  44  66  93 136 171 225 281 330 403
#     4  11  23  42  68  90 129 179 220 271 339 398
#     4  10  22  43  69  96 128 178 222 277 343 397
#     4  10  21  44  65  95 133 173 212 282 335 392
#     4  10  22  42  68  98 137 166 220 285 335 397
#     4  12  24  44  68  98 134 183 226 275 342 396
#     4  12  24  42  67  98 129 175 227 279 334 399
#
# _framework density 21.832001999999999
#
# number of rings (size 3 to 8) (size 9 to 14) (size 15 to 20)
#    0.000    1.250    5.000    0.750    0.000    2.500 
#   11.250    0.000    0.000    0.000    0.000    0.000 
#    0.000    0.000    0.000    0.000    0.000    0.000 
#
# Total GULP energy -89328.969993 kJ/mol
# GULP energy per Si atom -5583.060625 kJ/mol
# Density = 2.178231 g / cm^3
# Si number density = 21.832002 Si / 1000 Ang^3
#
#
#
# Elastic Constant Matrix: (Units=GPa)
#
#
# Indices 1 2 3 4 5 6 
#
# 1 45.6396 23.3710 7.3754 -1.9416 7.4123 7.4245
# 2 23.3710 113.5762 21.0953 -7.8699 -4.6343 14.0024
# 3 7.3754 21.0953 80.7713 8.2286 -5.1622 5.2475
# 4 -1.9416 -7.8699 8.2286 31.8911 -3.5855 -2.6659
# 5 7.4123 -4.6343 -5.1622 -3.5855 33.8237 4.6251
# 6 7.4245 14.0024 5.2475 -2.6659 4.6251 34.1662
#
#
#
# Elastic Compliance Matrix: (Units=1/GPa)
#
#
# Indices 1 2 3 4 5 6 
#
# 1 0.026160 -0.005108 -0.001264 -0.000265 -0.006303 -0.002565
# 2 -0.005108 0.011022 -0.002322 0.003081 0.003042 -0.003222
# 3 -0.001264 -0.002322 0.013732 -0.004110 0.001817 -0.001449
# 4 -0.000265 0.003081 -0.004110 0.033656 0.003199 0.001619
# 5 -0.006303 0.003042 0.001817 0.003199 0.032570 -0.004316
# 6 -0.002565 -0.003222 -0.001449 0.001619 -0.004316 0.032080
#
#
# Mechanical properties :
#
#
# Convention : Reuss Voigt Hill
#
# Bulk Modulus (GPa) = 29.82789 38.18560 34.00674
# Shear Modulus (GPa) = 28.12427 32.51923 30.32175
#
# Velocity S-wave (km/s) = 3.59306 3.86362 3.73079
# Velocity P-wave (km/s) = 5.55928 6.11817 5.84541
#
# Compressibility (1/GPa) = 0.03352567
#
# Stress axis : x y z
#
# Youngs Moduli (GPa) = 38.22610 90.72883 72.82486
#
# Poissons Ratio (x) = 0.46341 0.09205
# Poissons Ratio (y) = 0.19524 0.16912
# Poissons Ratio (z) = 0.04832 0.21070
#
# Static dielectric constant tensor:
#      x y z
#    x 1.814590 -0.011780 0.009680 
#    y -0.011780 1.817760 0.013960 
#    z 0.009680 0.013960 1.802330 
# 
# From -- ./inp_files/332656.got.cif
#   From: 2010.05.17/outbox.cif.g08.bks.cpg/sg2_167_cif.got.tgz:332656.got - 2010.06.03 11:33:40.
