data_PCOD9018489
_publ_section_title
;
Structure prediction by ZEFSAII (Michael W. Deem and Ramdas Pophale) SiO2 
 PCOD9018489
Probable space group: P -1
;
_chemical_formula_sum "Si O2"
_cell_formula_units_Z 16
_cell_length_a 9.745565
_cell_length_b 12.533102
_cell_length_c 28.971265
_cell_angle_alpha 27.683797
_cell_angle_beta 23.631649
_cell_angle_gamma 35.580343
_cell_volume 658.970551
_symmetry_space_group_name_H-M "P -1"
_symmetry_group_IT_number 2
_symmetry_cell_setting 'triclinic'
loop_
_space_group_symop_operation_xyz
x,y,z
-x,-y,-z
loop_
_atom_site_type_symbol
_atom_site_label
_atom_site_fract_x
_atom_site_fract_y
_atom_site_fract_z
Si Si1 0.946654 0.806797 0.628238
Si Si2 0.801118 0.903293 0.975809
Si Si3 0.646986 0.521887 0.323047
Si Si4 0.081998 0.863851 0.404115
Si Si5 0.779981 0.173605 0.969823
Si Si6 0.354417 0.559479 0.299485
Si Si7 0.271026 0.706037 0.834444
Si Si8 0.014191 0.022220 0.265240
O O1 0.652690 0.650143 0.755371
O O2 0.304600 0.678464 0.578465
O O3 0.855832 0.941607 0.651976
O O4 0.000000 0.000000 0.500000
O O5 0.655512 0.669951 0.133786
O O6 0.127178 0.872028 0.855411
O O7 0.500000 0.000000 0.000000
O O8 0.852748 0.085503 0.929977
O O9 0.425958 0.733448 0.330208
O O10 0.492737 0.474200 0.339093
O O11 0.042884 0.587137 0.167672
O O12 0.855842 0.652874 0.573777
O O13 0.911779 0.970910 0.369019
O O14 0.376486 0.154924 0.107796
O O15 0.000000 0.000000 0.000000
O O16 0.114518 0.779539 0.302667
O O17 0.224634 0.832847 0.751093
O O18 0.000000 0.500000 0.000000
#
# Coordination Sequence:
#
# PCOD9018489 Si02
#       8
#     2   2   2   2   2   2   2   2
#     4  12  32  47  67 110 146 184 240 293 351 426
#     4  11  22  40  71 103 133 181 235 284 353 413
#     4  11  23  45  73 103 143 184 236 293 349 423
#     4  11  25  47  76 100 140 192 234 290 360 415
#     4  11  18  38  70 106 135 173 236 292 342 413
#     4  10  22  40  76 107 131 190 240 286 349 430
#     4  12  27  47  67 103 148 184 229 299 357 416
#     4  10  21  43  71 103 137 182 236 288 351 429
#
# _framework density 24.280297999999998
#
# number of rings (size 3 to 8) (size 9 to 14) (size 15 to 20)
#    0.000    1.000    6.250    3.000    5.250    2.000 
#    0.000    1.875    0.000    0.000    0.000    0.000 
#    0.000    0.000    0.000    0.000    0.000    0.000 
#
# Total GULP energy -89502.880398 kJ/mol
# GULP energy per Si atom -5593.930025 kJ/mol
# Density = 2.422503 g / cm^3
# Si number density = 24.280298 Si / 1000 Ang^3
#
#
#
# Elastic Constant Matrix: (Units=GPa)
#
#
# Indices 1 2 3 4 5 6 
#
# 1 161.7811 46.4710 26.2521 -10.0713 10.8691 -22.8172
# 2 46.4710 73.6764 11.9742 -1.6917 5.5192 -10.2268
# 3 26.2521 11.9742 91.9833 -8.9466 -14.7513 -2.3712
# 4 -10.0713 -1.6917 -8.9466 34.2657 1.7165 2.6516
# 5 10.8691 5.5192 -14.7513 1.7165 52.7874 -5.6773
# 6 -22.8172 -10.2268 -2.3712 2.6516 -5.6773 41.0650
#
#
#
# Elastic Compliance Matrix: (Units=1/GPa)
#
#
# Indices 1 2 3 4 5 6 
#
# 1 0.008387 -0.004409 -0.001821 0.001603 -0.001488 0.003148
# 2 -0.004409 0.016811 -0.001125 -0.000834 -0.000966 0.001592
# 3 -0.001821 -0.001125 0.012390 0.002467 0.003853 -0.000203
# 4 0.001603 -0.000834 0.002467 0.030387 -0.000674 -0.001230
# 5 -0.001488 -0.000966 0.003853 -0.000674 0.020671 0.002056
# 6 0.003148 0.001592 -0.000203 -0.001230 0.002056 0.026849
#
#
# Mechanical properties :
#
#
# Convention : Reuss Voigt Hill
#
# Bulk Modulus (GPa) = 43.71099 55.20392 49.45745
# Shear Modulus (GPa) = 36.27625 41.80653 39.04139
#
# Velocity S-wave (km/s) = 3.86950 4.15399 4.01427
# Velocity P-wave (km/s) = 6.16488 6.76705 6.47298
#
# Compressibility (1/GPa) = 0.02287754
#
# Stress axis : x y z
#
# Youngs Moduli (GPa) = 119.23428 59.48583 80.70740
#
# Poissons Ratio (x) = 0.26226 0.14700
# Poissons Ratio (y) = 0.52567 0.09081
# Poissons Ratio (z) = 0.21717 0.06693
#
# Static dielectric constant tensor:
#      x y z
#    x 1.905610 -0.017350 0.024800 
#    y -0.017350 1.962130 -0.042530 
#    z 0.024800 -0.042530 2.039080 
# 
# From -- ./inp_files/617028.got.cif
#   From: 2010.05.17/outbox.cif.g08.bks.cpg/sg2_309_cif.got.tgz:617028.got - 2010.06.03 11:33:40.
