data_PCOD9018732
_publ_section_title
;
Structure prediction by ZEFSAII (Michael W. Deem and Ramdas Pophale) SiO2 
 PCOD9018732
Probable space group: P -1
;
_chemical_formula_sum "Si O2"
_cell_formula_units_Z 16
_cell_length_a 22.477964
_cell_length_b 5.311242
_cell_length_c 5.882937
_cell_angle_alpha 105.244444
_cell_angle_beta 100.701719
_cell_angle_gamma 62.356290
_cell_volume 598.605716
_symmetry_space_group_name_H-M "P -1"
_symmetry_group_IT_number 2
_symmetry_cell_setting 'triclinic'
loop_
_space_group_symop_operation_xyz
x,y,z
-x,-y,-z
loop_
_atom_site_type_symbol
_atom_site_label
_atom_site_fract_x
_atom_site_fract_y
_atom_site_fract_z
Si Si1 0.657458 0.510811 0.398217
Si Si2 0.407142 0.511329 0.260111
Si Si3 0.443130 0.939855 0.715790
Si Si4 0.204110 0.639932 0.678695
Si Si5 0.330373 0.979161 0.950285
Si Si6 0.813151 0.575178 0.892460
Si Si7 0.941844 0.369837 0.704344
Si Si8 0.917716 0.824274 0.395471
O O1 0.649352 0.561230 0.673110
O O2 0.714615 0.542254 0.300662
O O3 0.581094 0.744824 0.340846
O O4 0.686532 0.165142 0.316558
O O5 0.423895 0.738000 0.482414
O O6 0.479628 0.244942 0.214609
O O7 0.370811 0.691023 0.059850
O O8 0.393190 0.025314 0.914229
O O9 0.193889 0.536125 0.394080
O O10 0.158746 0.986303 0.697753
O O11 0.181443 0.586788 0.900227
O O12 0.260322 0.158997 0.066152
O O13 0.887463 0.554045 0.898653
O O14 0.922392 0.568558 0.507245
O O15 0.020531 0.287051 0.764879
O O16 0.935381 0.066179 0.598982
#
# Coordination Sequence:
#
# PCOD9018732 Si02
#       8
#     2   2   2   2   2   2   2   2
#     4  11  24  38  63  94 128 171 226 280 342 413
#     4  10  23  38  66  88 124 175 218 284 344 416
#     4  10  21  44  58  90 129 166 224 280 346 412
#     4  11  25  44  70 100 138 184 228 289 350 418
#     4  11  24  38  63  93 126 174 224 280 344 413
#     4  11  25  44  70  99 139 183 229 287 351 420
#     4   9  20  41  70 104 143 187 237 292 352 420
#     4   9  20  41  70 104 143 187 237 292 352 420
#
# _framework density 26.728777999999998
#
# number of rings (size 3 to 8) (size 9 to 14) (size 15 to 20)
#    0.000    1.750    1.250    1.500    5.250    4.000 
#    0.000    0.000    0.000   14.250    0.000    0.000 
#    0.000    0.000    0.000    0.000    0.000    0.000 
#
# Total GULP energy -89070.967307 kJ/mol
# GULP energy per Si atom -5566.935457 kJ/mol
# Density = 2.666794 g / cm^3
# Si number density = 26.728778 Si / 1000 Ang^3
#
#
#
# Elastic Constant Matrix: (Units=GPa)
#
#
# Indices 1 2 3 4 5 6 
#
# 1 125.6206 39.5651 36.6854 17.1782 -18.4532 -39.8098
# 2 39.5651 116.3379 19.7236 17.1888 -4.7322 -28.7101
# 3 36.6854 19.7236 99.3196 36.1240 -25.5390 -7.4690
# 4 17.1782 17.1888 36.1240 59.6298 -5.4815 -14.6644
# 5 -18.4532 -4.7322 -25.5390 -5.4815 49.6590 4.0814
# 6 -39.8098 -28.7101 -7.4690 -14.6644 4.0814 50.4610
#
#
#
# Elastic Compliance Matrix: (Units=1/GPa)
#
#
# Indices 1 2 3 4 5 6 
#
# 1 0.012314 -0.001603 -0.003555 0.001347 0.002045 0.008503
# 2 -0.001603 0.010491 -0.000954 -0.000971 -0.000549 0.004326
# 3 -0.003555 -0.000954 0.016093 -0.008874 0.006218 -0.004047
# 4 0.001347 -0.000971 -0.008874 0.023360 -0.002083 0.006154
# 5 0.002045 -0.000549 0.006218 -0.002083 0.023838 -0.000312
# 6 0.008503 0.004326 -0.004047 0.006154 -0.000312 0.030201
#
#
# Mechanical properties :
#
#
# Convention : Reuss Voigt Hill
#
# Bulk Modulus (GPa) = 37.48845 59.24736 48.36791
# Shear Modulus (GPa) = 36.38678 48.30355 42.34517
#
# Velocity S-wave (km/s) = 3.69363 4.25570 3.98459
# Velocity P-wave (km/s) = 5.67860 6.80898 6.26932
#
# Compressibility (1/GPa) = 0.02667488
#
# Stress axis : x y z
#
# Youngs Moduli (GPa) = 81.20695 95.31907 62.13864
#
# Poissons Ratio (x) = 0.15277 0.22090
# Poissons Ratio (y) = 0.13015 0.05929
# Poissons Ratio (z) = 0.28868 0.09095
#
# Static dielectric constant tensor:
#      x y z
#    x 2.303220 0.138610 0.054540 
#    y 0.138610 2.112930 -0.009570 
#    z 0.054540 -0.009570 2.219220 
# 
# From -- ./inp_files/11136.got.cif
#   From: 2010.05.17/outbox.cif.g08.bks.cpg/sg2_6_cif.got.tgz:11136.got - 2010.06.03 11:33:40.
