data_PCOD9018491
_publ_section_title
;
Structure prediction by ZEFSAII (Michael W. Deem and Ramdas Pophale) SiO2 
 PCOD9018491
Probable space group: P -1
;
_chemical_formula_sum "Si O2"
_cell_formula_units_Z 14
_cell_length_a 8.774882
_cell_length_b 7.709084
_cell_length_c 14.974318
_cell_angle_alpha 134.178630
_cell_angle_beta 74.949586
_cell_angle_gamma 74.283092
_cell_volume 531.669755
_symmetry_space_group_name_H-M "P -1"
_symmetry_group_IT_number 2
_symmetry_cell_setting 'triclinic'
loop_
_space_group_symop_operation_xyz
x,y,z
-x,-y,-z
loop_
_atom_site_type_symbol
_atom_site_label
_atom_site_fract_x
_atom_site_fract_y
_atom_site_fract_z
Si Si1 0.674427 0.494799 0.267371
Si Si2 0.707902 0.753707 0.795462
Si Si3 0.958722 0.102248 0.438546
Si Si4 0.400809 0.828631 0.584700
Si Si5 0.356707 0.278319 0.903233
Si Si6 0.895413 0.763074 0.946884
Si Si7 0.581814 0.420504 0.812710
O O1 0.587896 0.705077 0.443721
O O2 0.472794 0.678082 0.302079
O O3 0.860482 0.440147 0.169330
O O4 0.771960 0.125122 0.131032
O O5 0.832788 0.784823 0.860351
O O6 0.603767 0.657972 0.844208
O O7 0.849332 0.470456 0.600208
O O8 0.538328 0.053574 0.868052
O O9 0.802063 0.076110 0.402558
O O10 0.194446 0.863785 0.280631
O O11 0.000000 0.000000 0.500000
O O12 0.500000 0.500000 0.500000
O O13 0.369607 0.064319 0.747662
O O14 0.399427 0.497644 0.932229
O O15 0.158974 0.401166 0.037307
#
# Coordination Sequence:
#
# PCOD9018491 Si02
#       7
#     2   2   2   2   2   2   2
#     4  11  24  47  70 105 138 193 233 285 364 421
#     4  11  23  48  68 101 149 183 229 300 351 424
#     4  10  21  43  71 103 139 185 229 293 357 407
#     4  12  21  44  75 103 145 178 241 301 337 423
#     4  12  26  43  74 108 135 190 239 289 355 418
#     4  11  25  46  74  96 148 193 228 289 363 420
#     4  11  25  44  71 106 139 180 246 285 355 421
#
# _framework density 26.332135000000001
#
# number of rings (size 3 to 8) (size 9 to 14) (size 15 to 20)
#    0.000    0.857    7.143    0.429    2.000    5.714 
#    0.000    0.000    0.000    0.000    0.000    0.000 
#    0.000    0.000    0.000    0.000    0.000    0.000 
#
# Total GULP energy -78264.730407 kJ/mol
# GULP energy per Si atom -5590.337886 kJ/mol
# Density = 2.627220 g / cm^3
# Si number density = 26.332135 Si / 1000 Ang^3
#
#
#
# Elastic Constant Matrix: (Units=GPa)
#
#
# Indices 1 2 3 4 5 6 
#
# 1 154.3398 56.8668 77.5048 -1.5886 -4.8047 -10.1443
# 2 56.8668 119.8388 26.3168 -6.1039 -0.9092 13.2509
# 3 77.5048 26.3168 137.4605 -23.1994 7.5864 -0.0949
# 4 -1.5886 -6.1039 -23.1994 29.5493 -2.2231 0.5572
# 5 -4.8047 -0.9092 7.5864 -2.2231 60.5321 -11.6122
# 6 -10.1443 13.2509 -0.0949 0.5572 -11.6122 50.9246
#
#
#
# Elastic Compliance Matrix: (Units=1/GPa)
#
#
# Indices 1 2 3 4 5 6 
#
# 1 0.012108 -0.004964 -0.006976 -0.005753 0.002373 0.004295
# 2 -0.004964 0.011027 0.001248 0.002988 -0.001068 -0.004132
# 3 -0.006976 0.001248 0.012737 0.009759 -0.002214 -0.002302
# 4 -0.005753 0.002988 0.009759 0.041815 -0.000578 -0.002495
# 5 0.002373 -0.001068 -0.002214 -0.000578 0.017875 0.004829
# 6 0.004295 -0.004132 -0.002302 -0.002495 0.004829 0.022692
#
#
# Mechanical properties :
#
#
# Convention : Reuss Voigt Hill
#
# Bulk Modulus (GPa) = 69.01803 81.44620 75.23211
# Shear Modulus (GPa) = 34.61033 44.93126 39.77079
#
# Velocity S-wave (km/s) = 3.62937 4.13525 3.89054
# Velocity P-wave (km/s) = 6.62046 7.33471 6.98672
#
# Compressibility (1/GPa) = 0.01448897
#
# Stress axis : x y z
#
# Youngs Moduli (GPa) = 82.59056 90.68792 78.51345
#
# Poissons Ratio (x) = 0.45014 0.54768
# Poissons Ratio (y) = 0.40995 -0.09798
# Poissons Ratio (z) = 0.57612 -0.11317
#
# Static dielectric constant tensor:
#      x y z
#    x 2.079290 0.031400 -0.009910 
#    y 0.031400 2.158300 0.077940 
#    z -0.009910 0.077940 2.165420 
# 
# From -- ./inp_files/495701.got.cif
#   From: 2010.05.17/outbox.cif.g08.bks.cpg/sg2_248_cif.got.tgz:495701.got - 2010.06.03 11:33:40.
