data_PCOD9018839
_publ_section_title
;
Structure prediction by ZEFSAII (Michael W. Deem and Ramdas Pophale) SiO2 
 PCOD9018839
Probable space group: P -1
;
_chemical_formula_sum "Si O2"
_cell_formula_units_Z 14
_cell_length_a 19.125585
_cell_length_b 12.672977
_cell_length_c 6.258154
_cell_angle_alpha 49.635380
_cell_angle_beta 40.851520
_cell_angle_gamma 37.891049
_cell_volume 604.476831
_symmetry_space_group_name_H-M "P -1"
_symmetry_group_IT_number 2
_symmetry_cell_setting 'triclinic'
loop_
_space_group_symop_operation_xyz
x,y,z
-x,-y,-z
loop_
_atom_site_type_symbol
_atom_site_label
_atom_site_fract_x
_atom_site_fract_y
_atom_site_fract_z
Si Si1 0.306433 0.332090 0.991739
Si Si2 0.495177 0.867454 0.836490
Si Si3 0.212760 0.163262 0.130721
Si Si4 0.065822 0.676428 0.201171
Si Si5 0.612774 0.526492 0.731598
Si Si6 0.917072 0.861389 0.910202
Si Si7 0.139622 0.822237 0.164979
O O1 0.354921 0.432340 0.627477
O O2 0.418166 0.183305 0.083166
O O3 0.264421 0.263294 0.987665
O O4 0.177691 0.474149 0.243230
O O5 0.556237 0.691852 0.796384
O O6 0.500000 0.000000 0.500000
O O7 0.339570 0.963515 0.127906
O O8 0.175847 0.174364 0.951539
O O9 0.073441 0.244593 0.464499
O O10 0.122907 0.778996 0.019370
O O11 0.028789 0.703540 0.003413
O O12 0.742115 0.355512 0.764283
O O13 0.500000 0.500000 0.000000
O O14 0.999089 0.885964 0.514304
O O15 0.843653 0.029238 0.013679
#
# Coordination Sequence:
#
# PCOD9018839 Si02
#       7
#     2   2   2   2   2   2   2
#     4  12  26  48  73 107 149 188 243 301 364 429
#     4  12  27  49  74 102 150 196 238 302 360 433
#     4  11  26  42  71 108 137 189 238 291 364 428
#     4  11  23  43  73 108 142 187 235 305 362 429
#     4  12  26  46  75 102 148 195 244 295 362 432
#     4  10  22  41  72 100 147 181 239 295 362 420
#     4  10  21  44  65 105 140 189 236 297 355 423
#
# _framework density 23.160526999999998
#
# number of rings (size 3 to 8) (size 9 to 14) (size 15 to 20)
#    0.000    0.857    4.286    2.143    2.000    2.286 
#    2.571    0.000    0.000    0.000    0.000    0.000 
#    0.000    0.000    0.000    0.000    0.000    0.000 
#
# Total GULP energy -78254.109555 kJ/mol
# GULP energy per Si atom -5589.579254 kJ/mol
# Density = 2.310781 g / cm^3
# Si number density = 23.160527 Si / 1000 Ang^3
#
#
#
# Elastic Constant Matrix: (Units=GPa)
#
#
# Indices 1 2 3 4 5 6 
#
# 1 197.1715 51.7863 37.8670 -11.3068 5.0467 -2.6636
# 2 51.7863 130.3458 23.2514 17.1047 -4.9410 -12.3954
# 3 37.8670 23.2514 63.4939 5.9208 -10.4320 -11.1391
# 4 -11.3068 17.1047 5.9208 39.5333 -4.8710 2.7101
# 5 5.0467 -4.9410 -10.4320 -4.8710 18.5886 -3.8231
# 6 -2.6636 -12.3954 -11.1391 2.7101 -3.8231 41.1714
#
#
#
# Elastic Compliance Matrix: (Units=1/GPa)
#
#
# Indices 1 2 3 4 5 6 
#
# 1 0.006999 -0.002809 -0.004675 0.003482 -0.004839 -0.002336
# 2 -0.002809 0.009930 -0.000529 -0.004937 0.002474 0.003219
# 3 -0.004675 -0.000529 0.022683 -0.003214 0.014504 0.007234
# 4 0.003482 -0.004937 -0.003214 0.029525 0.002893 -0.003805
# 5 -0.004839 0.002474 0.014504 0.002893 0.066798 0.010368
# 6 -0.002336 0.003219 0.007234 -0.003805 0.010368 0.028277
#
#
# Mechanical properties :
#
#
# Convention : Reuss Voigt Hill
#
# Bulk Modulus (GPa) = 42.39954 68.53560 55.46757
# Shear Modulus (GPa) = 26.58118 38.39911 32.49014
#
# Velocity S-wave (km/s) = 3.39144 4.07622 3.74949
# Velocity P-wave (km/s) = 5.80365 7.19791 6.53805
#
# Compressibility (1/GPa) = 0.02358516
#
# Stress axis : x y z
#
# Youngs Moduli (GPa) = 142.86925 100.70272 44.08510
#
# Poissons Ratio (x) = 0.28291 0.20610
# Poissons Ratio (y) = 0.40137 0.02334
# Poissons Ratio (z) = 0.66794 0.05331
#
# Static dielectric constant tensor:
#      x y z
#    x 1.876230 0.031900 0.020480 
#    y 0.031900 1.872230 0.015660 
#    z 0.020480 0.015660 1.904280 
# 
# From -- ./inp_files/78705.got.cif
#   From: 2010.05.17/outbox.cif.g08.bks.cpg/sg2_40_cif.got.tgz:78705.got - 2010.06.03 11:33:40.
