data_PCOD9018618
_publ_section_title
;
Structure prediction by ZEFSAII (Michael W. Deem and Ramdas Pophale) SiO2 
 PCOD9018618
Probable space group: P -1
;
_chemical_formula_sum "Si O2"
_cell_formula_units_Z 16
_cell_length_a 19.038122
_cell_length_b 13.899042
_cell_length_c 5.025227
_cell_angle_alpha 87.744521
_cell_angle_beta 82.065259
_cell_angle_gamma 148.449824
_cell_volume 656.733071
_symmetry_space_group_name_H-M "P -1"
_symmetry_group_IT_number 2
_symmetry_cell_setting 'triclinic'
loop_
_space_group_symop_operation_xyz
x,y,z
-x,-y,-z
loop_
_atom_site_type_symbol
_atom_site_label
_atom_site_fract_x
_atom_site_fract_y
_atom_site_fract_z
Si Si1 0.358997 0.053141 0.644401
Si Si2 0.013214 0.354061 0.464170
Si Si3 0.636842 0.639988 0.598610
Si Si4 0.827900 0.572297 0.030364
Si Si5 0.336241 0.558125 0.355777
Si Si6 0.045315 0.991412 0.731960
Si Si7 0.129580 0.640485 0.715200
Si Si8 0.731928 0.932076 0.812117
O O1 0.520386 0.231550 0.622113
O O2 0.343580 0.088299 0.365486
O O3 0.275876 0.854289 0.728197
O O4 0.291627 0.049302 0.890587
O O5 0.098463 0.435441 0.138180
O O6 0.125288 0.531376 0.593304
O O7 0.906435 0.318412 0.486525
O O8 0.903092 0.142073 0.645977
O O9 0.500000 0.500000 0.500000
O O10 0.643957 0.534395 0.670770
O O11 0.658101 0.740928 0.820935
O O12 0.788486 0.835886 0.355149
O O13 0.695903 0.437917 0.917847
O O14 0.947354 0.785141 0.839037
O O15 0.784802 0.553979 0.352766
O O16 0.000000 0.000000 0.500000
O O17 0.000000 0.000000 0.000000
O O18 0.000000 0.500000 0.000000
#
# Coordination Sequence:
#
# PCOD9018618 Si02
#       8
#     2   2   2   2   2   2   2   2
#     4  11  24  43  65  98 135 171 221 280 351 399
#     4  10  23  41  69 105 127 168 227 284 343 411
#     4  12  25  44  68 106 143 184 238 289 344 398
#     4  12  25  45  67  96 136 187 231 271 342 423
#     4  12  27  44  65  96 143 188 223 280 337 413
#     4  12  24  45  67  95 137 188 237 280 339 415
#     4  10  21  43  73 100 130 164 221 298 353 402
#     4  11  23  39  68  98 131 173 220 282 338 399
#
# _framework density 24.363016999999999
#
# number of rings (size 3 to 8) (size 9 to 14) (size 15 to 20)
#    0.000    0.750    6.250    0.750    1.750    2.500 
#    0.000    1.250    0.000    0.000    0.000    0.000 
#    0.000    0.000    0.000    0.000    0.000    0.000 
#
# Total GULP energy -89413.045670 kJ/mol
# GULP energy per Si atom -5588.315354 kJ/mol
# Density = 2.430757 g / cm^3
# Si number density = 24.363017 Si / 1000 Ang^3
#
#
#
# Elastic Constant Matrix: (Units=GPa)
#
#
# Indices 1 2 3 4 5 6 
#
# 1 79.4705 23.0270 6.7532 9.1953 -11.4728 1.7576
# 2 23.0270 168.9992 -5.3676 -4.0331 -5.5291 -6.4262
# 3 6.7532 -5.3676 86.4226 14.6286 -4.3622 -5.1482
# 4 9.1953 -4.0331 14.6286 37.1147 3.0965 -10.4305
# 5 -11.4728 -5.5291 -4.3622 3.0965 28.8270 2.5829
# 6 1.7576 -6.4262 -5.1482 -10.4305 2.5829 35.9244
#
#
#
# Elastic Compliance Matrix: (Units=1/GPa)
#
#
# Indices 1 2 3 4 5 6 
#
# 1 0.014774 -0.002057 -0.000275 -0.005165 0.006275 -0.003081
# 2 -0.002057 0.006316 0.000407 0.001506 0.000139 0.001716
# 3 -0.000275 0.000407 0.012597 -0.004974 0.002385 0.000276
# 4 -0.005165 0.001506 -0.004974 0.033781 -0.007055 0.010125
# 5 0.006275 0.000139 0.002385 -0.007055 0.038760 -0.004776
# 6 -0.003081 0.001716 0.000276 0.010125 -0.004776 0.031617
#
#
# Mechanical properties :
#
#
# Convention : Reuss Voigt Hill
#
# Bulk Modulus (GPa) = 33.51410 42.63526 38.07468
# Shear Modulus (GPa) = 32.97284 41.07185 37.02234
#
# Velocity S-wave (km/s) = 3.68285 4.11034 3.90245
# Velocity P-wave (km/s) = 5.64539 6.32965 5.99729
#
# Compressibility (1/GPa) = 0.02983819
#
# Stress axis : x y z
#
# Youngs Moduli (GPa) = 67.68532 158.32465 79.38684
#
# Poissons Ratio (x) = 0.32566 0.02181
# Poissons Ratio (y) = 0.13922 -0.03234
# Poissons Ratio (z) = 0.01860 -0.06449
#
# Static dielectric constant tensor:
#      x y z
#    x 2.032420 0.031070 0.036000 
#    y 0.031070 1.889270 0.027640 
#    z 0.036000 0.027640 1.976170 
# 
# From -- ./inp_files/119462.got.cif
#   From: 2010.05.17/outbox.cif.g08.bks.cpg/sg2_60_cif.got.tgz:119462.got - 2010.06.03 11:33:40.
