data_PCOD9018423
_publ_section_title
;
Structure prediction by ZEFSAII (Michael W. Deem and Ramdas Pophale) SiO2 
 PCOD9018423
Probable space group: P -1
;
_chemical_formula_sum "Si O2"
_cell_formula_units_Z 16
_cell_length_a 15.204770
_cell_length_b 18.510091
_cell_length_c 23.781528
_cell_angle_alpha 21.466189
_cell_angle_beta 19.079367
_cell_angle_gamma 29.834783
_cell_volume 796.569779
_symmetry_space_group_name_H-M "P -1"
_symmetry_group_IT_number 2
_symmetry_cell_setting 'triclinic'
loop_
_space_group_symop_operation_xyz
x,y,z
-x,-y,-z
loop_
_atom_site_type_symbol
_atom_site_label
_atom_site_fract_x
_atom_site_fract_y
_atom_site_fract_z
Si Si1 0.001585 0.110659 0.011235
Si Si2 0.242178 0.544857 0.585284
Si Si3 0.689661 0.477352 0.188782
Si Si4 0.561780 0.449803 0.821716
Si Si5 0.862716 0.851615 0.643256
Si Si6 0.369433 0.784250 0.220549
Si Si7 0.560360 0.939954 0.313053
Si Si8 0.001436 0.222546 0.651885
O O1 0.975038 0.968516 0.184849
O O2 0.064542 0.337302 0.829155
O O3 0.254288 0.062409 0.853526
O O4 0.740956 0.059689 0.165156
O O5 0.500000 0.500000 0.500000
O O6 0.321750 0.649464 0.402103
O O7 0.076720 0.704991 0.600350
O O8 0.645123 0.467427 0.156551
O O9 0.570912 0.672918 0.141193
O O10 0.514792 0.286681 0.458432
O O11 0.000000 0.500000 0.000000
O O12 0.784671 0.343340 0.728870
O O13 0.723498 0.633402 0.621892
O O14 0.392924 0.287705 0.077976
O O15 0.724211 0.974886 0.589643
O O16 0.000000 0.000000 0.500000
O O17 0.110748 0.810504 0.318961
O O18 0.500000 0.000000 0.000000
#
# Coordination Sequence:
#
# PCOD9018423 Si02
#       8
#     2   2   2   2   2   2   2   2
#     4  11  22  44  70 100 134 178 222 274 334 400
#     4  12  28  46  68  97 138 176 226 281 338 399
#     4  11  23  41  68  97 135 171 225 274 326 404
#     4  10  22  40  68 101 126 175 224 272 326 392
#     4  12  27  44  69  98 135 179 229 279 332 403
#     4  11  26  43  65  98 133 181 218 272 340 394
#     4  11  23  41  71 101 134 177 228 271 332 401
#     4  10  21  43  70  95 135 171 222 272 333 399
#
# _framework density 20.086124999999999
#
# number of rings (size 3 to 8) (size 9 to 14) (size 15 to 20)
#    0.000    1.000    3.750    2.250    8.750    0.500 
#    0.000    0.625    0.000    0.000    0.000    0.000 
#    0.000    0.000    0.000    0.000    0.000    0.000 
#
# Total GULP energy -89391.394251 kJ/mol
# GULP energy per Si atom -5586.962141 kJ/mol
# Density = 2.004041 g / cm^3
# Si number density = 20.086125 Si / 1000 Ang^3
#
#
#
# Elastic Constant Matrix: (Units=GPa)
#
#
# Indices 1 2 3 4 5 6 
#
# 1 98.1748 21.8564 -7.8928 -36.0725 -27.8737 -4.1418
# 2 21.8564 83.0382 -8.1632 -24.5181 -33.9669 -3.9581
# 3 -7.8928 -8.1632 20.7972 -54.2453 -28.2983 17.5217
# 4 -36.0725 -24.5181 -54.2453 29.2525 1.6639 5.1011
# 5 -27.8737 -33.9669 -28.2983 1.6639 44.6073 -3.2307
# 6 -4.1418 -3.9581 17.5217 5.1011 -3.2307 24.7868
#
#
#
# Elastic Compliance Matrix: (Units=1/GPa)
#
#
# Indices 1 2 3 4 5 6 
#
# 1 0.010247 -0.003189 -0.005768 -0.001781 0.000798 0.005751
# 2 -0.003189 0.013693 -0.005549 -0.004319 0.005596 0.007195
# 3 -0.005768 -0.005549 -0.000804 -0.012870 -0.007835 0.000346
# 4 -0.001781 -0.004319 -0.012870 0.004220 -0.012316 0.005636
# 5 0.000798 0.005596 -0.007835 -0.012316 0.023548 0.012169
# 6 0.005751 0.007195 0.000346 0.005636 0.012169 0.042636
#
#
# Mechanical properties :
#
#
# Convention : Reuss Voigt Hill
#
# Bulk Modulus (GPa) = -170.15197 23.73454 -73.20871
# Shear Modulus (GPa) = 41.46147 32.80997 37.13572
#
# Velocity S-wave (km/s) = 4.54826 4.04600 4.30446
# Velocity P-wave (km/s) = 7.57053 5.80249 3.43832
#
# Compressibility (1/GPa) = -0.00587710
#
# Stress axis : x y z
#
# Youngs Moduli (GPa) = 97.58908 73.02923 -1243.38428
#
# Poissons Ratio (x) = 0.23292 -7.17170
# Poissons Ratio (y) = 0.31125 -6.89982
# Poissons Ratio (z) = 0.56288 0.40526
#
# Static dielectric constant tensor:
#      x y z
#    x 1.735670 -0.010560 0.032210 
#    y -0.010560 1.708940 -0.007440 
#    z 0.032210 -0.007440 1.677600 
# 
# From -- ./inp_files/223217.got.cif
#   From: 2010.05.17/outbox.cif.g08.bks.cpg/sg2_112_cif.got.tgz:223217.got - 2010.06.03 11:33:40.
