data_PCOD9018058
_publ_section_title
;
Structure prediction by ZEFSAII (Michael W. Deem and Ramdas Pophale) SiO2 
 PCOD9018058
Probable space group: P -1
;
_chemical_formula_sum "Si O2"
_cell_formula_units_Z 15
_cell_length_a 9.799524
_cell_length_b 18.439282
_cell_length_c 9.206856
_cell_angle_alpha 33.819132
_cell_angle_beta 44.489604
_cell_angle_gamma 51.428536
_cell_volume 646.851029
_symmetry_space_group_name_H-M "P -1"
_symmetry_group_IT_number 2
_symmetry_cell_setting 'triclinic'
loop_
_space_group_symop_operation_xyz
x,y,z
-x,-y,-z
loop_
_atom_site_type_symbol
_atom_site_label
_atom_site_fract_x
_atom_site_fract_y
_atom_site_fract_z
Si Si1 0.763793 0.145194 0.408563
Si Si2 0.612445 0.626742 0.228837
Si Si3 0.183025 0.569266 0.058922
Si Si4 0.996487 0.972282 0.308685
Si Si5 0.345491 0.111148 0.742055
Si Si6 0.000000 0.500000 0.000000
Si Si7 0.625905 0.861464 0.641865
Si Si8 0.241141 0.352067 0.607833
O O1 0.870089 0.101206 0.250923
O O2 0.567822 0.067686 0.688675
O O3 0.708360 0.297985 0.223119
O O4 0.911519 0.102043 0.497103
O O5 0.500000 0.500000 0.500000
O O6 0.619300 0.646403 0.362623
O O7 0.533811 0.758569 0.987772
O O8 0.825309 0.590127 0.060008
O O9 0.273776 0.453969 0.285398
O O10 0.972692 0.611129 0.224073
O O11 0.143330 0.524160 0.999626
O O12 0.842294 0.887826 0.488098
O O13 0.185378 0.006698 0.017136
O O14 0.361563 0.186391 0.452979
O O15 0.258771 0.208285 0.768349
O O16 0.500000 0.000000 0.500000
#
# Coordination Sequence:
#
# PCOD9018058 Si02
#       8
#     2   2   2   2   2   1   2   2
#     4  11  24  40  74 100 144 184 241 295 366 430
#     4  11  27  48  72 104 147 187 240 304 363 436
#     4  10  21  43  68 102 143 187 232 302 356 434
#     4  11  24  47  68 102 145 189 233 302 360 436
#     4  12  25  44  72 106 137 191 244 293 362 434
#     4  10  22  46  70 108 142 194 236 296 370 434
#     4  12  27  50  73 108 149 193 245 304 374 438
#     4  10  23  41  71 101 138 185 240 285 365 427
#
# _framework density 23.189266
#
# number of rings (size 3 to 8) (size 9 to 14) (size 15 to 20)
#    0.000    1.067    2.667    3.200    5.600    1.600 
#    7.200    0.000    0.000    0.000    0.000    0.000 
#    0.000    0.000    0.000    0.000    0.000    0.000 
#
# Total GULP energy -83603.615175 kJ/mol
# GULP energy per Si atom -5573.574345 kJ/mol
# Density = 2.313649 g / cm^3
# Si number density = 23.189266 Si / 1000 Ang^3
#
#
#
# Elastic Constant Matrix: (Units=GPa)
#
#
# Indices 1 2 3 4 5 6 
#
# 1 118.2859 29.0969 45.3288 -3.6790 2.8787 25.4293
# 2 29.0969 85.9289 18.7533 4.3596 4.3181 11.0052
# 3 45.3288 18.7533 94.0854 -16.8812 -4.4866 1.3121
# 4 -3.6790 4.3596 -16.8812 28.2290 -1.6466 1.6914
# 5 2.8787 4.3181 -4.4866 -1.6466 31.0194 6.8912
# 6 25.4293 11.0052 1.3121 1.6914 6.8912 43.9180
#
#
#
# Elastic Compliance Matrix: (Units=1/GPa)
#
#
# Indices 1 2 3 4 5 6 
#
# 1 0.012534 -0.002089 -0.005747 -0.001112 -0.000326 -0.006469
# 2 -0.002089 0.013363 -0.002401 -0.003782 -0.001852 -0.001631
# 3 -0.005747 -0.002401 0.015591 0.008962 0.003011 0.002646
# 4 -0.001112 -0.003782 0.008962 0.041534 0.004343 -0.000957
# 5 -0.000326 -0.001852 0.003011 0.004343 0.034300 -0.004986
# 6 -0.006469 -0.001631 0.002646 -0.000957 -0.004986 0.027664
#
#
# Mechanical properties :
#
#
# Convention : Reuss Voigt Hill
#
# Bulk Modulus (GPa) = 47.58939 53.85092 50.72016
# Shear Modulus (GPa) = 28.99133 34.30803 31.64968
#
# Velocity S-wave (km/s) = 3.53966 3.85057 3.69838
# Velocity P-wave (km/s) = 6.10510 6.56064 6.33697
#
# Compressibility (1/GPa) = 0.02101309
#
# Stress axis : x y z
#
# Youngs Moduli (GPa) = 79.78087 74.83489 64.13940
#
# Poissons Ratio (x) = 0.15631 0.36863
# Poissons Ratio (y) = 0.16664 0.15402
# Poissons Ratio (z) = 0.45853 0.17971
#
# Static dielectric constant tensor:
#      x y z
#    x 1.926500 0.022860 -0.083040 
#    y 0.022860 1.883380 -0.038130 
#    z -0.083040 -0.038130 1.967670 
# 
# From -- ./inp_files/214072.got.cif
#   From: 2010.05.17/outbox.cif.g08.bks.cpg/sg2_108_cif.got.tgz:214072.got - 2010.06.03 11:33:40.
