data_PCOD9018292
_publ_section_title
;
Structure prediction by ZEFSAII (Michael W. Deem and Ramdas Pophale) SiO2 
 PCOD9018292
Probable space group: P -1
;
_chemical_formula_sum "Si O2"
_cell_formula_units_Z 16
_cell_length_a 11.408732
_cell_length_b 11.970556
_cell_length_c 9.292861
_cell_angle_alpha 50.938228
_cell_angle_beta 126.966589
_cell_angle_gamma 130.508210
_cell_volume 708.489961
_symmetry_space_group_name_H-M "P -1"
_symmetry_group_IT_number 2
_symmetry_cell_setting 'triclinic'
loop_
_space_group_symop_operation_xyz
x,y,z
-x,-y,-z
loop_
_atom_site_type_symbol
_atom_site_label
_atom_site_fract_x
_atom_site_fract_y
_atom_site_fract_z
Si Si1 0.165809 0.158870 0.006148
Si Si2 0.367194 0.643947 0.110288
Si Si3 0.019355 0.186298 0.466539
Si Si4 0.701578 0.871233 0.141936
Si Si5 0.235461 0.297222 0.256565
Si Si6 0.346909 0.960069 0.757633
Si Si7 0.870785 0.555911 0.424195
Si Si8 0.574456 0.297266 0.571768
O O1 0.286251 0.114875 0.031598
O O2 0.154705 0.313975 0.801088
O O3 0.209135 0.200561 0.169312
O O4 0.000000 0.000000 0.000000
O O5 0.560421 0.692754 0.206506
O O6 0.258859 0.475978 0.097027
O O7 0.334561 0.645610 0.254491
O O8 0.352390 0.791362 0.904204
O O9 0.126094 0.112948 0.687497
O O10 0.095834 0.225852 0.331509
O O11 0.056280 0.346220 0.453613
O O12 0.828126 0.073468 0.410595
O O13 0.656429 0.980394 0.128275
O O14 0.408980 0.320844 0.429829
O O15 0.495257 0.103541 0.670908
O O16 0.700967 0.402027 0.459563
O O17 0.000000 0.500000 0.500000
#
# Coordination Sequence:
#
# PCOD9018292 Si02
#       8
#     2   2   2   2   2   2   2   2
#     4  11  27  44  68 103 140 186 232 296 347 414
#     4  11  23  41  71 109 140 180 235 304 347 405
#     4  11  22  42  74 103 133 189 242 282 338 432
#     4  10  21  43  69  95 141 184 235 283 346 415
#     4  12  23  42  76 103 140 183 248 279 351 424
#     4  11  24  39  75 109 140 178 246 293 346 409
#     4  11  27  47  70  97 150 184 227 291 369 412
#     4  11  23  45  73 101 137 194 233 287 345 429
#
# _framework density 22.583243
#
# number of rings (size 3 to 8) (size 9 to 14) (size 15 to 20)
#    0.000    1.000    3.750    4.500    5.250    5.500 
#    0.000    0.625    0.000    0.000    0.000    0.000 
#    0.000    0.000    0.000    0.000    0.000    0.000 
#
# Total GULP energy -89410.816678 kJ/mol
# GULP energy per Si atom -5588.176042 kJ/mol
# Density = 2.253184 g / cm^3
# Si number density = 22.583243 Si / 1000 Ang^3
#
#
#
# Elastic Constant Matrix: (Units=GPa)
#
#
# Indices 1 2 3 4 5 6 
#
# 1 109.4078 47.1095 41.9978 -7.4663 -15.5229 5.5345
# 2 47.1095 128.9750 42.1978 -7.0671 -13.9843 -1.1054
# 3 41.9978 42.1978 82.3794 -14.0955 -13.4674 -0.1954
# 4 -7.4663 -7.0671 -14.0955 40.9654 -2.7297 -4.7588
# 5 -15.5229 -13.9843 -13.4674 -2.7297 37.8581 -3.5890
# 6 5.5345 -1.1054 -0.1954 -4.7588 -3.5890 39.9973
#
#
#
# Elastic Compliance Matrix: (Units=1/GPa)
#
#
# Indices 1 2 3 4 5 6 
#
# 1 0.012526 -0.002847 -0.004512 0.000210 0.002343 -0.001599
# 2 -0.002847 0.010095 -0.003445 0.000227 0.001429 0.000811
# 3 -0.004512 -0.003445 0.017681 0.005093 0.003681 0.001552
# 4 0.000210 0.000227 0.005093 0.026942 0.004264 0.003590
# 5 0.002343 0.001429 0.003681 0.004264 0.029796 0.002914
# 6 -0.001599 0.000811 0.001552 0.003590 0.002914 0.025942
#
#
# Mechanical properties :
#
#
# Convention : Reuss Voigt Hill
#
# Bulk Modulus (GPa) = 53.49749 64.81914 59.15831
# Shear Modulus (GPa) = 33.15194 36.39462 34.77328
#
# Velocity S-wave (km/s) = 3.83559 4.01880 3.92826
# Velocity P-wave (km/s) = 6.58454 7.09218 6.84306
#
# Compressibility (1/GPa) = 0.01869247
#
# Stress axis : x y z
#
# Youngs Moduli (GPa) = 79.83602 99.06019 56.55797
#
# Poissons Ratio (x) = 0.28203 0.25521
# Poissons Ratio (y) = 0.22729 0.19485
# Poissons Ratio (z) = 0.36025 0.34128
#
# Static dielectric constant tensor:
#      x y z
#    x 1.879290 -0.007020 0.013310 
#    y -0.007020 1.842790 -0.021580 
#    z 0.013310 -0.021580 1.901520 
# 
# From -- ./inp_files/261755.got.cif
#   From: 2010.05.17/outbox.cif.g08.bks.cpg/sg2_131_cif.got.tgz:261755.got - 2010.06.03 11:33:40.
