data_PCOD9018917
_publ_section_title
;
Structure prediction by ZEFSAII (Michael W. Deem and Ramdas Pophale) SiO2 
 PCOD9018917
Probable space group: P -1
;
_chemical_formula_sum "Si O2"
_cell_formula_units_Z 16
_cell_length_a 5.338936
_cell_length_b 8.761682
_cell_length_c 23.247354
_cell_angle_alpha 40.847562
_cell_angle_beta 101.440396
_cell_angle_gamma 113.321511
_cell_volume 643.820560
_symmetry_space_group_name_H-M "P -1"
_symmetry_group_IT_number 2
_symmetry_cell_setting 'triclinic'
loop_
_space_group_symop_operation_xyz
x,y,z
-x,-y,-z
loop_
_atom_site_type_symbol
_atom_site_label
_atom_site_fract_x
_atom_site_fract_y
_atom_site_fract_z
Si Si1 0.925872 0.443163 0.594022
Si Si2 0.672940 0.097920 0.592807
Si Si3 0.202071 0.969966 0.970157
Si Si4 0.232141 0.245826 0.066782
Si Si5 0.438467 0.807010 0.171579
Si Si6 0.861983 0.163740 0.414754
Si Si7 0.940395 0.724527 0.735052
Si Si8 0.133419 0.021908 0.763123
O O1 0.071686 0.688046 0.490426
O O2 0.983971 0.564946 0.625775
O O3 0.644444 0.269293 0.596831
O O4 0.067309 0.238972 0.664964
O O5 0.465167 0.983729 0.563038
O O6 0.715301 0.854656 0.690296
O O7 0.011375 0.730721 0.991504
O O8 0.306782 0.170211 0.865914
O O9 0.500000 0.000000 0.000000
O O10 0.000000 0.000000 0.000000
O O11 0.095733 0.135500 0.154084
O O12 0.334671 0.036164 0.104126
O O13 0.500000 0.500000 0.000000
O O14 0.198027 0.568588 0.201676
O O15 0.577857 0.829273 0.233918
O O16 0.909315 0.167605 0.347857
O O17 0.000000 0.000000 0.500000
O O18 0.125347 0.815839 0.773765
#
# Coordination Sequence:
#
# PCOD9018917 Si02
#       8
#     2   2   2   2   2   2   2   2
#     4  10  21  44  66  91 142 182 235 298 361 430
#     4  10  23  43  63  96 136 187 236 298 358 432
#     4  11  24  48  78 115 147 192 248 306 380 456
#     4  11  26  48  76 108 150 192 247 307 380 453
#     4  11  25  45  74 107 146 192 242 305 370 445
#     4  12  24  37  64  99 127 182 241 295 360 427
#     4  11  25  43  67 102 141 188 242 296 370 432
#     4  10  25  44  67 103 142 189 239 305 369 447
#
# _framework density 24.851647
#
# number of rings (size 3 to 8) (size 9 to 14) (size 15 to 20)
#    0.000    1.250    2.500    1.875    3.500    7.500 
#    0.000    0.000    0.000    0.000    0.000    0.000 
#    0.000    0.000    0.000    0.000    0.000    0.000 
#
# Total GULP energy -89111.325761 kJ/mol
# GULP energy per Si atom -5569.457860 kJ/mol
# Density = 2.479508 g / cm^3
# Si number density = 24.851647 Si / 1000 Ang^3
#
#
#
# Elastic Constant Matrix: (Units=GPa)
#
#
# Indices 1 2 3 4 5 6 
#
# 1 59.9950 39.7599 15.2841 -3.0066 -2.5859 3.7301
# 2 39.7599 209.8068 44.9133 9.7351 -4.6372 -8.3311
# 3 15.2841 44.9133 71.4694 -9.1872 -4.7071 -8.5196
# 4 -3.0066 9.7351 -9.1872 52.9804 -4.9181 1.2744
# 5 -2.5859 -4.6372 -4.7071 -4.9181 36.2388 5.4129
# 6 3.7301 -8.3311 -8.5196 1.2744 5.4129 36.0310
#
#
#
# Elastic Compliance Matrix: (Units=1/GPa)
#
#
# Indices 1 2 3 4 5 6 
#
# 1 0.019913 -0.003491 -0.002198 0.001614 0.001455 -0.003664
# 2 -0.003491 0.006272 -0.003335 -0.001986 -0.000320 0.001141
# 3 -0.002198 -0.003335 0.017517 0.003606 0.001701 0.003215
# 4 0.001614 -0.001986 0.003606 0.020280 0.003227 -0.000976
# 5 0.001455 -0.000320 0.001701 0.003227 0.028957 -0.004287
# 6 -0.003664 0.001141 0.003215 -0.000976 -0.004287 0.029836
#
#
# Mechanical properties :
#
#
# Convention : Reuss Voigt Hill
#
# Bulk Modulus (GPa) = 38.98181 60.13174 49.55678
# Shear Modulus (GPa) = 33.47268 41.13764 37.30516
#
# Velocity S-wave (km/s) = 3.67399 4.07299 3.87862
# Velocity P-wave (km/s) = 5.80668 6.80939 6.32793
#
# Compressibility (1/GPa) = 0.02565299
#
# Stress axis : x y z
#
# Youngs Moduli (GPa) = 50.21795 159.42987 57.08754
#
# Poissons Ratio (x) = 0.55663 0.12548
# Poissons Ratio (y) = 0.17533 0.19041
# Poissons Ratio (z) = 0.11038 0.53176
#
# Static dielectric constant tensor:
#      x y z
#    x 2.229070 0.199640 -0.073670 
#    y 0.199640 2.132730 -0.002070 
#    z -0.073670 -0.002070 2.020550 
# 
# From -- ./inp_files/603785.got.cif
#   From: 2010.05.17/outbox.cif.g08.bks.cpg/sg2_302_cif.got.tgz:603785.got - 2010.06.03 11:33:40.
