data_PCOD9018776
_publ_section_title
;
Structure prediction by ZEFSAII (Michael W. Deem and Ramdas Pophale) SiO2 
 PCOD9018776
Probable space group: P -1
;
_chemical_formula_sum "Si O2"
_cell_formula_units_Z 14
_cell_length_a 10.949380
_cell_length_b 24.067961
_cell_length_c 7.742855
_cell_angle_alpha 147.840933
_cell_angle_beta 45.177320
_cell_angle_gamma 149.962006
_cell_volume 540.663997
_symmetry_space_group_name_H-M "P -1"
_symmetry_group_IT_number 2
_symmetry_cell_setting 'triclinic'
loop_
_space_group_symop_operation_xyz
x,y,z
-x,-y,-z
loop_
_atom_site_type_symbol
_atom_site_label
_atom_site_fract_x
_atom_site_fract_y
_atom_site_fract_z
Si Si1 0.456925 0.759698 0.501944
Si Si2 0.751213 0.549009 0.188200
Si Si3 0.914086 0.036393 0.930749
Si Si4 0.951659 0.355667 0.171109
Si Si5 0.380254 0.138913 0.886974
Si Si6 0.677365 0.472347 0.451191
Si Si7 0.648587 0.119776 0.323139
O O1 0.744709 0.901424 0.608080
O O2 0.325987 0.753628 0.450211
O O3 0.323359 0.767409 0.808583
O O4 0.394704 0.611697 0.174404
O O5 0.786516 0.531583 0.305867
O O6 0.573844 0.570800 0.412564
O O7 0.979713 0.661645 0.127252
O O8 0.777723 0.954718 0.033107
O O9 0.187270 0.112245 0.878920
O O10 0.872984 0.140146 0.196310
O O11 0.139652 0.401619 0.255574
O O12 0.000000 0.500000 0.500000
O O13 0.483160 0.077194 0.540008
O O14 0.593971 0.317866 0.170416
O O15 0.500000 0.000000 0.000000
#
# Coordination Sequence:
#
# PCOD9018776 Si02
#       7
#     2   2   2   2   2   2   2
#     4  10  21  44  63  94 132 167 217 269 325 389
#     4  10  22  42  66  97 131 173 217 265 332 392
#     4  10  24  43  68  96 127 174 220 271 332 386
#     4  10  22  40  64  94 131 173 210 269 324 388
#     4  11  22  45  66  95 134 168 217 279 325 386
#     4  11  23  42  66 100 131 171 220 265 334 398
#     4  10  22  42  65  95 128 172 221 265 328 391
#
# _framework density 25.894086000000001
#
# number of rings (size 3 to 8) (size 9 to 14) (size 15 to 20)
#    0.000    1.714    1.429    2.571    0.000    6.857 
#   25.714    0.000    0.000    0.000    0.000    0.000 
#    0.000    0.000    0.000    0.000    0.000    0.000 
#
# Total GULP energy -78336.029961 kJ/mol
# GULP energy per Si atom -5595.430712 kJ/mol
# Density = 2.583515 g / cm^3
# Si number density = 25.894086 Si / 1000 Ang^3
#
#
#
# Elastic Constant Matrix: (Units=GPa)
#
#
# Indices 1 2 3 4 5 6 
#
# 1 126.5903 30.6954 19.5801 -9.1183 -3.9729 16.2639
# 2 30.6954 81.0006 25.4959 -13.2662 21.6129 4.1143
# 3 19.5801 25.4959 106.4914 -2.6128 2.9764 -4.2201
# 4 -9.1183 -13.2662 -2.6128 40.6256 -11.4602 8.8536
# 5 -3.9729 21.6129 2.9764 -11.4602 31.2726 -5.5310
# 6 16.2639 4.1143 -4.2201 8.8536 -5.5310 57.4909
#
#
#
# Elastic Compliance Matrix: (Units=1/GPa)
#
#
# Indices 1 2 3 4 5 6 
#
# 1 0.009686 -0.004045 -0.000976 0.002643 0.004648 -0.002482
# 2 -0.004045 0.018783 -0.003428 0.001808 -0.012854 -0.001967
# 3 -0.000976 -0.003428 0.010399 -0.000634 0.001289 0.001506
# 4 0.002643 0.001808 -0.000634 0.029314 0.009082 -0.004564
# 5 0.004648 -0.012854 0.001289 0.009082 0.045124 0.002642
# 6 -0.002482 -0.001967 0.001506 -0.004564 0.002642 0.019305
#
#
# Mechanical properties :
#
#
# Convention : Reuss Voigt Hill
#
# Bulk Modulus (GPa) = 45.51439 51.73616 48.62527
# Shear Modulus (GPa) = 31.88133 41.76521 36.82327
#
# Velocity S-wave (km/s) = 3.51268 4.02048 3.77513
# Velocity P-wave (km/s) = 5.83671 6.44792 6.14991
#
# Compressibility (1/GPa) = 0.02197107
#
# Stress axis : x y z
#
# Youngs Moduli (GPa) = 103.23758 53.23960 96.16668
#
# Poissons Ratio (x) = 0.21535 0.09386
# Poissons Ratio (y) = 0.41758 0.32962
# Poissons Ratio (z) = 0.10076 0.18248
#
# Static dielectric constant tensor:
#      x y z
#    x 2.089940 -0.054640 0.068970 
#    y -0.054640 2.121440 0.004690 
#    z 0.068970 0.004690 2.004110 
# 
# From -- ./inp_files/285862.got.cif
#   From: 2010.05.17/outbox.cif.g08.bks.cpg/sg2_143_cif.got.tgz:285862.got - 2010.06.03 11:33:40.
