data_PCOD9018746
_publ_section_title
;
Structure prediction by ZEFSAII (Michael W. Deem and Ramdas Pophale) SiO2 
 PCOD9018746
Probable space group: P -1
;
_chemical_formula_sum "Si O2"
_cell_formula_units_Z 15
_cell_length_a 11.637242
_cell_length_b 14.328594
_cell_length_c 12.227656
_cell_angle_alpha 134.389785
_cell_angle_beta 126.389024
_cell_angle_gamma 93.775552
_cell_volume 643.774901
_symmetry_space_group_name_H-M "P -1"
_symmetry_group_IT_number 2
_symmetry_cell_setting 'triclinic'
loop_
_space_group_symop_operation_xyz
x,y,z
-x,-y,-z
loop_
_atom_site_type_symbol
_atom_site_label
_atom_site_fract_x
_atom_site_fract_y
_atom_site_fract_z
Si Si1 0.673135 0.284716 0.029081
Si Si2 0.082026 0.051792 0.748343
Si Si3 0.500000 0.000000 0.000000
Si Si4 0.027915 0.114189 0.005524
Si Si5 0.772922 0.152185 0.820390
Si Si6 0.921258 0.216187 0.727372
Si Si7 0.085359 0.357909 0.706749
Si Si8 0.357026 0.611186 0.680171
O O1 0.761392 0.421564 0.301237
O O2 0.689208 0.403208 0.039716
O O3 0.833455 0.287350 0.070268
O O4 0.384011 0.008656 0.660746
O O5 0.117410 0.104265 0.941258
O O6 0.358100 0.226917 0.995921
O O7 0.980567 0.108549 0.687749
O O8 0.902076 0.788668 0.414698
O O9 0.807692 0.190076 0.360298
O O10 0.589542 0.222333 0.228327
O O11 0.215245 0.379090 0.356802
O O12 0.771899 0.000864 0.732842
O O13 0.000000 0.000000 0.000000
O O14 0.953364 0.300006 0.935513
O O15 0.500000 0.000000 0.500000
O O16 0.081318 0.393037 0.861128
#
# Coordination Sequence:
#
# PCOD9018746 Si02
#       8
#     2   2   1   2   2   2   2   2
#     4  11  22  40  65  96 125 168 221 272 327 392
#     4  10  22  42  62  89 136 169 212 270 326 393
#     4  10  22  40  62  94 128 168 220 270 328 388
#     4  11  23  42  66  98 132 173 224 272 330 393
#     4   9  22  42  63  90 133 170 215 276 324 389
#     4  10  21  44  61  89 132 169 213 275 323 393
#     4  11  22  38  64  95 123 174 217 265 335 385
#     4  11  23  41  65  96 130 172 215 276 331 388
#
# _framework density 23.300069000000001
#
# number of rings (size 3 to 8) (size 9 to 14) (size 15 to 20)
#    0.000    1.600    2.667    2.400    0.000    5.333 
#    7.200    0.000    0.000    0.000    0.000    0.000 
#    0.000    0.000    0.000    0.000    0.000    0.000 
#
# Total GULP energy -83518.548551 kJ/mol
# GULP energy per Si atom -5567.903237 kJ/mol
# Density = 2.324704 g / cm^3
# Si number density = 23.300069 Si / 1000 Ang^3
#
#
#
# Elastic Constant Matrix: (Units=GPa)
#
#
# Indices 1 2 3 4 5 6 
#
# 1 139.7264 34.6311 16.2139 -5.2339 -34.1942 12.5918
# 2 34.6311 83.7403 20.7261 4.4622 -14.6847 3.2142
# 3 16.2139 20.7261 53.7412 1.4657 -14.3106 12.1887
# 4 -5.2339 4.4622 1.4657 32.9200 1.7921 -5.5492
# 5 -34.1942 -14.6847 -14.3106 1.7921 30.2818 -11.8348
# 6 12.5918 3.2142 12.1887 -5.5492 -11.8348 48.6249
#
#
#
# Elastic Compliance Matrix: (Units=1/GPa)
#
#
# Indices 1 2 3 4 5 6 
#
# 1 0.010412 -0.002673 0.000691 0.001416 0.010736 0.000082
# 2 -0.002673 0.014656 -0.004362 -0.002156 0.002628 0.001210
# 3 0.000691 -0.004362 0.023179 -0.001429 0.008191 -0.003870
# 4 0.001416 -0.002156 -0.001429 0.031596 -0.000586 0.003597
# 5 0.010736 0.002628 0.008191 -0.000586 0.053425 0.007929
# 6 0.000082 0.001210 -0.003870 0.003597 0.007929 0.023775
#
#
# Mechanical properties :
#
#
# Convention : Reuss Voigt Hill
#
# Bulk Modulus (GPa) = 28.12107 46.70557 37.41332
# Shear Modulus (GPa) = 27.53540 36.07447 31.80493
#
# Velocity S-wave (km/s) = 3.44142 3.93906 3.69862
# Velocity P-wave (km/s) = 5.28076 6.38569 5.85933
#
# Compressibility (1/GPa) = 0.03556052
#
# Stress axis : x y z
#
# Youngs Moduli (GPa) = 96.04157 68.23155 43.14178
#
# Poissons Ratio (x) = 0.18238 -0.02982
# Poissons Ratio (y) = 0.25672 0.18817
# Poissons Ratio (z) = -0.06638 0.29760
#
# Static dielectric constant tensor:
#      x y z
#    x 1.896110 0.010650 -0.010390 
#    y 0.010650 1.877050 -0.083030 
#    z -0.010390 -0.083030 1.917710 
# 
# From -- ./inp_files/426741.got.cif
#   From: 2010.05.17/outbox.cif.g08.bks.cpg/sg2_214_cif.got.tgz:426741.got - 2010.06.03 11:33:40.
