data_PCOD9018275
_publ_section_title
;
Structure prediction by ZEFSAII (Michael W. Deem and Ramdas Pophale) SiO2 
 PCOD9018275
Probable space group: P -1
;
_chemical_formula_sum "Si O2"
_cell_formula_units_Z 16
_cell_length_a 10.908790
_cell_length_b 8.501358
_cell_length_c 11.414928
_cell_angle_alpha 131.021569
_cell_angle_beta 111.448272
_cell_angle_gamma 97.054821
_cell_volume 636.463049
_symmetry_space_group_name_H-M "P -1"
_symmetry_group_IT_number 2
_symmetry_cell_setting 'triclinic'
loop_
_space_group_symop_operation_xyz
x,y,z
-x,-y,-z
loop_
_atom_site_type_symbol
_atom_site_label
_atom_site_fract_x
_atom_site_fract_y
_atom_site_fract_z
Si Si1 0.878755 0.282120 0.212142
Si Si2 0.124815 0.023713 0.343276
Si Si3 0.647098 0.393649 0.274508
Si Si4 0.855493 0.795368 0.969800
Si Si5 0.575603 0.540614 0.916291
Si Si6 0.355300 0.989946 0.552572
Si Si7 0.385998 0.600144 0.478838
Si Si8 0.089135 0.823727 0.555597
O O1 0.726548 0.295531 0.169177
O O2 0.905890 0.245209 0.340760
O O3 0.001843 0.549367 0.336840
O O4 0.862875 0.037720 0.040704
O O5 0.247106 0.314820 0.520916
O O6 0.007619 0.040746 0.402347
O O7 0.224085 0.910972 0.368881
O O8 0.024203 0.889399 0.128557
O O9 0.493585 0.336656 0.130732
O O10 0.631857 0.301441 0.354577
O O11 0.748481 0.678946 0.993453
O O12 0.768326 0.604438 0.741032
O O13 0.491685 0.260818 0.713479
O O14 0.500000 0.500000 0.000000
O O15 0.430532 0.829466 0.525133
O O16 0.250751 0.978508 0.623028
O O17 0.500000 0.500000 0.500000
#
# Coordination Sequence:
#
# PCOD9018275 Si02
#       8
#     2   2   2   2   2   2   2   2
#     4   9  18  34  64  98 127 161 210 286 313 373
#     4   9  21  40  66  99 130 168 212 281 321 393
#     4  10  21  43  69  94 132 174 221 261 342 385
#     4  11  24  41  65  99 139 162 227 271 321 382
#     4  11  24  41  66  99 128 174 223 273 320 393
#     4  11  23  41  68  91 134 182 212 261 337 392
#     4  12  26  45  65  95 132 183 219 267 322 395
#     4   9  16  34  64  99 128 159 214 263 340 371
#
# _framework density 25.138929000000001
#
# number of rings (size 3 to 8) (size 9 to 14) (size 15 to 20)
#    0.000    1.750    2.500    2.625    0.000    5.000 
#    0.000    0.000    0.000    0.000    0.000    0.000 
#    0.000    0.000    0.000    0.000    0.000    0.000 
#
# Total GULP energy -89211.937430 kJ/mol
# GULP energy per Si atom -5575.746089 kJ/mol
# Density = 2.508171 g / cm^3
# Si number density = 25.138929 Si / 1000 Ang^3
#
#
#
# Elastic Constant Matrix: (Units=GPa)
#
#
# Indices 1 2 3 4 5 6 
#
# 1 81.3907 40.4148 18.6429 -13.2631 2.6960 8.4465
# 2 40.4148 92.8789 33.8868 -7.5162 10.0782 -12.2200
# 3 18.6429 33.8868 79.8013 -11.3669 8.0845 -0.1129
# 4 -13.2631 -7.5162 -11.3669 32.5196 7.0478 1.3360
# 5 2.6960 10.0782 8.0845 7.0478 32.1747 -11.2177
# 6 8.4465 -12.2200 -0.1129 1.3360 -11.2177 55.0178
#
#
#
# Elastic Compliance Matrix: (Units=1/GPa)
#
#
# Indices 1 2 3 4 5 6 
#
# 1 0.017654 -0.007686 0.000243 0.006201 -0.002243 -0.005025
# 2 -0.007686 0.016726 -0.005297 -0.000999 -0.001436 0.004616
# 3 0.000243 -0.005297 0.015939 0.005475 -0.004332 -0.002197
# 4 0.006201 -0.000999 0.005475 0.037603 -0.011350 -0.004390
# 5 -0.002243 -0.001436 -0.004332 -0.011350 0.038103 0.008061
# 6 -0.005025 0.004616 -0.002197 -0.004390 0.008061 0.021718
#
#
# Mechanical properties :
#
#
# Convention : Reuss Voigt Hill
#
# Bulk Modulus (GPa) = 40.26028 48.88443 44.57235
# Shear Modulus (GPa) = 27.54764 34.68419 31.11591
#
# Velocity S-wave (km/s) = 3.31390 3.71846 3.52200
# Velocity P-wave (km/s) = 5.54008 6.15824 5.85732
#
# Compressibility (1/GPa) = 0.02483838
#
# Stress axis : x y z
#
# Youngs Moduli (GPa) = 56.64550 59.78622 62.73772
#
# Poissons Ratio (x) = 0.45954 -0.01525
# Poissons Ratio (y) = 0.43540 0.33234
# Poissons Ratio (z) = -0.01377 0.31670
#
# Static dielectric constant tensor:
#      x y z
#    x 2.114770 0.001750 -0.055930 
#    y 0.001750 2.036460 0.019820 
#    z -0.055930 0.019820 2.048020 
# 
# From -- ./inp_files/343598.got.cif
#   From: 2010.05.17/outbox.cif.g08.bks.cpg/sg2_172_cif.got.tgz:343598.got - 2010.06.03 11:33:40.
