data_PCOD9018848
_publ_section_title
;
Structure prediction by ZEFSAII (Michael W. Deem and Ramdas Pophale) SiO2 
 PCOD9018848
Probable space group: P -1
;
_chemical_formula_sum "Si O2"
_cell_formula_units_Z 16
_cell_length_a 14.056494
_cell_length_b 9.882691
_cell_length_c 11.920088
_cell_angle_alpha 83.380310
_cell_angle_beta 29.432978
_cell_angle_gamma 97.317915
_cell_volume 714.893850
_symmetry_space_group_name_H-M "P -1"
_symmetry_group_IT_number 2
_symmetry_cell_setting 'triclinic'
loop_
_space_group_symop_operation_xyz
x,y,z
-x,-y,-z
loop_
_atom_site_type_symbol
_atom_site_label
_atom_site_fract_x
_atom_site_fract_y
_atom_site_fract_z
Si Si1 0.464987 0.182577 0.839531
Si Si2 0.846241 0.816337 0.031764
Si Si3 0.505441 0.843415 0.546823
Si Si4 0.552258 0.512603 0.778082
Si Si5 0.357452 0.522786 0.740975
Si Si6 0.112872 0.389728 0.389725
Si Si7 0.191613 0.957727 0.329835
Si Si8 0.692201 0.011457 0.537786
O O1 0.264511 0.161770 0.969397
O O2 0.568441 0.354044 0.763297
O O3 0.621060 0.145228 0.604287
O O4 0.380043 0.058889 0.038552
O O5 0.705757 0.833854 0.276163
O O6 0.838104 0.649927 0.038437
O O7 0.096105 0.939301 0.760864
O O8 0.316746 0.667313 0.740708
O O9 0.500000 0.000000 0.500000
O O10 0.515720 0.864135 0.669085
O O11 0.502484 0.556385 0.702233
O O12 0.771230 0.623768 0.611532
O O13 0.327509 0.465811 0.082055
O O14 0.500000 0.500000 0.500000
O O15 0.000000 0.500000 0.500000
O O16 0.925616 0.225615 0.553034
O O17 0.263459 0.008474 0.377977
O O18 0.000000 0.000000 0.500000
#
# Coordination Sequence:
#
# PCOD9018848 Si02
#       8
#     2   2   2   2   2   2   2   2
#     4  11  22  41  65  95 129 168 212 260 315 382
#     4  10  21  44  65  92 130 169 210 261 316 379
#     4  11  23  42  68  97 128 164 216 268 318 378
#     4  10  22  40  68  90 131 171 207 262 323 372
#     4   9  21  40  68  92 126 169 210 261 318 376
#     4  11  24  42  63  96 132 166 214 261 313 382
#     4  12  23  41  64  96 130 168 212 260 318 381
#     4  12  24  39  69  91 130 170 210 263 321 373
#
# _framework density 22.380946000000002
#
# number of rings (size 3 to 8) (size 9 to 14) (size 15 to 20)
#    0.000    1.250    3.750    2.250    1.750    1.000 
#    0.000    0.625    5.500    0.000    0.000    0.000 
#    0.000    0.000    0.000    0.000    0.000    0.000 
#
# Total GULP energy -89250.869187 kJ/mol
# GULP energy per Si atom -5578.179324 kJ/mol
# Density = 2.233001 g / cm^3
# Si number density = 22.380946 Si / 1000 Ang^3
#
#
#
# Elastic Constant Matrix: (Units=GPa)
#
#
# Indices 1 2 3 4 5 6 
#
# 1 83.2605 44.0900 9.9013 -8.4130 23.3335 18.1028
# 2 44.0900 158.3757 14.3528 11.2604 13.3435 -7.8136
# 3 9.9013 14.3528 45.2987 13.0475 14.2609 -2.1433
# 4 -8.4130 11.2604 13.0475 28.3301 -3.7380 3.1283
# 5 23.3335 13.3435 14.2609 -3.7380 20.1869 7.6409
# 6 18.1028 -7.8136 -2.1433 3.1283 7.6409 32.8789
#
#
#
# Elastic Compliance Matrix: (Units=1/GPa)
#
#
# Indices 1 2 3 4 5 6 
#
# 1 0.023419 -0.006306 -0.001399 0.009319 -0.015755 -0.011709
# 2 -0.006306 0.009271 0.003066 -0.008595 -0.005625 0.008000
# 3 -0.001399 0.003066 0.044866 -0.030089 -0.044334 0.017589
# 4 0.009319 -0.008595 -0.030089 0.062800 0.036746 -0.023650
# 5 -0.015755 -0.005625 -0.044334 0.036746 0.119764 -0.026881
# 6 -0.011709 0.008000 0.017589 -0.023650 -0.026881 0.048407
#
#
# Mechanical properties :
#
#
# Convention : Reuss Voigt Hill
#
# Bulk Modulus (GPa) = 14.64596 47.06925 30.85761
# Shear Modulus (GPa) = 14.68152 30.85190 22.76671
#
# Velocity S-wave (km/s) = 2.56399 3.71683 3.19287
# Velocity P-wave (km/s) = 3.91453 6.28461 5.23545
#
# Compressibility (1/GPa) = 0.06827822
#
# Stress axis : x y z
#
# Youngs Moduli (GPa) = 42.70064 107.85799 22.28859
#
# Poissons Ratio (x) = 0.68011 0.03119
# Poissons Ratio (y) = 0.26925 -0.06833
# Poissons Ratio (z) = 0.05975 -0.33068
#
# Static dielectric constant tensor:
#      x y z
#    x 1.769510 -2.034690 3.394610 
#    y -2.034690 -29.309100 52.146160 
#    z 3.394610 52.146160 -85.534010 
# 
# From -- ./inp_files/447468.got.cif
#   From: 2010.05.17/outbox.cif.g08.bks.cpg/sg2_224_cif.got.tgz:447468.got - 2010.06.03 11:33:40.
