data_PCOD9018089
_publ_section_title
;
Structure prediction by ZEFSAII (Michael W. Deem and Ramdas Pophale) SiO2 
 PCOD9018089
Probable space group: P -1
;
_chemical_formula_sum "Si O2"
_cell_formula_units_Z 12
_cell_length_a 14.694796
_cell_length_b 6.359967
_cell_length_c 16.689666
_cell_angle_alpha 124.519831
_cell_angle_beta 20.219702
_cell_angle_gamma 121.822882
_cell_volume 444.122556
_symmetry_space_group_name_H-M "P -1"
_symmetry_group_IT_number 2
_symmetry_cell_setting 'triclinic'
loop_
_space_group_symop_operation_xyz
x,y,z
-x,-y,-z
loop_
_atom_site_type_symbol
_atom_site_label
_atom_site_fract_x
_atom_site_fract_y
_atom_site_fract_z
Si Si1 0.252715 0.317564 0.248240
Si Si2 0.491683 0.736827 0.401857
Si Si3 0.900514 0.430656 0.172641
Si Si4 0.232760 0.853797 0.935014
Si Si5 0.778660 0.628310 0.886980
Si Si6 0.279417 0.327337 0.400619
O O1 0.213171 0.210938 0.169084
O O2 0.279543 0.184713 0.283736
O O3 0.000000 0.500000 0.500000
O O4 0.498790 0.501879 0.087509
O O5 0.283411 0.598291 0.604946
O O6 0.370057 0.628580 0.395361
O O7 0.500000 0.000000 0.500000
O O8 0.802064 0.681186 0.114271
O O9 0.745237 0.291994 0.199163
O O10 0.975932 0.726526 0.160677
O O11 0.502509 0.804466 0.751329
O O12 0.183142 0.153077 0.032442
O O13 0.974661 0.385612 0.683627
#
# Coordination Sequence:
#
# PCOD9018089 Si02
#       6
#     2   2   2   2   2   2
#     4   9  21  43  63  95 129 163 227 280 329 406
#     4  11  23  40  68  98 139 184 224 275 335 397
#     4  10  24  43  60 103 143 174 228 276 326 406
#     4  10  23  42  67  98 133 180 215 276 333 396
#     4  10  21  43  68  89 131 176 213 281 344 385
#     4  10  23  39  63  99 125 171 226 270 322 411
#
# _framework density 27.019570000000002
#
# number of rings (size 3 to 8) (size 9 to 14) (size 15 to 20)
#    0.000    2.000    0.000    1.500    7.000    6.667 
#   12.000    7.500    0.000    0.000    0.000    0.000 
#    0.000    0.000    0.000    0.000    0.000    0.000 
#
# Total GULP energy -66805.005346 kJ/mol
# GULP energy per Si atom -5567.083779 kJ/mol
# Density = 2.695807 g / cm^3
# Si number density = 27.019570 Si / 1000 Ang^3
#
#
#
# Elastic Constant Matrix: (Units=GPa)
#
#
# Indices 1 2 3 4 5 6 
#
# 1 151.8298 -1.4779 63.6848 -4.6141 -0.2358 18.3352
# 2 -1.4779 81.5158 29.5970 1.6238 16.8066 16.1351
# 3 63.6848 29.5970 170.6039 -7.9643 -13.2172 -3.0800
# 4 -4.6141 1.6238 -7.9643 30.0332 2.1058 -0.2188
# 5 -0.2358 16.8066 -13.2172 2.1058 49.3128 -6.5875
# 6 18.3352 16.1351 -3.0800 -0.2188 -6.5875 27.6620
#
#
#
# Elastic Compliance Matrix: (Units=1/GPa)
#
#
# Indices 1 2 3 4 5 6 
#
# 1 0.010314 0.005464 -0.005379 0.000116 -0.004832 -0.011772
# 2 0.005464 0.021234 -0.007050 -0.001504 -0.011652 -0.019579
# 3 -0.005379 -0.007050 0.009852 0.001799 0.006316 0.010293
# 4 0.000116 -0.001504 0.001799 0.033902 -0.000292 0.001199
# 5 -0.004832 -0.011652 0.006316 -0.000292 0.028260 0.017430
# 6 -0.011772 -0.019579 0.010293 0.001199 0.017430 0.060681
#
#
# Mechanical properties :
#
#
# Convention : Reuss Voigt Hill
#
# Bulk Modulus (GPa) = 36.40405 65.28414 50.84409
# Shear Modulus (GPa) = 26.69102 42.21131 34.45116
#
# Velocity S-wave (km/s) = 3.14640 3.95682 3.57465
# Velocity P-wave (km/s) = 5.16742 6.71487 5.99132
#
# Compressibility (1/GPa) = 0.02746947
#
# Stress axis : x y z
#
# Youngs Moduli (GPa) = 96.95962 47.09410 101.50429
#
# Poissons Ratio (x) = -0.25734 0.54604
# Poissons Ratio (y) = -0.52983 0.71560
# Poissons Ratio (z) = 0.52159 0.33201
#
# Static dielectric constant tensor:
#      x y z
#    x 2.386210 -0.090340 0.033570 
#    y -0.090340 2.161940 0.024060 
#    z 0.033570 0.024060 2.131610 
# 
# From -- ./inp_files/57320.got.cif
#   From: 2010.05.17/outbox.cif.g08.bks.cpg/sg2_29_cif.got.tgz:57320.got - 2010.06.03 11:33:40.
