data_PCOD9018384
_publ_section_title
;
Structure prediction by ZEFSAII (Michael W. Deem and Ramdas Pophale) SiO2 
 PCOD9018384
Probable space group: P -1
;
_chemical_formula_sum "Si O2"
_cell_formula_units_Z 16
_cell_length_a 18.414092
_cell_length_b 29.088345
_cell_length_c 6.664336
_cell_angle_alpha 123.205782
_cell_angle_beta 68.430549
_cell_angle_gamma 160.718409
_cell_volume 829.866825
_symmetry_space_group_name_H-M "P -1"
_symmetry_group_IT_number 2
_symmetry_cell_setting 'triclinic'
loop_
_space_group_symop_operation_xyz
x,y,z
-x,-y,-z
loop_
_atom_site_type_symbol
_atom_site_label
_atom_site_fract_x
_atom_site_fract_y
_atom_site_fract_z
Si Si1 0.176661 0.967149 0.670705
Si Si2 0.538277 0.239751 0.314706
Si Si3 0.086157 0.029050 0.779635
Si Si4 0.549642 0.628546 0.229938
Si Si5 0.115978 0.496391 0.789131
Si Si6 0.373974 0.770969 0.422539
Si Si7 0.592571 0.377676 0.891182
Si Si8 0.437736 0.450362 0.672557
O O1 0.190875 0.038010 0.734309
O O2 0.872415 0.748852 0.459216
O O3 0.351195 0.045517 0.537347
O O4 0.297654 0.057123 0.985256
O O5 0.742227 0.399656 0.322102
O O6 0.613015 0.238921 0.381831
O O7 0.508747 0.270237 0.575166
O O8 0.819979 0.843123 0.484190
O O9 0.333485 0.224828 0.902719
O O10 0.000000 0.000000 0.000000
O O11 0.337487 0.525659 0.098403
O O12 0.490899 0.562222 0.347302
O O13 0.587782 0.598819 0.993113
O O14 0.807914 0.298313 0.594008
O O15 0.222800 0.619328 0.104732
O O16 0.207062 0.507032 0.863300
O O17 0.500000 0.500000 0.500000
#
# Coordination Sequence:
#
# PCOD9018384 Si02
#       8
#     2   2   2   2   2   2   2   2
#     4  10  20  35  55  81 111 144 187 223 270 320
#     4  10  17  30  53  83 113 145 174 213 280 326
#     4  11  21  35  54  83 116 147 177 221 280 333
#     4  10  24  37  55  77 106 149 186 222 273 323
#     4   9  18  31  51  82 115 143 173 215 280 331
#     4   9  17  32  52  79 115 144 176 220 268 334
#     4  11  21  34  54  82 116 141 175 226 275 336
#     4  10  24  40  55  76 106 150 196 231 263 311
#
# _framework density 19.280203
#
# number of rings (size 3 to 8) (size 9 to 14) (size 15 to 20)
#    0.000    2.000    3.750    1.500    5.250    2.000 
#    0.000    0.000    0.000    0.750    0.000    2.625 
#    0.000    0.000    0.000    0.000    0.000    0.000 
#
# Total GULP energy -89077.484443 kJ/mol
# GULP energy per Si atom -5567.342778 kJ/mol
# Density = 1.923632 g / cm^3
# Si number density = 19.280203 Si / 1000 Ang^3
#
#
#
# Elastic Constant Matrix: (Units=GPa)
#
#
# Indices 1 2 3 4 5 6 
#
# 1 111.1019 45.1410 30.9985 -9.9976 41.0889 -5.7932
# 2 45.1410 78.8605 37.3157 -9.0747 26.3037 3.3870
# 3 30.9985 37.3157 64.2329 -18.9010 23.5737 3.0333
# 4 -9.9976 -9.0747 -18.9010 23.7422 -11.5072 4.6955
# 5 41.0889 26.3037 23.5737 -11.5072 33.5562 -4.7211
# 6 -5.7932 3.3870 3.0333 4.6955 -4.7211 18.7852
#
#
#
# Elastic Compliance Matrix: (Units=1/GPa)
#
#
# Indices 1 2 3 4 5 6 
#
# 1 0.017623 -0.004062 -0.000497 -0.004316 -0.019173 0.002507
# 2 -0.004062 0.021336 -0.008225 -0.002821 -0.007642 -0.004987
# 3 -0.000497 -0.008225 0.029666 0.017877 -0.009092 -0.010214
# 4 -0.004316 -0.002821 0.017877 0.063650 0.014516 -0.015971
# 5 -0.019173 -0.007642 -0.009092 0.014516 0.072246 0.011461
# 6 0.002507 -0.004987 -0.010214 -0.015971 0.011461 0.063428
#
#
# Mechanical properties :
#
#
# Convention : Reuss Voigt Hill
#
# Bulk Modulus (GPa) = 23.22439 53.45618 38.34028
# Shear Modulus (GPa) = 16.24078 24.59940 20.42009
#
# Velocity S-wave (km/s) = 2.90548 3.57583 3.25795
# Velocity P-wave (km/s) = 4.82987 6.69589 5.83792
#
# Compressibility (1/GPa) = 0.04305818
#
# Stress axis : x y z
#
# Youngs Moduli (GPa) = 56.74453 46.86912 33.70896
#
# Poissons Ratio (x) = 0.19037 0.01675
# Poissons Ratio (y) = 0.23048 0.27724
# Poissons Ratio (z) = 0.02819 0.38548
#
# Static dielectric constant tensor:
#      x y z
#    x 1.729870 0.026070 0.064990 
#    y 0.026070 1.656580 -0.033380 
#    z 0.064990 -0.033380 1.696080 
# 
# From -- ./inp_files/76264.got.cif
#   From: 2010.05.17/outbox.cif.g08.bks.cpg/sg2_39_cif.got.tgz:76264.got - 2010.06.03 11:33:40.
