data_PCOD9018310
_publ_section_title
;
Structure prediction by ZEFSAII (Michael W. Deem and Ramdas Pophale) SiO2 
 PCOD9018310
Probable space group: P -1
;
_chemical_formula_sum "Si O2"
_cell_formula_units_Z 16
_cell_length_a 22.138561
_cell_length_b 9.919025
_cell_length_c 6.450298
_cell_angle_alpha 70.756152
_cell_angle_beta 79.686332
_cell_angle_gamma 29.777037
_cell_volume 646.599841
_symmetry_space_group_name_H-M "P -1"
_symmetry_group_IT_number 2
_symmetry_cell_setting 'triclinic'
loop_
_space_group_symop_operation_xyz
x,y,z
-x,-y,-z
loop_
_atom_site_type_symbol
_atom_site_label
_atom_site_fract_x
_atom_site_fract_y
_atom_site_fract_z
Si Si1 0.764828 0.155648 0.791124
Si Si2 0.147873 0.448242 0.930246
Si Si3 0.699434 0.056548 0.186278
Si Si4 0.068963 0.011390 0.449614
Si Si5 0.274369 0.496806 0.871543
Si Si6 0.111918 0.315924 0.370866
Si Si7 0.467514 0.018833 0.283515
Si Si8 0.506268 0.341759 0.447047
O O1 0.844386 0.138332 0.730112
O O2 0.632461 0.432327 0.622058
O O3 0.845772 0.887632 0.722590
O O4 0.736074 0.138808 0.035962
O O5 0.258128 0.127048 0.937855
O O6 0.201006 0.495892 0.917749
O O7 0.086445 0.503345 0.143919
O O8 0.050718 0.647413 0.696583
O O9 0.773557 0.887015 0.442103
O O10 0.565146 0.272202 0.229045
O O11 0.168752 0.815789 0.677513
O O12 0.000000 0.000000 0.500000
O O13 0.400189 0.229770 0.789474
O O14 0.350989 0.351922 0.111438
O O15 0.000000 0.500000 0.500000
O O16 0.430153 0.925855 0.352027
O O17 0.500000 0.000000 0.500000
O O18 0.500000 0.500000 0.500000
#
# Coordination Sequence:
#
# PCOD9018310 Si02
#       8
#     2   2   2   2   2   2   2   2
#     4  11  23  43  65 100 142 182 235 300 359 425
#     4  10  22  41  71 100 142 182 243 290 355 431
#     4  11  23  40  66 101 140 185 230 290 370 428
#     4  10  21  43  69  97 134 186 238 292 349 418
#     4  10  22  43  68  97 138 189 229 298 350 417
#     4  11  22  39  65  98 136 183 231 293 366 423
#     4  11  24  45  71 102 142 187 240 287 362 430
#     4  12  24  45  72 106 146 184 238 302 362 431
#
# _framework density 24.744826
#
# number of rings (size 3 to 8) (size 9 to 14) (size 15 to 20)
#    0.000    1.250    2.500    3.375    1.750    2.000 
#    6.750    1.250    0.000   10.500    0.000    0.000 
#    0.000    0.000    0.000    0.000    0.000    0.000 
#
# Total GULP energy -89284.849049 kJ/mol
# GULP energy per Si atom -5580.303066 kJ/mol
# Density = 2.468851 g / cm^3
# Si number density = 24.744826 Si / 1000 Ang^3
#
#
#
# Elastic Constant Matrix: (Units=GPa)
#
#
# Indices 1 2 3 4 5 6 
#
# 1 73.5023 26.8248 30.0448 8.2583 -22.5012 -30.5595
# 2 26.8248 88.9618 33.8677 18.7058 -20.3573 -26.9920
# 3 30.0448 33.8677 130.5226 -15.9958 -15.2878 -9.5808
# 4 8.2583 18.7058 -15.9958 50.8193 -16.0189 -2.3266
# 5 -22.5012 -20.3573 -15.2878 -16.0189 54.0707 7.9728
# 6 -30.5595 -26.9920 -9.5808 -2.3266 7.9728 37.2189
#
#
#
# Elastic Compliance Matrix: (Units=1/GPa)
#
#
# Indices 1 2 3 4 5 6 
#
# 1 0.025022 0.002264 -0.004650 -0.003574 0.006019 0.019476
# 2 0.002264 0.018517 -0.004998 -0.007409 0.002385 0.013027
# 3 -0.004650 -0.004998 0.010661 0.006289 0.001750 -0.004681
# 4 -0.003574 -0.007409 0.006289 0.026672 0.006344 -0.006381
# 5 0.006019 0.002385 0.001750 0.006344 0.023918 0.002395
# 6 0.019476 0.013027 -0.004681 -0.006381 0.002395 0.050191
#
#
# Mechanical properties :
#
#
# Convention : Reuss Voigt Hill
#
# Bulk Modulus (GPa) = 25.36131 52.71793 39.03962
# Shear Modulus (GPa) = 27.33822 41.90509 34.62165
#
# Velocity S-wave (km/s) = 3.32747 4.11967 3.74458
# Velocity P-wave (km/s) = 5.00341 6.63172 5.87426
#
# Compressibility (1/GPa) = 0.03943014
#
# Stress axis : x y z
#
# Youngs Moduli (GPa) = 39.96550 54.00387 93.79910
#
# Poissons Ratio (x) = -0.12226 0.43621
# Poissons Ratio (y) = -0.09048 0.46884
# Poissons Ratio (z) = 0.18586 0.26993
#
# Static dielectric constant tensor:
#      x y z
#    x 2.253760 -0.025220 -0.300080 
#    y -0.025220 1.998740 -0.014790 
#    z -0.300080 -0.014790 2.287850 
# 
# From -- ./inp_files/123575.got.cif
#   From: 2010.05.17/outbox.cif.g08.bks.cpg/sg2_62_cif.got.tgz:123575.got - 2010.06.03 11:33:40.
