data_PCOD9018382
_publ_section_title
;
Structure prediction by ZEFSAII (Michael W. Deem and Ramdas Pophale) SiO2 
 PCOD9018382
Probable space group: P -1
;
_chemical_formula_sum "Si O2"
_cell_formula_units_Z 16
_cell_length_a 14.274662
_cell_length_b 11.276142
_cell_length_c 8.567438
_cell_angle_alpha 139.326376
_cell_angle_beta 82.009564
_cell_angle_gamma 124.634897
_cell_volume 620.227341
_symmetry_space_group_name_H-M "P -1"
_symmetry_group_IT_number 2
_symmetry_cell_setting 'triclinic'
loop_
_space_group_symop_operation_xyz
x,y,z
-x,-y,-z
loop_
_atom_site_type_symbol
_atom_site_label
_atom_site_fract_x
_atom_site_fract_y
_atom_site_fract_z
Si Si1 0.078795 0.502157 0.847515
Si Si2 0.017038 0.310616 0.348258
Si Si3 0.173265 0.002355 0.205012
Si Si4 0.678384 0.738786 0.295377
Si Si5 0.286817 0.441888 0.414753
Si Si6 0.424686 0.925963 0.702337
Si Si7 0.606696 0.717708 0.972269
Si Si8 0.312011 0.663129 0.152066
O O1 0.990667 0.279253 0.511447
O O2 0.178923 0.512738 0.931497
O O3 0.000000 0.500000 0.000000
O O4 0.170093 0.777750 0.002888
O O5 0.159387 0.401436 0.400743
O O6 0.000000 0.500000 0.500000
O O7 0.935020 0.111074 0.020608
O O8 0.181225 0.056630 0.441067
O O9 0.285100 0.308507 0.431878
O O10 0.662960 0.845697 0.257786
O O11 0.540689 0.577863 0.266228
O O12 0.661780 0.513310 0.013252
O O13 0.407388 0.749472 0.660959
O O14 0.295410 0.296017 0.137388
O O15 0.313104 0.736830 0.402008
O O16 0.405680 0.108794 0.942016
O O17 0.564357 0.096093 0.744255
#
# Coordination Sequence:
#
# PCOD9018382 Si02
#       8
#     2   2   2   2   2   2   2   2
#     4  11  26  47  76 103 138 191 244 299 362 427
#     4  10  26  49  69 100 146 184 239 298 359 435
#     4  11  26  44  68 103 145 185 240 300 352 434
#     4  10  21  44  67 108 146 187 248 298 339 435
#     4  12  25  45  73 105 147 194 230 293 376 429
#     4  10  23  41  72 108 149 189 230 301 364 424
#     4  10  23  41  74 106 146 192 241 290 358 423
#     4  10  21  43  70 108 145 184 247 300 352 421
#
# _framework density 25.796991999999999
#
# number of rings (size 3 to 8) (size 9 to 14) (size 15 to 20)
#    0.000    1.500    1.250    1.875   10.500    1.500 
#    0.000    3.750    0.000    0.000    0.000    0.000 
#    0.000    0.000    0.000    0.000    0.000    0.000 
#
# Total GULP energy -89175.052205 kJ/mol
# GULP energy per Si atom -5573.440763 kJ/mol
# Density = 2.573828 g / cm^3
# Si number density = 25.796992 Si / 1000 Ang^3
#
#
#
# Elastic Constant Matrix: (Units=GPa)
#
#
# Indices 1 2 3 4 5 6 
#
# 1 102.9272 41.9872 46.0864 -26.5663 -2.0576 -12.4241
# 2 41.9872 97.3980 20.5685 3.9276 -3.1026 -17.9037
# 3 46.0864 20.5685 99.1663 -13.2490 5.6905 -3.5472
# 4 -26.5663 3.9276 -13.2490 42.4340 -23.5073 -10.0993
# 5 -2.0576 -3.1026 5.6905 -23.5073 52.0566 -9.3541
# 6 -12.4241 -17.9037 -3.5472 -10.0993 -9.3541 31.4648
#
#
#
# Elastic Compliance Matrix: (Units=1/GPa)
#
#
# Indices 1 2 3 4 5 6 
#
# 1 0.026513 -0.006597 -0.007187 0.030675 0.019145 0.021442
# 2 -0.006597 0.013945 -0.000378 -0.005532 -0.001326 0.003117
# 3 -0.007187 -0.000378 0.013122 -0.003536 -0.004040 -0.003909
# 4 0.030675 -0.005532 -0.003536 0.078416 0.045154 0.047159
# 5 0.019145 -0.001326 -0.004040 0.045154 0.046974 0.034807
# 6 0.021442 0.003117 -0.003909 0.047159 0.034807 0.067066
#
#
# Mechanical properties :
#
#
# Convention : Reuss Voigt Hill
#
# Bulk Modulus (GPa) = 39.59415 57.41951 48.50683
# Shear Modulus (GPa) = 17.68170 37.91436 27.79803
#
# Velocity S-wave (km/s) = 2.62089 3.83785 3.28620
# Velocity P-wave (km/s) = 4.95383 6.47652 5.76566
#
# Compressibility (1/GPa) = 0.02525626
#
# Stress axis : x y z
#
# Youngs Moduli (GPa) = 37.71712 71.71106 76.20839
#
# Poissons Ratio (x) = 0.47311 0.54768
# Poissons Ratio (y) = 0.24884 0.02879
# Poissons Ratio (z) = 0.27106 0.02709
#
# Static dielectric constant tensor:
#      x y z
#    x 1.941920 0.063960 0.053810 
#    y 0.063960 2.163490 0.020630 
#    z 0.053810 0.020630 2.125130 
# 
# From -- ./inp_files/308778.got.cif
#   From: 2010.05.17/outbox.cif.g08.bks.cpg/sg2_155_cif.got.tgz:308778.got - 2010.06.03 11:33:40.
