data_PCOD9018437
_publ_section_title
;
Structure prediction by ZEFSAII (Michael W. Deem and Ramdas Pophale) SiO2 
 PCOD9018437
Probable space group: P -1
;
_chemical_formula_sum "Si O2"
_cell_formula_units_Z 14
_cell_length_a 11.115537
_cell_length_b 16.962997
_cell_length_c 8.732429
_cell_angle_alpha 56.258172
_cell_angle_beta 42.751976
_cell_angle_gamma 36.066427
_cell_volume 655.019123
_symmetry_space_group_name_H-M "P -1"
_symmetry_group_IT_number 2
_symmetry_cell_setting 'triclinic'
loop_
_space_group_symop_operation_xyz
x,y,z
-x,-y,-z
loop_
_atom_site_type_symbol
_atom_site_label
_atom_site_fract_x
_atom_site_fract_y
_atom_site_fract_z
Si Si1 0.792468 0.526850 0.765491
Si Si2 0.959484 0.986303 0.377036
Si Si3 0.971620 0.186550 0.002398
Si Si4 0.550977 0.545091 0.677341
Si Si5 0.295631 0.720592 0.166854
Si Si6 0.564036 0.895441 0.177152
Si Si7 0.160918 0.394234 0.828360
O O1 0.674366 0.502025 0.778449
O O2 0.000000 0.500000 0.500000
O O3 0.956109 0.433896 0.855719
O O4 0.546375 0.671449 0.908872
O O5 0.167671 0.833285 0.291464
O O6 0.979633 0.072895 0.162979
O O7 0.684342 0.043142 0.566384
O O8 0.000000 0.000000 0.500000
O O9 0.738725 0.318784 0.173852
O O10 0.900723 0.219792 0.853535
O O11 0.225850 0.141789 0.865141
O O12 0.611168 0.416055 0.706455
O O13 0.678718 0.580396 0.422332
O O14 0.665593 0.762865 0.137673
O O15 0.500000 0.000000 0.000000
O O16 0.000000 0.500000 0.000000
#
# Coordination Sequence:
#
# PCOD9018437 Si02
#       7
#     2   2   2   2   2   2   2
#     4   9  20  41  67 100 134 168 219 289 338 391
#     4  12  27  47  67  99 145 184 225 278 337 408
#     4  11  23  48  71  98 135 178 231 283 338 403
#     4  10  21  43  70  97 136 169 224 293 337 392
#     4  11  24  43  72 103 132 181 228 279 345 404
#     4  12  26  45  68  95 140 185 222 280 342 401
#     4  11  24  39  67 102 132 176 231 275 336 408
#
# _framework density 21.373422000000001
#
# number of rings (size 3 to 8) (size 9 to 14) (size 15 to 20)
#    0.000    1.143    2.857    3.857    4.000    0.571 
#    2.571    2.143    0.000    0.000    0.000    0.000 
#    0.000    0.000    0.000    0.000    0.000    0.000 
#
# Total GULP energy -78207.426269 kJ/mol
# GULP energy per Si atom -5586.244733 kJ/mol
# Density = 2.132477 g / cm^3
# Si number density = 21.373422 Si / 1000 Ang^3
#
#
#
# Elastic Constant Matrix: (Units=GPa)
#
#
# Indices 1 2 3 4 5 6 
#
# 1 70.3880 48.8646 56.7492 14.1994 -17.7562 -0.3407
# 2 48.8646 157.9531 49.9521 10.5768 1.9078 39.0329
# 3 56.7492 49.9521 112.3099 18.9226 -23.8287 19.4562
# 4 14.1994 10.5768 18.9226 44.7674 -2.7813 0.6787
# 5 -17.7562 1.9078 -23.8287 -2.7813 42.4768 8.6484
# 6 -0.3407 39.0329 19.4562 0.6787 8.6484 41.7903
#
#
#
# Elastic Compliance Matrix: (Units=1/GPa)
#
#
# Indices 1 2 3 4 5 6 
#
# 1 0.033830 -0.009568 -0.014395 -0.002416 0.003226 0.015286
# 2 -0.009568 0.011704 0.001301 -0.000203 -0.001508 -0.011300
# 3 -0.014395 0.001301 0.019800 -0.003479 0.007246 -0.011994
# 4 -0.002416 -0.000203 -0.003479 0.024490 -0.001704 0.001744
# 5 0.003226 -0.001508 0.007246 -0.001704 0.030590 -0.008241
# 6 0.015286 -0.011300 -0.011994 0.001744 -0.008241 0.041869
#
#
# Mechanical properties :
#
#
# Convention : Reuss Voigt Hill
#
# Bulk Modulus (GPa) = 49.97584 72.42029 61.19806
# Shear Modulus (GPa) = 23.33429 38.14592 30.74010
#
# Velocity S-wave (km/s) = 3.30774 4.22920 3.79653
# Velocity P-wave (km/s) = 6.16613 7.60296 6.92193
#
# Compressibility (1/GPa) = 0.02000967
#
# Stress axis : x y z
#
# Youngs Moduli (GPa) = 29.55945 85.44337 50.50410
#
# Poissons Ratio (x) = 0.81751 0.72701
# Poissons Ratio (y) = 0.28282 -0.06570
# Poissons Ratio (z) = 0.42551 -0.11114
#
# Static dielectric constant tensor:
#      x y z
#    x 1.787650 -0.015590 -0.023980 
#    y -0.015590 1.714950 -0.053640 
#    z -0.023980 -0.053640 1.775550 
# 
# From -- ./inp_files/278928.got.cif
#   From: 2010.05.17/outbox.cif.g08.bks.cpg/sg2_140_cif.got.tgz:278928.got - 2010.06.03 11:33:40.
