data_PCOD9018861
_publ_section_title
;
Structure prediction by ZEFSAII (Michael W. Deem and Ramdas Pophale) SiO2 
 PCOD9018861
Probable space group: P -1
;
_chemical_formula_sum "Si O2"
_cell_formula_units_Z 16
_cell_length_a 21.995057
_cell_length_b 10.407891
_cell_length_c 9.943534
_cell_angle_alpha 127.679626
_cell_angle_beta 128.175663
_cell_angle_gamma 26.671924
_cell_volume 791.962225
_symmetry_space_group_name_H-M "P -1"
_symmetry_group_IT_number 2
_symmetry_cell_setting 'triclinic'
loop_
_space_group_symop_operation_xyz
x,y,z
-x,-y,-z
loop_
_atom_site_type_symbol
_atom_site_label
_atom_site_fract_x
_atom_site_fract_y
_atom_site_fract_z
Si Si1 0.836387 0.108984 0.973971
Si Si2 0.396965 0.212473 0.873499
Si Si3 0.510461 0.825623 0.305891
Si Si4 0.814749 0.684069 0.442231
Si Si5 0.767009 0.864775 0.799798
Si Si6 0.117832 0.069171 0.382318
Si Si7 0.200571 0.765756 0.563543
Si Si8 0.035337 0.738111 0.242311
O O1 0.784689 0.025894 0.909773
O O2 0.874447 0.017555 0.811710
O O3 0.717624 0.449838 0.039084
O O4 0.967702 0.918633 0.126726
O O5 0.481160 0.124258 0.801809
O O6 0.310683 0.201120 0.713645
O O7 0.500000 0.000000 0.000000
O O8 0.654719 0.490023 0.326630
O O9 0.500000 0.000000 0.500000
O O10 0.382137 0.930607 0.221849
O O11 0.791467 0.748959 0.610123
O O12 0.831713 0.832656 0.497085
O O13 0.959824 0.343123 0.392999
O O14 0.882775 0.572298 0.860004
O O15 0.208273 0.824791 0.462890
O O16 0.141724 0.686245 0.412532
O O17 0.088695 0.054741 0.686601
#
# Coordination Sequence:
#
# PCOD9018861 Si02
#       8
#     2   2   2   2   2   2   2   2
#     4  11  26  42  64 102 134 168 215 281 324 380
#     4  12  27  45  64  94 138 170 215 273 330 382
#     4  12  24  44  69  94 125 180 222 259 318 402
#     4  10  21  44  65  95 131 171 216 268 314 396
#     4  11  23  43  71  96 133 173 222 264 324 389
#     4  10  23  40  69  96 128 170 217 265 330 379
#     4  11  22  39  71  96 125 173 225 260 321 391
#     4  11  21  41  67  97 133 168 214 279 321 376
#
# _framework density 20.202985000000002
#
# number of rings (size 3 to 8) (size 9 to 14) (size 15 to 20)
#    0.000    1.000    5.000    1.125    1.750    4.500 
#    2.250    2.500    0.000    0.000    0.000    0.000 
#    0.000    0.000    0.000    0.000    0.000    0.000 
#
# Total GULP energy -89506.956535 kJ/mol
# GULP energy per Si atom -5594.184783 kJ/mol
# Density = 2.015700 g / cm^3
# Si number density = 20.202985 Si / 1000 Ang^3
#
#
#
# Elastic Constant Matrix: (Units=GPa)
#
#
# Indices 1 2 3 4 5 6 
#
# 1 101.4355 32.6611 26.0063 -16.7010 -12.0448 -13.4925
# 2 32.6611 107.2123 21.1671 -20.8595 -5.9605 3.7163
# 3 26.0063 21.1671 72.0154 -8.6277 -11.6853 -0.4245
# 4 -16.7010 -20.8595 -8.6277 29.3465 6.8138 -6.8734
# 5 -12.0448 -5.9605 -11.6853 6.8138 33.1166 -6.1856
# 6 -13.4925 3.7163 -0.4245 -6.8734 -6.1856 30.6056
#
#
#
# Elastic Compliance Matrix: (Units=1/GPa)
#
#
# Indices 1 2 3 4 5 6 
#
# 1 0.014125 -0.002552 -0.002877 0.006511 0.003959 0.008760
# 2 -0.002552 0.011685 -0.001949 0.006198 -0.001048 -0.001391
# 3 -0.002877 -0.001949 0.016284 0.000841 0.004220 0.000236
# 4 0.006511 0.006198 0.000841 0.045997 -0.003488 0.011755
# 5 0.003959 -0.001048 0.004220 -0.003488 0.035198 0.008262
# 6 0.008760 -0.001391 0.000236 0.011755 0.008262 0.041017
#
#
# Mechanical properties :
#
#
# Convention : Reuss Voigt Hill
#
# Bulk Modulus (GPa) = 36.57576 48.92579 42.75078
# Shear Modulus (GPa) = 26.57110 32.00233 29.28671
#
# Velocity S-wave (km/s) = 3.63051 3.98432 3.81152
# Velocity P-wave (km/s) = 5.97642 6.74063 6.36999
#
# Compressibility (1/GPa) = 0.02734051
#
# Stress axis : x y z
#
# Youngs Moduli (GPa) = 70.79636 85.57747 61.40856
#
# Poissons Ratio (x) = 0.21837 0.17665
# Poissons Ratio (y) = 0.18065 0.11967
# Poissons Ratio (z) = 0.20366 0.16677
#
# Static dielectric constant tensor:
#      x y z
#    x 1.705320 0.014880 0.006630 
#    y 0.014880 1.718970 0.011910 
#    z 0.006630 0.011910 1.708280 
# 
# From -- ./inp_files/209518.got.cif
#   From: 2010.05.17/outbox.cif.g08.bks.cpg/sg2_105_cif.got.tgz:209518.got - 2010.06.03 11:33:40.
