data_PCOD9018360
_publ_section_title
;
Structure prediction by ZEFSAII (Michael W. Deem and Ramdas Pophale) SiO2 
 PCOD9018360
Probable space group: P -1
;
_chemical_formula_sum "Si O2"
_cell_formula_units_Z 16
_cell_length_a 12.435280
_cell_length_b 9.664964
_cell_length_c 10.969554
_cell_angle_alpha 65.644203
_cell_angle_beta 130.705032
_cell_angle_gamma 131.973961
_cell_volume 742.374244
_symmetry_space_group_name_H-M "P -1"
_symmetry_group_IT_number 2
_symmetry_cell_setting 'triclinic'
loop_
_space_group_symop_operation_xyz
x,y,z
-x,-y,-z
loop_
_atom_site_type_symbol
_atom_site_label
_atom_site_fract_x
_atom_site_fract_y
_atom_site_fract_z
Si Si1 0.114116 0.773070 0.055501
Si Si2 0.390709 0.570090 0.833152
Si Si3 0.613016 0.314643 0.721956
Si Si4 0.274059 0.159491 0.150227
Si Si5 0.029692 0.348129 0.528240
Si Si6 0.771553 0.511417 0.018633
Si Si7 0.905200 0.687712 0.684560
Si Si8 0.776481 0.929530 0.568431
O O1 0.970693 0.603118 0.097241
O O2 0.029709 0.724958 0.876903
O O3 0.288237 0.783627 0.182837
O O4 0.154412 0.966779 0.060393
O O5 0.528298 0.740562 0.787559
O O6 0.223242 0.416519 0.688345
O O7 0.500000 0.500000 0.000000
O O8 0.307876 0.605966 0.874616
O O9 0.651224 0.395326 0.857687
O O10 0.717800 0.495980 0.646215
O O11 0.412606 0.178354 0.592672
O O12 0.227730 0.305078 0.035476
O O13 0.252547 0.121688 0.291557
O O14 0.024721 0.325601 0.387403
O O15 0.000000 0.500000 0.500000
O O16 0.887335 0.149832 0.553888
O O17 0.877707 0.851499 0.610616
#
# Coordination Sequence:
#
# PCOD9018360 Si02
#       8
#     2   2   2   2   2   2   2   2
#     4  11  24  41  72 103 140 177 234 284 343 409
#     4  10  25  42  72  98 139 176 228 282 340 413
#     4  11  25  42  72 105 139 180 229 290 344 409
#     4  11  23  42  72 104 132 182 239 275 344 411
#     4  12  30  47  69 104 142 180 227 293 355 402
#     4  10  21  43  70 101 137 179 230 281 346 406
#     4  11  25  47  71 100 141 185 229 279 348 414
#     4  12  26  46  72  99 141 186 233 283 340 419
#
# _framework density 21.552471000000001
#
# number of rings (size 3 to 8) (size 9 to 14) (size 15 to 20)
#    0.000    1.000    2.500    4.125   14.000    1.500 
#    0.000    1.250    0.000    0.000    0.000    0.000 
#    0.000    0.000    0.000    0.000    0.000    0.000 
#
# Total GULP energy -89525.379465 kJ/mol
# GULP energy per Si atom -5595.336217 kJ/mol
# Density = 2.150342 g / cm^3
# Si number density = 21.552471 Si / 1000 Ang^3
#
#
#
# Elastic Constant Matrix: (Units=GPa)
#
#
# Indices 1 2 3 4 5 6 
#
# 1 119.2970 44.6369 31.4497 -7.0246 -28.1006 -12.7183
# 2 44.6369 113.8543 20.7551 8.5040 0.7199 -7.8866
# 3 31.4497 20.7551 42.1471 4.2246 -2.6371 -4.1715
# 4 -7.0246 8.5040 4.2246 27.0586 -1.5291 1.6115
# 5 -28.1006 0.7199 -2.6371 -1.5291 38.9810 -6.4190
# 6 -12.7183 -7.8866 -4.1715 1.6115 -6.4190 39.6329
#
#
#
# Elastic Compliance Matrix: (Units=1/GPa)
#
#
# Indices 1 2 3 4 5 6 
#
# 1 0.016840 -0.005187 -0.009500 0.007901 0.012745 0.005115
# 2 -0.005187 0.011497 -0.001564 -0.004954 -0.004256 -0.000029
# 3 -0.009500 -0.001564 0.031943 -0.007215 -0.005027 -0.000519
# 4 0.007901 -0.004954 -0.007215 0.042074 0.006984 0.000211
# 5 0.012745 -0.004256 -0.005027 0.006984 0.036220 0.008296
# 6 0.005115 -0.000029 -0.000519 0.000211 0.008296 0.028148
#
#
# Mechanical properties :
#
#
# Convention : Reuss Voigt Hill
#
# Bulk Modulus (GPa) = 35.99916 52.10909 44.05412
# Shear Modulus (GPa) = 23.98293 33.03162 28.50727
#
# Velocity S-wave (km/s) = 3.33944 3.91911 3.64083
# Velocity P-wave (km/s) = 5.62214 6.68651 6.17729
#
# Compressibility (1/GPa) = 0.02777843
#
# Stress axis : x y z
#
# Youngs Moduli (GPa) = 59.38125 86.98157 31.30609
#
# Poissons Ratio (x) = 0.45116 0.29741
# Poissons Ratio (y) = 0.30800 0.04895
# Poissons Ratio (z) = 0.56412 0.13601
#
# Static dielectric constant tensor:
#      x y z
#    x 1.822420 -0.004700 0.018850 
#    y -0.004700 1.758830 -0.023790 
#    z 0.018850 -0.023790 1.778710 
# 
# From -- ./inp_files/419318.got.cif
#   From: 2010.05.17/outbox.cif.g08.bks.cpg/sg2_210_cif.got.tgz:419318.got - 2010.06.03 11:33:40.
