data_PCOD9018726
_publ_section_title
;
Structure prediction by ZEFSAII (Michael W. Deem and Ramdas Pophale) SiO2 
 PCOD9018726
Probable space group: P -1
;
_chemical_formula_sum "Si O2"
_cell_formula_units_Z 14
_cell_length_a 9.577628
_cell_length_b 7.239199
_cell_length_c 9.038156
_cell_angle_alpha 113.060596
_cell_angle_beta 84.367088
_cell_angle_gamma 94.950943
_cell_volume 573.011036
_symmetry_space_group_name_H-M "P -1"
_symmetry_group_IT_number 2
_symmetry_cell_setting 'triclinic'
loop_
_space_group_symop_operation_xyz
x,y,z
-x,-y,-z
loop_
_atom_site_type_symbol
_atom_site_label
_atom_site_fract_x
_atom_site_fract_y
_atom_site_fract_z
Si Si1 0.241141 0.066759 0.030606
Si Si2 0.568503 0.690161 0.133652
Si Si3 0.354279 0.251876 0.368516
Si Si4 0.031716 0.713247 0.826585
Si Si5 0.901601 0.088978 0.413396
Si Si6 0.818030 0.674434 0.294327
Si Si7 0.612022 0.285676 0.568043
O O1 0.365996 0.142885 0.932419
O O2 0.301698 0.092123 0.199743
O O3 0.117631 0.224649 0.081731
O O4 0.158716 0.854230 0.931356
O O5 0.686510 0.590338 0.190023
O O6 0.464646 0.776618 0.292137
O O7 0.500000 0.500000 0.000000
O O8 0.243636 0.271217 0.521344
O O9 0.505405 0.231376 0.426315
O O10 0.363527 0.472921 0.361653
O O11 0.030873 0.762999 0.667603
O O12 0.759352 0.183575 0.509955
O O13 0.062499 0.481481 0.765582
O O14 0.000000 0.000000 0.500000
O O15 0.860194 0.880285 0.271654
#
# Coordination Sequence:
#
# PCOD9018726 Si02
#       7
#     2   2   2   2   2   2   2
#     4  11  24  47  72 111 151 195 242 310 373 436
#     4  11  23  44  72 110 147 189 248 302 376 433
#     4  10  21  43  78 104 144 197 242 302 376 428
#     4  11  26  49  73 106 157 193 251 300 369 451
#     4  12  26  46  77 113 143 197 254 304 368 439
#     4  11  25  47  73 107 145 198 247 306 360 441
#     4  10  23  44  73 110 147 184 253 311 360 445
#
# _framework density 24.432338999999999
#
# number of rings (size 3 to 8) (size 9 to 14) (size 15 to 20)
#    0.000    1.143    4.286    0.857    2.000    4.000 
#   10.286    1.429    0.000    0.000    0.000    0.000 
#    0.000    0.000    0.000    0.000    0.000    0.000 
#
# Total GULP energy -78373.037758 kJ/mol
# GULP energy per Si atom -5598.074126 kJ/mol
# Density = 2.437673 g / cm^3
# Si number density = 24.432339 Si / 1000 Ang^3
#
#
#
# Elastic Constant Matrix: (Units=GPa)
#
#
# Indices 1 2 3 4 5 6 
#
# 1 129.4487 11.7475 48.2534 -8.6799 -7.2042 1.1673
# 2 11.7475 56.1336 -2.9340 1.1157 -1.8700 -0.6059
# 3 48.2534 -2.9340 108.6677 1.5114 23.9705 13.2401
# 4 -8.6799 1.1157 1.5114 31.1532 23.8313 1.3633
# 5 -7.2042 -1.8700 23.9705 23.8313 38.8088 5.9540
# 6 1.1673 -0.6059 13.2401 1.3633 5.9540 36.8917
#
#
#
# Elastic Compliance Matrix: (Units=1/GPa)
#
#
# Indices 1 2 3 4 5 6 
#
# 1 0.010523 -0.002259 -0.006308 -0.001902 0.006775 0.000871
# 2 -0.002259 0.018428 0.001347 -0.002056 0.000927 -0.000183
# 3 -0.006308 0.001347 0.016032 0.010568 -0.017010 -0.003177
# 4 -0.001902 -0.002056 0.010568 0.069012 -0.049617 0.001691
# 5 0.006775 0.000927 -0.017010 -0.049617 0.068555 -0.003325
# 6 0.000871 -0.000183 -0.003177 0.001691 -0.003325 0.028690
#
#
# Mechanical properties :
#
#
# Convention : Reuss Voigt Hill
#
# Bulk Modulus (GPa) = 32.74061 45.37597 39.05829
# Shear Modulus (GPa) = 21.19899 37.18297 29.19098
#
# Velocity S-wave (km/s) = 2.94880 3.90535 3.46029
# Velocity P-wave (km/s) = 5.00235 6.24084 5.65560
#
# Compressibility (1/GPa) = 0.03054311
#
# Stress axis : x y z
#
# Youngs Moduli (GPa) = 95.02970 54.26650 62.37503
#
# Poissons Ratio (x) = 0.12259 0.39345
# Poissons Ratio (y) = 0.21467 -0.08402
# Poissons Ratio (z) = 0.59943 -0.07310
#
# Static dielectric constant tensor:
#      x y z
#    x 1.977090 0.081050 0.059390 
#    y 0.081050 2.049140 0.081220 
#    z 0.059390 0.081220 2.014680 
# 
# From -- ./inp_files/310176.got.cif
#   From: 2010.05.17/outbox.cif.g08.bks.cpg/sg2_156_cif.got.tgz:310176.got - 2010.06.03 11:33:40.
