data_PCOD9018658
_publ_section_title
;
Structure prediction by ZEFSAII (Michael W. Deem and Ramdas Pophale) SiO2 
 PCOD9018658
Probable space group: P -1
;
_chemical_formula_sum "Si O2"
_cell_formula_units_Z 16
_cell_length_a 9.698512
_cell_length_b 12.333728
_cell_length_c 13.690989
_cell_angle_alpha 151.206650
_cell_angle_beta 110.119942
_cell_angle_gamma 70.264717
_cell_volume 738.285555
_symmetry_space_group_name_H-M "P -1"
_symmetry_group_IT_number 2
_symmetry_cell_setting 'triclinic'
loop_
_space_group_symop_operation_xyz
x,y,z
-x,-y,-z
loop_
_atom_site_type_symbol
_atom_site_label
_atom_site_fract_x
_atom_site_fract_y
_atom_site_fract_z
Si Si1 0.045097 0.236762 0.743824
Si Si2 0.481431 0.177248 0.550530
Si Si3 0.208003 0.459338 0.783107
Si Si4 0.047121 0.293765 0.417728
Si Si5 0.547688 0.893578 0.031164
Si Si6 0.753834 0.431632 0.749369
Si Si7 0.705056 0.061896 0.845516
Si Si8 0.183134 0.900917 0.666007
O O1 0.155267 0.340859 0.775203
O O2 0.892988 0.402057 0.835554
O O3 0.117441 0.129011 0.775289
O O4 0.000000 0.000000 0.500000
O O5 0.372916 0.375314 0.725449
O O6 0.634133 0.268851 0.630346
O O7 0.500000 0.000000 0.500000
O O8 0.403426 0.047785 0.343483
O O9 0.114643 0.382641 0.606277
O O10 0.213061 0.726661 0.008030
O O11 0.913384 0.148914 0.303041
O O12 0.000000 0.500000 0.500000
O O13 0.168344 0.136158 0.264482
O O14 0.397798 0.864124 0.030066
O O15 0.647815 0.071329 0.246709
O O16 0.658195 0.664283 0.882325
O O17 0.500000 0.000000 0.000000
O O18 0.820676 0.315459 0.575994
#
# Coordination Sequence:
#
# PCOD9018658 Si02
#       8
#     2   2   2   2   2   2   2   2
#     4  10  21  43  73  99 137 179 232 288 344 419
#     4  11  23  41  69  97 141 181 218 281 352 424
#     4  11  23  44  67 101 141 181 229 287 351 410
#     4  11  27  45  72  99 140 188 234 291 351 412
#     4  12  29  46  69 102 140 187 238 286 341 420
#     4  11  23  44  71 100 138 180 231 287 353 407
#     4  11  27  45  65 105 137 179 238 281 350 420
#     4  11  25  47  70 104 136 184 237 287 351 412
#
# _framework density 21.671831999999998
#
# number of rings (size 3 to 8) (size 9 to 14) (size 15 to 20)
#    0.000    1.000    5.000    1.500    7.000    3.000 
#    0.000    0.000    0.000    0.000    0.000    0.000 
#    0.000    0.000    0.000    0.000    0.000    0.000 
#
# Total GULP energy -89357.209263 kJ/mol
# GULP energy per Si atom -5584.825579 kJ/mol
# Density = 2.162251 g / cm^3
# Si number density = 21.671832 Si / 1000 Ang^3
#
#
#
# Elastic Constant Matrix: (Units=GPa)
#
#
# Indices 1 2 3 4 5 6 
#
# 1 127.6560 43.9959 24.7006 22.5620 -3.2183 9.8716
# 2 43.9959 127.2673 32.3238 38.4241 -9.9884 10.3957
# 3 24.7006 32.3238 60.8497 27.3677 -10.8164 -5.3911
# 4 22.5620 38.4241 27.3677 24.4488 -4.9978 0.0946
# 5 -3.2183 -9.9884 -10.8164 -4.9978 40.3618 6.2206
# 6 9.8716 10.3957 -5.3911 0.0946 6.2206 27.3849
#
#
#
# Elastic Compliance Matrix: (Units=1/GPa)
#
#
# Indices 1 2 3 4 5 6 
#
# 1 0.009727 -0.000848 -0.000717 -0.006821 0.000039 -0.003311
# 2 -0.000848 0.016843 0.005379 -0.031172 0.002529 -0.005496
# 3 -0.000717 0.005379 0.036587 -0.047856 0.004448 0.004574
# 4 -0.006821 -0.031172 -0.047856 0.149037 -0.003419 0.005133
# 5 0.000039 0.002529 0.004448 -0.003419 0.027137 -0.006251
# 6 -0.003311 -0.005496 0.004574 0.005133 -0.006251 0.042099
#
#
# Mechanical properties :
#
#
# Convention : Reuss Voigt Hill
#
# Bulk Modulus (GPa) = 14.12686 57.53484 35.83085
# Shear Modulus (GPa) = 16.81260 32.75595 24.78428
#
# Velocity S-wave (km/s) = 2.78831 3.89196 3.38541
# Velocity P-wave (km/s) = 4.11083 6.84122 5.64363
#
# Compressibility (1/GPa) = 0.07078712
#
# Stress axis : x y z
#
# Youngs Moduli (GPa) = 102.80721 59.37205 27.33207
#
# Poissons Ratio (x) = 0.05032 0.01959
# Poissons Ratio (y) = 0.08714 -0.14703
# Poissons Ratio (z) = 0.07368 -0.31939
#
# Static dielectric constant tensor:
#      x y z
#    x 1.737770 -0.006590 -0.006770 
#    y -0.006590 1.757950 -0.038660 
#    z -0.006770 -0.038660 1.798020 
# 
# From -- ./inp_files/399965.got.cif
#   From: 2010.05.17/outbox.cif.g08.bks.cpg/sg2_200_cif.got.tgz:399965.got - 2010.06.03 11:33:40.
