data_PCOD9018617
_publ_section_title
;
Structure prediction by ZEFSAII (Michael W. Deem and Ramdas Pophale) SiO2 
 PCOD9018617
Probable space group: P -1
;
_chemical_formula_sum "Si O2"
_cell_formula_units_Z 13
_cell_length_a 8.696920
_cell_length_b 11.460791
_cell_length_c 9.197009
_cell_angle_alpha 143.743035
_cell_angle_beta 69.184140
_cell_angle_gamma 111.781734
_cell_volume 500.798346
_symmetry_space_group_name_H-M "P -1"
_symmetry_group_IT_number 2
_symmetry_cell_setting 'triclinic'
loop_
_space_group_symop_operation_xyz
x,y,z
-x,-y,-z
loop_
_atom_site_type_symbol
_atom_site_label
_atom_site_fract_x
_atom_site_fract_y
_atom_site_fract_z
Si Si1 0.305889 0.610905 0.595299
Si Si2 0.980711 0.787447 0.376766
Si Si3 0.500000 0.500000 0.000000
Si Si4 0.391030 0.195030 0.488337
Si Si5 0.657802 0.708738 0.953327
Si Si6 0.708645 0.283761 0.960787
Si Si7 0.880600 0.111597 0.250914
O O1 0.488145 0.726707 0.606799
O O2 0.301117 0.389538 0.309782
O O3 0.176189 0.715453 0.651956
O O4 0.278849 0.641790 0.803872
O O5 0.118056 0.679531 0.142569
O O6 0.034979 0.817994 0.556161
O O7 0.783308 0.720031 0.374799
O O8 0.000000 0.000000 0.500000
O O9 0.514200 0.715658 0.310670
O O10 0.300950 0.418756 0.052874
O O11 0.349218 0.956236 0.257461
O O12 0.454327 0.642379 0.985482
O O13 0.724666 0.938736 0.164510
O O14 0.000000 0.000000 0.000000
#
# Coordination Sequence:
#
# PCOD9018617 Si02
#       7
#     2   2   1   2   2   2   2
#     4  11  25  45  74 106 142 193 248 293 361 440
#     4  10  23  41  72 106 141 189 240 295 367 423
#     4  10  24  42  68 110 140 180 246 296 348 430
#     4  10  21  43  72  99 146 182 239 294 360 435
#     4  11  25  43  74 106 147 192 249 294 361 441
#     4  11  22  42  75 104 145 194 239 305 363 424
#     4  12  26  46  77 107 147 195 238 306 371 423
#
# _framework density 25.958552999999998
#
# number of rings (size 3 to 8) (size 9 to 14) (size 15 to 20)
#    0.000    1.231    1.538    4.615    6.462    1.846 
#    0.000    4.615    0.000    0.000    0.000    0.000 
#    0.000    0.000    0.000    0.000    0.000    0.000 
#
# Total GULP energy -72709.777613 kJ/mol
# GULP energy per Si atom -5593.059816 kJ/mol
# Density = 2.589947 g / cm^3
# Si number density = 25.958553 Si / 1000 Ang^3
#
#
#
# Elastic Constant Matrix: (Units=GPa)
#
#
# Indices 1 2 3 4 5 6 
#
# 1 149.0026 39.8384 50.7970 -26.0215 -9.4671 -15.9722
# 2 39.8384 89.3455 46.5687 -21.2180 21.2474 -10.3482
# 3 50.7970 46.5687 170.3592 -41.3646 12.0492 -16.5644
# 4 -26.0215 -21.2180 -41.3646 67.4550 4.9382 3.7039
# 5 -9.4671 21.2474 12.0492 4.9382 51.0459 -7.6255
# 6 -15.9722 -10.3482 -16.5644 3.7039 -7.6255 50.7352
#
#
#
# Elastic Compliance Matrix: (Units=1/GPa)
#
#
# Indices 1 2 3 4 5 6 
#
# 1 0.008786 -0.003552 -0.001469 0.000991 0.003663 0.002040
# 2 -0.003552 0.016343 -0.002159 0.002963 -0.007207 0.000211
# 3 -0.001469 -0.002159 0.008021 0.003711 -0.001443 0.001228
# 4 0.000991 0.002963 0.003711 0.018674 -0.003701 0.000208
# 5 0.003663 -0.007207 -0.001443 -0.003701 0.024439 0.003156
# 6 0.002040 0.000211 0.001228 0.000208 0.003156 0.021256
#
#
# Mechanical properties :
#
#
# Convention : Reuss Voigt Hill
#
# Bulk Modulus (GPa) = 53.21652 75.90172 64.55912
# Shear Modulus (GPa) = 42.32199 51.94744 47.13471
#
# Velocity S-wave (km/s) = 4.04216 4.47830 4.26581
# Velocity P-wave (km/s) = 6.50619 7.48620 7.01333
#
# Compressibility (1/GPa) = 0.01879116
#
# Stress axis : x y z
#
# Youngs Moduli (GPa) = 113.81428 61.18701 124.67925
#
# Poissons Ratio (x) = 0.21731 0.18316
# Poissons Ratio (y) = 0.40421 0.26917
# Poissons Ratio (z) = 0.16720 0.13210
#
# Static dielectric constant tensor:
#      x y z
#    x 2.128630 -0.044510 -0.036700 
#    y -0.044510 2.174720 -0.022670 
#    z -0.036700 -0.022670 2.036760 
# 
# From -- ./inp_files/183517.got.cif
#   From: 2010.05.17/outbox.cif.g08.bks.cpg/sg2_92_cif.got.tgz:183517.got - 2010.06.03 11:33:40.
