data_PCOD9018241
_publ_section_title
;
Structure prediction by ZEFSAII (Michael W. Deem and Ramdas Pophale) SiO2 
 PCOD9018241
Probable space group: P -1
;
_chemical_formula_sum "Si O2"
_cell_formula_units_Z 14
_cell_length_a 5.451267
_cell_length_b 9.455769
_cell_length_c 19.760895
_cell_angle_alpha 137.053295
_cell_angle_beta 123.513673
_cell_angle_gamma 73.036208
_cell_volume 567.175619
_symmetry_space_group_name_H-M "P -1"
_symmetry_group_IT_number 2
_symmetry_cell_setting 'triclinic'
loop_
_space_group_symop_operation_xyz
x,y,z
-x,-y,-z
loop_
_atom_site_type_symbol
_atom_site_label
_atom_site_fract_x
_atom_site_fract_y
_atom_site_fract_z
Si Si1 0.193378 0.780261 0.132372
Si Si2 0.189364 0.231098 0.319954
Si Si3 0.379144 0.359805 0.534397
Si Si4 0.713977 0.422135 0.270192
Si Si5 0.047742 0.234931 0.057634
Si Si6 0.824074 0.646147 0.166746
Si Si7 0.087012 0.826947 0.401318
O O1 0.481112 0.675429 0.126204
O O2 0.992258 0.690197 0.135053
O O3 0.322449 0.026993 0.253448
O O4 0.993631 0.778122 0.034014
O O5 0.170779 0.255648 0.406001
O O6 0.394421 0.441570 0.394642
O O7 0.872726 0.222568 0.231816
O O8 0.230008 0.458951 0.607599
O O9 0.578334 0.203485 0.541505
O O10 0.371867 0.351967 0.174144
O O11 0.873487 0.603537 0.309037
O O12 0.838470 0.403269 0.103602
O O13 0.000000 0.000000 0.000000
O O14 0.012314 0.821088 0.308379
O O15 0.000000 0.000000 0.500000
#
# Coordination Sequence:
#
# PCOD9018241 Si02
#       7
#     2   2   2   2   2   2   2
#     4  12  29  50  80 112 162 210 263 326 405 464
#     4  10  24  42  72 110 147 203 254 326 398 470
#     4  10  21  43  69 106 149 194 266 320 389 471
#     4  11  24  45  74 109 150 198 272 320 390 470
#     4  12  28  52  83 112 157 211 270 329 390 465
#     4  12  28  54  75 119 160 204 269 329 396 481
#     4  11  25  44  76 109 156 206 256 324 401 477
#
# _framework density 24.683710999999999
#
# number of rings (size 3 to 8) (size 9 to 14) (size 15 to 20)
#    0.000    0.857    1.429    3.857    8.000    2.286 
#    0.000    0.000    0.000    0.000    0.000    0.000 
#    0.000    0.000    0.000    0.000    0.000    0.000 
#
# Total GULP energy -78376.071868 kJ/mol
# GULP energy per Si atom -5598.290848 kJ/mol
# Density = 2.462753 g / cm^3
# Si number density = 24.683711 Si / 1000 Ang^3
#
#
#
# Elastic Constant Matrix: (Units=GPa)
#
#
# Indices 1 2 3 4 5 6 
#
# 1 107.4503 67.2185 17.2115 7.7237 -25.2502 -17.8815
# 2 67.2185 166.3923 55.8126 12.1468 -13.6846 -14.7443
# 3 17.2115 55.8126 104.8768 5.4194 -29.7257 0.6099
# 4 7.7237 12.1468 5.4194 21.1041 7.3515 -17.3525
# 5 -25.2502 -13.6846 -29.7257 7.3515 38.6443 -6.8075
# 6 -17.8815 -14.7443 0.6099 -17.3525 -6.8075 49.2812
#
#
#
# Elastic Compliance Matrix: (Units=1/GPa)
#
#
# Indices 1 2 3 4 5 6 
#
# 1 0.017201 -0.006699 0.005119 -0.005268 0.014569 0.004331
# 2 -0.006699 0.010247 -0.005815 -0.000214 -0.005196 -0.000086
# 3 0.005119 -0.005815 0.016727 -0.009265 0.015706 -0.001182
# 4 -0.005268 -0.000214 -0.009265 0.077873 -0.021479 0.022592
# 5 0.014569 -0.005196 0.015706 -0.021479 0.050237 0.002914
# 6 0.004331 -0.000086 -0.001182 0.022592 0.002914 0.030210
#
#
# Mechanical properties :
#
#
# Convention : Reuss Voigt Hill
#
# Bulk Modulus (GPa) = 34.03250 73.24496 53.63873
# Shear Modulus (GPa) = 22.01868 37.70437 29.86153
#
# Velocity S-wave (km/s) = 2.98993 3.91256 3.48194
# Velocity P-wave (km/s) = 5.07316 7.08157 6.15977
#
# Compressibility (1/GPa) = 0.02938368
#
# Stress axis : x y z
#
# Youngs Moduli (GPa) = 58.13774 97.58631 59.78384
#
# Poissons Ratio (x) = 0.65373 -0.30601
# Poissons Ratio (y) = 0.38946 0.34765
# Poissons Ratio (z) = -0.29758 0.56748
#
# Static dielectric constant tensor:
#      x y z
#    x 1.945010 0.018900 -0.033650 
#    y 0.018900 2.008700 -0.022990 
#    z -0.033650 -0.022990 1.961570 
# 
# From -- ./inp_files/360302.got.cif
#   From: 2010.05.17/outbox.cif.g08.bks.cpg/sg2_181_cif.got.tgz:360302.got - 2010.06.03 11:33:40.
