data_PCOD9018831
_publ_section_title
;
Structure prediction by ZEFSAII (Michael W. Deem and Ramdas Pophale) SiO2 
 PCOD9018831
Probable space group: P -1
;
_chemical_formula_sum "Si O2"
_cell_formula_units_Z 16
_cell_length_a 16.830853
_cell_length_b 8.912587
_cell_length_c 10.292134
_cell_angle_alpha 77.890346
_cell_angle_beta 62.914696
_cell_angle_gamma 129.959746
_cell_volume 713.371079
_symmetry_space_group_name_H-M "P -1"
_symmetry_group_IT_number 2
_symmetry_cell_setting 'triclinic'
loop_
_space_group_symop_operation_xyz
x,y,z
-x,-y,-z
loop_
_atom_site_type_symbol
_atom_site_label
_atom_site_fract_x
_atom_site_fract_y
_atom_site_fract_z
Si Si1 0.969565 0.860888 0.414590
Si Si2 0.726833 0.914981 0.838998
Si Si3 0.863949 0.275119 0.261549
Si Si4 0.406011 0.318087 0.314322
Si Si5 0.692513 0.322784 0.329026
Si Si6 0.895286 0.635936 0.857429
Si Si7 0.363495 0.880606 0.032126
Si Si8 0.656814 0.439466 0.572179
O O1 0.090874 0.892723 0.317780
O O2 0.023074 0.078714 0.240859
O O3 0.000000 0.000000 0.500000
O O4 0.788538 0.552226 0.551386
O O5 0.670923 0.821696 0.746891
O O6 0.603204 0.628363 0.073388
O O7 0.709275 0.067019 0.865126
O O8 0.798785 0.350517 0.327278
O O9 0.972386 0.311669 0.257506
O O10 0.678322 0.920336 0.474658
O O11 0.000000 0.500000 0.000000
O O12 0.356300 0.410159 0.390310
O O13 0.703153 0.489328 0.378912
O O14 0.500000 0.000000 0.500000
O O15 0.783330 0.458752 0.100075
O O16 0.776377 0.439252 0.857197
O O17 0.475126 0.097359 0.786706
O O18 0.500000 0.000000 0.000000
#
# Coordination Sequence:
#
# PCOD9018831 Si02
#       8
#     2   2   2   2   2   2   2   2
#     4  12  23  44  69 102 141 176 225 286 346 409
#     4  10  24  38  69 101 139 178 225 275 355 403
#     4  10  23  44  68  92 135 181 227 283 340 396
#     4  10  21  44  64  99 138 177 223 283 335 419
#     4  11  25  44  69  97 130 182 233 281 337 395
#     4  11  24  45  66  95 142 178 225 286 339 405
#     4  11  25  42  67 103 138 181 230 276 347 417
#     4  11  23  43  68  95 138 175 229 279 341 407
#
# _framework density 22.428719000000001
#
# number of rings (size 3 to 8) (size 9 to 14) (size 15 to 20)
#    0.000    1.250    3.750    0.750    8.750    0.500 
#    0.000    2.500    0.000    0.000    0.000    0.000 
#    0.000    0.000    0.000    0.000    0.000    0.000 
#
# Total GULP energy -89125.673892 kJ/mol
# GULP energy per Si atom -5570.354618 kJ/mol
# Density = 2.237767 g / cm^3
# Si number density = 22.428719 Si / 1000 Ang^3
#
#
#
# Elastic Constant Matrix: (Units=GPa)
#
#
# Indices 1 2 3 4 5 6 
#
# 1 61.0395 13.7626 10.2729 10.9141 -15.4037 -9.7544
# 2 13.7626 102.3479 30.4319 19.7160 -15.6469 3.5966
# 3 10.2729 30.4319 103.9239 6.5047 -6.2951 -11.3954
# 4 10.9141 19.7160 6.5047 25.3378 -3.8781 3.1127
# 5 -15.4037 -15.6469 -6.2951 -3.8781 30.0834 -1.3685
# 6 -9.7544 3.5966 -11.3954 3.1127 -1.3685 19.4734
#
#
#
# Elastic Compliance Matrix: (Units=1/GPa)
#
#
# Indices 1 2 3 4 5 6 
#
# 1 0.023296 -0.000151 0.000652 -0.010130 0.011340 0.014495
# 2 -0.000151 0.013231 -0.003353 -0.008273 0.004908 -0.002814
# 3 0.000652 -0.003353 0.011585 -0.001451 0.001193 0.008040
# 4 -0.010130 -0.008273 -0.001451 0.051656 -0.003721 -0.012914
# 5 0.011340 0.004908 0.001193 -0.003721 0.041780 0.009003
# 6 0.014495 -0.002814 0.008040 -0.012914 0.009003 0.066534
#
#
# Mechanical properties :
#
#
# Convention : Reuss Voigt Hill
#
# Bulk Modulus (GPa) = 23.58069 41.80515 32.69292
# Shear Modulus (GPa) = 21.93735 29.16851 25.55293
#
# Velocity S-wave (km/s) = 3.13084 3.61015 3.37901
# Velocity P-wave (km/s) = 4.85860 6.00476 5.46183
#
# Compressibility (1/GPa) = 0.04240757
#
# Stress axis : x y z
#
# Youngs Moduli (GPa) = 42.92503 75.58207 86.32209
#
# Poissons Ratio (x) = 0.01139 -0.05624
# Poissons Ratio (y) = 0.00647 0.28943
# Poissons Ratio (z) = -0.02797 0.25342
#
# Static dielectric constant tensor:
#      x y z
#    x 1.882860 0.022100 0.068810 
#    y 0.022100 1.780920 -0.050220 
#    z 0.068810 -0.050220 1.984020 
# 
# From -- ./inp_files/461235.got.cif
#   From: 2010.05.17/outbox.cif.g08.bks.cpg/sg2_231_cif.got.tgz:461235.got - 2010.06.03 11:33:40.
