data_PCOD9018885
_publ_section_title
;
Structure prediction by ZEFSAII (Michael W. Deem and Ramdas Pophale) SiO2 
 PCOD9018885
Probable space group: P -1
;
_chemical_formula_sum "Si O2"
_cell_formula_units_Z 16
_cell_length_a 15.902443
_cell_length_b 9.433812
_cell_length_c 9.731956
_cell_angle_alpha 70.156694
_cell_angle_beta 143.272714
_cell_angle_gamma 108.519211
_cell_volume 818.548853
_symmetry_space_group_name_H-M "P -1"
_symmetry_group_IT_number 2
_symmetry_cell_setting 'triclinic'
loop_
_space_group_symop_operation_xyz
x,y,z
-x,-y,-z
loop_
_atom_site_type_symbol
_atom_site_label
_atom_site_fract_x
_atom_site_fract_y
_atom_site_fract_z
Si Si1 0.854994 0.908441 0.218143
Si Si2 0.594708 0.425110 0.034033
Si Si3 0.889600 0.573744 0.424194
Si Si4 0.860226 0.914575 0.538486
Si Si5 0.560119 0.458792 0.444858
Si Si6 0.869889 0.557551 0.724956
Si Si7 0.549933 0.871640 0.706126
Si Si8 0.603640 0.082903 0.222334
O O1 0.922004 0.751940 0.391046
O O2 0.813300 0.947587 0.307535
O O3 0.717271 0.886503 0.950720
O O4 0.976898 0.018732 0.272912
O O5 0.735032 0.534533 0.173437
O O6 0.637986 0.258282 0.171757
O O7 0.500000 0.500000 0.000000
O O8 0.502474 0.422339 0.778778
O O9 0.884407 0.519727 0.593704
O O10 0.000000 0.500000 0.500000
O O11 0.857568 0.739423 0.638805
O O12 0.746595 0.998358 0.449301
O O13 0.500000 0.500000 0.500000
O O14 0.727899 0.480903 0.634146
O O15 0.501929 0.292416 0.370255
O O16 0.000000 0.500000 0.000000
O O17 0.477630 0.902942 0.746217
O O18 0.500000 0.000000 0.500000
O O19 0.500000 0.000000 0.000000
#
# Coordination Sequence:
#
# PCOD9018885 Si02
#       8
#     2   2   2   2   2   2   2   2
#     4  10  21  44  66 100 137 176 223 282 335 412
#     4  12  22  45  72  97 134 177 237 293 332 410
#     4  11  22  41  70  98 130 179 229 282 343 407
#     4  10  23  42  70 102 136 177 227 276 343 413
#     4  12  28  46  71 101 137 187 237 290 350 405
#     4  11  26  45  67  99 142 180 230 288 347 414
#     4  12  27  44  67 102 144 176 228 289 346 410
#     4  12  23  42  72 102 131 181 232 279 344 409
#
# _framework density 19.546786000000001
#
# number of rings (size 3 to 8) (size 9 to 14) (size 15 to 20)
#    0.000    0.750    5.000    1.500    7.000    0.000 
#    0.000    0.625    0.000    0.000    0.000    0.000 
#    0.000    0.000    0.000    0.000    0.000    0.000 
#
# Total GULP energy -89311.345545 kJ/mol
# GULP energy per Si atom -5581.959097 kJ/mol
# Density = 1.950230 g / cm^3
# Si number density = 19.546786 Si / 1000 Ang^3
#
#
#
# Elastic Constant Matrix: (Units=GPa)
#
#
# Indices 1 2 3 4 5 6 
#
# 1 139.4415 41.2173 53.7475 14.5546 12.7216 -17.1580
# 2 41.2173 102.7923 32.3092 8.4412 11.1751 1.3074
# 3 53.7475 32.3092 129.1457 3.9207 13.7123 5.2046
# 4 14.5546 8.4412 3.9207 31.6704 3.0101 4.3826
# 5 12.7216 11.1751 13.7123 3.0101 35.0806 2.5892
# 6 -17.1580 1.3074 5.2046 4.3826 2.5892 32.5038
#
#
#
# Elastic Compliance Matrix: (Units=1/GPa)
#
#
# Indices 1 2 3 4 5 6 
#
# 1 0.011019 -0.002717 -0.003872 -0.004707 -0.001753 0.007320
# 2 -0.002717 0.011615 -0.001477 -0.001296 -0.001927 -0.001337
# 3 -0.003872 -0.001477 0.010025 0.001620 -0.001913 -0.003656
# 4 -0.004707 -0.001296 0.001620 0.034990 -0.000975 -0.007332
# 5 -0.001753 -0.001927 -0.001913 -0.000975 0.030798 -0.002864
# 6 0.007320 -0.001337 -0.003656 -0.007332 -0.002864 0.036486
#
#
# Mechanical properties :
#
#
# Convention : Reuss Voigt Hill
#
# Bulk Modulus (GPa) = 60.50765 69.54747 65.02756
# Shear Modulus (GPa) = 31.93327 36.12465 34.02896
#
# Velocity S-wave (km/s) = 4.04627 4.30363 4.17693
# Velocity P-wave (km/s) = 7.26995 7.76867 7.52345
#
# Compressibility (1/GPa) = 0.01652683
#
# Stress axis : x y z
#
# Youngs Moduli (GPa) = 90.75099 86.09421 99.74576
#
# Poissons Ratio (x) = 0.23395 0.38622
# Poissons Ratio (y) = 0.24660 0.14733
# Poissons Ratio (z) = 0.35139 0.12717
#
# Static dielectric constant tensor:
#      x y z
#    x 1.714490 -0.031670 -0.011630 
#    y -0.031670 1.661610 0.054190 
#    z -0.011630 0.054190 1.655360 
# 
# From -- ./inp_files/283516.got.cif
#   From: 2010.05.17/outbox.cif.g08.bks.cpg/sg2_142_cif.got.tgz:283516.got - 2010.06.03 11:33:40.
