data_PCOD9018872
_publ_section_title
;
Structure prediction by ZEFSAII (Michael W. Deem and Ramdas Pophale) SiO2 
 PCOD9018872
Probable space group: P -1
;
_chemical_formula_sum "Si O2"
_cell_formula_units_Z 16
_cell_length_a 9.934556
_cell_length_b 7.293150
_cell_length_c 12.179571
_cell_angle_alpha 75.062551
_cell_angle_beta 106.933723
_cell_angle_gamma 131.887965
_cell_volume 625.979091
_symmetry_space_group_name_H-M "P -1"
_symmetry_group_IT_number 2
_symmetry_cell_setting 'triclinic'
loop_
_space_group_symop_operation_xyz
x,y,z
-x,-y,-z
loop_
_atom_site_type_symbol
_atom_site_label
_atom_site_fract_x
_atom_site_fract_y
_atom_site_fract_z
Si Si1 0.947813 0.410523 0.649662
Si Si2 0.014641 0.232825 0.882028
Si Si3 0.119103 0.440993 0.097001
Si Si4 0.565584 0.895415 0.614030
Si Si5 0.415503 0.199357 0.132898
Si Si6 0.790688 0.581695 0.445270
Si Si7 0.123663 0.032070 0.754266
Si Si8 0.499531 0.717158 0.107247
O O1 0.001499 0.423055 0.786452
O O2 0.867078 0.546863 0.578638
O O3 0.123691 0.502627 0.605668
O O4 0.787252 0.113168 0.630803
O O5 0.106766 0.179752 0.821384
O O6 0.803895 0.007084 0.892535
O O7 0.125446 0.316304 0.006844
O O8 0.329044 0.670538 0.132029
O O9 0.039445 0.244158 0.204551
O O10 0.000000 0.500000 0.000000
O O11 0.523298 0.871727 0.737083
O O12 0.431075 0.609065 0.585971
O O13 0.500000 0.000000 0.500000
O O14 0.471456 0.463538 0.137755
O O15 0.489668 0.214987 0.028216
O O16 0.864987 0.846594 0.377024
O O17 0.311455 0.084870 0.815644
#
# Coordination Sequence:
#
# PCOD9018872 Si02
#       8
#     2   2   2   2   2   2   2   2
#     4   8  17  27  46  77 108 133 159 203 257 308
#     4  10  18  35  56  78 108 136 172 211 256 309
#     4  12  26  39  50  73 107 141 177 222 266 305
#     4   9  16  26  42  74 114 134 151 201 263 306
#     4  10  17  30  54  83 102 133 172 212 253 308
#     4   9  16  28  47  76 108 132 160 204 261 302
#     4  11  20  35  58  80 104 135 176 216 257 312
#     4  11  21  32  55  75 102 134 175 214 258 307
#
# _framework density 25.55996
#
# number of rings (size 3 to 8) (size 9 to 14) (size 15 to 20)
#    0.000    2.000    3.750    1.875    1.750    0.500 
#    0.000    0.000    0.000    0.750    0.000    0.875 
#    0.000    0.000    0.000    0.000    0.000    0.000 
#
# Total GULP energy -89323.062398 kJ/mol
# GULP energy per Si atom -5582.691400 kJ/mol
# Density = 2.550178 g / cm^3
# Si number density = 25.559960 Si / 1000 Ang^3
#
#
#
# Elastic Constant Matrix: (Units=GPa)
#
#
# Indices 1 2 3 4 5 6 
#
# 1 55.6302 40.4717 16.3993 -8.8117 20.5142 21.0651
# 2 40.4717 62.8669 49.2900 -15.7952 -8.8447 21.5722
# 3 16.3993 49.2900 188.2364 -33.2308 11.7015 5.9613
# 4 -8.8117 -15.7952 -33.2308 41.9782 4.5308 3.7728
# 5 20.5142 -8.8447 11.7015 4.5308 18.1960 1.6176
# 6 21.0651 21.5722 5.9613 3.7728 1.6176 46.4828
#
#
#
# Elastic Compliance Matrix: (Units=1/GPa)
#
#
# Indices 1 2 3 4 5 6 
#
# 1 -0.033825 0.041220 -0.013780 -0.009700 0.069775 -0.003675
# 2 0.041220 -0.018781 0.008487 0.016141 -0.064177 -0.010129
# 3 -0.013780 0.008487 0.003365 0.001007 0.017140 0.001197
# 4 -0.009700 0.016141 0.001007 0.027923 0.011705 -0.005898
# 5 0.069775 -0.064177 0.017140 0.011705 -0.068608 -0.002597
# 6 -0.003675 -0.010129 0.001197 -0.005898 -0.002597 0.028295
#
#
# Mechanical properties :
#
#
# Convention : Reuss Voigt Hill
#
# Bulk Modulus (GPa) = 44.22465 57.67284 50.94875
# Shear Modulus (GPa) = -39.69910 34.70290 -2.49810
#
# Velocity S-wave (km/s) = -3.94531 3.68870 -0.98968
# Velocity P-wave (km/s) = 1.84772 6.38395 4.32092
#
# Compressibility (1/GPa) = 0.02261182
#
# Stress axis : x y z
#
# Youngs Moduli (GPa) = -29.56373 -53.24408 297.15881
#
# Poissons Ratio (x) = 2.19473 4.09490
# Poissons Ratio (y) = 1.21862 -2.52187
# Poissons Ratio (z) = -0.40739 0.45186
#
# Static dielectric constant tensor:
#      x y z
#    x 2.127250 -0.052850 0.007820 
#    y -0.052850 2.107830 -0.009730 
#    z 0.007820 -0.009730 2.007680 
# 
# From -- ./inp_files/353288.got.cif
#   From: 2010.05.17/outbox.cif.g08.bks.cpg/sg2_177_cif.got.tgz:353288.got - 2010.06.03 11:33:40.
