data_PCOD9018054
_publ_section_title
;
Structure prediction by ZEFSAII (Michael W. Deem and Ramdas Pophale) SiO2 
 PCOD9018054
Probable space group: P -1
;
_chemical_formula_sum "Si O2"
_cell_formula_units_Z 14
_cell_length_a 9.540599
_cell_length_b 7.576904
_cell_length_c 18.559604
_cell_angle_alpha 102.799847
_cell_angle_beta 131.539500
_cell_angle_gamma 44.783747
_cell_volume 623.459477
_symmetry_space_group_name_H-M "P -1"
_symmetry_group_IT_number 2
_symmetry_cell_setting 'triclinic'
loop_
_space_group_symop_operation_xyz
x,y,z
-x,-y,-z
loop_
_atom_site_type_symbol
_atom_site_label
_atom_site_fract_x
_atom_site_fract_y
_atom_site_fract_z
Si Si1 0.384802 0.667990 0.550877
Si Si2 0.778906 0.195754 0.031804
Si Si3 0.098111 0.239433 0.046800
Si Si4 0.744697 0.682113 0.372708
Si Si5 0.512875 0.158903 0.274584
Si Si6 0.747563 0.118946 0.709939
Si Si7 0.855325 0.201440 0.325434
O O1 0.500000 0.500000 0.500000
O O2 0.542538 0.708537 0.654831
O O3 0.470042 0.446598 0.616780
O O4 0.075049 0.986090 0.447747
O O5 0.866018 0.272029 0.005002
O O6 0.500000 0.500000 0.000000
O O7 0.723701 0.033614 0.968310
O O8 0.048907 0.976710 0.161481
O O9 0.407383 0.746158 0.747618
O O10 0.000000 0.500000 0.000000
O O11 0.279978 0.190523 0.169367
O O12 0.433635 0.921490 0.330705
O O13 0.751680 0.485578 0.317050
O O14 0.000000 0.500000 0.500000
O O15 0.790650 0.819327 0.349401
O O16 0.964858 0.952630 0.701054
#
# Coordination Sequence:
#
# PCOD9018054 Si02
#       7
#     2   2   2   2   2   2   2
#     4  10  21  43  68 101 142 186 224 284 348 419
#     4  11  27  50  72 104 148 183 244 305 362 418
#     4  11  27  48  76 104 138 188 246 305 357 426
#     4  12  24  43  70 101 140 185 232 279 351 425
#     4  12  23  44  70 102 138 185 235 285 355 418
#     4  11  24  45  70  99 143 186 224 293 350 410
#     4  11  25  43  69 102 147 183 227 289 350 419
#
# _framework density 22.455348999999998
#
# number of rings (size 3 to 8) (size 9 to 14) (size 15 to 20)
#    0.000    0.857    4.286    2.143    4.000    1.143 
#   10.286    0.000    0.000    0.000    0.000    0.000 
#    0.000    0.000    0.000    0.000    0.000    0.000 
#
# Total GULP energy -77948.068707 kJ/mol
# GULP energy per Si atom -5567.719193 kJ/mol
# Density = 2.240424 g / cm^3
# Si number density = 22.455349 Si / 1000 Ang^3
#
#
#
# Elastic Constant Matrix: (Units=GPa)
#
#
# Indices 1 2 3 4 5 6 
#
# 1 87.7076 66.4543 21.3860 11.6167 -12.0040 24.7281
# 2 66.4543 147.7185 22.9973 15.2260 -3.0712 21.2144
# 3 21.3860 22.9973 95.7989 10.6253 -15.3076 11.9657
# 4 11.6167 15.2260 10.6253 37.9052 10.9388 2.6109
# 5 -12.0040 -3.0712 -15.3076 10.9388 38.6329 -2.0417
# 6 24.7281 21.2144 11.9657 2.6109 -2.0417 41.0631
#
#
#
# Elastic Compliance Matrix: (Units=1/GPa)
#
#
# Indices 1 2 3 4 5 6 
#
# 1 0.021082 -0.007666 -0.000265 -0.004701 0.006743 -0.008024
# 2 -0.007666 0.010520 -0.000873 -0.001130 -0.001602 -0.000572
# 3 -0.000265 -0.000873 0.012478 -0.004622 0.005973 -0.002435
# 4 -0.004701 -0.001130 -0.004622 0.033080 -0.012641 0.002029
# 5 0.006743 -0.001602 0.005973 -0.012641 0.033666 -0.002496
# 6 -0.008024 -0.000572 -0.002435 0.002029 -0.002496 0.029936
#
#
# Mechanical properties :
#
#
# Convention : Reuss Voigt Hill
#
# Bulk Modulus (GPa) = 37.77637 61.43336 49.60487
# Shear Modulus (GPa) = 29.90525 38.21273 34.05899
#
# Velocity S-wave (km/s) = 3.65329 4.12967 3.89876
# Velocity P-wave (km/s) = 5.88683 7.08211 6.51195
#
# Compressibility (1/GPa) = 0.02647157
#
# Stress axis : x y z
#
# Youngs Moduli (GPa) = 47.43339 95.06140 80.13872
#
# Poissons Ratio (x) = 0.72874 0.02124
# Poissons Ratio (y) = 0.36362 0.06998
# Poissons Ratio (z) = 0.01257 0.08301
#
# Static dielectric constant tensor:
#      x y z
#    x 1.876220 0.011440 -0.073890 
#    y 0.011440 1.945290 -0.090730 
#    z -0.073890 -0.090730 2.044330 
# 
# From -- ./inp_files/566823.got.cif
#   From: 2010.05.17/outbox.cif.g08.bks.cpg/sg2_284_cif.got.tgz:566823.got - 2010.06.03 11:33:40.
