data_PCOD9018293
_publ_section_title
;
Structure prediction by ZEFSAII (Michael W. Deem and Ramdas Pophale) SiO2 
 PCOD9018293
Probable space group: P -1
;
_chemical_formula_sum "Si O2"
_cell_formula_units_Z 15
_cell_length_a 12.255478
_cell_length_b 11.344823
_cell_length_c 9.136260
_cell_angle_alpha 61.920923
_cell_angle_beta 139.676638
_cell_angle_gamma 131.518691
_cell_volume 613.880176
_symmetry_space_group_name_H-M "P -1"
_symmetry_group_IT_number 2
_symmetry_cell_setting 'triclinic'
loop_
_space_group_symop_operation_xyz
x,y,z
-x,-y,-z
loop_
_atom_site_type_symbol
_atom_site_label
_atom_site_fract_x
_atom_site_fract_y
_atom_site_fract_z
Si Si1 0.000000 0.000000 0.500000
Si Si2 0.676469 0.526156 0.808274
Si Si3 0.042940 0.850659 0.914892
Si Si4 0.211045 0.578943 0.744557
Si Si5 0.564408 0.372758 0.337940
Si Si6 0.785931 0.351356 0.828524
Si Si7 0.679032 0.979765 0.639312
Si Si8 0.310990 0.921228 0.742203
O O1 0.959523 0.025404 0.267981
O O2 0.872356 0.078349 0.372361
O O3 0.483692 0.512520 0.690749
O O4 0.635452 0.376698 0.757273
O O5 0.821600 0.691389 0.779259
O O6 0.799888 0.526134 0.071739
O O7 0.193387 0.796824 0.045102
O O8 0.123248 0.908831 0.128160
O O9 0.371559 0.592719 0.783623
O O10 0.270039 0.749200 0.763950
O O11 0.000000 0.500000 0.500000
O O12 0.738635 0.369590 0.603931
O O13 0.379526 0.196014 0.275738
O O14 0.000000 0.500000 0.000000
O O15 0.671832 0.000844 0.445858
O O16 0.500000 0.000000 0.500000
O O17 0.500000 0.000000 0.000000
#
# Coordination Sequence:
#
# PCOD9018293 Si02
#       8
#     1   2   2   2   2   2   2   2
#     4  12  28  46  78 116 154 200 256 320 386 470
#     4  11  25  44  71 108 148 191 249 308 369 454
#     4  11  24  49  73 113 145 201 249 309 383 453
#     4  12  26  49  74 105 151 202 250 314 383 457
#     4  12  25  44  72 108 143 198 247 306 373 452
#     4  10  21  43  69  95 143 192 236 296 373 433
#     4  12  23  46  79 104 150 202 252 309 380 456
#     4  12  28  52  76 117 158 201 261 321 385 459
#
# _framework density 24.434735
#
# number of rings (size 3 to 8) (size 9 to 14) (size 15 to 20)
#    0.000    0.533    2.667    5.600    1.867    4.267 
#    7.200    0.000    0.000    0.000    0.000    0.000 
#    0.000    0.000    0.000    0.000    0.000    0.000 
#
# Total GULP energy -83666.765693 kJ/mol
# GULP energy per Si atom -5577.784380 kJ/mol
# Density = 2.437912 g / cm^3
# Si number density = 24.434735 Si / 1000 Ang^3
#
#
#
# Elastic Constant Matrix: (Units=GPa)
#
#
# Indices 1 2 3 4 5 6 
#
# 1 149.3980 19.0425 20.4903 -9.9796 12.7290 -26.9247
# 2 19.0425 58.2423 28.5951 19.2861 -7.5373 -14.0521
# 3 20.4903 28.5951 151.8437 1.8396 -20.2975 -10.1531
# 4 -9.9796 19.2861 1.8396 32.3348 -6.0926 -2.6647
# 5 12.7290 -7.5373 -20.2975 -6.0926 48.3045 -14.1004
# 6 -26.9247 -14.0521 -10.1531 -2.6647 -14.1004 31.5022
#
#
#
# Elastic Compliance Matrix: (Units=1/GPa)
#
#
# Indices 1 2 3 4 5 6 
#
# 1 0.008560 -0.002767 -0.000335 0.004741 -0.000425 0.006185
# 2 -0.002767 0.027836 -0.003439 -0.015627 0.004464 0.009620
# 3 -0.000335 -0.003439 0.007970 0.002479 0.004018 0.002757
# 4 0.004741 -0.015627 0.002479 0.042507 0.003619 0.003095
# 5 -0.000425 0.004464 0.004018 0.003619 0.028295 0.015894
# 6 0.006185 0.009620 0.002757 0.003095 0.015894 0.049586
#
#
# Mechanical properties :
#
#
# Convention : Reuss Voigt Hill
#
# Bulk Modulus (GPa) = 31.96517 55.08219 43.52368
# Shear Modulus (GPa) = 26.55860 41.85205 34.20533
#
# Velocity S-wave (km/s) = 3.30042 4.14310 3.74554
# Velocity P-wave (km/s) = 5.25680 6.74378 6.04618
#
# Compressibility (1/GPa) = 0.03128405
#
# Stress axis : x y z
#
# Youngs Moduli (GPa) = 116.82835 35.92409 125.47136
#
# Poissons Ratio (x) = 0.09940 0.04199
# Poissons Ratio (y) = 0.32325 0.43155
# Poissons Ratio (z) = 0.03910 0.12356
#
# Static dielectric constant tensor:
#      x y z
#    x 2.026760 -0.007630 0.009660 
#    y -0.007630 1.968450 0.010550 
#    z 0.009660 0.010550 1.913970 
# 
# From -- ./inp_files/262241.got.cif
#   From: 2010.05.17/outbox.cif.g08.bks.cpg/sg2_132_cif.got.tgz:262241.got - 2010.06.03 11:33:40.
