data_PCOD9018754
_publ_section_title
;
Structure prediction by ZEFSAII (Michael W. Deem and Ramdas Pophale) SiO2 
 PCOD9018754
Probable space group: P -1
;
_chemical_formula_sum "Si O2"
_cell_formula_units_Z 16
_cell_length_a 13.566134
_cell_length_b 12.635126
_cell_length_c 15.415272
_cell_angle_alpha 27.363286
_cell_angle_beta 141.250668
_cell_angle_gamma 127.065910
_cell_volume 722.104999
_symmetry_space_group_name_H-M "P -1"
_symmetry_group_IT_number 2
_symmetry_cell_setting 'triclinic'
loop_
_space_group_symop_operation_xyz
x,y,z
-x,-y,-z
loop_
_atom_site_type_symbol
_atom_site_label
_atom_site_fract_x
_atom_site_fract_y
_atom_site_fract_z
Si Si1 0.604566 0.277877 0.676986
Si Si2 0.737162 0.763528 0.176578
Si Si3 0.398202 0.634981 0.034267
Si Si4 0.886720 0.989740 0.346825
Si Si5 0.541998 0.884424 0.476450
Si Si6 0.119891 0.506479 0.358364
Si Si7 0.216419 0.322595 0.920662
Si Si8 0.794025 0.157607 0.425831
O O1 0.500000 0.500000 0.500000
O O2 0.494313 0.203284 0.581229
O O3 0.754117 0.350483 0.682717
O O4 0.679428 0.044268 0.958444
O O5 0.570142 0.690967 0.107168
O O6 0.844203 0.597151 0.444291
O O7 0.818352 0.751910 0.146157
O O8 0.435938 0.349832 0.279377
O O9 0.298016 0.736071 0.804898
O O10 0.280570 0.787364 0.919638
O O11 0.852075 0.731466 0.508948
O O12 0.012207 0.975550 0.363298
O O13 0.000000 0.000000 0.500000
O O14 0.701581 0.973947 0.528181
O O15 0.384121 0.120564 0.212562
O O16 0.927137 0.659342 0.121064
O O17 0.229497 0.593195 0.720600
#
# Coordination Sequence:
#
# PCOD9018754 Si02
#       8
#     2   2   2   2   2   2   2   2
#     4  11  24  39  62  96 127 163 208 259 316 373
#     4  11  23  40  64  95 124 170 209 260 308 371
#     4  11  21  39  62  94 123 163 213 249 318 372
#     4   9  22  40  65  88 124 165 202 262 312 369
#     4  11  23  38  64  93 123 170 206 258 309 370
#     4  11  23  43  65  92 127 167 209 258 316 366
#     4  10  23  44  62  91 131 168 210 260 308 366
#     4  10  21  44  62  87 129 167 208 261 310 361
#
# _framework density 22.157440999999999
#
# number of rings (size 3 to 8) (size 9 to 14) (size 15 to 20)
#    0.000    1.500    3.750    1.500    3.500    4.000 
#    2.250    6.250    0.000    0.000    0.000    0.000 
#    0.000    0.000    0.000    0.000    0.000    0.000 
#
# Total GULP energy -89435.949114 kJ/mol
# GULP energy per Si atom -5589.746820 kJ/mol
# Density = 2.210701 g / cm^3
# Si number density = 22.157441 Si / 1000 Ang^3
#
#
#
# Elastic Constant Matrix: (Units=GPa)
#
#
# Indices 1 2 3 4 5 6 
#
# 1 66.3714 22.6349 42.5646 -21.1442 16.3947 14.4824
# 2 22.6349 70.6998 6.6234 -19.9767 11.4435 3.9074
# 3 42.5646 6.6234 66.4689 -25.5452 2.8310 8.6278
# 4 -21.1442 -19.9767 -25.5452 39.0915 -1.4902 -5.0029
# 5 16.3947 11.4435 2.8310 -1.4902 34.9743 -9.2478
# 6 14.4824 3.9074 8.6278 -5.0029 -9.2478 31.4924
#
#
#
# Elastic Compliance Matrix: (Units=1/GPa)
#
#
# Indices 1 2 3 4 5 6 
#
# 1 0.039858 -0.006245 -0.021253 0.001541 -0.019398 -0.017184
# 2 -0.006245 0.019059 0.006268 0.010243 -0.003545 -0.000624
# 3 -0.021253 0.006268 0.032444 0.013733 0.007021 0.004351
# 4 0.001541 0.010243 0.013733 0.040441 -0.003558 -0.000362
# 5 -0.019398 -0.003545 0.007021 -0.003558 0.043305 0.019588
# 6 -0.017184 -0.000624 0.004351 -0.000362 0.019588 0.044236
#
#
# Mechanical properties :
#
#
# Convention : Reuss Voigt Hill
#
# Bulk Modulus (GPa) = 20.44888 38.57624 29.51256
# Shear Modulus (GPa) = 17.97897 29.89279 23.93588
#
# Velocity S-wave (km/s) = 2.85163 3.67701 3.29030
# Velocity P-wave (km/s) = 4.48234 5.95609 5.27098
#
# Compressibility (1/GPa) = 0.04890243
#
# Stress axis : x y z
#
# Youngs Moduli (GPa) = 25.08894 52.46917 30.82246
#
# Poissons Ratio (x) = 0.32766 0.65506
# Poissons Ratio (y) = 0.15668 -0.19321
# Poissons Ratio (z) = 0.53321 -0.32890
#
# Static dielectric constant tensor:
#      x y z
#    x 1.844990 -0.039290 0.021930 
#    y -0.039290 1.875370 0.017790 
#    z 0.021930 0.017790 1.799690 
# 
# From -- ./inp_files/574013.got.cif
#   From: 2010.05.17/outbox.cif.g08.bks.cpg/sg2_288_cif.got.tgz:574013.got - 2010.06.03 11:33:40.
