data_PCOD9018564
_publ_section_title
;
Structure prediction by ZEFSAII (Michael W. Deem and Ramdas Pophale) SiO2 
 PCOD9018564
Probable space group: P -1
;
_chemical_formula_sum "Si O2"
_cell_formula_units_Z 16
_cell_length_a 9.064062
_cell_length_b 7.255049
_cell_length_c 12.650211
_cell_angle_alpha 66.715862
_cell_angle_beta 102.206363
_cell_angle_gamma 74.462967
_cell_volume 687.254571
_symmetry_space_group_name_H-M "P -1"
_symmetry_group_IT_number 2
_symmetry_cell_setting 'triclinic'
loop_
_space_group_symop_operation_xyz
x,y,z
-x,-y,-z
loop_
_atom_site_type_symbol
_atom_site_label
_atom_site_fract_x
_atom_site_fract_y
_atom_site_fract_z
Si Si1 0.971422 0.778859 0.042017
Si Si2 0.330112 0.920690 0.752058
Si Si3 0.667036 0.416406 0.477817
Si Si4 0.601501 0.850139 0.953231
Si Si5 0.471711 0.519621 0.238360
Si Si6 0.835271 0.508158 0.676732
Si Si7 0.160243 0.049095 0.490748
Si Si8 0.732467 0.352982 0.021194
O O1 0.023462 0.657195 0.190147
O O2 0.783165 0.839030 0.976162
O O3 0.098119 0.647272 0.999017
O O4 0.000000 0.000000 0.000000
O O5 0.484239 0.958795 0.812409
O O6 0.412275 0.697062 0.752084
O O7 0.242682 0.849415 0.851864
O O8 0.224547 0.078740 0.610403
O O9 0.500000 0.500000 0.500000
O O10 0.600785 0.558287 0.328330
O O11 0.807184 0.436154 0.570100
O O12 0.721943 0.164285 0.507695
O O13 0.635875 0.589310 0.008560
O O14 0.500000 0.000000 0.000000
O O15 0.332582 0.471017 0.293841
O O16 0.366793 0.668270 0.093487
O O17 0.138914 0.267067 0.376054
O O18 0.000000 0.000000 0.500000
#
# Coordination Sequence:
#
# PCOD9018564 Si02
#       8
#     2   2   2   2   2   2   2   2
#     4  11  25  46  71 105 140 184 239 294 361 428
#     4  10  22  43  66 103 136 180 234 287 350 420
#     4   9  20  42  70 101 135 183 233 293 346 422
#     4  11  23  42  68 103 137 185 230 297 349 418
#     4   8  17  38  68  99 132 178 227 288 351 411
#     4  10  23  46  69 103 143 183 238 294 356 430
#     4  11  26  46  70 102 143 191 234 292 360 424
#     4  10  21  43  71  99 143 180 230 294 356 420
#
# _framework density 23.281039
#
# number of rings (size 3 to 8) (size 9 to 14) (size 15 to 20)
#    0.000    2.000    0.000    2.625    1.750    8.000 
#   22.500    0.000    0.000    0.000    0.000    0.000 
#    0.000    0.000    0.000    0.000    0.000    0.000 
#
# Total GULP energy -89243.896792 kJ/mol
# GULP energy per Si atom -5577.743549 kJ/mol
# Density = 2.322805 g / cm^3
# Si number density = 23.281039 Si / 1000 Ang^3
#
#
#
# Elastic Constant Matrix: (Units=GPa)
#
#
# Indices 1 2 3 4 5 6 
#
# 1 122.7914 42.6898 69.7857 0.9125 24.4341 4.4716
# 2 42.6898 122.2925 59.8889 -10.4031 -11.3378 5.7920
# 3 69.7857 59.8889 123.6482 2.8523 3.2274 6.3317
# 4 0.9125 -10.4031 2.8523 37.2883 5.7002 -13.7526
# 5 24.4341 -11.3378 3.2274 5.7002 24.1330 -3.0527
# 6 4.4716 5.7920 6.3317 -13.7526 -3.0527 37.0147
#
#
#
# Elastic Compliance Matrix: (Units=1/GPa)
#
#
# Indices 1 2 3 4 5 6 
#
# 1 0.017717 -0.004147 -0.007453 0.001478 -0.019399 -0.001267
# 2 -0.004147 0.012866 -0.004283 0.002864 0.010283 0.001133
# 3 -0.007453 -0.004283 0.014432 -0.003430 0.004183 -0.001828
# 4 0.001478 0.002864 -0.003430 0.033102 -0.006022 0.011762
# 5 -0.019399 0.010283 0.004183 -0.006022 0.067193 0.003323
# 6 -0.001267 0.001133 -0.001828 0.011762 0.003323 0.031949
#
#
# Mechanical properties :
#
#
# Convention : Reuss Voigt Hill
#
# Bulk Modulus (GPa) = 75.48886 79.27342 77.38114
# Shear Modulus (GPa) = 23.42545 32.77838 28.10192
#
# Velocity S-wave (km/s) = 3.17551 3.75633 3.47806
# Velocity P-wave (km/s) = 6.77795 7.27584 7.03130
#
# Compressibility (1/GPa) = 0.01324699
#
# Stress axis : x y z
#
# Youngs Moduli (GPa) = 56.44248 77.72493 69.28939
#
# Poissons Ratio (x) = 0.32236 0.51644
# Poissons Ratio (y) = 0.23409 0.29679
# Poissons Ratio (z) = 0.42069 0.33292
#
# Static dielectric constant tensor:
#      x y z
#    x 1.897580 0.005250 -0.000740 
#    y 0.005250 1.897230 0.071650 
#    z -0.000740 0.071650 1.802620 
# 
# From -- ./inp_files/382018.got.cif
#   From: 2010.05.17/outbox.cif.g08.bks.cpg/sg2_192_cif.got.tgz:382018.got - 2010.06.03 11:33:40.
