data_PCOD9018620
_publ_section_title
;
Structure prediction by ZEFSAII (Michael W. Deem and Ramdas Pophale) SiO2 
 PCOD9018620
Probable space group: P -1
;
_chemical_formula_sum "Si O2"
_cell_formula_units_Z 16
_cell_length_a 8.457201
_cell_length_b 15.142048
_cell_length_c 9.322876
_cell_angle_alpha 110.096170
_cell_angle_beta 133.537339
_cell_angle_gamma 96.745564
_cell_volume 694.158097
_symmetry_space_group_name_H-M "P -1"
_symmetry_group_IT_number 2
_symmetry_cell_setting 'triclinic'
loop_
_space_group_symop_operation_xyz
x,y,z
-x,-y,-z
loop_
_atom_site_type_symbol
_atom_site_label
_atom_site_fract_x
_atom_site_fract_y
_atom_site_fract_z
Si Si1 0.257249 0.539024 0.095222
Si Si2 0.911103 0.409367 0.271721
Si Si3 0.090765 0.304950 0.877889
Si Si4 0.692619 0.985832 0.413779
Si Si5 0.411546 0.195080 0.951539
Si Si6 0.197389 0.822622 0.632501
Si Si7 0.817119 0.722904 0.609491
Si Si8 0.868189 0.136496 0.869650
O O1 0.514588 0.652923 0.355749
O O2 0.171400 0.546496 0.887775
O O3 0.287045 0.434212 0.079986
O O4 0.000000 0.500000 0.000000
O O5 0.657824 0.297621 0.094647
O O6 0.000000 0.500000 0.500000
O O7 0.110107 0.368512 0.352113
O O8 0.928169 0.278233 0.615642
O O9 0.901561 0.240600 0.855954
O O10 0.247240 0.243328 0.934338
O O11 0.396391 0.921591 0.241075
O O12 0.744053 0.075302 0.374407
O O13 0.844668 0.047318 0.688127
O O14 0.734456 0.896252 0.312522
O O15 0.535755 0.153560 0.122477
O O16 0.990360 0.785596 0.611831
O O17 0.906832 0.810687 0.843701
#
# Coordination Sequence:
#
# PCOD9018620 Si02
#       8
#     2   2   2   2   2   2   2   2
#     4  12  27  44  70 103 139 184 229 287 353 419
#     4  11  23  41  68 100 138 183 227 288 345 403
#     4  11  25  43  65  99 140 178 233 284 342 415
#     4  10  21  43  73 100 140 186 234 283 343 404
#     4  11  22  40  72  98 139 182 231 284 339 403
#     4  10  22  41  71 101 135 179 234 284 333 410
#     4  11  23  43  69 104 140 179 233 285 347 414
#     4  10  22  41  68 101 141 184 222 289 345 400
#
# _framework density 23.049503999999999
#
# number of rings (size 3 to 8) (size 9 to 14) (size 15 to 20)
#    0.000    1.250    2.500    4.125    0.000    7.500 
#    0.000    0.625    2.750    0.000    0.000    0.000 
#    0.000    0.000    0.000    0.000    0.000    0.000 
#
# Total GULP energy -89431.278271 kJ/mol
# GULP energy per Si atom -5589.454892 kJ/mol
# Density = 2.299704 g / cm^3
# Si number density = 23.049504 Si / 1000 Ang^3
#
#
#
# Elastic Constant Matrix: (Units=GPa)
#
#
# Indices 1 2 3 4 5 6 
#
# 1 84.5784 50.5098 70.7108 -4.9383 5.3673 0.4791
# 2 50.5098 100.7831 53.9737 9.1744 -6.6703 12.4215
# 3 70.7108 53.9737 192.4695 2.6890 -11.7895 15.7082
# 4 -4.9383 9.1744 2.6890 22.5759 -6.2605 -4.3262
# 5 5.3673 -6.6703 -11.7895 -6.2605 34.1824 -4.2619
# 6 0.4791 12.4215 15.7082 -4.3262 -4.2619 32.5471
#
#
#
# Elastic Compliance Matrix: (Units=1/GPa)
#
#
# Indices 1 2 3 4 5 6 
#
# 1 0.025845 -0.011358 -0.007497 0.011148 -0.005784 0.008297
# 2 -0.011358 0.017588 0.000162 -0.010463 0.002395 -0.007700
# 3 -0.007497 0.000162 0.008458 -0.002598 0.003156 -0.003966
# 4 0.011148 -0.010463 -0.002598 0.055876 0.007223 0.013456
# 5 -0.005784 0.002395 0.003156 0.007223 0.033414 0.002983
# 6 0.008297 -0.007700 -0.003966 0.013456 0.002983 0.037635
#
#
# Mechanical properties :
#
#
# Convention : Reuss Voigt Hill
#
# Bulk Modulus (GPa) = 68.94512 80.91329 74.92920
# Shear Modulus (GPa) = 22.62057 31.37021 26.99539
#
# Velocity S-wave (km/s) = 3.13611 3.69317 3.42598
# Velocity P-wave (km/s) = 6.56432 7.30522 6.94466
#
# Compressibility (1/GPa) = 0.01450429
#
# Stress axis : x y z
#
# Youngs Moduli (GPa) = 38.69152 56.85710 118.23305
#
# Poissons Ratio (x) = 0.64579 0.88644
# Poissons Ratio (y) = 0.43946 -0.01916
# Poissons Ratio (z) = 0.29008 -0.00921
#
# Static dielectric constant tensor:
#      x y z
#    x 1.929560 -0.040230 -0.015740 
#    y -0.040230 1.719730 0.032120 
#    z -0.015740 0.032120 1.903250 
# 
# From -- ./inp_files/208549.got.cif
#   From: 2010.05.17/outbox.cif.g08.bks.cpg/sg2_105_cif.got.tgz:208549.got - 2010.06.03 11:33:40.
