data_PCOD9018750
_publ_section_title
;
Structure prediction by ZEFSAII (Michael W. Deem and Ramdas Pophale) SiO2 
 PCOD9018750
Probable space group: P -1
;
_chemical_formula_sum "Si O2"
_cell_formula_units_Z 14
_cell_length_a 7.451338
_cell_length_b 9.582038
_cell_length_c 8.888723
_cell_angle_alpha 98.372431
_cell_angle_beta 95.111464
_cell_angle_gamma 106.494455
_cell_volume 596.324936
_symmetry_space_group_name_H-M "P -1"
_symmetry_group_IT_number 2
_symmetry_cell_setting 'triclinic'
loop_
_space_group_symop_operation_xyz
x,y,z
-x,-y,-z
loop_
_atom_site_type_symbol
_atom_site_label
_atom_site_fract_x
_atom_site_fract_y
_atom_site_fract_z
Si Si1 0.113678 0.479922 0.758236
Si Si2 0.894125 0.850078 0.876906
Si Si3 0.368260 0.849348 0.393584
Si Si4 0.856836 0.222963 0.360830
Si Si5 0.777156 0.518706 0.905813
Si Si6 0.551859 0.590817 0.362800
Si Si7 0.545727 0.954831 0.833464
O O1 0.110843 0.609835 0.663103
O O2 0.232572 0.387474 0.667018
O O3 0.903108 0.437102 0.806421
O O4 0.231512 0.533030 0.931102
O O5 0.881625 0.696435 0.936916
O O6 0.684456 0.855768 0.833810
O O7 0.993570 0.839485 0.723378
O O8 0.000000 0.000000 0.000000
O O9 0.490957 0.737515 0.400009
O O10 0.500000 0.000000 0.500000
O O11 0.823735 0.203310 0.532829
O O12 0.351343 0.898016 0.230041
O O13 0.653553 0.133715 0.265063
O O14 0.583920 0.491111 0.796501
O O15 0.500000 0.500000 0.500000
O O16 0.500000 0.000000 0.000000
#
# Coordination Sequence:
#
# PCOD9018750 Si02
#       7
#     2   2   2   2   2   2   2
#     4  10  22  43  67  93 133 166 225 278 318 389
#     4  11  23  40  67  97 128 172 218 271 328 383
#     4  10  25  43  63  97 131 170 217 264 326 390
#     4  10  21  44  61  93 132 166 217 272 318 393
#     4  10  25  40  67 102 126 171 230 269 326 388
#     4  12  24  43  70  93 133 178 216 267 338 389
#     4  11  23  38  65  91 129 166 214 266 322 381
#
# _framework density 23.477135000000001
#
# number of rings (size 3 to 8) (size 9 to 14) (size 15 to 20)
#    0.000    1.429    2.857    1.286    6.000    2.286 
#    0.000    0.000    0.000    0.000    0.000    0.000 
#    0.000    0.000    0.000    0.000    0.000    0.000 
#
# Total GULP energy -78273.272139 kJ/mol
# GULP energy per Si atom -5590.948010 kJ/mol
# Density = 2.342370 g / cm^3
# Si number density = 23.477135 Si / 1000 Ang^3
#
#
#
# Elastic Constant Matrix: (Units=GPa)
#
#
# Indices 1 2 3 4 5 6 
#
# 1 154.0861 20.3209 39.6704 6.5051 -35.2911 -31.2941
# 2 20.3209 107.6517 35.8605 6.4857 -19.5244 -17.9246
# 3 39.6704 35.8605 111.8778 -14.6374 -35.5362 -3.9010
# 4 6.5051 6.4857 -14.6374 42.6689 1.0874 -5.3387
# 5 -35.2911 -19.5244 -35.5362 1.0874 51.3018 10.9575
# 6 -31.2941 -17.9246 -3.9010 -5.3387 10.9575 36.2215
#
#
#
# Elastic Compliance Matrix: (Units=1/GPa)
#
#
# Indices 1 2 3 4 5 6 
#
# 1 0.009289 0.000958 -0.002415 -0.001620 0.003642 0.006899
# 2 0.000958 0.011677 -0.003795 -0.002582 0.001375 0.005401
# 3 -0.002415 -0.003795 0.013815 0.005011 0.007194 -0.003915
# 4 -0.001620 -0.002582 0.005011 0.025975 0.000494 0.001541
# 5 0.003642 0.001375 0.007194 0.000494 0.028326 -0.003894
# 6 0.006899 0.005401 -0.003915 0.001541 -0.003894 0.037224
#
#
# Mechanical properties :
#
#
# Convention : Reuss Voigt Hill
#
# Bulk Modulus (GPa) = 41.19224 62.81324 52.00274
# Shear Modulus (GPa) = 34.50565 44.55601 39.53083
#
# Velocity S-wave (km/s) = 3.83790 4.36115 4.10787
# Velocity P-wave (km/s) = 6.10107 7.22307 6.68565
#
# Compressibility (1/GPa) = 0.02427642
#
# Stress axis : x y z
#
# Youngs Moduli (GPa) = 107.65273 85.63940 72.38302
#
# Poissons Ratio (x) = -0.08204 0.17483
# Poissons Ratio (y) = -0.10313 0.27471
# Poissons Ratio (z) = 0.26001 0.32502
#
# Static dielectric constant tensor:
#      x y z
#    x 1.882430 0.044110 0.023540 
#    y 0.044110 1.888510 0.016070 
#    z 0.023540 0.016070 1.929990 
# 
# From -- ./inp_files/155562.got.cif
#   From: 2010.05.17/outbox.cif.g08.bks.cpg/sg2_78_cif.got.tgz:155562.got - 2010.06.03 11:33:40.
