data_PCOD9018639
_publ_section_title
;
Structure prediction by ZEFSAII (Michael W. Deem and Ramdas Pophale) SiO2 
 PCOD9018639
Probable space group: P -1
;
_chemical_formula_sum "Si O2"
_cell_formula_units_Z 14
_cell_length_a 17.545037
_cell_length_b 8.834473
_cell_length_c 9.516023
_cell_angle_alpha 73.052144
_cell_angle_beta 31.433147
_cell_angle_gamma 52.499681
_cell_volume 509.301149
_symmetry_space_group_name_H-M "P -1"
_symmetry_group_IT_number 2
_symmetry_cell_setting 'triclinic'
loop_
_space_group_symop_operation_xyz
x,y,z
-x,-y,-z
loop_
_atom_site_type_symbol
_atom_site_label
_atom_site_fract_x
_atom_site_fract_y
_atom_site_fract_z
Si Si1 0.406293 0.695879 0.312445
Si Si2 0.948802 0.162909 0.864456
Si Si3 0.170751 0.490196 0.808630
Si Si4 0.534402 0.926588 0.128845
Si Si5 0.688379 0.596742 0.663040
Si Si6 0.067624 0.216870 0.361474
Si Si7 0.627400 0.213778 0.214328
O O1 0.535280 0.444676 0.226875
O O2 0.754704 0.191327 0.150224
O O3 0.486418 0.677680 0.032533
O O4 0.157930 0.910264 0.650260
O O5 0.993436 0.187290 0.627500
O O6 0.799479 0.995565 0.900470
O O7 0.215588 0.561986 0.580032
O O8 0.413774 0.272505 0.548284
O O9 0.076706 0.667786 0.036154
O O10 0.000000 0.500000 0.000000
O O11 0.378518 0.183522 0.361000
O O12 0.500000 0.000000 0.000000
O O13 0.766222 0.781810 0.853875
O O14 0.515090 0.215779 0.742664
O O15 0.870397 0.450165 0.531044
#
# Coordination Sequence:
#
# PCOD9018639 Si02
#       7
#     2   2   2   2   2   2   2
#     4  11  25  45  83 111 153 194 266 315 382 437
#     4  12  26  48  78 116 155 202 252 324 386 455
#     4  12  29  52  78 107 164 208 250 314 397 464
#     4  10  21  43  73 114 153 195 256 316 372 446
#     4  11  24  48  77 116 149 200 258 317 378 457
#     4  12  25  45  86 115 151 199 270 317 377 452
#     4  12  28  51  79 118 154 200 263 320 384 460
#
# _framework density 27.488648999999999
#
# number of rings (size 3 to 8) (size 9 to 14) (size 15 to 20)
#    0.000    0.571    5.714    1.714    4.000    6.286 
#    2.571    0.714    0.000    0.000    0.000    0.000 
#    0.000    0.000    0.000    0.000    0.000    0.000 
#
# Total GULP energy -78287.809682 kJ/mol
# GULP energy per Si atom -5591.986406 kJ/mol
# Density = 2.742608 g / cm^3
# Si number density = 27.488649 Si / 1000 Ang^3
#
#
#
# Elastic Constant Matrix: (Units=GPa)
#
#
# Indices 1 2 3 4 5 6 
#
# 1 184.3901 35.0439 80.6299 10.2338 -34.6551 7.4716
# 2 35.0439 72.9222 39.4970 15.2819 -4.5115 10.5712
# 3 80.6299 39.4970 192.0762 17.8310 -18.4011 0.2804
# 4 10.2338 15.2819 17.8310 40.5169 -5.5362 0.8580
# 5 -34.6551 -4.5115 -18.4011 -5.5362 64.0252 5.0792
# 6 7.4716 10.5712 0.2804 0.8580 5.0792 49.8195
#
#
#
# Elastic Compliance Matrix: (Units=1/GPa)
#
#
# Indices 1 2 3 4 5 6 
#
# 1 0.007531 -0.002016 -0.002464 0.000421 0.003345 -0.001036
# 2 -0.002016 0.017430 -0.002331 -0.005068 -0.000715 -0.003223
# 3 -0.002464 -0.002331 0.006886 -0.001507 0.000286 0.000822
# 4 0.000421 -0.005068 -0.001507 0.027385 0.001777 0.000368
# 5 0.003345 -0.000715 0.000286 0.001777 0.017789 -0.002196
# 6 -0.001036 -0.003223 0.000822 0.000368 -0.002196 0.021125
#
#
# Mechanical properties :
#
#
# Convention : Reuss Voigt Hill
#
# Bulk Modulus (GPa) = 54.87049 84.41445 69.64247
# Shear Modulus (GPa) = 42.42976 50.48684 46.45830
#
# Velocity S-wave (km/s) = 3.93305 4.29026 4.11553
# Velocity P-wave (km/s) = 6.37414 7.43756 6.92629
#
# Compressibility (1/GPa) = 0.01822473
#
# Stress axis : x y z
#
# Youngs Moduli (GPa) = 132.78263 57.37330 145.22012
#
# Poissons Ratio (x) = 0.11565 0.35784
# Poissons Ratio (y) = 0.26766 0.33855
# Poissons Ratio (z) = 0.32719 0.13375
#
# Static dielectric constant tensor:
#      x y z
#    x 2.604700 0.228140 0.058400 
#    y 0.228140 2.230150 -0.051760 
#    z 0.058400 -0.051760 2.341440 
# 
# From -- ./inp_files/470955.got.cif
#   From: 2010.05.17/outbox.cif.g08.bks.cpg/sg2_236_cif.got.tgz:470955.got - 2010.06.03 11:33:40.
