data_PCOD9018951
_publ_section_title
;
Structure prediction by ZEFSAII (Michael W. Deem and Ramdas Pophale) SiO2 
 PCOD9018951
Probable space group: P -1
;
_chemical_formula_sum "Si O2"
_cell_formula_units_Z 16
_cell_length_a 13.615735
_cell_length_b 8.898458
_cell_length_c 27.264666
_cell_angle_alpha 47.756046
_cell_angle_beta 161.048966
_cell_angle_gamma 122.843128
_cell_volume 731.650280
_symmetry_space_group_name_H-M "P -1"
_symmetry_group_IT_number 2
_symmetry_cell_setting 'triclinic'
loop_
_space_group_symop_operation_xyz
x,y,z
-x,-y,-z
loop_
_atom_site_type_symbol
_atom_site_label
_atom_site_fract_x
_atom_site_fract_y
_atom_site_fract_z
Si Si1 0.074458 0.106693 0.314861
Si Si2 0.828780 0.451311 0.198547
Si Si3 0.719397 0.672774 0.713898
Si Si4 0.881462 0.865433 0.512358
Si Si5 0.419112 0.059512 0.006097
Si Si6 0.373571 0.265797 0.230166
Si Si7 0.693583 0.273470 0.900649
Si Si8 0.337027 0.782281 0.209256
O O1 0.024590 0.254256 0.209961
O O2 0.108316 0.274657 0.335110
O O3 0.762288 0.052264 0.191568
O O4 0.369110 0.873688 0.495120
O O5 0.850011 0.331444 0.287227
O O6 0.500000 0.500000 0.000000
O O7 0.836118 0.688812 0.161371
O O8 0.746347 0.681890 0.782521
O O9 0.732286 0.432389 0.760304
O O10 0.613143 0.798209 0.372369
O O11 0.689274 0.049139 0.421307
O O12 0.000000 0.000000 0.500000
O O13 0.315825 0.893365 0.025687
O O14 0.500000 0.000000 0.000000
O O15 0.441396 0.476225 0.198387
O O16 0.065750 0.231562 0.068797
O O17 0.526316 0.256300 0.773968
O O18 0.000000 0.000000 0.000000
#
# Coordination Sequence:
#
# PCOD9018951 Si02
#       8
#     2   2   2   2   2   2   2   2
#     4  10  22  42  66  94 130 179 223 281 347 403
#     4  10  25  46  66  98 138 182 229 281 349 409
#     4  10  22  41  68  94 138 175 227 283 341 418
#     4  12  27  43  72 102 141 180 235 286 346 411
#     4  11  25  41  68  97 137 174 234 280 351 402
#     4  10  21  44  66  97 135 178 233 273 353 406
#     4  10  23  42  68  98 133 183 222 291 335 418
#     4  11  25  42  68 103 137 179 231 281 347 411
#
# _framework density 21.868369999999999
#
# number of rings (size 3 to 8) (size 9 to 14) (size 15 to 20)
#    0.000    1.500    2.500    0.750    8.750    1.000 
#    0.000    3.750    0.000    0.000    0.000    0.000 
#    0.000    0.000    0.000    0.000    0.000    0.000 
#
# Total GULP energy -89217.584065 kJ/mol
# GULP energy per Si atom -5576.099004 kJ/mol
# Density = 2.181860 g / cm^3
# Si number density = 21.868370 Si / 1000 Ang^3
#
#
#
# Elastic Constant Matrix: (Units=GPa)
#
#
# Indices 1 2 3 4 5 6 
#
# 1 85.4268 55.2915 23.7260 -21.0452 -25.9745 11.7713
# 2 55.2915 138.2514 51.3705 -34.7985 -15.6287 4.3542
# 3 23.7260 51.3705 94.6362 -25.0343 -20.1256 8.1038
# 4 -21.0452 -34.7985 -25.0343 36.6724 2.6413 -8.4094
# 5 -25.9745 -15.6287 -20.1256 2.6413 36.2071 -8.5486
# 6 11.7713 4.3542 8.1038 -8.4094 -8.5486 34.8547
#
#
#
# Elastic Compliance Matrix: (Units=1/GPa)
#
#
# Indices 1 2 3 4 5 6 
#
# 1 0.020703 -0.006162 0.002773 0.006511 0.012746 -0.002170
# 2 -0.006162 0.012602 -0.004079 0.006339 -0.001068 0.002723
# 3 0.002773 -0.004079 0.016031 0.008021 0.008524 -0.000128
# 4 0.006511 0.006339 0.008021 0.043628 0.010638 0.008279
# 5 0.012746 -0.001068 0.008524 0.010638 0.041840 0.006675
# 6 -0.002170 0.002723 -0.000128 0.008279 0.006675 0.032748
#
#
# Mechanical properties :
#
#
# Convention : Reuss Voigt Hill
#
# Bulk Modulus (GPa) = 29.06959 64.34337 46.70648
# Shear Modulus (GPa) = 25.77920 34.07528 29.92724
#
# Velocity S-wave (km/s) = 3.43714 3.95169 3.70336
# Velocity P-wave (km/s) = 5.39201 7.09281 6.30007
#
# Compressibility (1/GPa) = 0.03440021
#
# Stress axis : x y z
#
# Youngs Moduli (GPa) = 48.30325 79.34963 62.37728
#
# Poissons Ratio (x) = 0.48896 -0.17300
# Poissons Ratio (y) = 0.29765 0.25447
# Poissons Ratio (z) = -0.13397 0.32370
#
# Static dielectric constant tensor:
#      x y z
#    x 1.855340 -0.034460 0.007460 
#    y -0.034460 1.821010 0.004530 
#    z 0.007460 0.004530 1.897460 
# 
# From -- ./inp_files/380071.got.cif
#   From: 2010.05.17/outbox.cif.g08.bks.cpg/sg2_191_cif.got.tgz:380071.got - 2010.06.03 11:33:40.
