data_PCOD9018473
_publ_section_title
;
Structure prediction by ZEFSAII (Michael W. Deem and Ramdas Pophale) SiO2 
 PCOD9018473
Probable space group: P -1
;
_chemical_formula_sum "Si O2"
_cell_formula_units_Z 16
_cell_length_a 9.313888
_cell_length_b 11.503826
_cell_length_c 7.802366
_cell_angle_alpha 55.006319
_cell_angle_beta 80.012318
_cell_angle_gamma 84.374804
_cell_volume 674.473522
_symmetry_space_group_name_H-M "P -1"
_symmetry_group_IT_number 2
_symmetry_cell_setting 'triclinic'
loop_
_space_group_symop_operation_xyz
x,y,z
-x,-y,-z
loop_
_atom_site_type_symbol
_atom_site_label
_atom_site_fract_x
_atom_site_fract_y
_atom_site_fract_z
Si Si1 0.419759 0.635754 0.823446
Si Si2 0.371462 0.115220 0.917205
Si Si3 0.056782 0.404692 0.807439
Si Si4 0.373574 0.436334 0.692186
Si Si5 0.801579 0.141502 0.333510
Si Si6 0.042523 0.102212 0.052617
Si Si7 0.956438 0.691380 0.705904
Si Si8 0.675004 0.859334 0.503560
O O1 0.355267 0.553845 0.743001
O O2 0.285326 0.727027 0.848649
O O3 0.541995 0.754647 0.664562
O O4 0.500000 0.500000 0.000000
O O5 0.415502 0.270535 0.852521
O O6 0.215053 0.086305 0.064291
O O7 0.334901 0.121616 0.715964
O O8 0.500000 0.000000 0.000000
O O9 0.210805 0.426254 0.664217
O O10 0.000029 0.259939 0.863665
O O11 0.970971 0.548814 0.713708
O O12 0.074730 0.356721 0.047463
O O13 0.500000 0.500000 0.500000
O O14 0.892073 0.218498 0.401839
O O15 0.687848 0.010558 0.473161
O O16 0.936425 0.078440 0.252941
O O17 0.000000 0.000000 0.000000
O O18 0.821040 0.778611 0.594574
#
# Coordination Sequence:
#
# PCOD9018473 Si02
#       8
#     2   2   2   2   2   2   2   2
#     4  12  27  45  75 106 147 190 243 294 359 429
#     4  11  26  49  71 101 149 190 234 295 365 429
#     4   9  20  40  70  98 136 185 235 292 356 416
#     4  11  22  46  68 101 139 186 239 289 350 429
#     4  11  24  47  71 102 144 189 237 300 360 423
#     4  10  21  43  73  99 138 186 244 288 359 427
#     4  10  21  43  71 100 140 185 239 296 357 423
#     4  12  25  45  70 108 142 186 244 293 359 431
#
# _framework density 23.722204999999999
#
# number of rings (size 3 to 8) (size 9 to 14) (size 15 to 20)
#    0.000    1.250    3.750    1.500    5.250    0.000 
#   11.250    3.750    0.000    0.000    0.000    0.000 
#    0.000    0.000    0.000    0.000    0.000    0.000 
#
# Total GULP energy -89268.017838 kJ/mol
# GULP energy per Si atom -5579.251115 kJ/mol
# Density = 2.366821 g / cm^3
# Si number density = 23.722205 Si / 1000 Ang^3
#
#
#
# Elastic Constant Matrix: (Units=GPa)
#
#
# Indices 1 2 3 4 5 6 
#
# 1 111.1345 63.9664 47.6704 -30.2655 -3.3099 -8.8579
# 2 63.9664 180.9433 36.7422 -54.2412 -0.2585 -8.9942
# 3 47.6704 36.7422 59.3681 -22.7915 2.3191 -5.6701
# 4 -30.2655 -54.2412 -22.7915 40.2619 0.5874 -0.3613
# 5 -3.3099 -0.2585 2.3191 0.5874 45.7734 -17.1395
# 6 -8.8579 -8.9942 -5.6701 -0.3613 -17.1395 55.3921
#
#
#
# Elastic Compliance Matrix: (Units=1/GPa)
#
#
# Indices 1 2 3 4 5 6 
#
# 1 0.015680 -0.002674 -0.009861 0.002585 0.002251 0.001777
# 2 -0.002674 0.009931 0.000631 0.011736 0.000200 0.001388
# 3 -0.009861 0.000631 0.028140 0.009403 -0.001930 0.000870
# 4 0.002585 0.011736 0.009403 0.047940 0.000574 0.003772
# 5 0.002251 0.000200 -0.001930 0.000574 0.025081 0.007959
# 6 0.001777 0.001388 0.000870 0.003772 0.007959 0.021139
#
#
# Mechanical properties :
#
#
# Convention : Reuss Voigt Hill
#
# Bulk Modulus (GPa) = 33.39721 72.02265 52.70993
# Shear Modulus (GPa) = 27.51792 41.82328 34.67060
#
# Velocity S-wave (km/s) = 3.40958 4.20342 3.82714
# Velocity P-wave (km/s) = 5.44145 7.34745 6.46508
#
# Compressibility (1/GPa) = 0.02994262
#
# Stress axis : x y z
#
# Youngs Moduli (GPa) = 63.77629 100.69330 35.53677
#
# Poissons Ratio (x) = 0.26928 0.35043
# Poissons Ratio (y) = 0.17055 -0.02243
# Poissons Ratio (z) = 0.62890 -0.06356
#
# Static dielectric constant tensor:
#      x y z
#    x 2.350990 0.458890 0.089570 
#    y 0.458890 2.429020 0.077520 
#    z 0.089570 0.077520 2.002690 
# 
# From -- ./inp_files/184087.got.cif
#   From: 2010.05.17/outbox.cif.g08.bks.cpg/sg2_93_cif.got.tgz:184087.got - 2010.06.03 11:33:40.
