data_PCOD9018180
_publ_section_title
;
Structure prediction by ZEFSAII (Michael W. Deem and Ramdas Pophale) SiO2 
 PCOD9018180
Probable space group: P -1
;
_chemical_formula_sum "Si O2"
_cell_formula_units_Z 16
_cell_length_a 9.102861
_cell_length_b 5.884399
_cell_length_c 25.441586
_cell_angle_alpha 100.736788
_cell_angle_beta 40.786017
_cell_angle_gamma 123.374450
_cell_volume 673.965291
_symmetry_space_group_name_H-M "P -1"
_symmetry_group_IT_number 2
_symmetry_cell_setting 'triclinic'
loop_
_space_group_symop_operation_xyz
x,y,z
-x,-y,-z
loop_
_atom_site_type_symbol
_atom_site_label
_atom_site_fract_x
_atom_site_fract_y
_atom_site_fract_z
Si Si1 0.705088 0.431666 0.738669
Si Si2 0.854302 0.626437 0.864545
Si Si3 0.833557 0.458063 0.301497
Si Si4 0.919326 0.010129 0.081974
Si Si5 0.298480 0.242625 0.500433
Si Si6 0.692929 0.857872 0.827479
Si Si7 0.009287 0.542281 0.561270
Si Si8 0.341698 0.945336 0.986040
O O1 0.412399 0.126854 0.827822
O O2 0.004154 0.551684 0.692277
O O3 0.736994 0.414951 0.667669
O O4 0.657615 0.659896 0.781004
O O5 0.560591 0.288387 0.919932
O O6 0.126847 0.679288 0.765514
O O7 0.802571 0.812167 0.849775
O O8 0.901055 0.697230 0.916579
O O9 0.510227 0.320419 0.397566
O O10 0.046286 0.807183 0.245906
O O11 0.000000 0.000000 0.000000
O O12 0.020427 0.834789 0.074576
O O13 0.500000 0.500000 0.500000
O O14 0.098279 0.335111 0.545364
O O15 0.180488 0.909183 0.536450
O O16 0.391052 0.776993 0.923432
O O17 0.000000 0.500000 0.500000
O O18 0.500000 0.000000 0.000000
#
# Coordination Sequence:
#
# PCOD9018180 Si02
#       8
#     2   2   2   2   2   2   2   2
#     4  11  26  45  68 103 151 182 236 310 369 442
#     4  10  23  42  68  95 141 182 240 297 350 440
#     4  10  23  43  74 104 134 189 248 298 352 448
#     4  12  25  43  68 101 141 188 228 294 379 428
#     4  12  25  48  85 111 146 207 263 301 375 463
#     4  10  21  43  68  98 136 183 240 303 356 423
#     4  12  29  51  76 117 163 196 245 326 391 451
#     4  11  23  43  67  95 132 186 246 294 350 439
#
# _framework density 23.740095
#
# number of rings (size 3 to 8) (size 9 to 14) (size 15 to 20)
#    0.000    1.000    2.500    4.125    7.000    0.500 
#    2.250    0.000    0.000    0.000    0.000    0.000 
#    0.000    0.000    0.000    0.000    0.000    0.000 
#
# Total GULP energy -89144.783786 kJ/mol
# GULP energy per Si atom -5571.548987 kJ/mol
# Density = 2.368606 g / cm^3
# Si number density = 23.740095 Si / 1000 Ang^3
#
#
#
# Elastic Constant Matrix: (Units=GPa)
#
#
# Indices 1 2 3 4 5 6 
#
# 1 55.9569 16.9246 19.5142 13.4182 14.7686 11.5957
# 2 16.9246 106.6731 36.0557 19.2649 0.3195 4.1635
# 3 19.5142 36.0557 127.8922 35.0630 14.8012 12.5099
# 4 13.4182 19.2649 35.0630 44.7483 1.9939 11.3482
# 5 14.7686 0.3195 14.8012 1.9939 36.5083 11.3347
# 6 11.5957 4.1635 12.5099 11.3482 11.3347 38.2798
#
#
#
# Elastic Compliance Matrix: (Units=1/GPa)
#
#
# Indices 1 2 3 4 5 6 
#
# 1 0.022433 -0.002530 -0.000353 -0.004298 -0.007799 -0.002821
# 2 -0.002530 0.010960 -0.002322 -0.002345 0.001848 0.000481
# 3 -0.000353 -0.002322 0.010988 -0.007358 -0.003925 0.000112
# 4 -0.004298 -0.002345 -0.007358 0.031968 0.005185 -0.007051
# 5 -0.007799 0.001848 -0.003925 0.005185 0.034409 -0.008282
# 6 -0.002821 0.000481 0.000112 -0.007051 -0.008282 0.031432
#
#
# Mechanical properties :
#
#
# Convention : Reuss Voigt Hill
#
# Bulk Modulus (GPa) = 29.43666 48.39014 38.91340
# Shear Modulus (GPa) = 30.50224 38.44243 34.47234
#
# Velocity S-wave (km/s) = 3.58836 4.02842 3.81474
# Velocity P-wave (km/s) = 5.44012 6.48576 5.98582
#
# Compressibility (1/GPa) = 0.03397125
#
# Stress axis : x y z
#
# Youngs Moduli (GPa) = 44.57743 91.24256 91.00855
#
# Poissons Ratio (x) = 0.23087 0.03209
# Poissons Ratio (y) = 0.11279 0.21130
# Poissons Ratio (z) = 0.01572 0.21185
#
# Static dielectric constant tensor:
#      x y z
#    x 1.966580 -0.054010 -0.021630 
#    y -0.054010 2.025550 0.005190 
#    z -0.021630 0.005190 1.903970 
# 
# From -- ./inp_files/616350.got.cif
#   From: 2010.05.17/outbox.cif.g08.bks.cpg/sg2_309_cif.got.tgz:616350.got - 2010.06.03 11:33:40.
