data_PCOD9018206
_publ_section_title
;
Structure prediction by ZEFSAII (Michael W. Deem and Ramdas Pophale) SiO2 
 PCOD9018206
Probable space group: P -1
;
_chemical_formula_sum "Si O2"
_cell_formula_units_Z 16
_cell_length_a 9.398049
_cell_length_b 11.215368
_cell_length_c 15.838293
_cell_angle_alpha 54.296912
_cell_angle_beta 147.580066
_cell_angle_gamma 117.854537
_cell_volume 725.546944
_symmetry_space_group_name_H-M "P -1"
_symmetry_group_IT_number 2
_symmetry_cell_setting 'triclinic'
loop_
_space_group_symop_operation_xyz
x,y,z
-x,-y,-z
loop_
_atom_site_type_symbol
_atom_site_label
_atom_site_fract_x
_atom_site_fract_y
_atom_site_fract_z
Si Si1 0.539947 0.181570 0.013069
Si Si2 0.388270 0.588498 0.172052
Si Si3 0.737135 0.959037 0.339768
Si Si4 0.053863 0.824538 0.301358
Si Si5 0.943876 0.672483 0.474657
Si Si6 0.229210 0.038408 0.166100
Si Si7 0.884014 0.615278 0.012789
Si Si8 0.172612 0.424203 0.807320
O O1 0.699596 0.065406 0.196783
O O2 0.437800 0.324283 0.958676
O O3 0.742360 0.882123 0.126296
O O4 0.671990 0.253728 0.969555
O O5 0.706499 0.583710 0.349005
O O6 0.286944 0.464299 0.110383
O O7 0.195033 0.588824 0.155024
O O8 0.496083 0.991679 0.269186
O O9 0.777047 0.793275 0.396358
O O10 0.000000 0.000000 0.500000
O O11 0.208106 0.947426 0.280216
O O12 0.197773 0.211823 0.095611
O O13 0.102699 0.757517 0.446629
O O14 0.873045 0.429535 0.330680
O O15 0.951282 0.314372 0.708169
O O16 0.000000 0.000000 0.000000
O O17 0.844675 0.552774 0.112135
#
# Coordination Sequence:
#
# PCOD9018206 Si02
#       8
#     2   2   2   2   2   2   2   2
#     4   9  21  43  68  96 135 184 234 272 346 424
#     4  10  25  40  67 105 140 182 233 294 358 401
#     4  12  27  44  66 112 141 180 236 293 353 408
#     4   9  21  41  72 100 129 184 243 270 350 416
#     4  11  25  44  69 104 144 180 232 301 347 415
#     4  12  20  46  73 101 134 191 240 279 347 431
#     4  11  23  42  69 104 137 188 238 289 342 430
#     4  10  21  43  69 101 132 185 237 282 342 424
#
# _framework density 22.052327999999999
#
# number of rings (size 3 to 8) (size 9 to 14) (size 15 to 20)
#    0.750    0.750    3.750    1.125    3.500    3.000 
#    0.000    0.625    0.000    0.000    0.000    0.000 
#    0.000    0.000    0.000    0.000    0.000    0.000 
#
# Total GULP energy -89412.077433 kJ/mol
# GULP energy per Si atom -5588.254840 kJ/mol
# Density = 2.200214 g / cm^3
# Si number density = 22.052328 Si / 1000 Ang^3
#
#
#
# Elastic Constant Matrix: (Units=GPa)
#
#
# Indices 1 2 3 4 5 6 
#
# 1 107.7684 31.2036 36.9982 9.3109 -12.0895 -2.7376
# 2 31.2036 113.6445 42.3125 -9.8052 -14.4577 -1.9423
# 3 36.9982 42.3125 70.4964 -11.9138 -9.8642 2.3038
# 4 9.3109 -9.8052 -11.9138 31.4347 7.3923 -2.8126
# 5 -12.0895 -14.4577 -9.8642 7.3923 33.5308 -2.4046
# 6 -2.7376 -1.9423 2.3038 -2.8126 -2.4046 35.0106
#
#
#
# Elastic Compliance Matrix: (Units=1/GPa)
#
#
# Indices 1 2 3 4 5 6 
#
# 1 0.013160 -0.001150 -0.007005 -0.007750 0.003974 0.001077
# 2 -0.001150 0.011799 -0.005925 0.001241 0.002745 0.001243
# 3 -0.007005 -0.005925 0.022912 0.008856 -0.000414 -0.001701
# 4 -0.007750 0.001241 0.008856 0.039951 -0.008353 0.001516
# 5 0.003974 0.002745 -0.000414 -0.008353 0.034315 0.002176
# 6 0.001077 0.001243 -0.001701 0.001516 0.002176 0.029099
#
#
# Mechanical properties :
#
#
# Convention : Reuss Voigt Hill
#
# Bulk Modulus (GPa) = 50.73461 56.99310 53.86385
# Shear Modulus (GPa) = 26.88663 32.08821 29.48742
#
# Velocity S-wave (km/s) = 3.49552 3.81871 3.66068
# Velocity P-wave (km/s) = 6.27280 6.73379 6.50738
#
# Compressibility (1/GPa) = 0.01971041
#
# Stress axis : x y z
#
# Youngs Moduli (GPa) = 75.98922 84.75569 43.64503
#
# Poissons Ratio (x) = 0.09745 0.30575
# Poissons Ratio (y) = 0.08737 0.25860
# Poissons Ratio (z) = 0.53233 0.50218
#
# Static dielectric constant tensor:
#      x y z
#    x 1.808740 -0.016240 -0.005260 
#    y -0.016240 1.867430 0.028980 
#    z -0.005260 0.028980 1.811430 
# 
# From -- ./inp_files/499133.got.cif
#   From: 2010.05.17/outbox.cif.g08.bks.cpg/sg2_250_cif.got.tgz:499133.got - 2010.06.03 11:33:40.
