data_PCOD9018526
_publ_section_title
;
Structure prediction by ZEFSAII (Michael W. Deem and Ramdas Pophale) SiO2 
 PCOD9018526
Probable space group: P -1
;
_chemical_formula_sum "Si O2"
_cell_formula_units_Z 14
_cell_length_a 19.207664
_cell_length_b 9.415882
_cell_length_c 5.290058
_cell_angle_alpha 127.341077
_cell_angle_beta 85.468054
_cell_angle_gamma 73.288331
_cell_volume 686.987684
_symmetry_space_group_name_H-M "P -1"
_symmetry_group_IT_number 2
_symmetry_cell_setting 'triclinic'
loop_
_space_group_symop_operation_xyz
x,y,z
-x,-y,-z
loop_
_atom_site_type_symbol
_atom_site_label
_atom_site_fract_x
_atom_site_fract_y
_atom_site_fract_z
Si Si1 0.641456 0.463807 0.037950
Si Si2 0.917343 0.947048 0.247487
Si Si3 0.501167 0.880181 0.622253
Si Si4 0.414741 0.649557 0.586142
Si Si5 0.928245 0.535049 0.871401
Si Si6 0.815562 0.368997 0.960495
Si Si7 0.073171 0.764508 0.841330
O O1 0.578791 0.679536 0.366450
O O2 0.634245 0.320663 0.109074
O O3 0.618515 0.430079 0.723439
O O4 0.727285 0.446721 0.005622
O O5 0.859314 0.135561 0.622266
O O6 0.921978 0.049815 0.094008
O O7 0.895250 0.764138 0.049384
O O8 0.009651 0.842905 0.166912
O O9 0.430212 0.821633 0.629755
O O10 0.500000 0.000000 0.500000
O O11 0.500000 0.000000 0.000000
O O12 0.500000 0.500000 0.500000
O O13 0.859721 0.488989 0.956231
O O14 0.954975 0.372452 0.465426
O O15 0.000000 0.500000 0.000000
O O16 0.839651 0.367685 0.242997
#
# Coordination Sequence:
#
# PCOD9018526 Si02
#       7
#     2   2   2   2   2   2   2
#     4  11  24  43  67  97 136 173 218 273 333 394
#     4  10  22  39  62  89 119 172 228 263 323 400
#     4  11  21  41  71 102 128 164 218 268 318 402
#     4  10  21  43  71  93 126 180 213 252 327 414
#     4  11  23  39  63  92 123 172 226 275 328 392
#     4  11  25  41  61  92 134 168 217 281 336 383
#     4  10  22  38  64  87 124 171 221 275 325 392
#
# _framework density 20.378820000000001
#
# number of rings (size 3 to 8) (size 9 to 14) (size 15 to 20)
#    0.000    1.429    1.429    5.143    8.000    0.000 
#    5.143    0.000    0.000    0.000    0.000    0.000 
#    0.000    0.000    0.000    0.000    0.000    0.000 
#
# Total GULP energy -77937.490622 kJ/mol
# GULP energy per Si atom -5566.963616 kJ/mol
# Density = 2.033244 g / cm^3
# Si number density = 20.378820 Si / 1000 Ang^3
#
#
#
# Elastic Constant Matrix: (Units=GPa)
#
#
# Indices 1 2 3 4 5 6 
#
# 1 144.2422 47.9815 44.0211 -4.0596 19.4300 1.5527
# 2 47.9815 136.8937 46.4786 7.6500 15.1344 26.0795
# 3 44.0211 46.4786 98.2471 2.7819 25.7403 -1.3433
# 4 -4.0596 7.6500 2.7819 39.6756 2.5521 9.3191
# 5 19.4300 15.1344 25.7403 2.5521 27.8425 -2.1991
# 6 1.5527 26.0795 -1.3433 9.3191 -2.1991 33.4319
#
#
#
# Elastic Compliance Matrix: (Units=1/GPa)
#
#
# Indices 1 2 3 4 5 6 
#
# 1 0.008763 -0.002219 -0.002113 0.001524 -0.003047 0.000614
# 2 -0.002219 0.011369 -0.004101 0.000097 -0.001564 -0.009060
# 3 -0.002113 -0.004101 0.015933 -0.000657 -0.010696 0.003417
# 4 0.001524 0.000097 -0.000657 0.027523 -0.003671 -0.008086
# 5 -0.003047 -0.001564 -0.010696 -0.003671 0.049529 0.005213
# 6 0.000614 -0.009060 0.003417 -0.008086 0.005213 0.039685
#
#
# Mechanical properties :
#
#
# Convention : Reuss Voigt Hill
#
# Bulk Modulus (GPa) = 52.08800 72.92726 62.50763
# Shear Modulus (GPa) = 28.39837 36.25011 32.32424
#
# Velocity S-wave (km/s) = 3.73704 4.22217 3.98699
# Velocity P-wave (km/s) = 6.65102 7.72221 7.20654
#
# Compressibility (1/GPa) = 0.01919828
#
# Stress axis : x y z
#
# Youngs Moduli (GPa) = 114.12261 87.96153 62.76390
#
# Poissons Ratio (x) = 0.19521 0.13261
# Poissons Ratio (y) = 0.25327 0.25737
# Poissons Ratio (z) = 0.24113 0.36070
#
# Static dielectric constant tensor:
#      x y z
#    x 1.721440 -0.002700 0.014500 
#    y -0.002700 1.872490 -0.049080 
#    z 0.014500 -0.049080 1.807060 
# 
# From -- ./inp_files/105951.got.cif
#   From: 2010.05.17/outbox.cif.g08.bks.cpg/sg2_53_cif.got.tgz:105951.got - 2010.06.03 11:33:40.
