data_PCOD9018209
_publ_section_title
;
Structure prediction by ZEFSAII (Michael W. Deem and Ramdas Pophale) SiO2 
 PCOD9018209
Probable space group: P -1
;
_chemical_formula_sum "Si O2"
_cell_formula_units_Z 14
_cell_length_a 10.125945
_cell_length_b 11.533800
_cell_length_c 9.241101
_cell_angle_alpha 68.764872
_cell_angle_beta 63.031392
_cell_angle_gamma 39.127968
_cell_volume 606.912975
_symmetry_space_group_name_H-M "P -1"
_symmetry_group_IT_number 2
_symmetry_cell_setting 'triclinic'
loop_
_space_group_symop_operation_xyz
x,y,z
-x,-y,-z
loop_
_atom_site_type_symbol
_atom_site_label
_atom_site_fract_x
_atom_site_fract_y
_atom_site_fract_z
Si Si1 0.624696 0.039537 0.353228
Si Si2 0.894728 0.189789 0.718662
Si Si3 0.447517 0.050625 0.171645
Si Si4 0.489252 0.381375 0.365494
Si Si5 0.742939 0.342217 0.018677
Si Si6 0.797810 0.576595 0.973764
Si Si7 0.595693 0.204224 0.697446
O O1 0.640728 0.989734 0.199215
O O2 0.482015 0.251871 0.349689
O O3 0.500000 0.000000 0.500000
O O4 0.856686 0.922163 0.364205
O O5 0.724146 0.403150 0.656610
O O6 0.816282 0.120076 0.697582
O O7 0.861769 0.188647 0.907411
O O8 0.264644 0.270381 0.168283
O O9 0.387598 0.948410 0.293361
O O10 0.500000 0.000000 0.000000
O O11 0.698432 0.316051 0.211884
O O12 0.526697 0.330991 0.538336
O O13 0.500000 0.500000 0.000000
O O14 0.840201 0.420161 0.945229
O O15 0.591946 0.676773 0.138584
O O16 0.000000 0.500000 0.000000
#
# Coordination Sequence:
#
# PCOD9018209 Si02
#       7
#     2   2   2   2   2   2   2
#     4  12  27  48  67 106 141 184 233 288 355 412
#     4  11  26  44  75 100 140 190 233 286 347 412
#     4  10  24  45  65  97 144 172 230 288 336 417
#     4  11  24  46  74 101 147 179 237 290 341 422
#     4  10  21  43  69 101 135 180 235 279 341 415
#     4  11  24  41  72 104 134 182 231 287 348 408
#     4  11  23  47  67 105 141 183 232 283 352 414
#
# _framework density 23.067557999999998
#
# number of rings (size 3 to 8) (size 9 to 14) (size 15 to 20)
#    0.000    1.143    4.286    2.143    6.000    4.000 
#    0.000    0.000    0.000    0.000    0.000    0.000 
#    0.000    0.000    0.000    0.000    0.000    0.000 
#
# Total GULP energy -78239.518343 kJ/mol
# GULP energy per Si atom -5588.537024 kJ/mol
# Density = 2.301506 g / cm^3
# Si number density = 23.067558 Si / 1000 Ang^3
#
#
#
# Elastic Constant Matrix: (Units=GPa)
#
#
# Indices 1 2 3 4 5 6 
#
# 1 178.3914 38.6360 1.8519 -11.1526 13.6254 -0.7072
# 2 38.6360 65.0146 22.9711 -24.8173 -1.5730 5.6917
# 3 1.8519 22.9711 66.8536 -8.8658 6.4196 -6.4133
# 4 -11.1526 -24.8173 -8.8658 36.5289 7.8555 -6.5153
# 5 13.6254 -1.5730 6.4196 7.8555 35.9850 0.3179
# 6 -0.7072 5.6917 -6.4133 -6.5153 0.3179 46.2006
#
#
#
# Elastic Compliance Matrix: (Units=1/GPa)
#
#
# Indices 1 2 3 4 5 6 
#
# 1 0.006903 -0.004902 0.001912 0.000111 -0.003202 0.001013
# 2 -0.004902 0.026521 -0.007480 0.013992 0.001317 -0.002416
# 3 0.001912 -0.007480 0.018521 0.001698 -0.004759 0.003794
# 4 0.000111 0.013992 0.001698 0.039900 -0.008480 0.004199
# 5 -0.003202 0.001317 -0.004759 -0.008480 0.031780 -0.002286
# 6 0.001013 -0.002416 0.003794 0.004199 -0.002286 0.023092
#
#
# Mechanical properties :
#
#
# Convention : Reuss Voigt Hill
#
# Bulk Modulus (GPa) = 32.25035 48.57528 40.41281
# Shear Modulus (GPa) = 28.09119 40.19629 34.14374
#
# Velocity S-wave (km/s) = 3.49346 4.17891 3.85146
# Velocity P-wave (km/s) = 5.50304 6.66243 6.11030
#
# Compressibility (1/GPa) = 0.03100742
#
# Stress axis : x y z
#
# Youngs Moduli (GPa) = 144.86587 37.70555 53.99220
#
# Poissons Ratio (x) = 0.18482 -0.10325
# Poissons Ratio (y) = 0.71009 0.40384
# Poissons Ratio (z) = -0.27704 0.28202
#
# Static dielectric constant tensor:
#      x y z
#    x 1.829530 0.026290 0.011510 
#    y 0.026290 1.896310 0.008490 
#    z 0.011510 0.008490 1.951970 
# 
# From -- ./inp_files/176000.got.cif
#   From: 2010.05.17/outbox.cif.g08.bks.cpg/sg2_88_cif.got.tgz:176000.got - 2010.06.03 11:33:40.
