data_PCOD9018187
_publ_section_title
;
Structure prediction by ZEFSAII (Michael W. Deem and Ramdas Pophale) SiO2 
 PCOD9018187
Probable space group: P -1
;
_chemical_formula_sum "Si O2"
_cell_formula_units_Z 16
_cell_length_a 14.533055
_cell_length_b 14.268197
_cell_length_c 7.419673
_cell_angle_alpha 76.873635
_cell_angle_beta 92.403006
_cell_angle_gamma 29.105617
_cell_volume 628.048323
_symmetry_space_group_name_H-M "P -1"
_symmetry_group_IT_number 2
_symmetry_cell_setting 'triclinic'
loop_
_space_group_symop_operation_xyz
x,y,z
-x,-y,-z
loop_
_atom_site_type_symbol
_atom_site_label
_atom_site_fract_x
_atom_site_fract_y
_atom_site_fract_z
Si Si1 0.075776 0.517314 0.875222
Si Si2 0.683941 0.518285 0.061862
Si Si3 0.028007 0.042808 0.261822
Si Si4 0.971324 0.156691 0.787505
Si Si5 0.743569 0.753525 0.324768
Si Si6 0.298669 0.002229 0.941897
Si Si7 0.507724 0.342006 0.385599
Si Si8 0.630378 0.012425 0.641269
O O1 0.249818 0.312540 0.834297
O O2 0.187240 0.506309 0.976461
O O3 0.843457 0.771762 0.660140
O O4 0.000000 0.500000 0.000000
O O5 0.556548 0.586820 0.859584
O O6 0.497153 0.737180 0.079113
O O7 0.864698 0.270894 0.250015
O O8 0.952972 0.003818 0.258419
O O9 0.271923 0.818208 0.457131
O O10 0.026218 0.079565 0.035952
O O11 0.710586 0.416370 0.635934
O O12 0.095117 0.138816 0.778081
O O13 0.673048 0.928673 0.201350
O O14 0.573472 0.864956 0.397235
O O15 0.000000 0.500000 0.500000
O O16 0.270149 0.062083 0.118521
O O17 0.545132 0.192876 0.478929
#
# Coordination Sequence:
#
# PCOD9018187 Si02
#       8
#     2   2   2   2   2   2   2   2
#     4  12  24  43  67  92 137 182 220 275 335 394
#     4  11  25  42  68  98 139 172 224 281 331 403
#     4  10  21  43  68  99 129 174 226 272 340 400
#     4  10  22  41  70  97 132 174 220 280 336 398
#     4  12  28  42  65 103 136 177 234 273 328 407
#     4  12  23  46  63  96 140 176 221 281 335 396
#     4  11  22  42  70 100 129 175 227 275 335 400
#     4  12  23  43  68  94 133 184 220 273 336 393
#
# _framework density 25.475746000000001
#
# number of rings (size 3 to 8) (size 9 to 14) (size 15 to 20)
#    0.000    0.750    5.000    3.000    3.500    1.000 
#    2.250    0.625    0.000    0.000    0.000    0.000 
#    0.000    0.000    0.000    0.000    0.000    0.000 
#
# Total GULP energy -89634.778916 kJ/mol
# GULP energy per Si atom -5602.173682 kJ/mol
# Density = 2.541776 g / cm^3
# Si number density = 25.475746 Si / 1000 Ang^3
#
#
#
# Elastic Constant Matrix: (Units=GPa)
#
#
# Indices 1 2 3 4 5 6 
#
# 1 89.6945 30.8497 36.6946 -12.0737 24.8922 15.9270
# 2 30.8497 125.5565 18.3657 -23.8698 15.8980 12.5528
# 3 36.6946 18.3657 107.1813 -29.7775 30.5506 -3.6102
# 4 -12.0737 -23.8698 -29.7775 29.1153 -9.1919 0.7369
# 5 24.8922 15.8980 30.5506 -9.1919 36.6687 -4.5408
# 6 15.9270 12.5528 -3.6102 0.7369 -4.5408 38.4339
#
#
#
# Elastic Compliance Matrix: (Units=1/GPa)
#
#
# Indices 1 2 3 4 5 6 
#
# 1 0.016971 -0.001864 -0.003330 -0.000553 -0.009042 -0.007795
# 2 -0.001864 0.010558 0.002196 0.009192 -0.003213 -0.003025
# 3 -0.003330 0.002196 0.016730 0.014721 -0.008828 0.000909
# 4 -0.000553 0.009192 0.014721 0.056098 -0.002148 -0.002720
# 5 -0.009042 -0.003213 -0.008828 -0.002148 0.042741 0.009058
# 6 -0.007795 -0.003025 0.000909 -0.002720 0.009058 0.031445
#
#
# Mechanical properties :
#
#
# Convention : Reuss Voigt Hill
#
# Bulk Modulus (GPa) = 26.13329 54.91692 40.52510
# Shear Modulus (GPa) = 25.86751 36.61173 31.23962
#
# Velocity S-wave (km/s) = 3.18996 3.79505 3.50558
# Velocity P-wave (km/s) = 4.88346 6.38800 5.68571
#
# Compressibility (1/GPa) = 0.03826537
#
# Stress axis : x y z
#
# Youngs Moduli (GPa) = 58.92286 94.71579 59.77189
#
# Poissons Ratio (x) = 0.17653 0.19903
# Poissons Ratio (y) = 0.10982 -0.13129
# Poissons Ratio (z) = 0.19620 -0.20804
#
# Static dielectric constant tensor:
#      x y z
#    x 1.979140 0.009000 0.054330 
#    y 0.009000 2.043350 0.056630 
#    z 0.054330 0.056630 2.073860 
# 
# From -- ./inp_files/315103.got.cif
#   From: 2010.05.17/outbox.cif.g08.bks.cpg/sg2_158_cif.got.tgz:315103.got - 2010.06.03 11:33:40.
