data_PCOD9018334
_publ_section_title
;
Structure prediction by ZEFSAII (Michael W. Deem and Ramdas Pophale) SiO2 
 PCOD9018334
Probable space group: P -1
;
_chemical_formula_sum "Si O2"
_cell_formula_units_Z 16
_cell_length_a 20.981148
_cell_length_b 12.106910
_cell_length_c 18.168919
_cell_angle_alpha 29.708287
_cell_angle_beta 162.007507
_cell_angle_gamma 141.872688
_cell_volume 682.651263
_symmetry_space_group_name_H-M "P -1"
_symmetry_group_IT_number 2
_symmetry_cell_setting 'triclinic'
loop_
_space_group_symop_operation_xyz
x,y,z
-x,-y,-z
loop_
_atom_site_type_symbol
_atom_site_label
_atom_site_fract_x
_atom_site_fract_y
_atom_site_fract_z
Si Si1 0.245070 0.951725 0.281642
Si Si2 0.736402 0.538264 0.229385
Si Si3 0.074780 0.772248 0.665344
Si Si4 0.287476 0.445967 0.643293
Si Si5 0.220894 0.333887 0.311273
Si Si6 0.544646 0.500897 0.663305
Si Si7 0.388678 0.991077 0.259681
Si Si8 0.770703 0.175106 0.357290
O O1 0.335489 0.677020 0.531913
O O2 0.364509 0.031502 0.434837
O O3 0.281861 0.059102 0.182309
O O4 0.000000 0.000000 0.000000
O O5 0.820802 0.492323 0.430849
O O6 0.833785 0.358254 0.376246
O O7 0.500000 0.500000 0.000000
O O8 0.697894 0.802842 0.010415
O O9 0.106293 0.835114 0.578740
O O10 0.887281 0.641951 0.542243
O O11 0.299639 0.618591 0.031579
O O12 0.000000 0.000000 0.500000
O O13 0.515921 0.265087 0.008986
O O14 0.406407 0.338081 0.572239
O O15 0.305512 0.433309 0.273539
O O16 0.194239 0.076277 0.422962
O O17 0.000000 0.500000 0.000000
O O18 0.381360 0.742451 0.367189
#
# Coordination Sequence:
#
# PCOD9018334 Si02
#       8
#     2   2   2   2   2   2   2   2
#     4  11  24  39  64  99 137 176 226 275 337 413
#     4  10  21  43  69  99 135 179 224 282 344 408
#     4  12  27  44  68 102 137 184 237 282 338 411
#     4  11  24  45  68 102 140 182 230 279 351 414
#     4  11  26  46  71 102 133 180 235 282 343 406
#     4  11  25  45  70  99 141 179 225 289 340 408
#     4  11  23  42  67  97 139 177 223 280 350 405
#     4  11  24  45  71  97 141 180 227 289 344 401
#
# _framework density 23.438027999999999
#
# number of rings (size 3 to 8) (size 9 to 14) (size 15 to 20)
#    0.000    1.000    2.500    4.500    3.500    9.500 
#    0.000    0.000    0.000    0.000    0.000    0.000 
#    0.000    0.000    0.000    0.000    0.000    0.000 
#
# Total GULP energy -89606.661275 kJ/mol
# GULP energy per Si atom -5600.416330 kJ/mol
# Density = 2.338468 g / cm^3
# Si number density = 23.438028 Si / 1000 Ang^3
#
#
#
# Elastic Constant Matrix: (Units=GPa)
#
#
# Indices 1 2 3 4 5 6 
#
# 1 77.8467 2.6865 3.1394 -6.1666 3.2089 -3.7599
# 2 2.6865 77.7609 -3.4223 -15.5367 -6.1358 -17.7382
# 3 3.1394 -3.4223 72.4855 -8.3610 9.4423 3.7646
# 4 -6.1666 -15.5367 -8.3610 45.9176 1.8219 1.3357
# 5 3.2089 -6.1358 9.4423 1.8219 32.9704 -4.8759
# 6 -3.7599 -17.7382 3.7646 1.3357 -4.8759 34.6110
#
#
#
# Elastic Compliance Matrix: (Units=1/GPa)
#
#
# Indices 1 2 3 4 5 6 
#
# 1 0.013099 0.000090 -0.000288 0.001743 -0.001083 0.001280
# 2 0.000090 0.016172 0.000403 0.005153 0.003873 0.008601
# 3 -0.000288 0.000403 0.014903 0.003061 -0.004663 -0.002221
# 4 0.001743 0.005153 0.003061 0.024322 -0.001226 0.001386
# 5 -0.001083 0.003873 -0.004663 -0.001226 0.033618 0.007158
# 6 0.001280 0.008601 -0.002221 0.001386 0.007158 0.034636
#
#
# Mechanical properties :
#
#
# Convention : Reuss Voigt Hill
#
# Bulk Modulus (GPa) = 22.42967 25.87782 24.15375
# Shear Modulus (GPa) = 33.06874 37.74575 35.40724
#
# Velocity S-wave (km/s) = 3.76027 4.01739 3.89096
# Velocity P-wave (km/s) = 5.33324 5.70826 5.52393
#
# Compressibility (1/GPa) = 0.04458380
#
# Stress axis : x y z
#
# Youngs Moduli (GPa) = 76.34291 61.83641 67.10002
#
# Poissons Ratio (x) = -0.00554 0.01929
# Poissons Ratio (y) = -0.00684 -0.02704
# Poissons Ratio (z) = 0.02195 -0.02492
#
# Static dielectric constant tensor:
#      x y z
#    x 1.899590 -0.010530 0.031590 
#    y -0.010530 1.909600 -0.004380 
#    z 0.031590 -0.004380 1.883640 
# 
# From -- ./inp_files/577928.got.cif
#   From: 2010.05.17/outbox.cif.g08.bks.cpg/sg2_289_cif.got.tgz:577928.got - 2010.06.03 11:33:40.
