data_PCOD9018083
_publ_section_title
;
Structure prediction by ZEFSAII (Michael W. Deem and Ramdas Pophale) SiO2 
 PCOD9018083
Probable space group: P -1
;
_chemical_formula_sum "Si O2"
_cell_formula_units_Z 10
_cell_length_a 12.051691
_cell_length_b 5.465818
_cell_length_c 12.742720
_cell_angle_alpha 92.494574
_cell_angle_beta 149.105358
_cell_angle_gamma 96.668859
_cell_volume 410.862570
_symmetry_space_group_name_H-M "P -1"
_symmetry_group_IT_number 2
_symmetry_cell_setting 'triclinic'
loop_
_space_group_symop_operation_xyz
x,y,z
-x,-y,-z
loop_
_atom_site_type_symbol
_atom_site_label
_atom_site_fract_x
_atom_site_fract_y
_atom_site_fract_z
Si Si1 0.018364 0.248757 0.449698
Si Si2 0.387997 0.610248 0.643772
Si Si3 0.361767 0.679828 0.266248
Si Si4 0.238897 0.933286 0.970076
Si Si5 0.176691 0.859017 0.316128
O O1 0.266938 0.347470 0.599503
O O2 0.000000 0.500000 0.500000
O O3 0.835278 0.176988 0.206555
O O4 0.000000 0.000000 0.500000
O O5 0.559742 0.572122 0.692200
O O6 0.192012 0.690548 0.426724
O O7 0.530525 0.831857 0.838798
O O8 0.194995 0.700316 0.224044
O O9 0.596145 0.900713 0.486601
O O10 0.270331 0.738545 0.080746
O O11 0.038992 0.042698 0.850890
#
# Coordination Sequence:
#
# PCOD9018083 Si02
#       5
#     2   2   2   2   2
#     4  12  29  51  75 101 142 192 248 315 368 412
#     4  11  25  44  72 105 144 185 242 292 356 438
#     4  10  22  40  72 107 145 188 233 280 355 444
#     4  11  25  44  73 103 145 187 238 294 358 433
#     4  10  21  43  68 108 152 186 224 285 360 433
#
# _framework density 24.339037000000001
#
# number of rings (size 3 to 8) (size 9 to 14) (size 15 to 20)
#    0.000    1.200    2.000    2.400    8.400    2.400 
#    0.000    0.000    0.000    0.000    0.000    0.000 
#    0.000    0.000    0.000    0.000    0.000    0.000 
#
# Total GULP energy -56037.346754 kJ/mol
# GULP energy per Si atom -5603.734675 kJ/mol
# Density = 2.428364 g / cm^3
# Si number density = 24.339037 Si / 1000 Ang^3
#
#
#
# Elastic Constant Matrix: (Units=GPa)
#
#
# Indices 1 2 3 4 5 6 
#
# 1 89.1343 24.3065 30.1534 7.8746 -18.4974 -13.3427
# 2 24.3065 85.1556 39.1559 5.3960 -7.4181 4.3219
# 3 30.1534 39.1559 131.2271 0.6356 -36.4908 7.3526
# 4 7.8746 5.3960 0.6356 44.8588 -20.6682 4.4606
# 5 -18.4974 -7.4181 -36.4908 -20.6682 40.0921 2.3215
# 6 -13.3427 4.3219 7.3526 4.4606 2.3215 49.1117
#
#
#
# Elastic Compliance Matrix: (Units=1/GPa)
#
#
# Indices 1 2 3 4 5 6 
#
# 1 0.014087 -0.003209 -0.001364 -0.000583 0.004122 0.004172
# 2 -0.003209 0.014775 -0.004981 -0.003335 -0.004948 -0.000890
# 3 -0.001364 -0.004981 0.013875 0.008111 0.015460 -0.003477
# 4 -0.000583 -0.003335 0.008111 0.034562 0.024625 -0.005382
# 5 0.004122 -0.004948 0.015460 0.024625 0.053013 -0.005502
# 6 0.004172 -0.000890 -0.003477 -0.005382 -0.005502 0.022843
#
#
# Mechanical properties :
#
#
# Convention : Reuss Voigt Hill
#
# Bulk Modulus (GPa) = 42.32369 54.74986 48.53678
# Shear Modulus (GPa) = 27.75627 40.93928 34.34777
#
# Velocity S-wave (km/s) = 3.38065 4.10572 3.76070
# Velocity P-wave (km/s) = 5.71536 6.70965 6.23237
#
# Compressibility (1/GPa) = 0.02362743
#
# Stress axis : x y z
#
# Youngs Moduli (GPa) = 70.98700 67.68126 72.07406
#
# Poissons Ratio (x) = 0.21722 0.09831
# Poissons Ratio (y) = 0.22783 0.35901
# Poissons Ratio (z) = 0.09683 0.33713
#
# Static dielectric constant tensor:
#      x y z
#    x 2.003630 -0.015960 0.010010 
#    y -0.015960 1.937000 0.030240 
#    z 0.010010 0.030240 1.884560 
# 
# From -- ./inp_files/1448.got.cif
#   From: 2010.05.17/outbox.cif.g08.bks.cpg/sg2_1_cif.got.tgz:1448.got - 2010.06.03 11:33:40.
