data_PCOD9018888
_publ_section_title
;
Structure prediction by ZEFSAII (Michael W. Deem and Ramdas Pophale) SiO2 
 PCOD9018888
Probable space group: P -1
;
_chemical_formula_sum "Si O2"
_cell_formula_units_Z 15
_cell_length_a 13.284370
_cell_length_b 8.858271
_cell_length_c 11.684621
_cell_angle_alpha 74.433626
_cell_angle_beta 103.200724
_cell_angle_gamma 150.927690
_cell_volume 643.570209
_symmetry_space_group_name_H-M "P -1"
_symmetry_group_IT_number 2
_symmetry_cell_setting 'triclinic'
loop_
_space_group_symop_operation_xyz
x,y,z
-x,-y,-z
loop_
_atom_site_type_symbol
_atom_site_label
_atom_site_fract_x
_atom_site_fract_y
_atom_site_fract_z
Si Si1 0.410118 0.210593 0.292920
Si Si2 0.041161 0.468721 0.734428
Si Si3 0.748607 0.578605 0.680375
Si Si4 0.147151 0.346490 0.966615
Si Si5 0.956091 0.228203 0.163075
Si Si6 0.500000 0.500000 0.500000
Si Si7 0.477503 0.601281 0.112776
Si Si8 0.451116 0.938258 0.632834
O O1 0.486798 0.392286 0.392680
O O2 0.408098 0.330005 0.162473
O O3 0.547848 0.241047 0.294724
O O4 0.173846 0.842238 0.322152
O O5 0.098157 0.389409 0.837942
O O6 0.018592 0.583238 0.793002
O O7 0.239715 0.751505 0.646532
O O8 0.696413 0.643904 0.562742
O O9 0.620801 0.456881 0.785195
O O10 0.979468 0.834913 0.726695
O O11 0.638093 0.275699 0.671367
O O12 0.374883 0.572070 0.994815
O O13 0.098072 0.391511 0.055131
O O14 0.000000 0.000000 0.000000
O O15 0.722624 0.922167 0.120029
O O16 0.500000 0.000000 0.500000
#
# Coordination Sequence:
#
# PCOD9018888 Si02
#       8
#     2   2   2   2   2   1   2   2
#     4  11  24  43  71 100 142 183 242 289 354 423
#     4  12  26  46  71 104 142 191 235 292 357 419
#     4  10  21  44  66 100 140 175 237 290 345 423
#     4  11  25  45  71 108 146 184 240 289 351 430
#     4  11  24  44  74 103 144 188 229 292 360 419
#     4  10  22  44  68  94 140 182 232 290 350 406
#     4  10  23  44  71 104 142 185 230 293 352 422
#     4  12  25  45  69 102 137 186 238 300 346 414
#
# _framework density 23.307479000000001
#
# number of rings (size 3 to 8) (size 9 to 14) (size 15 to 20)
#    0.000    1.067    5.333    0.400    1.867    2.667 
#    4.800    3.333    0.000    0.000    0.000    0.000 
#    0.000    0.000    0.000    0.000    0.000    0.000 
#
# Total GULP energy -83585.570117 kJ/mol
# GULP energy per Si atom -5572.371341 kJ/mol
# Density = 2.325443 g / cm^3
# Si number density = 23.307479 Si / 1000 Ang^3
#
#
#
# Elastic Constant Matrix: (Units=GPa)
#
#
# Indices 1 2 3 4 5 6 
#
# 1 144.7603 23.9238 39.5894 13.1984 -2.4131 15.5120
# 2 23.9238 58.5186 10.6724 16.3510 -1.5721 33.0338
# 3 39.5894 10.6724 80.8593 13.1890 1.2832 19.3241
# 4 13.1984 16.3510 13.1890 23.6545 8.7716 9.7883
# 5 -2.4131 -1.5721 1.2832 8.7716 50.6229 13.4028
# 6 15.5120 33.0338 19.3241 9.7883 13.4028 40.7208
#
#
#
# Elastic Compliance Matrix: (Units=1/GPa)
#
#
# Indices 1 2 3 4 5 6 
#
# 1 0.008453 -0.003336 -0.003913 -0.000912 0.000157 0.001511
# 2 -0.003336 0.047006 0.008878 -0.024825 0.016073 -0.040398
# 3 -0.003913 0.008878 0.017898 -0.010234 0.004950 -0.013374
# 4 -0.000912 -0.024825 -0.010234 0.065375 -0.015809 0.014831
# 5 0.000157 0.016073 0.004950 -0.015809 0.028436 -0.021006
# 6 0.001511 -0.040398 -0.013374 0.014831 -0.021006 0.066449
#
#
# Mechanical properties :
#
#
# Convention : Reuss Voigt Hill
#
# Bulk Modulus (GPa) = 13.05243 48.05661 30.55452
# Shear Modulus (GPa) = 19.53890 36.99648 28.26769
#
# Velocity S-wave (km/s) = 2.89850 3.98844 3.48633
# Velocity P-wave (km/s) = 4.10049 6.47098 5.41699
#
# Compressibility (1/GPa) = 0.07661407
#
# Stress axis : x y z
#
# Youngs Moduli (GPa) = 118.29553 21.27384 55.87128
#
# Poissons Ratio (x) = 0.07097 0.21864
# Poissons Ratio (y) = 0.39466 -0.49601
# Poissons Ratio (z) = 0.46293 -0.18886
#
# Static dielectric constant tensor:
#      x y z
#    x 2.805960 -1.320140 -0.746850 
#    y -1.320140 3.741190 1.071800 
#    z -0.746850 1.071800 2.541810 
# 
# From -- ./inp_files/34651.got.cif
#   From: 2010.05.17/outbox.cif.g08.bks.cpg/sg2_18_cif.got.tgz:34651.got - 2010.06.03 11:33:40.
