data_PCOD9018718
_publ_section_title
;
Structure prediction by ZEFSAII (Michael W. Deem and Ramdas Pophale) SiO2 
 PCOD9018718
Probable space group: P -1
;
_chemical_formula_sum "Si O2"
_cell_formula_units_Z 16
_cell_length_a 20.867121
_cell_length_b 9.001432
_cell_length_c 5.437411
_cell_angle_alpha 58.179541
_cell_angle_beta 69.140064
_cell_angle_gamma 50.624143
_cell_volume 670.470263
_symmetry_space_group_name_H-M "P -1"
_symmetry_group_IT_number 2
_symmetry_cell_setting 'triclinic'
loop_
_space_group_symop_operation_xyz
x,y,z
-x,-y,-z
loop_
_atom_site_type_symbol
_atom_site_label
_atom_site_fract_x
_atom_site_fract_y
_atom_site_fract_z
Si Si1 0.616603 0.863582 0.453754
Si Si2 0.809264 0.518320 0.428218
Si Si3 0.582342 0.582030 0.999497
Si Si4 0.161281 0.910743 0.006998
Si Si5 0.322904 0.756493 0.175445
Si Si6 0.050610 0.393432 0.773666
Si Si7 0.418859 0.887987 0.215296
Si Si8 0.253688 0.598274 0.768450
O O1 0.716867 0.705650 0.472402
O O2 0.567035 0.757073 0.672757
O O3 0.597048 0.950378 0.125715
O O4 0.592606 0.021512 0.578447
O O5 0.873773 0.576360 0.348447
O O6 0.795534 0.499496 0.170806
O O7 0.839228 0.286074 0.703711
O O8 0.602825 0.376102 0.004032
O O9 0.510245 0.682068 0.209442
O O10 0.670708 0.516023 0.047289
O O11 0.188285 0.831194 0.759804
O O12 0.082934 0.146303 0.939273
O O13 0.237604 0.913703 0.015514
O O14 0.301316 0.603432 0.462365
O O15 0.351045 0.839797 0.281708
O O16 0.000000 0.500000 0.500000
O O17 0.000000 0.500000 0.000000
#
# Coordination Sequence:
#
# PCOD9018718 Si02
#       8
#     2   2   2   2   2   2   2   2
#     4  12  25  44  66  99 135 194 246 289 354 428
#     4  11  25  48  79 102 146 195 241 288 353 439
#     4  11  23  42  63  99 143 188 245 305 355 409
#     4  10  24  48  77 104 145 194 238 291 348 440
#     4  10  23  42  68  98 137 193 247 289 356 424
#     4  12  32  51  78 121 150 175 228 296 366 442
#     4  12  28  38  65 102 146 187 240 316 362 392
#     4  10  21  43  76  99 137 197 250 286 347 432
#
# _framework density 23.863848000000001
#
# number of rings (size 3 to 8) (size 9 to 14) (size 15 to 20)
#    0.000    1.000    3.750    2.625   12.250    1.500 
#    0.000    0.000    0.000    0.000    0.000    0.000 
#    0.000    0.000    0.000    0.000    0.000    0.000 
#
# Total GULP energy -89396.704345 kJ/mol
# GULP energy per Si atom -5587.294022 kJ/mol
# Density = 2.380953 g / cm^3
# Si number density = 23.863848 Si / 1000 Ang^3
#
#
#
# Elastic Constant Matrix: (Units=GPa)
#
#
# Indices 1 2 3 4 5 6 
#
# 1 97.1793 22.9529 25.5343 6.8281 13.0637 7.8460
# 2 22.9529 146.3243 54.1454 21.1036 17.3115 -6.7494
# 3 25.5343 54.1454 83.8509 -1.4718 4.8049 1.3597
# 4 6.8281 21.1036 -1.4718 38.8735 7.4437 5.3920
# 5 13.0637 17.3115 4.8049 7.4437 39.1734 6.0737
# 6 7.8460 -6.7494 1.3597 5.3920 6.0737 34.5134
#
#
#
# Elastic Compliance Matrix: (Units=1/GPa)
#
#
# Indices 1 2 3 4 5 6 
#
# 1 0.011839 -0.000190 -0.003307 -0.001281 -0.002923 -0.001884
# 2 -0.000190 0.010891 -0.006953 -0.006051 -0.003365 0.003984
# 3 -0.003307 -0.006953 0.017468 0.005067 0.001433 -0.002340
# 4 -0.001281 -0.006051 0.005067 0.030660 -0.002503 -0.005441
# 5 -0.002923 -0.003365 0.001433 -0.002503 0.029028 -0.004767
# 6 -0.001884 0.003984 -0.002340 -0.005441 -0.004767 0.031963
#
#
# Mechanical properties :
#
#
# Convention : Reuss Voigt Hill
#
# Bulk Modulus (GPa) = 51.81856 59.17999 55.49928
# Shear Modulus (GPa) = 31.41047 37.49353 34.45200
#
# Velocity S-wave (km/s) = 3.63193 3.96807 3.80371
# Velocity P-wave (km/s) = 6.27290 6.77103 6.52672
#
# Compressibility (1/GPa) = 0.01929810
#
# Stress axis : x y z
#
# Youngs Moduli (GPa) = 84.46609 91.81534 57.24843
#
# Poissons Ratio (x) = 0.01741 0.18933
# Poissons Ratio (y) = 0.01602 0.39806
# Poissons Ratio (z) = 0.27935 0.63841
#
# Static dielectric constant tensor:
#      x y z
#    x 1.909210 0.015190 0.015100 
#    y 0.015190 1.971740 -0.064680 
#    z 0.015100 -0.064680 2.007080 
# 
# From -- ./inp_files/106210.got.cif
#   From: 2010.05.17/outbox.cif.g08.bks.cpg/sg2_54_cif.got.tgz:106210.got - 2010.06.03 11:33:40.
