data_PCOD9018233
_publ_section_title
;
Structure prediction by ZEFSAII (Michael W. Deem and Ramdas Pophale) SiO2 
 PCOD9018233
Probable space group: P -1
;
_chemical_formula_sum "Si O2"
_cell_formula_units_Z 16
_cell_length_a 17.072045
_cell_length_b 4.909961
_cell_length_c 8.243499
_cell_angle_alpha 89.999988
_cell_angle_beta 91.143511
_cell_angle_gamma 55.048430
_cell_volume 566.197224
_symmetry_space_group_name_H-M "P -1"
_symmetry_group_IT_number 2
_symmetry_cell_setting 'triclinic'
loop_
_space_group_symop_operation_xyz
x,y,z
-x,-y,-z
loop_
_atom_site_type_symbol
_atom_site_label
_atom_site_fract_x
_atom_site_fract_y
_atom_site_fract_z
Si Si1 0.459451 0.702563 0.248117
Si Si2 0.058886 0.190232 0.879216
Si Si3 0.354213 0.863597 0.555403
Si Si4 0.396754 0.394173 0.976007
Si Si5 0.928472 0.433667 0.586887
Si Si6 0.235917 0.085826 0.822743
Si Si7 0.196111 0.803422 0.424099
Si Si8 0.212403 0.511492 0.077171
O O1 0.383340 0.932886 0.382870
O O2 0.546148 0.391186 0.351132
O O3 0.511748 0.826265 0.137896
O O4 0.421339 0.552313 0.121965
O O5 0.134164 0.184134 0.758092
O O6 0.979203 0.228777 0.754746
O O7 0.000000 0.500000 0.000000
O O8 0.129848 0.839453 0.973803
O O9 0.293753 0.707850 0.514215
O O10 0.285444 0.158613 0.680620
O O11 0.318978 0.709687 0.862440
O O12 0.325184 0.304661 0.028930
O O13 0.881146 0.258584 0.503098
O O14 0.000000 0.500000 0.500000
O O15 0.846702 0.816339 0.624431
O O16 0.199774 0.241659 0.000708
O O17 0.214016 0.612908 0.256853
#
# Coordination Sequence:
#
# PCOD9018233 Si02
#       8
#     2   2   2   2   2   2   2   2
#     4   9  18  39  74  95 144 188 247 305 359 450
#     4  11  23  44  71 102 140 190 252 303 364 440
#     4  10  21  43  69 104 142 194 240 308 376 436
#     4   9  19  40  68 101 138 192 241 303 363 438
#     4  12  28  49  74 109 147 197 248 314 374 447
#     4  10  23  40  66 100 145 185 242 305 370 435
#     4  12  26  47  77 106 153 196 247 309 379 445
#     4  11  23  41  74 106 144 194 246 308 367 446
#
# _framework density 28.258707000000001
#
# number of rings (size 3 to 8) (size 9 to 14) (size 15 to 20)
#    0.000    1.500    2.500    1.875    3.500    1.000 
#   13.500    6.250    5.500    0.000    0.000    0.000 
#    0.000    0.000    0.000    0.000    0.000    0.000 
#
# Total GULP energy -89352.841835 kJ/mol
# GULP energy per Si atom -5584.552615 kJ/mol
# Density = 2.819439 g / cm^3
# Si number density = 28.258707 Si / 1000 Ang^3
#
#
#
# Elastic Constant Matrix: (Units=GPa)
#
#
# Indices 1 2 3 4 5 6 
#
# 1 135.6205 40.4819 47.1070 -11.9313 4.8031 -14.9054
# 2 40.4819 98.5323 26.8528 3.9504 12.2385 -15.8835
# 3 47.1070 26.8528 155.8250 7.1162 10.8975 -15.8116
# 4 -11.9313 3.9504 7.1162 46.6656 -19.4619 7.7690
# 5 4.8031 12.2385 10.8975 -19.4619 68.3913 -2.9271
# 6 -14.9054 -15.8835 -15.8116 7.7690 -2.9271 52.5784
#
#
#
# Elastic Compliance Matrix: (Units=1/GPa)
#
#
# Indices 1 2 3 4 5 6 
#
# 1 0.009620 -0.003515 -0.002523 0.003658 0.001416 0.000445
# 2 -0.003515 0.012712 -0.000451 -0.003608 -0.002851 0.003082
# 3 -0.002523 -0.000451 0.007682 -0.002775 -0.001680 0.001775
# 4 0.003658 -0.003608 -0.002775 0.027348 0.008422 -0.004459
# 5 0.001416 -0.002851 -0.001680 0.008422 0.017644 -0.001227
# 6 0.000445 0.003082 0.001775 -0.004459 -0.001227 0.021201
#
#
# Mechanical properties :
#
#
# Convention : Reuss Voigt Hill
#
# Bulk Modulus (GPa) = 58.70408 68.76237 63.73322
# Shear Modulus (GPa) = 43.52947 51.89613 47.71280
#
# Velocity S-wave (km/s) = 3.92904 4.29005 4.11351
# Velocity P-wave (km/s) = 6.43444 6.99467 6.72039
#
# Compressibility (1/GPa) = 0.01703459
#
# Stress axis : x y z
#
# Youngs Moduli (GPa) = 103.95119 78.66693 130.16969
#
# Poissons Ratio (x) = 0.27655 0.32846
# Poissons Ratio (y) = 0.36544 0.05869
# Poissons Ratio (z) = 0.26230 0.03547
#
# Static dielectric constant tensor:
#      x y z
#    x 2.417730 -0.015840 -0.003090 
#    y -0.015840 2.209690 0.044950 
#    z -0.003090 0.044950 2.549950 
# 
# From -- ./inp_files/323895.got.cif
#   From: 2010.05.17/outbox.cif.g08.bks.cpg/sg2_162_cif.got.tgz:323895.got - 2010.06.03 11:33:40.
