data_PCOD9018792
_publ_section_title
;
Structure prediction by ZEFSAII (Michael W. Deem and Ramdas Pophale) SiO2 
 PCOD9018792
Probable space group: P -1
;
_chemical_formula_sum "Si O2"
_cell_formula_units_Z 16
_cell_length_a 18.722284
_cell_length_b 5.205544
_cell_length_c 21.285027
_cell_angle_alpha 107.279568
_cell_angle_beta 19.056442
_cell_angle_gamma 103.050526
_cell_volume 636.608602
_symmetry_space_group_name_H-M "P -1"
_symmetry_group_IT_number 2
_symmetry_cell_setting 'triclinic'
loop_
_space_group_symop_operation_xyz
x,y,z
-x,-y,-z
loop_
_atom_site_type_symbol
_atom_site_label
_atom_site_fract_x
_atom_site_fract_y
_atom_site_fract_z
Si Si1 0.743284 0.783397 0.110759
Si Si2 0.918003 0.232876 0.271770
Si Si3 0.304451 0.603399 0.762437
Si Si4 0.159913 0.918576 0.159733
Si Si5 0.382051 0.342911 0.036101
Si Si6 0.333739 0.210413 0.608395
Si Si7 0.507716 0.408282 0.801369
Si Si8 0.878450 0.632878 0.439542
O O1 0.688635 0.579614 0.194750
O O2 0.548809 0.796751 0.220690
O O3 0.775850 0.078327 0.131748
O O4 0.969832 0.678135 0.877317
O O5 0.809603 0.482705 0.423153
O O6 0.106224 0.088667 0.153368
O O7 0.787376 0.994774 0.344447
O O8 0.197603 0.430246 0.785672
O O9 0.537347 0.626015 0.535858
O O10 0.933693 0.915044 0.386300
O O11 0.280602 0.629259 0.013514
O O12 0.330730 0.042260 0.070552
O O13 0.529315 0.302891 0.846953
O O14 0.500000 0.500000 0.000000
O O15 0.126738 0.504822 0.249545
O O16 0.500000 0.000000 0.500000
O O17 0.696571 0.578013 0.636000
#
# Coordination Sequence:
#
# PCOD9018792 Si02
#       8
#     2   2   2   2   2   2   2   2
#     4  12  23  44  68 102 133 185 238 297 356 420
#     4  11  24  43  68  95 142 177 237 294 353 427
#     4  11  26  44  68  96 136 184 237 293 365 421
#     4  10  21  44  64 103 129 186 225 290 344 423
#     4  10  23  45  67  99 143 180 224 285 352 427
#     4  11  25  48  63 100 138 185 237 297 365 424
#     4  11  23  41  69 101 140 175 238 288 351 417
#     4  10  23  40  67 102 132 183 231 285 349 417
#
# _framework density 25.133182000000001
#
# number of rings (size 3 to 8) (size 9 to 14) (size 15 to 20)
#    0.000    1.250    5.000    1.500    1.750    6.500 
#    0.000    1.250    0.000    0.000    0.000    0.000 
#    0.000    0.000    0.000    0.000    0.000    0.000 
#
# Total GULP energy -89401.438777 kJ/mol
# GULP energy per Si atom -5587.589924 kJ/mol
# Density = 2.507598 g / cm^3
# Si number density = 25.133182 Si / 1000 Ang^3
#
#
#
# Elastic Constant Matrix: (Units=GPa)
#
#
# Indices 1 2 3 4 5 6 
#
# 1 101.0466 55.4079 36.1381 -31.9580 -1.4042 28.6943
# 2 55.4079 143.2987 21.9573 -39.9136 4.6182 22.3209
# 3 36.1381 21.9573 103.5933 -37.1587 22.0738 -0.9793
# 4 -31.9580 -39.9136 -37.1587 46.0987 -12.3785 -0.6355
# 5 -1.4042 4.6182 22.0738 -12.3785 42.1855 -14.7737
# 6 28.6943 22.3209 -0.9793 -0.6355 -14.7737 49.3909
#
#
#
# Elastic Compliance Matrix: (Units=1/GPa)
#
#
# Indices 1 2 3 4 5 6 
#
# 1 0.017313 -0.002999 -0.003332 0.007117 0.001896 -0.008110
# 2 -0.002999 0.010747 0.002005 0.008540 -0.000958 -0.003251
# 3 -0.003332 0.002005 0.015199 0.010247 -0.005322 -0.000129
# 4 0.007117 0.008540 0.010247 0.043446 0.004642 -0.005843
# 5 0.001896 -0.000958 -0.005322 0.004642 0.031019 0.008564
# 6 -0.008110 -0.003251 -0.000129 -0.005843 0.008564 0.028912
#
#
# Mechanical properties :
#
#
# Convention : Reuss Voigt Hill
#
# Bulk Modulus (GPa) = 28.89588 63.88277 46.38933
# Shear Modulus (GPa) = 29.97208 43.16403 36.56805
#
# Velocity S-wave (km/s) = 3.45705 4.14866 3.81855
# Velocity P-wave (km/s) = 5.23994 6.95855 6.15948
#
# Compressibility (1/GPa) = 0.03460701
#
# Stress axis : x y z
#
# Youngs Moduli (GPa) = 57.76071 93.05074 65.79562
#
# Poissons Ratio (x) = 0.27907 0.21920
# Poissons Ratio (y) = 0.17323 -0.13192
# Poissons Ratio (z) = 0.19243 -0.18657
#
# Static dielectric constant tensor:
#      x y z
#    x 1.992100 -0.044210 -0.027330 
#    y -0.044210 2.133490 0.026650 
#    z -0.027330 0.026650 2.058320 
# 
# From -- ./inp_files/599033.got.cif
#   From: 2010.05.17/outbox.cif.g08.bks.cpg/sg2_300_cif.got.tgz:599033.got - 2010.06.03 11:33:40.
