data_PCOD9018899
_publ_section_title
;
Structure prediction by ZEFSAII (Michael W. Deem and Ramdas Pophale) SiO2 
 PCOD9018899
Probable space group: P -1
;
_chemical_formula_sum "Si O2"
_cell_formula_units_Z 14
_cell_length_a 5.204274
_cell_length_b 11.352162
_cell_length_c 19.792870
_cell_angle_alpha 32.155101
_cell_angle_beta 76.675706
_cell_angle_gamma 67.278622
_cell_volume 562.839779
_symmetry_space_group_name_H-M "P -1"
_symmetry_group_IT_number 2
_symmetry_cell_setting 'triclinic'
loop_
_space_group_symop_operation_xyz
x,y,z
-x,-y,-z
loop_
_atom_site_type_symbol
_atom_site_label
_atom_site_fract_x
_atom_site_fract_y
_atom_site_fract_z
Si Si1 0.916828 0.369293 0.266412
Si Si2 0.685079 0.548217 0.686425
Si Si3 0.189154 0.072079 0.835714
Si Si4 0.126988 0.804423 0.839582
Si Si5 0.699859 0.658840 0.009881
Si Si6 0.766428 0.532830 0.439177
Si Si7 0.137357 0.094023 0.567873
O O1 0.610378 0.480966 0.266916
O O2 0.905452 0.517352 0.126838
O O3 0.172877 0.379582 0.291376
O O4 0.915835 0.107442 0.375157
O O5 0.639110 0.783590 0.527466
O O6 0.913232 0.287135 0.776278
O O7 0.331790 0.217030 0.712095
O O8 0.127421 0.906236 0.864310
O O9 0.441146 0.871894 0.957425
O O10 0.358536 0.560395 0.915223
O O11 0.148690 0.993634 0.691806
O O12 0.837591 0.751924 0.893565
O O13 0.500000 0.500000 0.500000
O O14 0.000000 0.500000 0.500000
O O15 0.872601 0.339630 0.467428
#
# Coordination Sequence:
#
# PCOD9018899 Si02
#       7
#     2   2   2   2   2   2   2
#     4  11  26  48  67  98 133 185 233 269 328 398
#     4  11  27  44  70  99 132 182 229 276 333 395
#     4  11  24  39  69  95 140 171 224 282 339 400
#     4  10  21  44  66 105 129 176 223 280 353 398
#     4  10  24  42  69  96 137 177 228 279 335 408
#     4  11  23  39  63 102 136 170 211 268 344 401
#     4  10  22  44  73  97 140 172 221 289 332 407
#
# _framework density 24.873866
#
# number of rings (size 3 to 8) (size 9 to 14) (size 15 to 20)
#    0.000    1.429    1.429    2.143    4.000    5.714 
#   10.286    0.000    0.000    0.000    0.000    0.000 
#    0.000    0.000    0.000    0.000    0.000    0.000 
#
# Total GULP energy -78021.760915 kJ/mol
# GULP energy per Si atom -5572.982923 kJ/mol
# Density = 2.481725 g / cm^3
# Si number density = 24.873866 Si / 1000 Ang^3
#
#
#
# Elastic Constant Matrix: (Units=GPa)
#
#
# Indices 1 2 3 4 5 6 
#
# 1 59.8206 6.2811 17.5325 9.7345 3.0786 -3.1875
# 2 6.2811 83.2538 32.1323 -21.9629 6.3871 -4.5232
# 3 17.5325 32.1323 134.4091 -11.2432 2.2496 0.0302
# 4 9.7345 -21.9629 -11.2432 66.2592 -1.8392 1.5579
# 5 3.0786 6.3871 2.2496 -1.8392 20.4916 7.6486
# 6 -3.1875 -4.5232 0.0302 1.5579 7.6486 29.3803
#
#
#
# Elastic Compliance Matrix: (Units=1/GPa)
#
#
# Indices 1 2 3 4 5 6 
#
# 1 0.018463 -0.000971 -0.002418 -0.003616 -0.003649 0.002998
# 2 -0.000971 0.014960 -0.003000 0.004376 -0.005017 0.003275
# 3 -0.002418 -0.003000 0.008531 0.000854 0.000808 -0.000989
# 4 -0.003616 0.004376 0.000854 0.017267 0.000966 -0.000887
# 5 -0.003649 -0.005017 0.000808 0.000966 0.056894 -0.016032
# 6 0.002998 0.003275 -0.000989 -0.000887 -0.016032 0.039088
#
#
# Mechanical properties :
#
#
# Convention : Reuss Voigt Hill
#
# Bulk Modulus (GPa) = 34.27594 43.26392 38.76993
# Shear Modulus (GPa) = 28.13614 37.99539 33.06577
#
# Velocity S-wave (km/s) = 3.36691 3.91259 3.64996
# Velocity P-wave (km/s) = 5.37816 6.15161 5.77784
#
# Compressibility (1/GPa) = 0.02917499
#
# Stress axis : x y z
#
# Youngs Moduli (GPa) = 54.16112 66.84470 117.22113
#
# Poissons Ratio (x) = 0.06489 0.28349
# Poissons Ratio (y) = 0.05258 0.35172
# Poissons Ratio (z) = 0.13099 0.20057
#
# Static dielectric constant tensor:
#      x y z
#    x 2.268170 0.262370 0.211020 
#    y 0.262370 1.748220 -0.277460 
#    z 0.211020 -0.277460 1.671710 
# 
# From -- ./inp_files/69373.got.cif
#   From: 2010.05.17/outbox.cif.g08.bks.cpg/sg2_35_cif.got.tgz:69373.got - 2010.06.03 11:33:40.
