data_PCOD9018941
_publ_section_title
;
Structure prediction by ZEFSAII (Michael W. Deem and Ramdas Pophale) SiO2 
 PCOD9018941
Probable space group: P -1
;
_chemical_formula_sum "Si O2"
_cell_formula_units_Z 16
_cell_length_a 18.462095
_cell_length_b 9.175130
_cell_length_c 8.444130
_cell_angle_alpha 51.242469
_cell_angle_beta 44.590789
_cell_angle_gamma 73.822020
_cell_volume 745.644338
_symmetry_space_group_name_H-M "P -1"
_symmetry_group_IT_number 2
_symmetry_cell_setting 'triclinic'
loop_
_space_group_symop_operation_xyz
x,y,z
-x,-y,-z
loop_
_atom_site_type_symbol
_atom_site_label
_atom_site_fract_x
_atom_site_fract_y
_atom_site_fract_z
Si Si1 0.496229 0.510696 0.187256
Si Si2 0.253996 0.294314 0.247678
Si Si3 0.592757 0.198212 0.673784
Si Si4 0.051032 0.842652 0.454527
Si Si5 0.743181 0.066784 0.723799
Si Si6 0.098061 0.530189 0.202773
Si Si7 0.466231 0.106330 0.627352
Si Si8 0.889483 0.034350 0.084709
O O1 0.620809 0.594774 0.991006
O O2 0.500000 0.500000 0.000000
O O3 0.434127 0.639622 0.287499
O O4 0.437794 0.292701 0.482095
O O5 0.247815 0.137283 0.223035
O O6 0.189689 0.447348 0.195402
O O7 0.201804 0.156241 0.574083
O O8 0.566809 0.196470 0.529860
O O9 0.707341 0.181994 0.558705
O O10 0.500000 0.000000 0.000000
O O11 0.959042 0.632400 0.728411
O O12 0.148910 0.827967 0.421863
O O13 0.097578 0.928017 0.150232
O O14 0.000000 0.000000 0.500000
O O15 0.640002 0.026531 0.028796
O O16 0.000000 0.500000 0.500000
O O17 0.125018 0.761201 0.967847
O O18 0.500000 0.000000 0.500000
O O19 0.000000 0.000000 0.000000
#
# Coordination Sequence:
#
# PCOD9018941 Si02
#       8
#     2   2   2   2   2   2   2   2
#     4  12  26  43  69 103 141 182 244 294 348 430
#     4  12  24  45  71 101 141 190 235 292 363 417
#     4  10  21  44  66  95 140 178 230 292 348 421
#     4  11  22  44  73 103 142 179 236 294 347 425
#     4  11  24  43  72 100 143 188 226 299 356 413
#     4  10  22  43  73  98 139 180 233 288 351 411
#     4  11  25  45  71  99 139 187 240 293 359 423
#     4  11  23  45  73 100 140 187 234 294 356 423
#
# _framework density 21.457951999999999
#
# number of rings (size 3 to 8) (size 9 to 14) (size 15 to 20)
#    0.000    1.000    6.250    1.875    1.750    5.000 
#    0.000    2.500    0.000    0.000    0.000    0.000 
#    0.000    0.000    0.000    0.000    0.000    0.000 
#
# Total GULP energy -89328.293621 kJ/mol
# GULP energy per Si atom -5583.018351 kJ/mol
# Density = 2.140911 g / cm^3
# Si number density = 21.457952 Si / 1000 Ang^3
#
#
#
# Elastic Constant Matrix: (Units=GPa)
#
#
# Indices 1 2 3 4 5 6 
#
# 1 144.1167 52.1316 12.1629 3.1116 1.5613 -11.3137
# 2 52.1316 183.5429 31.2569 -1.5717 8.9750 -9.1050
# 3 12.1629 31.2569 68.9235 8.0638 0.3088 -4.7677
# 4 3.1116 -1.5717 8.0638 38.4289 -1.2665 3.9868
# 5 1.5613 8.9750 0.3088 -1.2665 27.6429 6.2887
# 6 -11.3137 -9.1050 -4.7677 3.9868 6.2887 43.0795
#
#
#
# Elastic Compliance Matrix: (Units=1/GPa)
#
#
# Indices 1 2 3 4 5 6 
#
# 1 0.007876 -0.002115 -0.000211 -0.000863 -0.000183 0.001705
# 2 -0.002115 0.006657 -0.002681 0.000853 -0.002153 0.000790
# 3 -0.000211 -0.002681 0.016293 -0.003660 0.000194 0.001491
# 4 -0.000863 0.000853 -0.003660 0.027290 0.001800 -0.003240
# 5 -0.000183 -0.002153 0.000194 0.001800 0.038388 -0.006252
# 6 0.001705 0.000790 0.001491 -0.003240 -0.006252 0.025205
#
#
# Mechanical properties :
#
#
# Convention : Reuss Voigt Hill
#
# Bulk Modulus (GPa) = 48.05113 65.29844 56.67478
# Shear Modulus (GPa) = 36.05913 41.89904 38.97909
#
# Velocity S-wave (km/s) = 4.10378 4.42363 4.26670
# Velocity P-wave (km/s) = 6.70048 7.52252 7.12337
#
# Compressibility (1/GPa) = 0.02081116
#
# Stress axis : x y z
#
# Youngs Moduli (GPa) = 126.96594 150.20757 61.37759
#
# Poissons Ratio (x) = 0.31769 0.01295
# Poissons Ratio (y) = 0.26853 0.16458
# Poissons Ratio (z) = 0.02680 0.40278
#
# Static dielectric constant tensor:
#      x y z
#    x 1.787270 -0.011780 -0.019570 
#    y -0.011780 1.731810 -0.002950 
#    z -0.019570 -0.002950 1.552040 
# 
# From -- ./inp_files/327029.got.cif
#   From: 2010.05.17/outbox.cif.g08.bks.cpg/sg2_164_cif.got.tgz:327029.got - 2010.06.03 11:33:40.
