data_PCOD9018694
_publ_section_title
;
Structure prediction by ZEFSAII (Michael W. Deem and Ramdas Pophale) SiO2 
 PCOD9018694
Probable space group: P -1
;
_chemical_formula_sum "Si O2"
_cell_formula_units_Z 14
_cell_length_a 10.393852
_cell_length_b 7.906623
_cell_length_c 13.243061
_cell_angle_alpha 84.321349
_cell_angle_beta 144.628247
_cell_angle_gamma 105.100904
_cell_volume 595.579106
_symmetry_space_group_name_H-M "P -1"
_symmetry_group_IT_number 2
_symmetry_cell_setting 'triclinic'
loop_
_space_group_symop_operation_xyz
x,y,z
-x,-y,-z
loop_
_atom_site_type_symbol
_atom_site_label
_atom_site_fract_x
_atom_site_fract_y
_atom_site_fract_z
Si Si1 0.752913 0.594797 0.783719
Si Si2 0.334289 0.286820 0.491827
Si Si3 0.240666 0.785292 0.012088
Si Si4 0.326302 0.580061 0.614838
Si Si5 0.313898 0.952418 0.630876
Si Si6 0.381900 0.370854 0.842237
Si Si7 0.772796 0.020105 0.198091
O O1 0.613868 0.386526 0.685062
O O2 0.682189 0.702499 0.638840
O O3 0.611737 0.635138 0.785899
O O4 0.029649 0.660987 0.949539
O O5 0.238659 0.435147 0.478230
O O6 0.257821 0.101257 0.515521
O O7 0.121071 0.849547 0.834294
O O8 0.410929 0.955300 0.169897
O O9 0.418593 0.684094 0.090105
O O10 0.261023 0.474458 0.683903
O O11 0.267481 0.761853 0.561630
O O12 0.192240 0.923488 0.665637
O O13 0.215990 0.180774 0.787014
O O14 0.500000 0.500000 0.000000
O O15 0.500000 0.000000 0.000000
#
# Coordination Sequence:
#
# PCOD9018694 Si02
#       7
#     2   2   2   2   2   2   2
#     4   9  20  36  52  74 110 141 173 212 265 302
#     4   9  19  38  52  75 104 147 174 211 255 316
#     4  10  18  32  53  81 108 134 170 226 258 304
#     4  10  18  33  57  76 101 143 177 208 253 323
#     4  10  18  32  57  77 100 136 180 215 261 303
#     4  10  17  30  54  80 105 135 171 217 265 308
#     4   8  15  29  47  74 103 128 165 213 257 303
#
# _framework density 23.506532
#
# number of rings (size 3 to 8) (size 9 to 14) (size 15 to 20)
#    0.857    2.000    2.857    2.571    0.000    3.429 
#    0.000    2.143    0.000    1.714    0.000    0.000 
#    0.000    0.000    0.000    0.000    0.000    0.000 
#
# Total GULP energy -78072.482943 kJ/mol
# GULP energy per Si atom -5576.605925 kJ/mol
# Density = 2.345303 g / cm^3
# Si number density = 23.506532 Si / 1000 Ang^3
#
#
#
# Elastic Constant Matrix: (Units=GPa)
#
#
# Indices 1 2 3 4 5 6 
#
# 1 42.5860 56.4596 12.3109 -1.8279 1.1543 22.9352
# 2 56.4596 181.6444 29.4559 -24.7833 -8.5541 3.0118
# 3 12.3109 29.4559 73.6758 -21.8369 -10.2728 -0.7555
# 4 -1.8279 -24.7833 -21.8369 42.9479 14.5683 -4.8846
# 5 1.1543 -8.5541 -10.2728 14.5683 39.0941 3.1849
# 6 22.9352 3.0118 -0.7555 -4.8846 3.1849 42.7609
#
#
#
# Elastic Compliance Matrix: (Units=1/GPa)
#
#
# Indices 1 2 3 4 5 6 
#
# 1 0.090516 -0.028780 -0.011222 -0.024534 0.001266 -0.049617
# 2 -0.028780 0.015294 0.001902 0.010513 -0.000495 0.015630
# 3 -0.011222 0.001902 0.017936 0.010208 0.001063 0.007289
# 4 -0.024534 0.010513 0.010208 0.039011 -0.010282 0.017821
# 5 0.001266 -0.000495 0.001063 -0.010282 0.029872 -0.004025
# 6 -0.049617 0.015630 0.007289 0.017821 -0.004025 0.051362
#
#
# Mechanical properties :
#
#
# Convention : Reuss Voigt Hill
#
# Bulk Modulus (GPa) = 21.03247 54.92877 37.98062
# Shear Modulus (GPa) = 14.87906 38.27258 26.57582
#
# Velocity S-wave (km/s) = 2.51863 4.03943 3.36605
# Velocity P-wave (km/s) = 4.17432 6.72118 5.59460
#
# Compressibility (1/GPa) = 0.04754553
#
# Stress axis : x y z
#
# Youngs Moduli (GPa) = 11.04774 65.38375 55.75243
#
# Poissons Ratio (x) = 1.88173 0.62568
# Poissons Ratio (y) = 0.31795 -0.10602
# Poissons Ratio (z) = 0.12398 -0.12433
#
# Static dielectric constant tensor:
#      x y z
#    x 1.926960 0.090020 0.093930 
#    y 0.090020 1.919960 0.034700 
#    z 0.093930 0.034700 2.020750 
# 
# From -- ./inp_files/511825.got.cif
#   From: 2010.05.17/outbox.cif.g08.bks.cpg/sg2_256_cif.got.tgz:511825.got - 2010.06.03 11:33:40.
