data_PCOD9018647
_publ_section_title
;
Structure prediction by ZEFSAII (Michael W. Deem and Ramdas Pophale) SiO2 
 PCOD9018647
Probable space group: P -1
;
_chemical_formula_sum "Si O2"
_cell_formula_units_Z 13
_cell_length_a 7.256365
_cell_length_b 13.463504
_cell_length_c 15.006238
_cell_angle_alpha 151.850606
_cell_angle_beta 69.171216
_cell_angle_gamma 97.946418
_cell_volume 593.176980
_symmetry_space_group_name_H-M "P -1"
_symmetry_group_IT_number 2
_symmetry_cell_setting 'triclinic'
loop_
_space_group_symop_operation_xyz
x,y,z
-x,-y,-z
loop_
_atom_site_type_symbol
_atom_site_label
_atom_site_fract_x
_atom_site_fract_y
_atom_site_fract_z
Si Si1 0.229561 0.303555 0.324496
Si Si2 0.359164 0.919598 0.254150
Si Si3 0.927009 0.285442 0.653360
Si Si4 0.253319 0.396761 0.592287
Si Si5 0.486608 0.253783 0.725193
Si Si6 0.000000 0.500000 0.000000
Si Si7 0.375198 0.796876 0.951264
O O1 0.308300 0.365854 0.454419
O O2 0.398411 0.277123 0.196681
O O3 0.000000 0.500000 0.500000
O O4 0.229335 0.052403 0.143000
O O5 0.492629 0.753963 0.176875
O O6 0.106814 0.022692 0.406618
O O7 0.396303 0.157027 0.427677
O O8 0.394854 0.816341 0.068773
O O9 0.012776 0.408399 0.659480
O O10 0.958893 0.393310 0.826020
O O11 0.305436 0.714321 0.321299
O O12 0.278243 0.614194 0.799437
O O13 0.254390 0.427535 0.873378
O O14 0.500000 0.000000 0.500000
#
# Coordination Sequence:
#
# PCOD9018647 Si02
#       7
#     2   2   2   2   2   1   2
#     4  10  22  42  67 104 139 179 229 282 347 433
#     4   9  22  43  67 103 137 180 244 287 344 420
#     4  10  24  44  66 102 140 180 243 290 344 419
#     4   9  21  42  68 103 134 180 237 281 351 423
#     4  12  24  45  70  95 144 188 234 298 345 417
#     4  12  26  42  68  98 132 194 236 280 360 412
#     4  10  21  43  73  95 143 181 223 297 349 411
#
# _framework density 21.915886
#
# number of rings (size 3 to 8) (size 9 to 14) (size 15 to 20)
#    0.923    0.923    1.538    1.385    2.154    1.846 
#    8.308    0.000    0.000    0.000    0.000    0.000 
#    0.000    0.000    0.000    0.000    0.000    0.000 
#
# Total GULP energy -72388.041631 kJ/mol
# GULP energy per Si atom -5568.310895 kJ/mol
# Density = 2.186600 g / cm^3
# Si number density = 21.915886 Si / 1000 Ang^3
#
#
#
# Elastic Constant Matrix: (Units=GPa)
#
#
# Indices 1 2 3 4 5 6 
#
# 1 130.6257 36.3590 61.5524 12.6867 -5.6144 14.2345
# 2 36.3590 81.4939 49.7681 -4.2035 -4.4434 13.3317
# 3 61.5524 49.7681 130.6842 -13.9022 1.9735 10.7094
# 4 12.6867 -4.2035 -13.9022 45.3264 -3.4986 -1.6560
# 5 -5.6144 -4.4434 1.9735 -3.4986 36.5511 8.3066
# 6 14.2345 13.3317 10.7094 -1.6560 8.3066 19.5851
#
#
#
# Elastic Compliance Matrix: (Units=1/GPa)
#
#
# Indices 1 2 3 4 5 6 
#
# 1 0.011711 -0.001103 -0.005125 -0.004965 0.002975 -0.006640
# 2 -0.001103 0.018161 -0.005580 0.000265 0.004752 -0.010503
# 3 -0.005125 -0.005580 0.012560 0.004676 -0.002141 0.001959
# 4 -0.004965 0.000265 0.004676 0.025070 0.000815 0.002646
# 5 0.002975 0.004752 -0.002141 0.000815 0.032682 -0.018019
# 6 -0.006640 -0.010503 0.001959 0.002646 -0.018019 0.069830
#
#
# Mechanical properties :
#
#
# Convention : Reuss Voigt Hill
#
# Bulk Modulus (GPa) = 53.14206 70.90699 62.02452
# Shear Modulus (GPa) = 25.01219 33.30081 29.15650
#
# Velocity S-wave (km/s) = 3.38195 3.90228 3.65140
# Velocity P-wave (km/s) = 6.28895 7.26141 6.79261
#
# Compressibility (1/GPa) = 0.01881749
#
# Stress axis : x y z
#
# Youngs Moduli (GPa) = 85.38981 55.06174 79.61755
#
# Poissons Ratio (x) = 0.06072 0.40803
# Poissons Ratio (y) = 0.09416 0.44426
# Poissons Ratio (z) = 0.43761 0.30724
#
# Static dielectric constant tensor:
#      x y z
#    x 1.774490 0.009680 0.005430 
#    y 0.009680 1.832090 0.031540 
#    z 0.005430 0.031540 1.856900 
# 
# From -- ./inp_files/502313.got.cif
#   From: 2010.05.17/outbox.cif.g08.bks.cpg/sg2_252_cif.got.tgz:502313.got - 2010.06.03 11:33:40.
