data_PCOD9018276
_publ_section_title
;
Structure prediction by ZEFSAII (Michael W. Deem and Ramdas Pophale) SiO2 
 PCOD9018276
Probable space group: P -1
;
_chemical_formula_sum "Si O2"
_cell_formula_units_Z 14
_cell_length_a 10.980773
_cell_length_b 11.934623
_cell_length_c 6.022469
_cell_angle_alpha 51.563587
_cell_angle_beta 67.681150
_cell_angle_gamma 63.985395
_cell_volume 549.115190
_symmetry_space_group_name_H-M "P -1"
_symmetry_group_IT_number 2
_symmetry_cell_setting 'triclinic'
loop_
_space_group_symop_operation_xyz
x,y,z
-x,-y,-z
loop_
_atom_site_type_symbol
_atom_site_label
_atom_site_fract_x
_atom_site_fract_y
_atom_site_fract_z
Si Si1 0.117815 0.376062 0.438456
Si Si2 0.695791 0.729573 0.179211
Si Si3 0.760424 0.452814 0.195265
Si Si4 0.706677 0.231883 0.188703
Si Si5 0.803762 0.981386 0.806207
Si Si6 0.452460 0.903382 0.839846
Si Si7 0.929919 0.186039 0.710793
O O1 0.261103 0.320473 0.539163
O O2 0.000000 0.500000 0.500000
O O3 0.067742 0.230538 0.606283
O O4 0.144281 0.463260 0.100068
O O5 0.684355 0.578511 0.261361
O O6 0.562742 0.846108 0.027273
O O7 0.816162 0.811352 0.937766
O O8 0.678675 0.381630 0.165388
O O9 0.849341 0.313009 0.440921
O O10 0.744839 0.092092 0.505611
O O11 0.584188 0.225344 0.119343
O O12 0.837551 0.214252 0.960793
O O13 0.926517 0.034120 0.773404
O O14 0.687351 0.014344 0.038201
O O15 0.500000 0.000000 0.500000
#
# Coordination Sequence:
#
# PCOD9018276 Si02
#       7
#     2   2   2   2   2   2   2
#     4  12  24  43  69  96 138 175 217 274 325 387
#     4  12  26  39  68 106 126 176 224 263 335 393
#     4  11  23  41  69  99 131 171 224 267 327 390
#     4  10  21  43  69  94 132 176 216 274 328 383
#     4  10  24  43  70  96 134 172 220 271 331 391
#     4  11  24  44  70  95 135 175 217 273 330 390
#     4  10  22  44  68  96 131 180 217 269 328 384
#
# _framework density 25.495564000000002
#
# number of rings (size 3 to 8) (size 9 to 14) (size 15 to 20)
#    0.000    1.143    4.286    0.857    2.000    1.143 
#    0.000   11.429    0.000    0.000    0.000    0.000 
#    0.000    0.000    0.000    0.000    0.000    0.000 
#
# Total GULP energy -78328.304792 kJ/mol
# GULP energy per Si atom -5594.878914 kJ/mol
# Density = 2.543753 g / cm^3
# Si number density = 25.495564 Si / 1000 Ang^3
#
#
#
# Elastic Constant Matrix: (Units=GPa)
#
#
# Indices 1 2 3 4 5 6 
#
# 1 128.6201 64.4698 20.5003 -2.8257 14.6231 27.8369
# 2 64.4698 101.2780 20.5736 -24.8201 6.9789 49.3814
# 3 20.5003 20.5736 135.8347 -2.0780 -4.0008 -8.6706
# 4 -2.8257 -24.8201 -2.0780 40.2490 5.7763 -6.1257
# 5 14.6231 6.9789 -4.0008 5.7763 29.5442 -9.5307
# 6 27.8369 49.3814 -8.6706 -6.1257 -9.5307 46.4817
#
#
#
# Elastic Compliance Matrix: (Units=1/GPa)
#
#
# Indices 1 2 3 4 5 6 
#
# 1 0.012475 -0.009049 -0.000610 -0.004171 -0.003027 0.000859
# 2 -0.009049 0.059405 -0.012333 0.031104 -0.037838 -0.063651
# 3 -0.000610 -0.012333 0.010645 -0.006143 0.011332 0.016968
# 4 -0.004171 0.031104 -0.006143 0.042180 -0.024406 -0.031138
# 5 -0.003027 -0.037838 0.011332 -0.024406 0.068305 0.054914
# 6 0.000859 -0.063651 0.016968 -0.031138 0.054914 0.098943
#
#
# Mechanical properties :
#
#
# Convention : Reuss Voigt Hill
#
# Bulk Modulus (GPa) = 25.94812 64.09111 45.01961
# Shear Modulus (GPa) = 14.33555 40.60094 27.46824
#
# Velocity S-wave (km/s) = 2.37381 3.99491 3.28590
# Velocity P-wave (km/s) = 4.20867 6.81702 5.66501
#
# Compressibility (1/GPa) = 0.03853844
#
# Stress axis : x y z
#
# Youngs Moduli (GPa) = 80.16313 16.83364 93.94183
#
# Poissons Ratio (x) = 0.15233 0.05732
# Poissons Ratio (y) = 0.72542 1.15862
# Poissons Ratio (z) = 0.04891 0.20762
#
# Static dielectric constant tensor:
#      x y z
#    x 2.019090 0.041550 0.001870 
#    y 0.041550 2.175420 0.016930 
#    z 0.001870 0.016930 2.006470 
# 
# From -- ./inp_files/68094.got.cif
#   From: 2010.05.17/outbox.cif.g08.bks.cpg/sg2_35_cif.got.tgz:68094.got - 2010.06.03 11:33:40.
