data_PCOD9018650
_publ_section_title
;
Structure prediction by ZEFSAII (Michael W. Deem and Ramdas Pophale) SiO2 
 PCOD9018650
Probable space group: P -1
;
_chemical_formula_sum "Si O2"
_cell_formula_units_Z 16
_cell_length_a 9.501373
_cell_length_b 21.302670
_cell_length_c 24.728588
_cell_angle_alpha 16.550951
_cell_angle_beta 27.891397
_cell_angle_gamma 33.573853
_cell_volume 663.278881
_symmetry_space_group_name_H-M "P -1"
_symmetry_group_IT_number 2
_symmetry_cell_setting 'triclinic'
loop_
_space_group_symop_operation_xyz
x,y,z
-x,-y,-z
loop_
_atom_site_type_symbol
_atom_site_label
_atom_site_fract_x
_atom_site_fract_y
_atom_site_fract_z
Si Si1 0.156686 0.658561 0.134861
Si Si2 0.951642 0.832101 0.270809
Si Si3 0.176036 0.750117 0.381654
Si Si4 0.816337 0.707825 0.906600
Si Si5 0.676269 0.164689 0.560625
Si Si6 0.192708 0.559754 0.080298
Si Si7 0.182128 0.942687 0.686161
Si Si8 0.309452 0.001837 0.928239
O O1 0.221135 0.585766 0.112776
O O2 0.873834 0.513641 0.377074
O O3 0.077038 0.907796 0.948128
O O4 0.455999 0.634695 0.088521
O O5 0.596747 0.751236 0.451003
O O6 0.089395 0.801970 0.307253
O O7 0.190874 0.775659 0.189853
O O8 0.486966 0.872249 0.196844
O O9 0.930903 0.834341 0.436874
O O10 0.966467 0.799409 0.835614
O O11 0.816928 0.938067 0.680539
O O12 0.000000 0.500000 0.000000
O O13 0.532326 0.084970 0.733464
O O14 0.931406 0.366299 0.314961
O O15 0.500000 0.500000 0.000000
O O16 0.159559 0.792676 0.871141
O O17 0.500000 0.000000 0.500000
O O18 0.000000 0.000000 0.000000
#
# Coordination Sequence:
#
# PCOD9018650 Si02
#       8
#     2   2   2   2   2   2   2   2
#     4  11  24  42  65 102 136 176 228 284 337 402
#     4  10  24  43  68 103 133 181 229 285 343 397
#     4  12  22  44  70  96 144 173 228 284 338 413
#     4  11  22  41  65  95 133 177 228 279 337 403
#     4  10  22  44  67  96 140 179 227 284 339 414
#     4  12  23  42  66  98 138 182 227 277 346 409
#     4  12  25  43  67  98 139 186 225 275 347 417
#     4  10  21  43  73  97 135 183 227 282 346 399
#
# _framework density 24.122582999999999
#
# number of rings (size 3 to 8) (size 9 to 14) (size 15 to 20)
#    0.000    1.000    3.750    3.375    1.750    0.500 
#    2.250    2.500    0.000    5.250    0.000    0.000 
#    0.000    0.000    0.000    0.000    0.000    0.000 
#
# Total GULP energy -89136.295575 kJ/mol
# GULP energy per Si atom -5571.018473 kJ/mol
# Density = 2.406768 g / cm^3
# Si number density = 24.122583 Si / 1000 Ang^3
#
#
#
# Elastic Constant Matrix: (Units=GPa)
#
#
# Indices 1 2 3 4 5 6 
#
# 1 183.5643 40.1815 51.4637 15.1662 -7.6079 9.1389
# 2 40.1815 62.7713 24.5362 12.5165 7.7892 -8.5600
# 3 51.4637 24.5362 104.3848 25.7211 -12.1159 1.2498
# 4 15.1662 12.5165 25.7211 36.9867 -10.9090 -1.9077
# 5 -7.6079 7.7892 -12.1159 -10.9090 44.3015 3.1712
# 6 9.1389 -8.5600 1.2498 -1.9077 3.1712 26.1540
#
#
#
# Elastic Compliance Matrix: (Units=1/GPa)
#
#
# Indices 1 2 3 4 5 6 
#
# 1 0.007394 -0.004712 -0.002412 0.000578 0.001881 -0.004197
# 2 -0.004712 0.023562 -0.002795 -0.005908 -0.007888 0.010017
# 3 -0.002412 -0.002795 0.013371 -0.006801 0.002165 -0.001470
# 4 0.000578 -0.005908 -0.006801 0.035918 0.008136 -0.000177
# 5 0.001881 -0.007888 0.002165 0.008136 0.027312 -0.006061
# 6 -0.004197 0.010017 -0.001470 -0.000177 -0.006061 0.043772
#
#
# Mechanical properties :
#
#
# Convention : Reuss Voigt Hill
#
# Bulk Modulus (GPa) = 40.83371 64.78704 52.81038
# Shear Modulus (GPa) = 27.88146 37.12438 32.50292
#
# Velocity S-wave (km/s) = 3.40343 3.92725 3.67469
# Velocity P-wave (km/s) = 5.69287 6.89058 6.32016
#
# Compressibility (1/GPa) = 0.02448957
#
# Stress axis : x y z
#
# Youngs Moduli (GPa) = 135.23815 42.44065 74.79057
#
# Poissons Ratio (x) = 0.19996 0.18039
# Poissons Ratio (y) = 0.63718 0.20907
# Poissons Ratio (z) = 0.32619 0.11864
#
# Static dielectric constant tensor:
#      x y z
#    x 1.879310 0.084650 -0.029150 
#    y 0.084650 2.117280 0.094050 
#    z -0.029150 0.094050 1.928220 
# 
# From -- ./inp_files/343879.got.cif
#   From: 2010.05.17/outbox.cif.g08.bks.cpg/sg2_172_cif.got.tgz:343879.got - 2010.06.03 11:33:40.
