data_PCOD9018681
_publ_section_title
;
Structure prediction by ZEFSAII (Michael W. Deem and Ramdas Pophale) SiO2 
 PCOD9018681
Probable space group: P -1
;
_chemical_formula_sum "Si O2"
_cell_formula_units_Z 13
_cell_length_a 12.613399
_cell_length_b 19.884162
_cell_length_c 11.980152
_cell_angle_alpha 28.929537
_cell_angle_beta 36.384037
_cell_angle_gamma 22.176683
_cell_volume 548.394037
_symmetry_space_group_name_H-M "P -1"
_symmetry_group_IT_number 2
_symmetry_cell_setting 'triclinic'
loop_
_space_group_symop_operation_xyz
x,y,z
-x,-y,-z
loop_
_atom_site_type_symbol
_atom_site_label
_atom_site_fract_x
_atom_site_fract_y
_atom_site_fract_z
Si Si1 0.924556 0.233095 0.445651
Si Si2 0.094522 0.721177 0.945715
Si Si3 0.650279 0.255473 0.852044
Si Si4 0.000000 0.000000 0.500000
Si Si5 0.682184 0.419429 0.787252
Si Si6 0.460994 0.055546 0.322521
Si Si7 0.942440 0.565828 0.580832
O O1 0.856874 0.181799 0.686828
O O2 0.635603 0.483876 0.297142
O O3 0.031338 0.076509 0.479724
O O4 0.148508 0.215989 0.314133
O O5 0.349399 0.644628 0.769836
O O6 0.848731 0.964091 0.757252
O O7 0.178603 0.679344 0.064690
O O8 0.078486 0.570195 0.144593
O O9 0.738448 0.252508 0.905638
O O10 0.578843 0.136596 0.079139
O O11 0.819978 0.466946 0.537602
O O12 0.500000 0.000000 0.500000
O O13 0.651986 0.820528 0.451583
O O14 0.000000 0.500000 0.500000
#
# Coordination Sequence:
#
# PCOD9018681 Si02
#       7
#     2   2   2   1   2   2   2
#     4  11  28  48  70 104 146 181 239 291 348 421
#     4  10  23  42  70 102 141 180 233 290 348 408
#     4  11  25  49  72 104 141 188 233 289 354 417
#     4  12  26  46  74 102 138 194 230 288 364 408
#     4  10  21  43  74  97 141 179 230 292 341 413
#     4  12  27  44  75 105 139 187 233 288 355 412
#     4  10  24  41  67 105 135 177 235 287 338 406
#
# _framework density 23.705580000000001
#
# number of rings (size 3 to 8) (size 9 to 14) (size 15 to 20)
#    0.000    1.231    1.538    2.308   12.923    1.231 
#    5.538    1.538    0.000    0.000    0.000    0.000 
#    0.000    0.000    0.000    0.000    0.000    0.000 
#
# Total GULP energy -72491.365442 kJ/mol
# GULP energy per Si atom -5576.258880 kJ/mol
# Density = 2.365163 g / cm^3
# Si number density = 23.705580 Si / 1000 Ang^3
#
#
#
# Elastic Constant Matrix: (Units=GPa)
#
#
# Indices 1 2 3 4 5 6 
#
# 1 112.6100 31.0493 38.6198 11.0002 -9.4159 16.7132
# 2 31.0493 45.5639 -6.0475 6.4675 5.1804 6.2740
# 3 38.6198 -6.0475 154.4113 4.8190 -25.7265 -12.0220
# 4 11.0002 6.4675 4.8190 32.5346 -0.6946 -8.8195
# 5 -9.4159 5.1804 -25.7265 -0.6946 32.9839 7.4703
# 6 16.7132 6.2740 -12.0220 -8.8195 7.4703 34.4955
#
#
#
# Elastic Compliance Matrix: (Units=1/GPa)
#
#
# Indices 1 2 3 4 5 6 
#
# 1 0.015057 -0.009316 -0.003911 -0.005075 0.004706 -0.009280
# 2 -0.009316 0.029655 0.002732 -0.003149 -0.005349 0.000426
# 3 -0.003911 0.002732 0.008542 0.000579 0.004316 0.003588
# 4 -0.005075 -0.003149 0.000579 0.036500 -0.002713 0.013153
# 5 0.004706 -0.005349 0.004316 -0.002713 0.037776 -0.008677
# 6 -0.009280 0.000426 0.003588 0.013153 -0.008677 0.039901
#
#
# Mechanical properties :
#
#
# Convention : Reuss Voigt Hill
#
# Bulk Modulus (GPa) = 30.99566 48.86984 39.93275
# Shear Modulus (GPa) = 25.10359 36.60036 30.85197
#
# Velocity S-wave (km/s) = 3.25772 3.93358 3.61150
# Velocity P-wave (km/s) = 5.22053 6.42580 5.85426
#
# Compressibility (1/GPa) = 0.03226258
#
# Stress axis : x y z
#
# Youngs Moduli (GPa) = 66.41580 33.72140 117.07174
#
# Poissons Ratio (x) = 0.31416 0.45784
# Poissons Ratio (y) = 0.61875 -0.31980
# Poissons Ratio (z) = 0.25974 -0.09212
#
# Static dielectric constant tensor:
#      x y z
#    x 1.816550 0.172250 -0.221020 
#    y 0.172250 1.482390 0.447540 
#    z -0.221020 0.447540 1.492560 
# 
# From -- ./inp_files/437199.got.cif
#   From: 2010.05.17/outbox.cif.g08.bks.cpg/sg2_219_cif.got.tgz:437199.got - 2010.06.03 11:33:40.
