data_PCOD9018788
_publ_section_title
;
Structure prediction by ZEFSAII (Michael W. Deem and Ramdas Pophale) SiO2 
 PCOD9018788
Probable space group: P -1
;
_chemical_formula_sum "Si O2"
_cell_formula_units_Z 14
_cell_length_a 5.052866
_cell_length_b 18.706923
_cell_length_c 9.120475
_cell_angle_alpha 47.201558
_cell_angle_beta 61.294079
_cell_angle_gamma 64.405476
_cell_volume 547.290921
_symmetry_space_group_name_H-M "P -1"
_symmetry_group_IT_number 2
_symmetry_cell_setting 'triclinic'
loop_
_space_group_symop_operation_xyz
x,y,z
-x,-y,-z
loop_
_atom_site_type_symbol
_atom_site_label
_atom_site_fract_x
_atom_site_fract_y
_atom_site_fract_z
Si Si1 0.690822 0.117180 0.268639
Si Si2 0.194486 0.076396 0.985806
Si Si3 0.870847 0.426089 0.901733
Si Si4 0.779496 0.773948 0.992199
Si Si5 0.804537 0.844409 0.430028
Si Si6 0.400139 0.531046 0.647271
Si Si7 0.630580 0.292991 0.397464
O O1 0.462018 0.091012 0.489628
O O2 0.907027 0.186027 0.190466
O O3 0.485120 0.180625 0.111647
O O4 0.946992 0.044987 0.208686
O O5 0.274137 0.175266 0.905830
O O6 0.084315 0.102169 0.815485
O O7 0.500000 0.000000 0.000000
O O8 0.618484 0.460915 0.798461
O O9 0.132483 0.342019 0.882376
O O10 0.727832 0.373736 0.146593
O O11 0.950737 0.486280 0.219977
O O12 0.639146 0.756729 0.530008
O O13 0.087294 0.792916 0.520892
O O14 0.500000 0.500000 0.500000
O O15 0.435521 0.641710 0.528578
#
# Coordination Sequence:
#
# PCOD9018788 Si02
#       7
#     2   2   2   2   2   2   2
#     4  10  21  44  64 101 130 180 220 273 335 397
#     4  10  27  45  71 106 137 175 223 284 349 405
#     4  12  22  45  67  92 139 180 225 278 334 391
#     4  10  22  42  71  93 134 179 217 272 342 395
#     4  12  24  44  73  99 135 184 231 275 335 422
#     4  12  28  39  66 102 137 177 225 287 328 391
#     4  12  25  45  66 101 131 183 236 268 341 399
#
# _framework density 25.580542999999999
#
# number of rings (size 3 to 8) (size 9 to 14) (size 15 to 20)
#    0.857    0.000    2.857    3.857    6.000    1.143 
#    0.000    0.714    0.000    0.000    0.000    0.000 
#    0.000    0.000    0.000    0.000    0.000    0.000 
#
# Total GULP energy -78417.091293 kJ/mol
# GULP energy per Si atom -5601.220807 kJ/mol
# Density = 2.552232 g / cm^3
# Si number density = 25.580543 Si / 1000 Ang^3
#
#
#
# Elastic Constant Matrix: (Units=GPa)
#
#
# Indices 1 2 3 4 5 6 
#
# 1 139.3883 11.6215 35.1082 -7.8081 22.2503 -0.6408
# 2 11.6215 125.1557 29.2721 34.8954 -5.1084 12.2800
# 3 35.1082 29.2721 115.0332 17.3339 -6.3495 5.4192
# 4 -7.8081 34.8954 17.3339 32.6368 12.4902 -1.9301
# 5 22.2503 -5.1084 -6.3495 12.4902 49.5953 0.3539
# 6 -0.6408 12.2800 5.4192 -1.9301 0.3539 37.0044
#
#
#
# Elastic Compliance Matrix: (Units=1/GPa)
#
#
# Indices 1 2 3 4 5 6 
#
# 1 0.011179 -0.004490 -0.005079 0.014075 -0.009696 0.003254
# 2 -0.004490 0.015275 0.001682 -0.022317 0.009471 -0.006648
# 3 -0.005079 0.001682 0.012235 -0.012444 0.007175 -0.003156
# 4 0.014075 -0.022317 -0.012444 0.076619 -0.029601 0.013751
# 5 -0.009696 0.009471 0.007175 -0.029601 0.033906 -0.006230
# 6 0.003254 -0.006648 -0.003156 0.013751 -0.006230 0.030525
#
#
# Mechanical properties :
#
#
# Convention : Reuss Voigt Hill
#
# Bulk Modulus (GPa) = 43.63799 59.06453 51.35126
# Shear Modulus (GPa) = 24.61229 44.08567 34.34898
#
# Velocity S-wave (km/s) = 3.10522 4.15590 3.66837
# Velocity P-wave (km/s) = 5.47290 6.79473 6.16932
#
# Compressibility (1/GPa) = 0.02291581
#
# Stress axis : x y z
#
# Youngs Moduli (GPa) = 89.45422 65.46832 81.73280
#
# Poissons Ratio (x) = 0.29393 0.41510
# Poissons Ratio (y) = 0.40162 -0.13748
# Poissons Ratio (z) = 0.45432 -0.11013
#
# Static dielectric constant tensor:
#      x y z
#    x 1.929300 0.049990 -0.092050 
#    y 0.049990 2.129980 -0.037090 
#    z -0.092050 -0.037090 2.111200 
# 
# From -- ./inp_files/34324.got.cif
#   From: 2010.05.17/outbox.cif.g08.bks.cpg/sg2_18_cif.got.tgz:34324.got - 2010.06.03 11:33:40.
