data_PCOD9018909
_publ_section_title
;
Structure prediction by ZEFSAII (Michael W. Deem and Ramdas Pophale) SiO2 
 PCOD9018909
Probable space group: P -1
;
_chemical_formula_sum "Si O2"
_cell_formula_units_Z 12
_cell_length_a 13.140918
_cell_length_b 22.917512
_cell_length_c 15.637961
_cell_angle_alpha 17.676739
_cell_angle_beta 149.964291
_cell_angle_gamma 159.172042
_cell_volume 494.855515
_symmetry_space_group_name_H-M "P -1"
_symmetry_group_IT_number 2
_symmetry_cell_setting 'triclinic'
loop_
_space_group_symop_operation_xyz
x,y,z
-x,-y,-z
loop_
_atom_site_type_symbol
_atom_site_label
_atom_site_fract_x
_atom_site_fract_y
_atom_site_fract_z
Si Si1 0.277609 0.308286 0.737256
Si Si2 0.934569 0.131170 0.187768
Si Si3 0.149589 0.491259 0.697665
Si Si4 0.825105 0.509759 0.750706
Si Si5 0.220550 0.939943 0.582083
Si Si6 0.472799 0.431318 0.260391
O O1 0.516781 0.358329 0.784062
O O2 0.186979 0.424263 0.447882
O O3 0.429632 0.459184 0.726906
O O4 0.000000 0.000000 0.000000
O O5 0.205375 0.368099 0.115216
O O6 0.050391 0.012877 0.391001
O O7 0.912608 0.270647 0.903604
O O8 0.655175 0.874079 0.396747
O O9 0.282916 0.400112 0.870444
O O10 0.000000 0.500000 0.500000
O O11 0.430366 0.780284 0.544581
O O12 0.088784 0.797413 0.591903
O O13 0.848577 0.300080 0.078937
#
# Coordination Sequence:
#
# PCOD9018909 Si02
#       6
#     2   2   2   2   2   2
#     4  11  25  40  68  95 128 171 213 260 311 379
#     4  10  22  44  69  88 127 168 209 269 314 378
#     4  11  26  40  68  96 127 165 211 271 314 374
#     4  10  24  44  64  92 136 168 205 267 311 376
#     4  10  21  44  66  90 127 175 207 251 331 366
#     4  10  22  42  64  95 121 168 215 255 323 370
#
# _framework density 24.249502
#
# number of rings (size 3 to 8) (size 9 to 14) (size 15 to 20)
#    0.000    1.667    1.667    2.000    9.333    0.667 
#    6.000    5.000    0.000    0.000    0.000    0.000 
#    0.000    0.000    0.000    0.000    0.000    0.000 
#
# Total GULP energy -67044.885058 kJ/mol
# GULP energy per Si atom -5587.073755 kJ/mol
# Density = 2.419431 g / cm^3
# Si number density = 24.249502 Si / 1000 Ang^3
#
#
#
# Elastic Constant Matrix: (Units=GPa)
#
#
# Indices 1 2 3 4 5 6 
#
# 1 73.7477 19.6490 28.2882 0.2318 -16.3921 -17.9725
# 2 19.6490 110.6138 43.6533 9.3822 -11.7493 -19.0698
# 3 28.2882 43.6533 111.2348 15.3198 -37.0623 -19.9573
# 4 0.2318 9.3822 15.3198 35.9673 -3.3581 -11.0802
# 5 -16.3921 -11.7493 -37.0623 -3.3581 50.7898 3.1982
# 6 -17.9725 -19.0698 -19.9573 -11.0802 3.1982 39.3520
#
#
#
# Elastic Compliance Matrix: (Units=1/GPa)
#
#
# Indices 1 2 3 4 5 6 
#
# 1 0.017081 -0.000952 -0.001978 0.003484 0.003637 0.007022
# 2 -0.000952 0.011182 -0.003779 -0.000442 -0.000696 0.002999
# 3 -0.001978 -0.003779 0.015045 -0.003597 0.009030 0.003149
# 4 0.003484 -0.000442 -0.003597 0.032070 -0.000023 0.008585
# 5 0.003637 -0.000696 0.009030 -0.000023 0.027057 0.003698
# 6 0.007022 0.002999 0.003149 0.008585 0.003698 0.033785
#
#
# Mechanical properties :
#
#
# Convention : Reuss Voigt Hill
#
# Bulk Modulus (GPa) = 33.45747 53.19747 43.32747
# Shear Modulus (GPa) = 31.32795 38.82220 35.07507
#
# Velocity S-wave (km/s) = 3.59820 4.00553 3.80731
# Velocity P-wave (km/s) = 5.57583 6.58616 6.10194
#
# Compressibility (1/GPa) = 0.02988869
#
# Stress axis : x y z
#
# Youngs Moduli (GPa) = 58.54476 89.43288 66.46675
#
# Poissons Ratio (x) = 0.08514 0.13150
# Poissons Ratio (y) = 0.05574 0.25118
# Poissons Ratio (z) = 0.11582 0.33797
#
# Static dielectric constant tensor:
#      x y z
#    x 1.987390 -0.000970 0.067510 
#    y -0.000970 2.044960 -0.030980 
#    z 0.067510 -0.030980 1.980640 
# 
# From -- ./inp_files/257289.got.cif
#   From: 2010.05.17/outbox.cif.g08.bks.cpg/sg2_129_cif.got.tgz:257289.got - 2010.06.03 11:33:40.
