data_PCOD9018733
_publ_section_title
;
Structure prediction by ZEFSAII (Michael W. Deem and Ramdas Pophale) SiO2 
 PCOD9018733
Probable space group: P -1
;
_chemical_formula_sum "Si O2"
_cell_formula_units_Z 16
_cell_length_a 5.168357
_cell_length_b 16.835271
_cell_length_c 9.239655
_cell_angle_alpha 76.613940
_cell_angle_beta 88.901736
_cell_angle_gamma 75.171299
_cell_volume 755.372361
_symmetry_space_group_name_H-M "P -1"
_symmetry_group_IT_number 2
_symmetry_cell_setting 'triclinic'
loop_
_space_group_symop_operation_xyz
x,y,z
-x,-y,-z
loop_
_atom_site_type_symbol
_atom_site_label
_atom_site_fract_x
_atom_site_fract_y
_atom_site_fract_z
Si Si1 0.935172 0.043019 0.322991
Si Si2 0.605244 0.617430 0.403562
Si Si3 0.305279 0.399008 0.143032
Si Si4 0.395103 0.209207 0.658428
Si Si5 0.950175 0.324121 0.485264
Si Si6 0.487967 0.980221 0.177668
Si Si7 0.284932 0.497896 0.815100
Si Si8 0.344241 0.768475 0.665010
O O1 0.730134 0.001686 0.255757
O O2 0.127382 0.718026 0.639793
O O3 0.794296 0.142675 0.299280
O O4 0.000000 0.000000 0.500000
O O5 0.548177 0.711102 0.292346
O O6 0.321778 0.617256 0.473114
O O7 0.719744 0.545528 0.320087
O O8 0.819746 0.626422 0.520151
O O9 0.477170 0.455908 0.196874
O O10 0.436556 0.300840 0.218322
O O11 0.993897 0.435748 0.170361
O O12 0.331873 0.423716 0.965127
O O13 0.486220 0.119235 0.764416
O O14 0.525281 0.209950 0.496508
O O15 0.076379 0.241880 0.619110
O O16 0.789711 0.971879 0.763008
O O17 0.500000 0.000000 0.000000
#
# Coordination Sequence:
#
# PCOD9018733 Si02
#       8
#     2   2   2   2   2   2   2   2
#     4  12  26  45  76 101 136 186 234 285 334 421
#     4   9  19  36  65  83 122 166 208 253 330 393
#     4  10  24  38  65  86 128 168 208 286 313 392
#     4   9  22  40  65  90 134 171 214 276 334 389
#     4   9  20  36  60  92 119 164 203 272 316 377
#     4  12  27  46  66 104 145 182 222 290 353 402
#     4  10  21  44  58  91 125 167 218 259 343 385
#     4  11  23  42  67  98 129 166 236 262 340 386
#
# _framework density 21.181607
#
# number of rings (size 3 to 8) (size 9 to 14) (size 15 to 20)
#    0.750    1.000    1.250    2.250    5.250    1.000 
#    2.250    8.750    0.000    0.000    0.000    0.000 
#    0.000    0.000    0.000    0.000    0.000    0.000 
#
# Total GULP energy -89299.835780 kJ/mol
# GULP energy per Si atom -5581.239736 kJ/mol
# Density = 2.113340 g / cm^3
# Si number density = 21.181607 Si / 1000 Ang^3
#
#
#
# Elastic Constant Matrix: (Units=GPa)
#
#
# Indices 1 2 3 4 5 6 
#
# 1 134.6053 26.4831 38.3750 -0.3623 3.6280 -8.1684
# 2 26.4831 126.7591 72.1138 -24.5216 -14.2061 -5.5454
# 3 38.3750 72.1138 120.7876 -26.2185 -9.1627 5.4968
# 4 -0.3623 -24.5216 -26.2185 41.6750 6.2036 2.3226
# 5 3.6280 -14.2061 -9.1627 6.2036 27.8270 -0.6747
# 6 -8.1684 -5.5454 5.4968 2.3226 -0.6747 29.9163
#
#
#
# Elastic Compliance Matrix: (Units=1/GPa)
#
#
# Indices 1 2 3 4 5 6 
#
# 1 0.008663 -0.000475 -0.003205 -0.002106 -0.001885 0.002987
# 2 -0.000475 0.013009 -0.006928 0.002512 0.003945 0.003449
# 3 -0.003205 -0.006928 0.014903 0.005503 0.000432 -0.005315
# 4 -0.002106 0.002512 0.005503 0.029605 -0.003316 -0.003494
# 5 -0.001885 0.003945 0.000432 -0.003316 0.039109 0.001277
# 6 0.002987 0.003449 -0.005315 -0.003494 0.001277 0.036158
#
#
# Mechanical properties :
#
#
# Convention : Reuss Voigt Hill
#
# Bulk Modulus (GPa) = 65.10982 72.89952 69.00467
# Shear Modulus (GPa) = 29.80083 36.22900 33.01491
#
# Velocity S-wave (km/s) = 3.75496 4.14018 3.95227
# Velocity P-wave (km/s) = 7.04310 7.57271 7.31270
#
# Compressibility (1/GPa) = 0.01535867
#
# Stress axis : x y z
#
# Youngs Moduli (GPa) = 115.43870 76.87264 67.10197
#
# Poissons Ratio (x) = 0.03648 0.21506
# Poissons Ratio (y) = 0.05478 0.46489
# Poissons Ratio (z) = 0.36997 0.53258
#
# Static dielectric constant tensor:
#      x y z
#    x 1.804480 0.003320 -0.011930 
#    y 0.003320 1.756340 -0.044660 
#    z -0.011930 -0.044660 1.793140 
# 
# From -- ./inp_files/215147.got.cif
#   From: 2010.05.17/outbox.cif.g08.bks.cpg/sg2_108_cif.got.tgz:215147.got - 2010.06.03 11:33:40.
