data_PCOD9018279
_publ_section_title
;
Structure prediction by ZEFSAII (Michael W. Deem and Ramdas Pophale) SiO2 
 PCOD9018279
Probable space group: P -1
;
_chemical_formula_sum "Si O2"
_cell_formula_units_Z 13
_cell_length_a 6.592872
_cell_length_b 11.244665
_cell_length_c 13.512222
_cell_angle_alpha 37.271008
_cell_angle_beta 67.042310
_cell_angle_gamma 80.589279
_cell_volume 538.853035
_symmetry_space_group_name_H-M "P -1"
_symmetry_group_IT_number 2
_symmetry_cell_setting 'triclinic'
loop_
_space_group_symop_operation_xyz
x,y,z
-x,-y,-z
loop_
_atom_site_type_symbol
_atom_site_label
_atom_site_fract_x
_atom_site_fract_y
_atom_site_fract_z
Si Si1 0.905446 0.764213 0.146544
Si Si2 0.696313 0.159328 0.611013
Si Si3 0.501213 0.338279 0.193144
Si Si4 0.937168 0.733879 0.382990
Si Si5 0.000000 0.000000 0.500000
Si Si6 0.764055 0.136686 0.143643
Si Si7 0.484546 0.504666 0.697495
O O1 0.899627 0.671331 0.317462
O O2 0.659934 0.707732 0.178376
O O3 0.074763 0.715887 0.063148
O O4 0.000000 0.000000 0.000000
O O5 0.883421 0.105606 0.539469
O O6 0.605774 0.333083 0.459048
O O7 0.811929 0.227178 0.648232
O O8 0.480335 0.965432 0.791185
O O9 0.701765 0.233267 0.192395
O O10 0.562364 0.455788 0.206413
O O11 0.258308 0.169610 0.356643
O O12 0.500000 0.500000 0.000000
O O13 0.753419 0.567608 0.589483
O O14 0.876017 0.951301 0.264876
#
# Coordination Sequence:
#
# PCOD9018279 Si02
#       7
#     2   2   2   2   1   2   2
#     4  10  23  43  65  94 137 181 228 286 334 398
#     4  10  22  39  68  99 132 181 221 277 342 409
#     4  11  25  44  70 105 139 178 227 286 348 419
#     4  10  21  43  69  94 134 184 223 279 336 405
#     4  10  22  42  68  98 140 172 220 274 346 406
#     4   9  23  41  64 102 133 176 227 276 346 406
#     4  11  24  42  67 100 133 176 234 277 341 414
#
# _framework density 24.125319000000001
#
# number of rings (size 3 to 8) (size 9 to 14) (size 15 to 20)
#    0.000    1.846    1.538    0.462    4.308    8.615 
#    0.000    3.077    0.000    0.000    0.000    0.000 
#    0.000    0.000    0.000    0.000    0.000    0.000 
#
# Total GULP energy -72477.763722 kJ/mol
# GULP energy per Si atom -5575.212594 kJ/mol
# Density = 2.407041 g / cm^3
# Si number density = 24.125319 Si / 1000 Ang^3
#
#
#
# Elastic Constant Matrix: (Units=GPa)
#
#
# Indices 1 2 3 4 5 6 
#
# 1 67.9206 29.4660 11.7856 5.8460 -1.7277 12.8272
# 2 29.4660 93.9980 23.2744 -5.4548 7.8514 20.1114
# 3 11.7856 23.2744 52.2852 5.2023 -9.8934 5.1651
# 4 5.8460 -5.4548 5.2023 32.4541 -3.4545 -9.0149
# 5 -1.7277 7.8514 -9.8934 -3.4545 24.3024 -2.6419
# 6 12.8272 20.1114 5.1651 -9.0149 -2.6419 56.8311
#
#
#
# Elastic Compliance Matrix: (Units=1/GPa)
#
#
# Indices 1 2 3 4 5 6 
#
# 1 0.018126 -0.005349 -0.000626 -0.004649 0.001797 -0.002795
# 2 -0.005349 0.015790 -0.007350 0.002882 -0.008461 -0.003649
# 3 -0.000626 -0.007350 0.025157 -0.003752 0.012084 0.000423
# 4 -0.004649 0.002882 -0.003752 0.034702 0.002797 0.006005
# 5 0.001797 -0.008461 0.012084 0.002797 0.049788 0.004248
# 6 -0.002795 -0.003649 0.000423 0.006005 0.004248 0.020630
#
#
# Mechanical properties :
#
#
# Convention : Reuss Voigt Hill
#
# Bulk Modulus (GPa) = 30.84280 38.13954 34.49117
# Shear Modulus (GPa) = 24.79543 32.69604 28.74574
#
# Velocity S-wave (km/s) = 3.20937 3.68538 3.45558
# Velocity P-wave (km/s) = 5.15224 5.82689 5.49992
#
# Compressibility (1/GPa) = 0.03242247
#
# Stress axis : x y z
#
# Youngs Moduli (GPa) = 55.16954 63.33211 39.75039
#
# Poissons Ratio (x) = 0.33875 0.02489
# Poissons Ratio (y) = 0.29509 0.29218
# Poissons Ratio (z) = 0.03454 0.46551
#
# Static dielectric constant tensor:
#      x y z
#    x 1.934240 -0.039820 0.038440 
#    y -0.039820 1.944080 -0.026710 
#    z 0.038440 -0.026710 1.992580 
# 
# From -- ./inp_files/71582.got.cif
#   From: 2010.05.17/outbox.cif.g08.bks.cpg/sg2_36_cif.got.tgz:71582.got - 2010.06.03 11:33:40.
