data_PCOD9018042
_publ_section_title
;
Structure prediction by ZEFSAII (Michael W. Deem and Ramdas Pophale) SiO2 
 PCOD9018042
Probable space group: P -1
;
_chemical_formula_sum "Si O2"
_cell_formula_units_Z 16
_cell_length_a 19.304301
_cell_length_b 19.455768
_cell_length_c 6.260991
_cell_angle_alpha 60.173361
_cell_angle_beta 69.160457
_cell_angle_gamma 20.702061
_cell_volume 673.616633
_symmetry_space_group_name_H-M "P -1"
_symmetry_group_IT_number 2
_symmetry_cell_setting 'triclinic'
loop_
_space_group_symop_operation_xyz
x,y,z
-x,-y,-z
loop_
_atom_site_type_symbol
_atom_site_label
_atom_site_fract_x
_atom_site_fract_y
_atom_site_fract_z
Si Si1 0.539176 0.853959 0.092987
Si Si2 0.007881 0.236179 0.369354
Si Si3 0.498313 0.765494 0.558000
Si Si4 0.166594 0.682121 0.206829
Si Si5 0.755073 0.625263 0.792667
Si Si6 0.882183 0.628146 0.158870
Si Si7 0.481595 0.483408 0.298036
Si Si8 0.075837 0.015255 0.369619
O O1 0.514653 0.785214 0.269603
O O2 0.319823 0.110930 0.013827
O O3 0.587634 0.825960 0.838048
O O4 0.748188 0.680829 0.243168
O O5 0.909321 0.317212 0.580650
O O6 0.253470 0.003302 0.498932
O O7 0.977140 0.183564 0.360212
O O8 0.900223 0.415192 0.083164
O O9 0.632599 0.552336 0.779582
O O10 0.610404 0.720523 0.644706
O O11 0.260575 0.660664 0.268060
O O12 0.979907 0.902282 0.933276
O O13 0.923391 0.524086 0.693558
O O14 0.000000 0.500000 0.000000
O O15 0.500000 0.500000 0.500000
O O16 0.679569 0.227553 0.478122
O O17 0.500000 0.500000 0.000000
O O18 0.000000 0.000000 0.500000
#
# Coordination Sequence:
#
# PCOD9018042 Si02
#       8
#     2   2   2   2   2   2   2   2
#     4  10  21  43  68 100 142 186 234 297 362 430
#     4  12  26  43  68 104 144 185 245 300 370 449
#     4  12  25  42  69 103 140 190 244 288 373 445
#     4  12  27  45  73 105 143 193 242 316 377 456
#     4  11  23  42  69 100 142 185 237 301 358 444
#     4   9  20  41  71 101 142 183 235 301 356 430
#     4  12  28  49  77 110 151 197 255 319 391 471
#     4  12  26  47  75 103 145 188 249 309 385 448
#
# _framework density 23.752382999999998
#
# number of rings (size 3 to 8) (size 9 to 14) (size 15 to 20)
#    0.000    0.750    6.250    0.750    1.750    4.500 
#    0.000    5.625    0.000    0.000    0.000    0.000 
#    0.000    0.000    0.000    0.000    0.000    0.000 
#
# Total GULP energy -89102.387166 kJ/mol
# GULP energy per Si atom -5568.899198 kJ/mol
# Density = 2.369832 g / cm^3
# Si number density = 23.752383 Si / 1000 Ang^3
#
#
#
# Elastic Constant Matrix: (Units=GPa)
#
#
# Indices 1 2 3 4 5 6 
#
# 1 89.1540 23.6755 17.5346 13.8026 12.5038 -16.0300
# 2 23.6755 121.3232 33.6100 -5.5512 -3.0306 -17.3277
# 3 17.5346 33.6100 64.1063 3.4462 8.7430 -19.6309
# 4 13.8026 -5.5512 3.4462 18.4063 -3.1547 3.1767
# 5 12.5038 -3.0306 8.7430 -3.1547 49.9429 -6.0144
# 6 -16.0300 -17.3277 -19.6309 3.1767 -6.0144 46.6547
#
#
#
# Elastic Compliance Matrix: (Units=1/GPa)
#
#
# Indices 1 2 3 4 5 6 
#
# 1 0.015741 -0.003234 0.000219 -0.014406 -0.004520 0.004698
# 2 -0.003234 0.010851 -0.005425 0.007124 0.002932 0.000529
# 3 0.000219 -0.005425 0.021501 -0.007706 -0.003774 0.007145
# 4 -0.014406 0.007124 -0.007706 0.071838 0.008806 -0.009302
# 5 -0.004520 0.002932 -0.003774 0.008806 0.022580 0.000259
# 6 0.004698 0.000529 0.007145 -0.009302 0.000259 0.026918
#
#
# Mechanical properties :
#
#
# Convention : Reuss Voigt Hill
#
# Bulk Modulus (GPa) = 32.03762 47.13597 39.58679
# Shear Modulus (GPa) = 25.41768 36.31835 30.86801
#
# Velocity S-wave (km/s) = 3.27480 3.91454 3.60887
# Velocity P-wave (km/s) = 5.27414 6.34975 5.83677
#
# Compressibility (1/GPa) = 0.03121330
#
# Stress axis : x y z
#
# Youngs Moduli (GPa) = 63.52852 92.15535 46.51010
#
# Poissons Ratio (x) = 0.29799 -0.01020
# Poissons Ratio (y) = 0.20542 0.25234
# Poissons Ratio (z) = -0.01393 0.49998
#
# Static dielectric constant tensor:
#      x y z
#    x 2.076160 0.011490 0.091900 
#    y 0.011490 1.947630 0.048860 
#    z 0.091900 0.048860 2.016040 
# 
# From -- ./inp_files/120369.got.cif
#   From: 2010.05.17/outbox.cif.g08.bks.cpg/sg2_61_cif.got.tgz:120369.got - 2010.06.03 11:33:40.
