data_PCOD9018088
_publ_section_title
;
Structure prediction by ZEFSAII (Michael W. Deem and Ramdas Pophale) SiO2 
 PCOD9018088
Probable space group: P -1
;
_chemical_formula_sum "Si O2"
_cell_formula_units_Z 16
_cell_length_a 7.700350
_cell_length_b 17.389337
_cell_length_c 5.066969
_cell_angle_alpha 104.971860
_cell_angle_beta 88.670593
_cell_angle_gamma 70.579547
_cell_volume 613.713896
_symmetry_space_group_name_H-M "P -1"
_symmetry_group_IT_number 2
_symmetry_cell_setting 'triclinic'
loop_
_space_group_symop_operation_xyz
x,y,z
-x,-y,-z
loop_
_atom_site_type_symbol
_atom_site_label
_atom_site_fract_x
_atom_site_fract_y
_atom_site_fract_z
Si Si1 0.606999 0.019276 0.259458
Si Si2 0.027832 0.133115 0.925023
Si Si3 0.511711 0.783506 0.641098
Si Si4 0.986597 0.242973 0.564605
Si Si5 0.345685 0.759670 0.133145
Si Si6 0.261042 0.572851 0.821614
Si Si7 0.125000 0.326037 0.263698
Si Si8 0.320157 0.457241 0.204409
O O1 0.822023 0.959919 0.170257
O O2 0.500000 0.000000 0.500000
O O3 0.583976 0.117265 0.318375
O O4 0.500000 0.000000 0.000000
O O5 0.100394 0.184058 0.744205
O O6 0.822208 0.147060 0.826650
O O7 0.002289 0.181861 0.251523
O O8 0.517164 0.748658 0.313070
O O9 0.701534 0.761922 0.778172
O O10 0.403760 0.743923 0.813769
O O11 0.777641 0.277232 0.709365
O O12 0.048239 0.321521 0.557195
O O13 0.289519 0.525011 0.498423
O O14 0.456443 0.586568 0.879592
O O15 0.068195 0.651161 0.865108
O O16 0.245757 0.506617 0.981515
O O17 0.215142 0.394581 0.241674
#
# Coordination Sequence:
#
# PCOD9018088 Si02
#       8
#     2   2   2   2   2   2   2   2
#     4  12  25  42  64  96 138 180 234 295 343 400
#     4  10  21  43  68  88 135 187 224 286 348 390
#     4  12  26  42  67 105 134 176 239 277 345 421
#     4  10  23  43  68  99 133 179 232 276 350 395
#     4  10  23  46  63  96 141 172 231 296 336 403
#     4  10  24  47  70 103 141 175 221 282 336 406
#     4  12  26  43  75 103 139 185 223 281 345 410
#     4  10  24  46  72 104 135 177 229 274 335 411
#
# _framework density 26.070781
#
# number of rings (size 3 to 8) (size 9 to 14) (size 15 to 20)
#    0.750    0.500    1.250    3.750    1.750    6.000 
#    4.500    0.000    0.000    0.000    0.000    0.000 
#    0.000    0.000    0.000    0.000    0.000    0.000 
#
# Total GULP energy -89240.344147 kJ/mol
# GULP energy per Si atom -5577.521509 kJ/mol
# Density = 2.601144 g / cm^3
# Si number density = 26.070781 Si / 1000 Ang^3
#
#
#
# Elastic Constant Matrix: (Units=GPa)
#
#
# Indices 1 2 3 4 5 6 
#
# 1 88.9969 35.4917 36.4541 -9.2702 10.7032 -30.5815
# 2 35.4917 128.5904 32.2531 -23.3396 -9.4044 -32.7032
# 3 36.4541 32.2531 178.3223 -16.4398 -9.3792 -12.2060
# 4 -9.2702 -23.3396 -16.4398 38.7333 2.7074 -0.9095
# 5 10.7032 -9.4044 -9.3792 2.7074 44.3259 -17.0714
# 6 -30.5815 -32.7032 -12.2060 -0.9095 -17.0714 52.0136
#
#
#
# Elastic Compliance Matrix: (Units=1/GPa)
#
#
# Indices 1 2 3 4 5 6 
#
# 1 0.015758 -0.001793 -0.002351 0.002005 -0.002141 0.006919
# 2 -0.001793 0.012134 -0.000337 0.006533 0.005818 0.008520
# 3 -0.002351 -0.000337 0.006466 0.001854 0.001985 0.000607
# 4 0.002005 0.006533 0.001854 0.031039 0.002073 0.006945
# 5 -0.002141 0.005818 0.001985 0.002073 0.029444 0.012566
# 6 0.006919 0.008520 0.000607 0.006945 0.012566 0.033038
#
#
# Mechanical properties :
#
#
# Convention : Reuss Voigt Hill
#
# Bulk Modulus (GPa) = 39.37457 67.14527 53.25992
# Shear Modulus (GPa) = 34.40973 46.46194 40.43584
#
# Velocity S-wave (km/s) = 3.63693 4.22613 3.94255
# Velocity P-wave (km/s) = 5.72469 7.04446 6.41859
#
# Compressibility (1/GPa) = 0.02539710
#
# Stress axis : x y z
#
# Youngs Moduli (GPa) = 63.45938 82.41338 154.64690
#
# Poissons Ratio (x) = 0.14774 0.36362
# Poissons Ratio (y) = 0.11376 0.05207
# Poissons Ratio (z) = 0.14921 0.02775
#
# Static dielectric constant tensor:
#      x y z
#    x 2.162310 0.018300 -0.036970 
#    y 0.018300 2.161110 0.085140 
#    z -0.036970 0.085140 2.034350 
# 
# From -- ./inp_files/41943.got.cif
#   From: 2010.05.17/outbox.cif.g08.bks.cpg/sg2_21_cif.got.tgz:41943.got - 2010.06.03 11:33:40.
