data_PCOD9018653
_publ_section_title
;
Structure prediction by ZEFSAII (Michael W. Deem and Ramdas Pophale) SiO2 
 PCOD9018653
Probable space group: P -1
;
_chemical_formula_sum "Si O2"
_cell_formula_units_Z 12
_cell_length_a 9.180034
_cell_length_b 12.289962
_cell_length_c 7.127661
_cell_angle_alpha 63.597836
_cell_angle_beta 117.976164
_cell_angle_gamma 72.792740
_cell_volume 489.994987
_symmetry_space_group_name_H-M "P -1"
_symmetry_group_IT_number 2
_symmetry_cell_setting 'triclinic'
loop_
_space_group_symop_operation_xyz
x,y,z
-x,-y,-z
loop_
_atom_site_type_symbol
_atom_site_label
_atom_site_fract_x
_atom_site_fract_y
_atom_site_fract_z
Si Si1 0.977500 0.620039 0.217990
Si Si2 0.888973 0.927666 0.376934
Si Si3 0.324919 0.837968 0.224625
Si Si4 0.262000 0.058142 0.332893
Si Si5 0.294423 0.635537 0.649463
Si Si6 0.748305 0.725708 0.359141
O O1 0.161294 0.594856 0.482517
O O2 0.059286 0.453405 0.319769
O O3 0.905046 0.752041 0.922338
O O4 0.772127 0.697796 0.170350
O O5 0.787683 0.989261 0.472103
O O6 0.128783 0.774521 0.589279
O O7 0.834009 0.074005 0.113820
O O8 0.348006 0.707534 0.462724
O O9 0.547005 0.771925 0.314681
O O10 0.236179 0.983258 0.197800
O O11 0.233281 0.139268 0.708145
O O12 0.500000 0.000000 0.500000
O O13 0.500000 0.500000 0.000000
#
# Coordination Sequence:
#
# PCOD9018653 Si02
#       6
#     2   2   2   2   2   2
#     4  10  24  45  69 103 145 182 235 291 344 414
#     4  11  24  45  72 102 145 182 232 291 350 406
#     4  12  24  46  73 102 143 183 232 296 341 417
#     4  12  24  41  75 109 135 183 237 280 356 415
#     4  11  27  48  68 102 145 188 236 283 352 417
#     4  10  21  43  73  98 140 181 228 294 349 396
#
# _framework density 24.490047000000001
#
# number of rings (size 3 to 8) (size 9 to 14) (size 15 to 20)
#    0.000    1.000    5.000    2.000    2.333    7.333 
#    0.000    0.000    0.000    0.000    0.000    0.000 
#    0.000    0.000    0.000    0.000    0.000    0.000 
#
# Total GULP energy -67070.702330 kJ/mol
# GULP energy per Si atom -5589.225194 kJ/mol
# Density = 2.443431 g / cm^3
# Si number density = 24.490047 Si / 1000 Ang^3
#
#
#
# Elastic Constant Matrix: (Units=GPa)
#
#
# Indices 1 2 3 4 5 6 
#
# 1 150.4181 37.1219 68.2600 -3.7908 -21.3060 -27.8292
# 2 37.1219 65.4043 17.9294 2.0002 -7.5520 -14.7808
# 3 68.2600 17.9294 159.1636 -19.0508 -21.2283 -11.5683
# 4 -3.7908 2.0002 -19.0508 35.0116 -3.9623 -9.8604
# 5 -21.3060 -7.5520 -21.2283 -3.9623 37.4351 -1.6223
# 6 -27.8292 -14.7808 -11.5683 -9.8604 -1.6223 54.6960
#
#
#
# Elastic Compliance Matrix: (Units=1/GPa)
#
#
# Indices 1 2 3 4 5 6 
#
# 1 0.010204 -0.003698 -0.003060 0.001147 0.003615 0.003860
# 2 -0.003698 0.018295 -0.000098 -0.000470 0.001611 0.003004
# 3 -0.003060 -0.000098 0.008860 0.005320 0.003885 0.001365
# 4 0.001147 -0.000470 0.005320 0.034741 0.007602 0.008070
# 5 0.003615 0.001611 0.003885 0.007602 0.032339 0.005426
# 6 0.003860 0.003004 0.001365 0.008070 0.005426 0.022963
#
#
# Mechanical properties :
#
#
# Convention : Reuss Voigt Hill
#
# Bulk Modulus (GPa) = 42.28780 69.06761 55.67771
# Shear Modulus (GPa) = 33.55793 42.20687 37.88240
#
# Velocity S-wave (km/s) = 3.70573 4.15592 3.93727
# Velocity P-wave (km/s) = 5.96781 7.16188 6.59194
#
# Compressibility (1/GPa) = 0.02364748
#
# Stress axis : x y z
#
# Youngs Moduli (GPa) = 97.99652 54.66030 112.86442
#
# Poissons Ratio (x) = 0.20216 0.34533
# Poissons Ratio (y) = 0.36244 0.01104
# Poissons Ratio (z) = 0.29984 0.00535
#
# Static dielectric constant tensor:
#      x y z
#    x 1.985960 0.047200 0.032370 
#    y 0.047200 1.916030 0.019590 
#    z 0.032370 0.019590 2.030890 
# 
# From -- ./inp_files/72802.got.cif
#   From: 2010.05.17/outbox.cif.g08.bks.cpg/sg2_37_cif.got.tgz:72802.got - 2010.06.03 11:33:40.
