data_PCOD9018623
_publ_section_title
;
Structure prediction by ZEFSAII (Michael W. Deem and Ramdas Pophale) SiO2 
 PCOD9018623
Probable space group: P -1
;
_chemical_formula_sum "Si O2"
_cell_formula_units_Z 14
_cell_length_a 8.755956
_cell_length_b 10.545001
_cell_length_c 15.049086
_cell_angle_alpha 65.121437
_cell_angle_beta 152.695665
_cell_angle_gamma 113.950661
_cell_volume 576.515111
_symmetry_space_group_name_H-M "P -1"
_symmetry_group_IT_number 2
_symmetry_cell_setting 'triclinic'
loop_
_space_group_symop_operation_xyz
x,y,z
-x,-y,-z
loop_
_atom_site_type_symbol
_atom_site_label
_atom_site_fract_x
_atom_site_fract_y
_atom_site_fract_z
Si Si1 0.180873 0.441157 0.410452
Si Si2 0.152709 0.436411 0.952365
Si Si3 0.519776 0.425009 0.758619
Si Si4 0.431112 0.165672 0.902548
Si Si5 0.286488 0.124958 0.122306
Si Si6 0.723125 0.087771 0.520127
Si Si7 0.888646 0.151932 0.296977
O O1 0.500000 0.500000 0.500000
O O2 0.227014 0.470899 0.529643
O O3 0.884004 0.498224 0.183202
O O4 0.133270 0.272800 0.430087
O O5 0.835283 0.457838 0.846401
O O6 0.445662 0.496114 0.152468
O O7 0.154973 0.271885 0.985296
O O8 0.506116 0.259030 0.825859
O O9 0.701600 0.223293 0.097375
O O10 0.031620 0.174466 0.703143
O O11 0.500000 0.000000 0.000000
O O12 0.591559 0.097850 0.223579
O O13 0.458662 0.151957 0.299805
O O14 0.000000 0.000000 0.000000
O O15 0.912282 0.976668 0.592868
O O16 0.500000 0.000000 0.500000
#
# Coordination Sequence:
#
# PCOD9018623 Si02
#       7
#     2   2   2   2   2   2   2
#     4  10  22  42  73 106 139 195 242 302 368 432
#     4  10  24  43  69 105 146 186 247 294 364 439
#     4  10  21  43  73 102 143 193 237 302 359 431
#     4  10  22  42  72 101 144 188 236 300 363 429
#     4  12  28  45  70 108 147 194 244 307 372 440
#     4  11  26  43  69 105 141 192 247 296 368 440
#     4  11  24  46  71 100 150 190 242 310 367 432
#
# _framework density 24.283837999999999
#
# number of rings (size 3 to 8) (size 9 to 14) (size 15 to 20)
#    0.000    1.429    1.429    2.143   12.000    0.571 
#    2.571    1.429    0.000    0.000    0.000    0.000 
#    0.000    0.000    0.000    0.000    0.000    0.000 
#
# Total GULP energy -78150.739283 kJ/mol
# GULP energy per Si atom -5582.195663 kJ/mol
# Density = 2.422857 g / cm^3
# Si number density = 24.283838 Si / 1000 Ang^3
#
#
#
# Elastic Constant Matrix: (Units=GPa)
#
#
# Indices 1 2 3 4 5 6 
#
# 1 70.2190 1.3741 24.1497 -0.9268 -14.8758 10.9260
# 2 1.3741 103.8832 33.2746 2.0769 -13.3849 -6.4082
# 3 24.1497 33.2746 136.4998 -0.2307 -43.1121 7.2567
# 4 -0.9268 2.0769 -0.2307 36.0753 17.8102 -1.8844
# 5 -14.8758 -13.3849 -43.1121 17.8102 53.3029 -4.0911
# 6 10.9260 -6.4082 7.2567 -1.8844 -4.0911 28.5648
#
#
#
# Elastic Compliance Matrix: (Units=1/GPa)
#
#
# Indices 1 2 3 4 5 6 
#
# 1 0.016339 0.000455 -0.001615 -0.001624 0.003501 -0.005343
# 2 0.000455 0.010793 -0.002382 -0.001235 0.001553 0.002993
# 3 -0.001615 -0.002382 0.011266 -0.004596 0.009467 -0.001726
# 4 -0.001624 -0.001235 -0.004596 0.035871 -0.016349 0.001537
# 5 0.003501 0.001553 0.009467 -0.016349 0.033270 0.000291
# 6 -0.005343 0.002993 -0.001726 0.001537 0.000291 0.038305
#
#
# Mechanical properties :
#
#
# Convention : Reuss Voigt Hill
#
# Bulk Modulus (GPa) = 31.93405 47.57766 39.75585
# Shear Modulus (GPa) = 30.60612 40.37549 35.49080
#
# Velocity S-wave (km/s) = 3.55399 4.08198 3.82710
# Velocity P-wave (km/s) = 5.47905 6.46928 5.99465
#
# Compressibility (1/GPa) = 0.03131454
#
# Stress axis : x y z
#
# Youngs Moduli (GPa) = 61.20258 92.65587 88.75927
#
# Poissons Ratio (x) = -0.04216 0.14331
# Poissons Ratio (y) = -0.02785 0.21144
# Poissons Ratio (z) = 0.09882 0.22073
#
# Static dielectric constant tensor:
#      x y z
#    x 2.008500 0.099800 0.065960 
#    y 0.099800 2.059600 0.131780 
#    z 0.065960 0.131780 2.164710 
# 
# From -- ./inp_files/499022.got.cif
#   From: 2010.05.17/outbox.cif.g08.bks.cpg/sg2_250_cif.got.tgz:499022.got - 2010.06.03 11:33:40.
