data_PCOD9018406
_publ_section_title
;
Structure prediction by ZEFSAII (Michael W. Deem and Ramdas Pophale) SiO2 
 PCOD9018406
Probable space group: P -1
;
_chemical_formula_sum "Si O2"
_cell_formula_units_Z 16
_cell_length_a 13.296522
_cell_length_b 8.479211
_cell_length_c 14.316473
_cell_angle_alpha 102.240717
_cell_angle_beta 140.431285
_cell_angle_gamma 105.087942
_cell_volume 736.102557
_symmetry_space_group_name_H-M "P -1"
_symmetry_group_IT_number 2
_symmetry_cell_setting 'triclinic'
loop_
_space_group_symop_operation_xyz
x,y,z
-x,-y,-z
loop_
_atom_site_type_symbol
_atom_site_label
_atom_site_fract_x
_atom_site_fract_y
_atom_site_fract_z
Si Si1 0.213465 0.431082 0.326693
Si Si2 0.529683 0.196596 0.999282
Si Si3 0.546035 0.803205 0.750630
Si Si4 0.950282 0.015697 0.360521
Si Si5 0.813050 0.492092 0.393960
Si Si6 0.872660 0.574550 0.942897
Si Si7 0.241845 0.715211 0.019781
Si Si8 0.023823 0.051496 0.835286
O O1 0.428113 0.637994 0.558391
O O2 0.236353 0.443095 0.232533
O O3 0.132240 0.202304 0.277649
O O4 0.009571 0.412642 0.195718
O O5 0.297218 0.110403 0.825095
O O6 0.638224 0.242493 0.983970
O O7 0.679289 0.417769 0.194509
O O8 0.500000 0.000000 0.000000
O O9 0.351982 0.692312 0.671583
O O10 0.653846 0.049105 0.834575
O O11 0.735763 0.835221 0.942761
O O12 0.981812 0.930606 0.278840
O O13 0.000000 0.000000 0.500000
O O14 0.086343 0.272396 0.469536
O O15 0.000000 0.500000 0.500000
O O16 0.727252 0.411650 0.903504
O O17 0.020805 0.817602 0.122417
O O18 0.000000 0.500000 0.000000
#
# Coordination Sequence:
#
# PCOD9018406 Si02
#       8
#     2   2   2   2   2   2   2   2
#     4  10  21  43  70  94 123 172 226 266 329 393
#     4  12  21  41  67  96 134 177 222 264 316 400
#     4  11  21  39  68  97 126 173 222 267 320 394
#     4  12  27  42  62 104 140 175 216 270 338 395
#     4  12  22  38  68  96 131 181 223 259 316 400
#     4  10  24  45  67  93 128 171 216 284 341 376
#     4  10  22  40  65  97 137 167 215 277 325 384
#     4  11  23  45  67  93 133 173 219 271 327 400
#
# _framework density 21.736101000000001
#
# number of rings (size 3 to 8) (size 9 to 14) (size 15 to 20)
#    0.000    1.000    5.000    1.875    1.750    2.500 
#    2.250    0.000    0.000    0.000    0.000    0.000 
#    0.000    0.000    0.000    0.000    0.000    0.000 
#
# Total GULP energy -89421.764344 kJ/mol
# GULP energy per Si atom -5588.860272 kJ/mol
# Density = 2.168663 g / cm^3
# Si number density = 21.736101 Si / 1000 Ang^3
#
#
#
# Elastic Constant Matrix: (Units=GPa)
#
#
# Indices 1 2 3 4 5 6 
#
# 1 71.3441 19.2150 23.3980 -9.2801 -34.5498 11.6112
# 2 19.2150 59.6649 17.5776 -7.3339 -18.5590 20.6298
# 3 23.3980 17.5776 134.8213 5.1590 -26.5374 -2.5710
# 4 -9.2801 -7.3339 5.1590 22.5078 3.6571 -9.4186
# 5 -34.5498 -18.5590 -26.5374 3.6571 46.6605 -1.9665
# 6 11.6112 20.6298 -2.5710 -9.4186 -1.9665 40.2446
#
#
#
# Elastic Compliance Matrix: (Units=1/GPa)
#
#
# Indices 1 2 3 4 5 6 
#
# 1 0.023814 0.000169 -0.001236 0.005419 0.016363 -0.004968
# 2 0.000169 0.024005 -0.001903 0.002196 0.007931 -0.011574
# 3 -0.001236 -0.001903 0.008735 -0.003162 0.003599 0.001326
# 4 0.005419 0.002196 -0.003162 0.052080 -0.000603 0.009268
# 5 0.016363 0.007931 0.003599 -0.000603 0.038509 -0.006816
# 6 -0.004968 -0.011574 0.001326 0.009268 -0.006816 0.034135
#
#
# Mechanical properties :
#
#
# Convention : Reuss Voigt Hill
#
# Bulk Modulus (GPa) = 19.75755 42.91239 31.33497
# Shear Modulus (GPa) = 24.49905 35.59190 30.04548
#
# Velocity S-wave (km/s) = 3.36089 4.05094 3.72194
# Velocity P-wave (km/s) = 4.91633 6.45488 5.73741
#
# Compressibility (1/GPa) = 0.05061356
#
# Stress axis : x y z
#
# Youngs Moduli (GPa) = 41.99156 41.65771 114.48804
#
# Poissons Ratio (x) = -0.00703 0.14153
# Poissons Ratio (y) = -0.00708 0.21783
# Poissons Ratio (z) = 0.05191 0.07926
#
# Static dielectric constant tensor:
#      x y z
#    x 1.830630 0.011990 -0.015530 
#    y 0.011990 1.823350 -0.022010 
#    z -0.015530 -0.022010 1.788070 
# 
# From -- ./inp_files/529926.got.cif
#   From: 2010.05.17/outbox.cif.g08.bks.cpg/sg2_265_cif.got.tgz:529926.got - 2010.06.03 11:33:40.
