data_PCOD9018323
_publ_section_title
;
Structure prediction by ZEFSAII (Michael W. Deem and Ramdas Pophale) SiO2 
 PCOD9018323
Probable space group: P -1
;
_chemical_formula_sum "Si O2"
_cell_formula_units_Z 16
_cell_length_a 11.738598
_cell_length_b 11.946159
_cell_length_c 23.809734
_cell_angle_alpha 20.143431
_cell_angle_beta 40.056033
_cell_angle_gamma 42.108780
_cell_volume 735.852556
_symmetry_space_group_name_H-M "P -1"
_symmetry_group_IT_number 2
_symmetry_cell_setting 'triclinic'
loop_
_space_group_symop_operation_xyz
x,y,z
-x,-y,-z
loop_
_atom_site_type_symbol
_atom_site_label
_atom_site_fract_x
_atom_site_fract_y
_atom_site_fract_z
Si Si1 0.249932 0.752060 0.745490
Si Si2 0.920657 0.145906 0.623115
Si Si3 0.663226 0.648788 0.997690
Si Si4 0.648797 0.702341 0.480625
Si Si5 0.838527 0.187046 0.506371
Si Si6 0.539656 0.100960 0.225695
Si Si7 0.604109 0.780610 0.148033
Si Si8 0.803678 0.890206 0.129219
O O1 0.208929 0.581160 0.900791
O O2 0.320428 0.453531 0.819729
O O3 0.381894 0.003442 0.601802
O O4 0.099596 0.977655 0.662544
O O5 0.838514 0.491028 0.517694
O O6 0.916351 0.213887 0.526739
O O7 0.781844 0.879496 0.810660
O O8 0.556522 0.432143 0.098361
O O9 0.524823 0.893108 0.970764
O O10 0.508041 0.450425 0.663423
O O11 0.627294 0.833576 0.363703
O O12 0.801219 0.532685 0.326223
O O13 0.658470 0.000608 0.662936
O O14 0.000000 0.000000 0.500000
O O15 0.661389 0.100430 0.124320
O O16 0.747164 0.887354 0.087088
O O17 0.000000 0.000000 0.000000
#
# Coordination Sequence:
#
# PCOD9018323 Si02
#       8
#     2   2   2   2   2   2   2   2
#     4  11  23  42  68 100 139 179 238 295 339 414
#     4  11  23  42  67 101 139 185 229 292 348 414
#     4  10  25  42  69  99 138 188 236 279 355 412
#     4  10  21  43  69  98 130 190 236 277 354 416
#     4  12  26  44  70 107 144 183 236 285 353 427
#     4  11  23  46  73  97 146 188 229 290 348 418
#     4  11  23  43  67  99 140 182 230 291 350 412
#     4  12  27  45  71 108 144 180 234 290 354 424
#
# _framework density 21.743486000000001
#
# number of rings (size 3 to 8) (size 9 to 14) (size 15 to 20)
#    0.000    1.000    2.500    4.125    5.250    1.000 
#    0.000    1.250    0.000    0.000    0.000    0.000 
#    0.000    0.000    0.000    0.000    0.000    0.000 
#
# Total GULP energy -89318.192925 kJ/mol
# GULP energy per Si atom -5582.387058 kJ/mol
# Density = 2.169400 g / cm^3
# Si number density = 21.743486 Si / 1000 Ang^3
#
#
#
# Elastic Constant Matrix: (Units=GPa)
#
#
# Indices 1 2 3 4 5 6 
#
# 1 125.9884 37.6453 28.5329 0.9967 2.2121 -2.1908
# 2 37.6453 109.0455 15.7365 -4.0341 -14.4489 13.5153
# 3 28.5329 15.7365 48.7894 -0.4244 0.2146 4.5342
# 4 0.9967 -4.0341 -0.4244 34.1975 -4.8788 -1.9719
# 5 2.2121 -14.4489 0.2146 -4.8788 47.7079 -3.8541
# 6 -2.1908 13.5153 4.5342 -1.9719 -3.8541 31.8663
#
#
#
# Elastic Compliance Matrix: (Units=1/GPa)
#
#
# Indices 1 2 3 4 5 6 
#
# 1 0.010156 -0.003295 -0.005121 -0.000785 -0.001315 0.002617
# 2 -0.003295 0.011581 -0.001399 0.001687 0.003482 -0.004414
# 3 -0.005121 -0.001399 0.024249 0.000017 -0.000558 -0.003276
# 4 -0.000785 0.001687 0.000017 0.030088 0.003749 0.001543
# 5 -0.001315 0.003482 -0.000558 0.003749 0.022582 0.001475
# 6 0.002617 -0.004414 -0.003276 0.001543 0.001475 0.034173
#
#
# Mechanical properties :
#
#
# Convention : Reuss Voigt Hill
#
# Bulk Modulus (GPa) = 37.94075 49.73919 43.83997
# Shear Modulus (GPa) = 31.00894 36.21490 33.61192
#
# Velocity S-wave (km/s) = 3.78050 4.08554 3.93598
# Velocity P-wave (km/s) = 6.04512 6.72166 6.39234
#
# Compressibility (1/GPa) = 0.02635689
#
# Stress axis : x y z
#
# Youngs Moduli (GPa) = 98.46118 86.35099 41.23812
#
# Poissons Ratio (x) = 0.28450 0.21119
# Poissons Ratio (y) = 0.32440 0.05769
# Poissons Ratio (z) = 0.50423 0.12079
#
# Static dielectric constant tensor:
#      x y z
#    x 1.774750 -0.021670 0.010510 
#    y -0.021670 1.858890 -0.040360 
#    z 0.010510 -0.040360 1.791550 
# 
# From -- ./inp_files/297706.got.cif
#   From: 2010.05.17/outbox.cif.g08.bks.cpg/sg2_149_cif.got.tgz:297706.got - 2010.06.03 11:33:40.
