data_PCOD9018738
_publ_section_title
;
Structure prediction by ZEFSAII (Michael W. Deem and Ramdas Pophale) SiO2 
 PCOD9018738
Probable space group: P -1
;
_chemical_formula_sum "Si O2"
_cell_formula_units_Z 16
_cell_length_a 9.261347
_cell_length_b 5.501809
_cell_length_c 17.599974
_cell_angle_alpha 90.999360
_cell_angle_beta 99.771694
_cell_angle_gamma 128.449619
_cell_volume 683.294679
_symmetry_space_group_name_H-M "P -1"
_symmetry_group_IT_number 2
_symmetry_cell_setting 'triclinic'
loop_
_space_group_symop_operation_xyz
x,y,z
-x,-y,-z
loop_
_atom_site_type_symbol
_atom_site_label
_atom_site_fract_x
_atom_site_fract_y
_atom_site_fract_z
Si Si1 0.510151 0.488265 0.091903
Si Si2 0.211645 0.740788 0.697054
Si Si3 0.224844 0.105316 0.191904
Si Si4 0.185182 0.326540 0.587222
Si Si5 0.132157 0.384653 0.424035
Si Si6 0.470876 0.610581 0.344779
Si Si7 0.356437 0.871518 0.915822
Si Si8 0.998732 0.627002 0.830768
O O1 0.325405 0.222422 0.119880
O O2 0.649085 0.406970 0.120008
O O3 0.557706 0.812726 0.121972
O O4 0.500000 0.500000 0.000000
O O5 0.230524 0.481225 0.675080
O O6 0.134782 0.726561 0.771535
O O7 0.034478 0.631902 0.626819
O O8 0.406905 0.071614 0.692263
O O9 0.364838 0.316993 0.275470
O O10 0.082272 0.187171 0.179114
O O11 0.145889 0.749345 0.189696
O O12 0.189493 0.509004 0.515907
O O13 0.363005 0.335716 0.589705
O O14 0.978535 0.988712 0.576218
O O15 0.308432 0.551002 0.383923
O O16 0.143148 0.732977 0.914193
O O17 0.500000 0.000000 0.000000
#
# Coordination Sequence:
#
# PCOD9018738 Si02
#       8
#     2   2   2   2   2   2   2   2
#     4  10  22  44  70  99 137 176 223 278 343 411
#     4  11  24  39  65  95 134 183 231 289 349 402
#     4  12  26  44  70 103 139 181 232 288 342 414
#     4  10  23  38  67  92 135 185 224 298 344 410
#     4  10  21  44  59  97 136 174 239 286 348 413
#     4  11  24  39  65  96 136 181 235 283 351 408
#     4  10  22  44  70  98 137 176 221 280 342 409
#     4  12  26  44  70 102 140 179 234 288 342 412
#
# _framework density 23.415959000000001
#
# number of rings (size 3 to 8) (size 9 to 14) (size 15 to 20)
#    0.000    1.250    1.250    3.750    5.250    1.500 
#    0.000   15.000    0.000    0.000    0.000    0.000 
#    0.000    0.000    0.000    0.000    0.000    0.000 
#
# Total GULP energy -89234.653535 kJ/mol
# GULP energy per Si atom -5577.165846 kJ/mol
# Density = 2.336266 g / cm^3
# Si number density = 23.415959 Si / 1000 Ang^3
#
#
#
# Elastic Constant Matrix: (Units=GPa)
#
#
# Indices 1 2 3 4 5 6 
#
# 1 102.4765 21.1368 20.5050 -10.7710 4.0903 10.0944
# 2 21.1368 96.1719 8.4587 -14.1473 -3.4855 11.1625
# 3 20.5050 8.4587 86.9609 -9.0461 -7.1008 19.6925
# 4 -10.7710 -14.1473 -9.0461 26.7140 15.2895 -2.3471
# 5 4.0903 -3.4855 -7.1008 15.2895 32.5107 -7.7765
# 6 10.0944 11.1625 19.6925 -2.3471 -7.7765 44.5895
#
#
#
# Elastic Compliance Matrix: (Units=1/GPa)
#
#
# Indices 1 2 3 4 5 6 
#
# 1 0.011493 -0.001415 -0.001917 0.006142 -0.005387 -0.002017
# 2 -0.001415 0.011959 0.000356 0.007040 -0.002464 -0.002890
# 3 -0.001917 0.000356 0.013510 0.003292 0.000395 -0.005379
# 4 0.006142 0.007040 0.003292 0.061126 -0.029614 -0.006554
# 5 -0.005387 -0.002464 0.000395 -0.029614 0.047179 0.008331
# 6 -0.002017 -0.002890 -0.005379 -0.006554 0.008331 0.027091
#
#
# Mechanical properties :
#
#
# Convention : Reuss Voigt Hill
#
# Bulk Modulus (GPa) = 32.24683 42.86783 37.55733
# Shear Modulus (GPa) = 26.50472 36.46343 31.48407
#
# Velocity S-wave (km/s) = 3.36803 3.95042 3.67080
# Velocity P-wave (km/s) = 5.37830 6.25737 5.83441
#
# Compressibility (1/GPa) = 0.03101080
#
# Stress axis : x y z
#
# Youngs Moduli (GPa) = 87.00974 83.61576 74.02164
#
# Poissons Ratio (x) = 0.11832 0.14186
# Poissons Ratio (y) = 0.12312 -0.02634
# Poissons Ratio (z) = 0.16676 -0.02976
#
# Static dielectric constant tensor:
#      x y z
#    x 1.890960 -0.046950 0.119280 
#    y -0.046950 1.919920 0.063500 
#    z 0.119280 0.063500 1.931940 
# 
# From -- ./inp_files/11070.got.cif
#   From: 2010.05.17/outbox.cif.g08.bks.cpg/sg2_6_cif.got.tgz:11070.got - 2010.06.03 11:33:40.
