data_PCOD9018289
_publ_section_title
;
Structure prediction by ZEFSAII (Michael W. Deem and Ramdas Pophale) SiO2 
 PCOD9018289
Probable space group: P -1
;
_chemical_formula_sum "Si O2"
_cell_formula_units_Z 15
_cell_length_a 17.769324
_cell_length_b 9.129877
_cell_length_c 26.538809
_cell_angle_alpha 150.602120
_cell_angle_beta 19.358801
_cell_angle_gamma 147.336729
_cell_volume 695.311167
_symmetry_space_group_name_H-M "P -1"
_symmetry_group_IT_number 2
_symmetry_cell_setting 'triclinic'
loop_
_space_group_symop_operation_xyz
x,y,z
-x,-y,-z
loop_
_atom_site_type_symbol
_atom_site_label
_atom_site_fract_x
_atom_site_fract_y
_atom_site_fract_z
Si Si1 0.446613 0.621281 0.514278
Si Si2 0.436063 0.334621 0.733714
Si Si3 0.931615 0.346059 0.746529
Si Si4 0.792468 0.204409 0.688332
Si Si5 0.637967 0.186217 0.195113
Si Si6 0.000000 0.500000 0.000000
Si Si7 0.938968 0.640152 0.527720
Si Si8 0.781965 0.757855 0.052035
O O1 0.500000 0.500000 0.500000
O O2 0.614077 0.504673 0.332240
O O3 0.196910 0.469321 0.610431
O O4 0.447562 0.977137 0.618139
O O5 0.696312 0.489409 0.614262
O O6 0.328139 0.393784 0.874049
O O7 0.263832 0.447966 0.835680
O O8 0.801678 0.394757 0.790851
O O9 0.916899 0.989758 0.656584
O O10 0.843642 0.514751 0.900192
O O11 0.863873 0.385301 0.646377
O O12 0.563586 0.975218 0.760115
O O13 0.000000 0.000000 0.500000
O O14 0.886575 0.217650 0.022255
O O15 0.618205 0.961750 0.188310
O O16 0.000000 0.500000 0.500000
O O17 0.000000 0.000000 0.000000
#
# Coordination Sequence:
#
# PCOD9018289 Si02
#       8
#     2   2   2   2   2   1   2   2
#     4  12  22  42  77 104 124 193 245 283 340 412
#     4  12  26  44  70 105 147 178 233 292 350 416
#     4  11  23  43  70  95 136 186 230 276 351 426
#     4  10  21  43  69  95 133 180 229 279 337 412
#     4  12  23  44  73  99 140 183 232 290 344 417
#     4  12  26  42  60 106 152 178 210 298 360 404
#     4  11  23  45  71 107 135 175 240 301 336 401
#     4  12  23  46  68  98 138 183 230 283 351 422
#
# _framework density 21.573074999999999
#
# number of rings (size 3 to 8) (size 9 to 14) (size 15 to 20)
#    0.000    0.533    6.667    3.200    0.000    1.600 
#    2.400    1.333    0.000    0.000    0.000    0.000 
#    0.000    0.000    0.000    0.000    0.000    0.000 
#
# Total GULP energy -83592.145583 kJ/mol
# GULP energy per Si atom -5572.809706 kJ/mol
# Density = 2.152397 g / cm^3
# Si number density = 21.573075 Si / 1000 Ang^3
#
#
#
# Elastic Constant Matrix: (Units=GPa)
#
#
# Indices 1 2 3 4 5 6 
#
# 1 126.2653 46.6103 26.9962 1.1282 6.1660 6.7652
# 2 46.6103 127.8857 35.0306 -11.7781 0.3180 21.3878
# 3 26.9962 35.0306 47.7732 -5.2170 5.8350 17.2667
# 4 1.1282 -11.7781 -5.2170 53.0262 2.7177 -5.4943
# 5 6.1660 0.3180 5.8350 2.7177 41.0567 -6.8186
# 6 6.7652 21.3878 17.2667 -5.4943 -6.8186 43.9995
#
#
#
# Elastic Compliance Matrix: (Units=1/GPa)
#
#
# Indices 1 2 3 4 5 6 
#
# 1 0.009763 -0.002768 -0.003949 -0.001058 -0.000620 0.001166
# 2 -0.002768 0.010871 -0.005418 0.001658 0.000587 -0.002434
# 3 -0.003949 -0.005418 0.031503 0.001247 -0.005557 -0.009827
# 4 -0.001058 0.001658 0.001247 0.019548 -0.001137 0.001132
# 5 -0.000620 0.000587 -0.005557 -0.001137 0.026294 0.005923
# 6 0.001166 -0.002434 -0.009827 0.001132 0.005923 0.028648
#
#
# Mechanical properties :
#
#
# Convention : Reuss Voigt Hill
#
# Bulk Modulus (GPa) = 35.88303 57.68870 46.78587
# Shear Modulus (GPa) = 31.21410 40.50230 35.85820
#
# Velocity S-wave (km/s) = 3.80794 4.33765 4.08140
# Velocity P-wave (km/s) = 6.00027 7.20320 6.62908
#
# Compressibility (1/GPa) = 0.02786833
#
# Stress axis : x y z
#
# Youngs Moduli (GPa) = 102.42764 91.99101 31.74271
#
# Poissons Ratio (x) = 0.25459 0.12534
# Poissons Ratio (y) = 0.28347 0.17198
# Poissons Ratio (z) = 0.40446 0.49841
#
# Static dielectric constant tensor:
#      x y z
#    x 1.818340 -0.150400 -0.102510 
#    y -0.150400 1.633260 -0.181500 
#    z -0.102510 -0.181500 1.645400 
# 
# From -- ./inp_files/331597.got.cif
#   From: 2010.05.17/outbox.cif.g08.bks.cpg/sg2_166_cif.got.tgz:331597.got - 2010.06.03 11:33:40.
