data_PCOD9018587
_publ_section_title
;
Structure prediction by ZEFSAII (Michael W. Deem and Ramdas Pophale) SiO2 
 PCOD9018587
Probable space group: P -1
;
_chemical_formula_sum "Si O2"
_cell_formula_units_Z 14
_cell_length_a 10.525412
_cell_length_b 8.268000
_cell_length_c 21.636150
_cell_angle_alpha 34.904821
_cell_angle_beta 30.662736
_cell_angle_gamma 40.997972
_cell_volume 541.563197
_symmetry_space_group_name_H-M "P -1"
_symmetry_group_IT_number 2
_symmetry_cell_setting 'triclinic'
loop_
_space_group_symop_operation_xyz
x,y,z
-x,-y,-z
loop_
_atom_site_type_symbol
_atom_site_label
_atom_site_fract_x
_atom_site_fract_y
_atom_site_fract_z
Si Si1 0.132447 0.843032 0.202378
Si Si2 0.589897 0.849136 0.912862
Si Si3 0.906130 0.331767 0.424362
Si Si4 0.819993 0.245012 0.035807
Si Si5 0.409154 0.849477 0.718326
Si Si6 0.352317 0.649791 0.590113
Si Si7 0.315370 0.390126 0.816919
O O1 0.082171 0.517212 0.328956
O O2 0.203696 0.003006 0.183337
O O3 0.353259 0.855625 0.056545
O O4 0.864532 0.999933 0.239590
O O5 0.697256 0.516802 0.961649
O O6 0.479191 0.074178 0.835811
O O7 0.614940 0.437425 0.532580
O O8 0.878899 0.406365 0.338949
O O9 0.000000 0.000000 0.500000
O O10 0.025534 0.361568 0.957566
O O11 0.619055 0.145521 0.197506
O O12 0.000000 0.000000 0.000000
O O13 0.435350 0.530104 0.780572
O O14 0.599192 0.036466 0.549387
O O15 0.313725 0.595777 0.694534
#
# Coordination Sequence:
#
# PCOD9018587 Si02
#       7
#     2   2   2   2   2   2   2
#     4  10  21  43  72 104 137 190 241 290 359 424
#     4  11  24  43  72 105 140 186 240 296 362 422
#     4  10  24  44  70 102 145 193 237 293 354 425
#     4  12  28  44  74 104 143 186 243 303 361 422
#     4  11  22  49  72 102 145 189 237 298 359 426
#     4  10  26  44  69 105 145 191 237 288 365 421
#     4  12  25  45  72 107 142 189 237 298 356 437
#
# _framework density 25.851092999999999
#
# number of rings (size 3 to 8) (size 9 to 14) (size 15 to 20)
#    0.000    1.143    2.857    2.571   10.000    1.714 
#    0.000    1.429    0.000    0.000    0.000    0.000 
#    0.000    0.000    0.000    0.000    0.000    0.000 
#
# Total GULP energy -78421.206304 kJ/mol
# GULP energy per Si atom -5601.514736 kJ/mol
# Density = 2.579225 g / cm^3
# Si number density = 25.851093 Si / 1000 Ang^3
#
#
#
# Elastic Constant Matrix: (Units=GPa)
#
#
# Indices 1 2 3 4 5 6 
#
# 1 107.3852 23.7180 37.1594 -4.8407 -3.4981 -4.6597
# 2 23.7180 133.8105 30.2129 -37.0535 15.1610 -16.2182
# 3 37.1594 30.2129 123.5611 -23.0687 12.3736 0.2190
# 4 -4.8407 -37.0535 -23.0687 43.3118 4.1303 2.1841
# 5 -3.4981 15.1610 12.3736 4.1303 47.9479 2.0330
# 6 -4.6597 -16.2182 0.2190 2.1841 2.0330 36.2683
#
#
#
# Elastic Compliance Matrix: (Units=1/GPa)
#
#
# Indices 1 2 3 4 5 6 
#
# 1 0.011003 -0.002155 -0.003566 -0.002788 0.002624 0.000493
# 2 -0.002155 0.011756 0.000158 0.010142 -0.004986 0.004648
# 3 -0.003566 0.000158 0.010546 0.005717 -0.003499 -0.000599
# 4 -0.002788 0.010142 0.005717 0.035138 -0.008017 0.002476
# 5 0.002624 -0.004986 -0.003499 -0.008017 0.024334 -0.002753
# 6 0.000493 0.004648 -0.000599 0.002476 -0.002753 0.029723
#
#
# Mechanical properties :
#
#
# Convention : Reuss Voigt Hill
#
# Bulk Modulus (GPa) = 45.08762 60.77084 52.92923
# Shear Modulus (GPa) = 35.45592 43.75004 39.60298
#
# Velocity S-wave (km/s) = 3.70745 4.11833 3.91828
# Velocity P-wave (km/s) = 5.98382 6.79509 6.40232
#
# Compressibility (1/GPa) = 0.02217904
#
# Stress axis : x y z
#
# Youngs Moduli (GPa) = 90.88036 85.06173 94.82304
#
# Poissons Ratio (x) = 0.18329 0.33818
# Poissons Ratio (y) = 0.19583 -0.01498
# Poissons Ratio (z) = 0.32412 -0.01344
#
# Static dielectric constant tensor:
#      x y z
#    x 2.064570 0.029200 -0.026560 
#    y 0.029200 2.075290 -0.061520 
#    z -0.026560 -0.061520 2.023420 
# 
# From -- ./inp_files/382184.got.cif
#   From: 2010.05.17/outbox.cif.g08.bks.cpg/sg2_192_cif.got.tgz:382184.got - 2010.06.03 11:33:40.
