data_PCOD9018408
_publ_section_title
;
Structure prediction by ZEFSAII (Michael W. Deem and Ramdas Pophale) SiO2 
 PCOD9018408
Probable space group: P -1
;
_chemical_formula_sum "Si O2"
_cell_formula_units_Z 15
_cell_length_a 18.059307
_cell_length_b 8.985936
_cell_length_c 8.541803
_cell_angle_alpha 99.412110
_cell_angle_beta 62.255726
_cell_angle_gamma 142.640309
_cell_volume 687.221101
_symmetry_space_group_name_H-M "P -1"
_symmetry_group_IT_number 2
_symmetry_cell_setting 'triclinic'
loop_
_space_group_symop_operation_xyz
x,y,z
-x,-y,-z
loop_
_atom_site_type_symbol
_atom_site_label
_atom_site_fract_x
_atom_site_fract_y
_atom_site_fract_z
Si Si1 0.224618 0.932598 0.303082
Si Si2 0.274581 0.034223 0.908552
Si Si3 0.489913 0.808624 0.485093
Si Si4 0.499613 0.594175 0.680229
Si Si5 0.917927 0.589543 0.638879
Si Si6 0.161044 0.275247 0.711376
Si Si7 0.000000 0.000000 0.500000
Si Si8 0.014784 0.770757 0.923028
O O1 0.176442 0.694738 0.369542
O O2 0.080390 0.824049 0.438651
O O3 0.352914 0.194429 0.326473
O O4 0.263705 0.978744 0.091046
O O5 0.378305 0.071428 0.720661
O O6 0.362173 0.323498 0.861743
O O7 0.119576 0.821089 0.933689
O O8 0.490593 0.750194 0.652961
O O9 0.329188 0.519608 0.535330
O O10 0.500000 0.000000 0.500000
O O11 0.500000 0.500000 0.500000
O O12 0.952558 0.617337 0.793806
O O13 0.872355 0.687846 0.649575
O O14 0.056837 0.120123 0.638629
O O15 0.118796 0.065764 0.819001
O O16 0.119309 0.359675 0.868363
#
# Coordination Sequence:
#
# PCOD9018408 Si02
#       8
#     2   2   2   2   2   2   1   2
#     4  11  24  41  64 101 128 166 224 279 318 379
#     4  11  23  43  69  97 127 179 221 266 324 400
#     4  11  25  42  67  96 134 171 213 272 331 390
#     4  10  22  44  68  89 129 176 216 261 329 396
#     4  10  23  41  65  94 136 170 217 274 325 383
#     4  10  22  41  68  98 128 170 221 267 324 389
#     4  10  22  40  66  92 130 176 208 264 330 384
#     4  10  21  43  70  94 127 174 223 263 322 396
#
# _framework density 21.827037000000001
#
# number of rings (size 3 to 8) (size 9 to 14) (size 15 to 20)
#    0.000    1.600    1.333    2.800    9.333    0.533 
#    2.400    0.667    0.000    0.000    0.000    0.000 
#    0.000    0.000    0.000    0.000    0.000    0.000 
#
# Total GULP energy -83541.999558 kJ/mol
# GULP energy per Si atom -5569.466637 kJ/mol
# Density = 2.177736 g / cm^3
# Si number density = 21.827037 Si / 1000 Ang^3
#
#
#
# Elastic Constant Matrix: (Units=GPa)
#
#
# Indices 1 2 3 4 5 6 
#
# 1 66.0420 19.3721 23.8427 2.8587 5.5154 4.3093
# 2 19.3721 74.2282 15.7832 -3.6015 0.7145 8.2231
# 3 23.8427 15.7832 59.4404 2.8898 8.1291 0.1149
# 4 2.8587 -3.6015 2.8898 20.7330 -6.3331 4.5615
# 5 5.5154 0.7145 8.1291 -6.3331 30.7348 -0.7927
# 6 4.3093 8.2231 0.1149 4.5615 -0.7927 25.5761
#
#
#
# Elastic Compliance Matrix: (Units=1/GPa)
#
#
# Indices 1 2 3 4 5 6 
#
# 1 0.018813 -0.003530 -0.006166 -0.002686 -0.002258 -0.001598
# 2 -0.003530 0.015967 -0.003382 0.005594 0.002169 -0.005454
# 3 -0.006166 -0.003382 0.021162 -0.004927 -0.005356 0.002744
# 4 -0.002686 0.005594 -0.004927 0.056673 0.013048 -0.011027
# 5 -0.002258 0.002169 -0.005356 0.013048 0.036959 -0.001475
# 6 -0.001598 -0.005454 0.002744 -0.011027 -0.001475 0.043031
#
#
# Mechanical properties :
#
#
# Convention : Reuss Voigt Hill
#
# Bulk Modulus (GPa) = 33.57403 35.30076 34.43739
# Shear Modulus (GPa) = 21.86381 24.78961 23.32671
#
# Velocity S-wave (km/s) = 3.16837 3.37371 3.27266
# Velocity P-wave (km/s) = 5.36657 5.60214 5.48562
#
# Compressibility (1/GPa) = 0.02978493
#
# Stress axis : x y z
#
# Youngs Moduli (GPa) = 53.15573 62.62866 47.25513
#
# Poissons Ratio (x) = 0.22109 0.29139
# Poissons Ratio (y) = 0.18765 0.15981
# Poissons Ratio (z) = 0.32778 0.21180
#
# Static dielectric constant tensor:
#      x y z
#    x 1.927110 -0.101730 -0.010800 
#    y -0.101730 1.819450 -0.029110 
#    z -0.010800 -0.029110 1.799350 
# 
# From -- ./inp_files/167876.got.cif
#   From: 2010.05.17/outbox.cif.g08.bks.cpg/sg2_84_cif.got.tgz:167876.got - 2010.06.03 11:33:40.
