data_PCOD9018855
_publ_section_title
;
Structure prediction by ZEFSAII (Michael W. Deem and Ramdas Pophale) SiO2 
 PCOD9018855
Probable space group: P -1
;
_chemical_formula_sum "Si O2"
_cell_formula_units_Z 16
_cell_length_a 12.540613
_cell_length_b 7.140208
_cell_length_c 7.912614
_cell_angle_alpha 96.056762
_cell_angle_beta 74.831757
_cell_angle_gamma 75.816012
_cell_volume 652.000607
_symmetry_space_group_name_H-M "P -1"
_symmetry_group_IT_number 2
_symmetry_cell_setting 'triclinic'
loop_
_space_group_symop_operation_xyz
x,y,z
-x,-y,-z
loop_
_atom_site_type_symbol
_atom_site_label
_atom_site_fract_x
_atom_site_fract_y
_atom_site_fract_z
Si Si1 0.277715 0.458598 0.815171
Si Si2 0.337609 0.622707 0.159210
Si Si3 0.266266 0.877929 0.689193
Si Si4 0.483375 0.670494 0.385513
Si Si5 0.167242 0.433388 0.304982
Si Si6 0.017902 0.936887 0.681886
Si Si7 0.772485 0.983270 0.919763
Si Si8 0.929865 0.527611 0.299555
O O1 0.269059 0.659575 0.733905
O O2 0.391465 0.296824 0.685203
O O3 0.155648 0.421093 0.818148
O O4 0.306276 0.512661 0.997903
O O5 0.454421 0.578309 0.211600
O O6 0.247666 0.572115 0.320967
O O7 0.309281 0.847779 0.142252
O O8 0.372652 0.842342 0.511296
O O9 0.137043 0.979253 0.687350
O O10 0.275079 0.989265 0.869115
O O11 0.500000 0.500000 0.500000
O O12 0.222105 0.229715 0.169722
O O13 0.131455 0.371585 0.496480
O O14 0.056782 0.555079 0.252697
O O15 0.041697 0.704026 0.686496
O O16 0.899664 0.018716 0.846863
O O17 0.000000 0.000000 0.500000
#
# Coordination Sequence:
#
# PCOD9018855 Si02
#       8
#     2   2   2   2   2   2   2   2
#     4   9  19  35  59  84 111 150 195 239 282 336
#     4  11  21  37  61  89 113 146 194 234 287 347
#     4   9  18  32  51  79 113 148 192 234 278 337
#     4  10  19  35  62  85 110 154 195 235 285 334
#     4  10  20  36  58  85 120 150 182 233 288 342
#     4  10  17  30  54  82 112 149 188 231 285 340
#     4  10  21  35  55  85 118 150 185 234 286 338
#     4   9  19  36  55  83 118 152 189 231 285 344
#
# _framework density 24.539853999999998
#
# number of rings (size 3 to 8) (size 9 to 14) (size 15 to 20)
#    0.000    2.250    0.000    4.500    0.000    1.500 
#    0.000    5.000    0.000   22.500    0.000    0.000 
#    0.000    0.000    0.000    0.000    0.000    0.000 
#
# Total GULP energy -89355.822241 kJ/mol
# GULP energy per Si atom -5584.738890 kJ/mol
# Density = 2.448400 g / cm^3
# Si number density = 24.539854 Si / 1000 Ang^3
#
#
#
# Elastic Constant Matrix: (Units=GPa)
#
#
# Indices 1 2 3 4 5 6 
#
# 1 97.7092 32.7974 18.3942 -11.7853 14.1921 -19.6099
# 2 32.7974 57.6106 18.4830 -15.3582 9.8744 3.0276
# 3 18.3942 18.4830 102.9415 2.3149 18.8367 -13.2725
# 4 -11.7853 -15.3582 2.3149 23.2503 1.0605 4.7205
# 5 14.1921 9.8744 18.8367 1.0605 36.5422 -8.8749
# 6 -19.6099 3.0276 -13.2725 4.7205 -8.8749 25.5652
#
#
#
# Elastic Compliance Matrix: (Units=1/GPa)
#
#
# Indices 1 2 3 4 5 6 
#
# 1 0.016483 -0.010946 0.001023 -0.001949 -0.000342 0.014713
# 2 -0.010946 0.034103 -0.006127 0.022524 -0.007931 -0.022528
# 3 0.001023 -0.006127 0.012354 -0.006257 -0.002974 0.008047
# 4 -0.001949 0.022524 -0.006257 0.062450 -0.009301 -0.022171
# 5 -0.000342 -0.007931 -0.002974 -0.009301 0.034565 0.012850
# 6 0.014713 -0.022528 0.008047 -0.022171 0.012850 0.065801
#
#
# Mechanical properties :
#
#
# Convention : Reuss Voigt Hill
#
# Bulk Modulus (GPa) = 32.42528 44.17894 38.30211
# Shear Modulus (GPa) = 18.64714 29.64398 24.14556
#
# Velocity S-wave (km/s) = 2.75957 3.47939 3.14017
# Velocity P-wave (km/s) = 4.83690 5.84667 5.36559
#
# Compressibility (1/GPa) = 0.03084013
#
# Stress axis : x y z
#
# Youngs Moduli (GPa) = 60.66691 29.32265 80.94580
#
# Poissons Ratio (x) = 0.32098 -0.08283
# Poissons Ratio (y) = 0.66409 0.49597
# Poissons Ratio (z) = -0.06208 0.17967
#
# Static dielectric constant tensor:
#      x y z
#    x 1.974420 -0.031460 -0.052090 
#    y -0.031460 1.933350 0.035400 
#    z -0.052090 0.035400 2.032800 
# 
# From -- ./inp_files/244517.got.cif
#   From: 2010.05.17/outbox.cif.g08.bks.cpg/sg2_123_cif.got.tgz:244517.got - 2010.06.03 11:33:40.
