data_PCOD9018242
_publ_section_title
;
Structure prediction by ZEFSAII (Michael W. Deem and Ramdas Pophale) SiO2 
 PCOD9018242
Probable space group: P -1
;
_chemical_formula_sum "Si O2"
_cell_formula_units_Z 16
_cell_length_a 9.730013
_cell_length_b 11.548064
_cell_length_c 6.398172
_cell_angle_alpha 59.047461
_cell_angle_beta 86.878302
_cell_angle_gamma 89.005725
_cell_volume 615.575767
_symmetry_space_group_name_H-M "P -1"
_symmetry_group_IT_number 2
_symmetry_cell_setting 'triclinic'
loop_
_space_group_symop_operation_xyz
x,y,z
-x,-y,-z
loop_
_atom_site_type_symbol
_atom_site_label
_atom_site_fract_x
_atom_site_fract_y
_atom_site_fract_z
Si Si1 0.221672 0.002627 0.415721
Si Si2 0.252832 0.569737 0.716126
Si Si3 0.039794 0.159200 0.583860
Si Si4 0.877336 0.534885 0.782182
Si Si5 0.874990 0.277824 0.799437
Si Si6 0.584877 0.870659 0.033834
Si Si7 0.371197 0.774880 0.808653
Si Si8 0.373069 0.400481 0.542277
O O1 0.171565 0.085484 0.545881
O O2 0.273520 0.084362 0.132496
O O3 0.348340 0.908484 0.552228
O O4 0.091273 0.908490 0.455870
O O5 0.210686 0.675386 0.441572
O O6 0.369107 0.646977 0.772424
O O7 0.283601 0.431002 0.727209
O O8 0.139098 0.528422 0.930858
O O9 0.063789 0.315741 0.379933
O O10 0.987893 0.170455 0.818261
O O11 0.941827 0.416110 0.749190
O O12 0.720163 0.550387 0.686858
O O13 0.765194 0.232346 0.024383
O O14 0.498250 0.792989 0.933097
O O15 0.599244 0.757727 0.316548
O O16 0.500000 0.000000 0.000000
O O17 0.500000 0.500000 0.500000
#
# Coordination Sequence:
#
# PCOD9018242 Si02
#       8
#     2   2   2   2   2   2   2   2
#     4  11  26  45  67 102 137 195 232 283 358 410
#     4  10  21  43  71  98 144 172 238 289 345 421
#     4  11  23  45  67  98 148 177 239 288 338 435
#     4  10  23  41  69 102 135 184 226 287 361 409
#     4  10  21  43  69 107 135 181 233 288 353 408
#     4  12  27  46  73 104 145 182 240 295 343 430
#     4  11  24  45  73 101 136 192 233 290 358 410
#     4  11  25  44  70 107 139 179 237 292 352 414
#
# _framework density 25.991923
#
# number of rings (size 3 to 8) (size 9 to 14) (size 15 to 20)
#    0.000    1.250    1.250    4.500    3.500    4.000 
#    9.000    0.000    0.000    0.000    0.000    0.000 
#    0.000    0.000    0.000    0.000    0.000    0.000 
#
# Total GULP energy -89543.509263 kJ/mol
# GULP energy per Si atom -5596.469329 kJ/mol
# Density = 2.593276 g / cm^3
# Si number density = 25.991923 Si / 1000 Ang^3
#
#
#
# Elastic Constant Matrix: (Units=GPa)
#
#
# Indices 1 2 3 4 5 6 
#
# 1 78.4938 22.6726 15.4505 -6.9476 -1.6478 15.9904
# 2 22.6726 140.0113 18.4442 -3.9758 5.8972 -4.5485
# 3 15.4505 18.4442 82.8130 -0.9278 -7.1178 4.6229
# 4 -6.9476 -3.9758 -0.9278 33.7840 -2.4054 -1.4106
# 5 -1.6478 5.8972 -7.1178 -2.4054 39.7737 -2.8015
# 6 15.9904 -4.5485 4.6229 -1.4106 -2.8015 52.4597
#
#
#
# Elastic Compliance Matrix: (Units=1/GPa)
#
#
# Indices 1 2 3 4 5 6 
#
# 1 0.014928 -0.002249 -0.001967 0.002596 0.000441 -0.004478
# 2 -0.002249 0.007823 -0.001519 0.000377 -0.001401 0.001433
# 3 -0.001967 -0.001519 0.013020 -0.000076 0.002430 -0.000552
# 4 0.002596 0.000377 -0.000076 0.030317 0.001883 0.000164
# 5 0.000441 -0.001401 0.002430 0.001883 0.025985 0.000968
# 6 -0.004478 0.001433 -0.000552 0.000164 0.000968 0.020656
#
#
# Mechanical properties :
#
#
# Convention : Reuss Voigt Hill
#
# Bulk Modulus (GPa) = 41.15124 46.05029 43.60076
# Shear Modulus (GPa) = 37.79336 41.52021 39.65679
#
# Velocity S-wave (km/s) = 3.81733 4.00112 3.91030
# Velocity P-wave (km/s) = 5.94104 6.25307 6.09905
#
# Compressibility (1/GPa) = 0.02430061
#
# Stress axis : x y z
#
# Youngs Moduli (GPa) = 66.98854 127.83227 76.80741
#
# Poissons Ratio (x) = 0.28744 0.15110
# Poissons Ratio (y) = 0.15063 0.11667
# Poissons Ratio (z) = 0.13179 0.19417
#
# Static dielectric constant tensor:
#      x y z
#    x 2.184570 -0.024970 -0.020700 
#    y -0.024970 2.047350 0.026240 
#    z -0.020700 0.026240 1.999360 
# 
# From -- ./inp_files/68460.got.cif
#   From: 2010.05.17/outbox.cif.g08.bks.cpg/sg2_35_cif.got.tgz:68460.got - 2010.06.03 11:33:40.
