data_PCOD9018695
_publ_section_title
;
Structure prediction by ZEFSAII (Michael W. Deem and Ramdas Pophale) SiO2 
 PCOD9018695
Probable space group: P -1
;
_chemical_formula_sum "Si O2"
_cell_formula_units_Z 16
_cell_length_a 24.044144
_cell_length_b 8.765141
_cell_length_c 5.076133
_cell_angle_alpha 70.009515
_cell_angle_beta 61.863823
_cell_angle_gamma 53.846694
_cell_volume 758.671554
_symmetry_space_group_name_H-M "P -1"
_symmetry_group_IT_number 2
_symmetry_cell_setting 'triclinic'
loop_
_space_group_symop_operation_xyz
x,y,z
-x,-y,-z
loop_
_atom_site_type_symbol
_atom_site_label
_atom_site_fract_x
_atom_site_fract_y
_atom_site_fract_z
Si Si1 0.775673 0.297655 0.538492
Si Si2 0.334731 0.087094 0.351524
Si Si3 0.585232 0.902193 0.303511
Si Si4 0.935339 0.624737 0.275551
Si Si5 0.104425 0.910611 0.242708
Si Si6 0.984421 0.243043 0.653988
Si Si7 0.704906 0.544908 0.033710
Si Si8 0.209633 0.015531 0.666725
O O1 0.854818 0.240873 0.522701
O O2 0.752069 0.428197 0.251270
O O3 0.781160 0.101857 0.551967
O O4 0.717398 0.412010 0.834724
O O5 0.370347 0.105973 0.528720
O O6 0.288130 0.988577 0.568237
O O7 0.396359 0.997564 0.036029
O O8 0.280514 0.295424 0.217222
O O9 0.621899 0.685726 0.241362
O O10 0.500000 0.000000 0.500000
O O11 0.941195 0.465911 0.554808
O O12 0.850747 0.760739 0.315063
O O13 0.958656 0.770009 0.249814
O O14 0.000000 0.500000 0.000000
O O15 0.071955 0.829099 0.150842
O O16 0.037924 0.107303 0.384333
O O17 0.169714 0.937391 0.984623
#
# Coordination Sequence:
#
# PCOD9018695 Si02
#       8
#     2   2   2   2   2   2   2   2
#     4  12  23  42  63  97 135 175 219 275 332 396
#     4  10  24  41  71 107 134 172 223 269 335 389
#     4  10  21  43  75 107 138 169 217 269 323 399
#     4  11  23  42  60  89 126 175 227 292 337 400
#     4  11  24  42  64  92 125 184 222 285 344 400
#     4  10  24  42  61  89 123 170 239 280 344 408
#     4  10  22  42  67 100 129 172 221 263 316 401
#     4  12  26  40  65  95 140 175 223 285 345 390
#
# _framework density 21.089493000000001
#
# number of rings (size 3 to 8) (size 9 to 14) (size 15 to 20)
#    0.750    0.500    5.000    0.375    3.500    1.500 
#    2.250    0.000    0.000    4.500    0.000    0.000 
#    0.000    0.000    0.000    0.000    0.000    0.000 
#
# Total GULP energy -89088.551481 kJ/mol
# GULP energy per Si atom -5568.034468 kJ/mol
# Density = 2.104149 g / cm^3
# Si number density = 21.089493 Si / 1000 Ang^3
#
#
#
# Elastic Constant Matrix: (Units=GPa)
#
#
# Indices 1 2 3 4 5 6 
#
# 1 87.9139 24.9256 54.2252 8.1252 -9.2376 10.3985
# 2 24.9256 71.7735 34.3747 12.6838 -9.6896 1.8921
# 3 54.2252 34.3747 128.6031 16.3581 -2.6233 4.6825
# 4 8.1252 12.6838 16.3581 29.1399 -2.2783 2.5545
# 5 -9.2376 -9.6896 -2.6233 -2.2783 35.4915 -0.5407
# 6 10.3985 1.8921 4.6825 2.5545 -0.5407 23.7516
#
#
#
# Elastic Compliance Matrix: (Units=1/GPa)
#
#
# Indices 1 2 3 4 5 6 
#
# 1 0.016920 -0.002377 -0.006295 0.000627 0.003239 -0.005971
# 2 -0.002377 0.017564 -0.003002 -0.005088 0.003641 0.000864
# 3 -0.006295 -0.003002 0.011628 -0.003700 -0.001820 0.001059
# 4 0.000627 -0.005088 -0.003700 0.038796 0.000941 -0.003291
# 5 0.003239 0.003641 -0.001820 0.000941 0.029927 -0.000769
# 6 -0.005971 0.000864 0.001059 -0.003291 -0.000769 0.044775
#
#
# Mechanical properties :
#
#
# Convention : Reuss Voigt Hill
#
# Bulk Modulus (GPa) = 43.93235 57.26016 50.59625
# Shear Modulus (GPa) = 26.24009 29.32762 27.78385
#
# Velocity S-wave (km/s) = 3.53118 3.73316 3.63357
# Velocity P-wave (km/s) = 6.12391 6.76697 6.45346
#
# Compressibility (1/GPa) = 0.02276227
#
# Stress axis : x y z
#
# Youngs Moduli (GPa) = 59.10053 56.93409 86.00099
#
# Poissons Ratio (x) = 0.13535 0.54140
# Poissons Ratio (y) = 0.14050 0.25821
# Poissons Ratio (z) = 0.37206 0.17094
#
# Static dielectric constant tensor:
#      x y z
#    x 1.769990 -0.031760 0.049700 
#    y -0.031760 1.854740 -0.033370 
#    z 0.049700 -0.033370 1.846320 
# 
# From -- ./inp_files/116006.got.cif
#   From: 2010.05.17/outbox.cif.g08.bks.cpg/sg2_59_cif.got.tgz:116006.got - 2010.06.03 11:33:40.
