data_PCOD9018725
_publ_section_title
;
Structure prediction by ZEFSAII (Michael W. Deem and Ramdas Pophale) SiO2 
 PCOD9018725
Probable space group: P -1
;
_chemical_formula_sum "Si O2"
_cell_formula_units_Z 13
_cell_length_a 11.440032
_cell_length_b 5.065575
_cell_length_c 13.276240
_cell_angle_alpha 74.130321
_cell_angle_beta 137.207225
_cell_angle_gamma 113.263503
_cell_volume 480.006525
_symmetry_space_group_name_H-M "P -1"
_symmetry_group_IT_number 2
_symmetry_cell_setting 'triclinic'
loop_
_space_group_symop_operation_xyz
x,y,z
-x,-y,-z
loop_
_atom_site_type_symbol
_atom_site_label
_atom_site_fract_x
_atom_site_fract_y
_atom_site_fract_z
Si Si1 0.974776 0.286738 0.413767
Si Si2 0.824714 0.592018 0.978456
Si Si3 0.405603 0.757985 0.808595
Si Si4 0.904229 0.669743 0.723785
Si Si5 0.743611 0.794764 0.118268
Si Si6 0.500000 0.500000 0.500000
Si Si7 0.351972 0.923656 0.232205
O O1 0.765717 0.170920 0.264678
O O2 0.000000 0.500000 0.500000
O O3 0.094180 0.433788 0.379834
O O4 0.000000 0.000000 0.500000
O O5 0.016199 0.526425 0.129615
O O6 0.751568 0.596449 0.045168
O O7 0.285028 0.665625 0.135190
O O8 0.789559 0.882725 0.878040
O O9 0.331636 0.415910 0.814926
O O10 0.467484 0.851293 0.725142
O O11 0.579856 0.904036 0.968861
O O12 0.709842 0.706169 0.616519
O O13 0.062281 0.973695 0.786643
O O14 0.417545 0.768693 0.382936
#
# Coordination Sequence:
#
# PCOD9018725 Si02
#       7
#     2   2   2   2   2   1   2
#     4  12  27  44  73 114 166 206 251 323 413 488
#     4  11  23  50  81 116 160 203 282 337 403 478
#     4  10  21  43  77 118 157 200 257 327 411 485
#     4  12  26  53  82 120 166 220 279 338 407 482
#     4  10  22  44  80 123 157 200 266 344 408 486
#     4  12  32  58  80 116 170 230 280 342 402 496
#     4  11  27  50  77 120 159 217 271 337 411 485
#
# _framework density 27.082965999999999
#
# number of rings (size 3 to 8) (size 9 to 14) (size 15 to 20)
#    0.000    0.923    4.615    1.846    0.000   11.692 
#    5.538    0.000    0.000    0.000    0.000    0.000 
#    0.000    0.000    0.000    0.000    0.000    0.000 
#
# Total GULP energy -72375.073456 kJ/mol
# GULP energy per Si atom -5567.313343 kJ/mol
# Density = 2.702132 g / cm^3
# Si number density = 27.082966 Si / 1000 Ang^3
#
#
#
# Elastic Constant Matrix: (Units=GPa)
#
#
# Indices 1 2 3 4 5 6 
#
# 1 59.3607 36.2497 41.3572 9.3654 9.0325 -0.2437
# 2 36.2497 194.4637 66.3081 -20.1734 -6.1627 -5.7321
# 3 41.3572 66.3081 177.0087 -20.0613 43.6197 -7.0712
# 4 9.3654 -20.1734 -20.0613 71.1371 -4.4461 -5.5697
# 5 9.0325 -6.1627 43.6197 -4.4461 62.4383 2.6327
# 6 -0.2437 -5.7321 -7.0712 -5.5697 2.6327 48.7887
#
#
#
# Elastic Compliance Matrix: (Units=1/GPa)
#
#
# Indices 1 2 3 4 5 6 
#
# 1 0.023099 -0.003364 -0.004629 -0.005468 -0.000764 -0.001534
# 2 -0.003364 0.006841 -0.002231 0.001973 0.002838 0.000536
# 3 -0.004629 -0.002231 0.009383 0.002378 -0.006007 0.001670
# 4 -0.005468 0.001973 0.002378 0.016218 0.000379 0.002380
# 5 -0.000764 0.002838 -0.006007 0.000379 0.020698 -0.001615
# 6 -0.001534 0.000536 0.001670 0.002380 -0.001615 0.021153
#
#
# Mechanical properties :
#
#
# Convention : Reuss Voigt Hill
#
# Bulk Modulus (GPa) = 52.98372 79.85144 66.41758
# Shear Modulus (GPa) = 40.28022 55.60069 47.94046
#
# Velocity S-wave (km/s) = 3.86072 4.53589 4.21186
# Velocity P-wave (km/s) = 6.28327 7.54854 6.94478
#
# Compressibility (1/GPa) = 0.01887372
#
# Stress axis : x y z
#
# Youngs Moduli (GPa) = 43.29285 146.18777 106.57208
#
# Poissons Ratio (x) = 0.49176 0.49337
# Poissons Ratio (y) = 0.14563 0.23776
# Poissons Ratio (z) = 0.20042 0.32614
#
# Static dielectric constant tensor:
#      x y z
#    x 2.349160 -0.192230 0.608360 
#    y -0.192230 2.312160 -0.571700 
#    z 0.608360 -0.571700 5.068500 
# 
# From -- ./inp_files/229967.got.cif
#   From: 2010.05.17/outbox.cif.g08.bks.cpg/sg2_115_cif.got.tgz:229967.got - 2010.06.03 11:33:40.
