data_PCOD9018148
_publ_section_title
;
Structure prediction by ZEFSAII (Michael W. Deem and Ramdas Pophale) SiO2 
 PCOD9018148
Probable space group: P -1
;
_chemical_formula_sum "Si O2"
_cell_formula_units_Z 14
_cell_length_a 13.239521
_cell_length_b 22.217265
_cell_length_c 16.430591
_cell_angle_alpha 19.159872
_cell_angle_beta 25.904303
_cell_angle_gamma 30.035084
_cell_volume 688.627820
_symmetry_space_group_name_H-M "P -1"
_symmetry_group_IT_number 2
_symmetry_cell_setting 'triclinic'
loop_
_space_group_symop_operation_xyz
x,y,z
-x,-y,-z
loop_
_atom_site_type_symbol
_atom_site_label
_atom_site_fract_x
_atom_site_fract_y
_atom_site_fract_z
Si Si1 0.353182 0.928925 0.124137
Si Si2 0.431009 0.793463 0.797452
Si Si3 0.745615 0.466659 0.315807
Si Si4 0.080026 0.453314 0.242674
Si Si5 0.821632 0.183860 0.886686
Si Si6 0.881990 0.161671 0.190909
Si Si7 0.380010 0.143271 0.147118
O O1 0.268257 0.731568 0.460848
O O2 0.509516 0.902076 0.964005
O O3 0.125442 0.071607 0.092080
O O4 0.500000 0.000000 0.000000
O O5 0.662240 0.651962 0.814233
O O6 0.302437 0.789331 0.809938
O O7 0.500000 0.000000 0.500000
O O8 0.258401 0.751282 0.048629
O O9 0.500000 0.500000 0.500000
O O10 0.950672 0.453705 0.249564
O O11 0.747386 0.647958 0.028299
O O12 0.937375 0.336624 0.556959
O O13 0.082416 0.658761 0.012107
O O14 0.593635 0.139146 0.060282
O O15 0.000000 0.000000 0.000000
O O16 0.784910 0.006577 0.515300
#
# Coordination Sequence:
#
# PCOD9018148 Si02
#       7
#     2   2   2   2   2   2   2
#     4  11  24  42  70 100 137 175 225 278 335 403
#     4  12  24  43  70 101 131 179 232 276 334 399
#     4  10  21  43  68  96 133 179 223 270 336 400
#     4  12  25  44  69  99 140 176 224 285 333 403
#     4  12  23  42  74  95 130 183 225 272 340 400
#     4  12  26  44  67 103 141 173 225 286 332 397
#     4  11  24  44  69  98 138 180 222 274 342 398
#
# _framework density 20.330285
#
# number of rings (size 3 to 8) (size 9 to 14) (size 15 to 20)
#    0.000    0.571    5.714    3.857    0.000    4.571 
#    0.000    0.000    0.000    0.000    0.000    0.000 
#    0.000    0.000    0.000    0.000    0.000    0.000 
#
# Total GULP energy -78365.092558 kJ/mol
# GULP energy per Si atom -5597.506611 kJ/mol
# Density = 2.028401 g / cm^3
# Si number density = 20.330285 Si / 1000 Ang^3
#
#
#
# Elastic Constant Matrix: (Units=GPa)
#
#
# Indices 1 2 3 4 5 6 
#
# 1 126.7880 32.0467 51.8992 -19.7778 -13.1598 -12.1630
# 2 32.0467 100.9530 23.3892 -15.6312 -6.1487 -9.3447
# 3 51.8992 23.3892 119.2291 -17.6753 -7.7085 7.0924
# 4 -19.7778 -15.6312 -17.6753 39.3969 9.7892 3.7732
# 5 -13.1598 -6.1487 -7.7085 9.7892 36.1270 -2.0721
# 6 -12.1630 -9.3447 7.0924 3.7732 -2.0721 39.0853
#
#
#
# Elastic Compliance Matrix: (Units=1/GPa)
#
#
# Indices 1 2 3 4 5 6 
#
# 1 0.010960 -0.001706 -0.004204 0.001966 0.002485 0.003707
# 2 -0.001706 0.011381 -0.001172 0.002821 0.000424 0.002153
# 3 -0.004204 -0.001172 0.011079 0.002858 -0.000365 -0.003894
# 4 0.001966 0.002821 0.002858 0.030668 -0.006650 -0.002545
# 5 0.002485 0.000424 -0.000365 -0.006650 0.030565 0.003203
# 6 0.003707 0.002153 -0.003894 -0.002545 0.003203 0.028376
#
#
# Mechanical properties :
#
#
# Convention : Reuss Voigt Hill
#
# Bulk Modulus (GPa) = 51.93685 62.40448 57.17067
# Shear Modulus (GPa) = 34.81614 38.89751 36.85683
#
# Velocity S-wave (km/s) = 4.14276 4.37885 4.26244
# Velocity P-wave (km/s) = 6.96314 7.50518 7.23923
#
# Compressibility (1/GPa) = 0.01925415
#
# Stress axis : x y z
#
# Youngs Moduli (GPa) = 91.24355 87.86766 90.25983
#
# Poissons Ratio (x) = 0.14990 0.37949
# Poissons Ratio (y) = 0.15566 0.10581
# Poissons Ratio (z) = 0.38362 0.10301
#
# Static dielectric constant tensor:
#      x y z
#    x 1.686470 0.015930 0.033960 
#    y 0.015930 1.754200 0.059290 
#    z 0.033960 0.059290 1.794110 
# 
# From -- ./inp_files/186222.got.cif
#   From: 2010.05.17/outbox.cif.g08.bks.cpg/sg2_94_cif.got.tgz:186222.got - 2010.06.03 11:33:40.
