data_PCOD9018043
_publ_section_title
;
Structure prediction by ZEFSAII (Michael W. Deem and Ramdas Pophale) SiO2 
 PCOD9018043
Probable space group: P -1
;
_chemical_formula_sum "Si O2"
_cell_formula_units_Z 16
_cell_length_a 22.510759
_cell_length_b 4.941154
_cell_length_c 6.813830
_cell_angle_alpha 71.024743
_cell_angle_beta 116.254572
_cell_angle_gamma 112.852823
_cell_volume 615.477220
_symmetry_space_group_name_H-M "P -1"
_symmetry_group_IT_number 2
_symmetry_cell_setting 'triclinic'
loop_
_space_group_symop_operation_xyz
x,y,z
-x,-y,-z
loop_
_atom_site_type_symbol
_atom_site_label
_atom_site_fract_x
_atom_site_fract_y
_atom_site_fract_z
Si Si1 0.313505 0.410056 0.431933
Si Si2 0.535889 0.390616 0.394269
Si Si3 0.821850 0.149163 0.252487
Si Si4 0.033846 0.856623 0.964319
Si Si5 0.303665 0.784217 0.688114
Si Si6 0.818802 0.758450 0.983666
Si Si7 0.968800 0.142432 0.549488
Si Si8 0.440859 0.089512 0.007904
O O1 0.388155 0.628456 0.433456
O O2 0.297902 0.502720 0.607834
O O3 0.246564 0.395956 0.209665
O O4 0.320589 0.075706 0.504735
O O5 0.500000 0.500000 0.500000
O O6 0.472787 0.144728 0.257941
O O7 0.559753 0.613796 0.185530
O O8 0.764938 0.197396 0.307256
O O9 0.884671 0.047548 0.455712
O O10 0.852002 0.488833 0.137851
O O11 0.792182 0.909513 0.094608
O O12 0.019842 0.917428 0.175540
O O13 0.117697 0.975380 0.065885
O O14 0.025837 0.925302 0.679508
O O15 0.000000 0.500000 0.000000
O O16 0.367218 0.850283 0.917928
O O17 0.000000 0.500000 0.500000
O O18 0.500000 0.000000 0.000000
#
# Coordination Sequence:
#
# PCOD9018043 Si02
#       8
#     2   2   2   2   2   2   2   2
#     4  11  25  47  66 103 148 184 233 300 360 436
#     4  10  23  41  70 103 142 194 245 296 368 430
#     4  12  25  46  73 102 137 192 238 297 364 436
#     4  12  26  45  72 104 139 187 237 304 375 435
#     4  11  25  45  70 102 141 191 238 291 369 424
#     4  12  26  47  69 105 145 180 243 301 359 445
#     4  12  23  47  72  99 140 181 240 302 355 438
#     4  10  21  43  68 100 145 185 246 307 348 440
#
# _framework density 25.996086999999999
#
# number of rings (size 3 to 8) (size 9 to 14) (size 15 to 20)
#    0.000    0.750    3.750    3.000    3.500    1.500 
#    0.000    0.000    0.000    0.000    0.000    0.000 
#    0.000    0.000    0.000    0.000    0.000    0.000 
#
# Total GULP energy -89448.571468 kJ/mol
# GULP energy per Si atom -5590.535717 kJ/mol
# Density = 2.593692 g / cm^3
# Si number density = 25.996087 Si / 1000 Ang^3
#
#
#
# Elastic Constant Matrix: (Units=GPa)
#
#
# Indices 1 2 3 4 5 6 
#
# 1 209.0881 44.9913 95.7631 37.9253 -0.5705 6.4959
# 2 44.9913 102.5057 42.2306 20.4057 6.3237 1.4483
# 3 95.7631 42.2306 187.3651 38.3833 7.6425 6.9872
# 4 37.9253 20.4057 38.3833 59.8275 -8.0898 -9.3561
# 5 -0.5705 6.3237 7.6425 -8.0898 55.3395 12.6399
# 6 6.4959 1.4483 6.9872 -9.3561 12.6399 48.4549
#
#
#
# Elastic Compliance Matrix: (Units=1/GPa)
#
#
# Indices 1 2 3 4 5 6 
#
# 1 0.006737 -0.001450 -0.002656 -0.002163 0.000521 -0.001030
# 2 -0.001450 0.011492 -0.001302 -0.002372 -0.001488 -0.000031
# 3 -0.002656 -0.001302 0.007717 -0.003141 -0.001171 -0.001019
# 4 -0.002163 -0.002372 -0.003141 0.021976 0.002914 0.004297
# 5 0.000521 -0.001488 -0.001171 0.002914 0.019855 -0.004473
# 6 -0.001030 -0.000031 -0.001019 0.004297 -0.004473 0.022920
#
#
# Mechanical properties :
#
#
# Convention : Reuss Voigt Hill
#
# Bulk Modulus (GPa) = 66.08681 96.10320 81.09501
# Shear Modulus (GPa) = 46.92322 53.78933 50.35627
#
# Velocity S-wave (km/s) = 4.25315 4.55371 4.40599
# Velocity P-wave (km/s) = 7.04245 8.04344 7.55953
#
# Compressibility (1/GPa) = 0.01513161
#
# Stress axis : x y z
#
# Youngs Moduli (GPa) = 148.43608 87.01343 129.57657
#
# Poissons Ratio (x) = 0.12614 0.34420
# Poissons Ratio (y) = 0.21518 0.16866
# Poissons Ratio (z) = 0.39429 0.11326
#
# Static dielectric constant tensor:
#      x y z
#    x 2.058580 0.029280 -0.032990 
#    y 0.029280 2.252890 -0.138680 
#    z -0.032990 -0.138680 2.192320 
# 
# From -- ./inp_files/121687.got.cif
#   From: 2010.05.17/outbox.cif.g08.bks.cpg/sg2_61_cif.got.tgz:121687.got - 2010.06.03 11:33:40.
