data_PCOD9018407
_publ_section_title
;
Structure prediction by ZEFSAII (Michael W. Deem and Ramdas Pophale) SiO2 
 PCOD9018407
Probable space group: P -1
;
_chemical_formula_sum "Si O2"
_cell_formula_units_Z 14
_cell_length_a 8.722498
_cell_length_b 8.849407
_cell_length_c 9.994589
_cell_angle_alpha 88.553943
_cell_angle_beta 94.706046
_cell_angle_gamma 120.454793
_cell_volume 662.669213
_symmetry_space_group_name_H-M "P -1"
_symmetry_group_IT_number 2
_symmetry_cell_setting 'triclinic'
loop_
_space_group_symop_operation_xyz
x,y,z
-x,-y,-z
loop_
_atom_site_type_symbol
_atom_site_label
_atom_site_fract_x
_atom_site_fract_y
_atom_site_fract_z
Si Si1 0.566041 0.344095 0.868752
Si Si2 0.792146 0.333199 0.307951
Si Si3 0.065074 0.621645 0.132471
Si Si4 0.784568 0.992872 0.251238
Si Si5 0.872296 0.025901 0.804161
Si Si6 0.471743 0.331197 0.163919
Si Si7 0.712797 0.076311 0.518289
O O1 0.733378 0.332839 0.830247
O O2 0.385429 0.167590 0.824782
O O3 0.562553 0.511808 0.807902
O O4 0.574168 0.370017 0.028988
O O5 0.601522 0.318273 0.279863
O O6 0.807651 0.273764 0.459629
O O7 0.940439 0.513491 0.250574
O O8 0.789024 0.175846 0.223947
O O9 0.062724 0.800325 0.107361
O O10 0.000000 0.500000 0.000000
O O11 0.963069 0.998766 0.219786
O O12 0.757353 0.973167 0.410588
O O13 0.788635 0.061133 0.664363
O O14 0.713054 0.849592 0.858764
O O15 0.500000 0.000000 0.500000
#
# Coordination Sequence:
#
# PCOD9018407 Si02
#       7
#     2   2   2   2   2   2   2
#     4  11  24  42  63  96 132 167 218 261 324 379
#     4  10  22  42  66  94 132 163 216 262 322 377
#     4  12  25  41  66  96 129 172 215 266 316 385
#     4  10  24  41  67  95 129 170 210 263 319 386
#     4  12  24  42  68  94 134 169 215 264 322 373
#     4  11  23  40  68  93 130 173 211 267 320 383
#     4  10  21  43  70  94 127 169 215 263 318 382
#
# _framework density 21.12668
#
# number of rings (size 3 to 8) (size 9 to 14) (size 15 to 20)
#    0.857    0.286    2.857    3.857    4.000    2.286 
#    0.000    0.714    0.000    0.000    0.000    0.000 
#    0.000    0.000    0.000    0.000    0.000    0.000 
#
# Total GULP energy -78234.621797 kJ/mol
# GULP energy per Si atom -5588.187271 kJ/mol
# Density = 2.107859 g / cm^3
# Si number density = 21.126680 Si / 1000 Ang^3
#
#
#
# Elastic Constant Matrix: (Units=GPa)
#
#
# Indices 1 2 3 4 5 6 
#
# 1 133.4253 54.1263 -0.4154 -5.4117 -7.1516 1.7211
# 2 54.1263 92.8962 -19.9950 -6.7354 1.5414 2.8722
# 3 -0.4154 -19.9950 34.7229 0.9316 7.9830 -1.0086
# 4 -5.4117 -6.7354 0.9316 22.9790 -1.5855 -4.4343
# 5 -7.1516 1.5414 7.9830 -1.5855 28.9501 -0.5280
# 6 1.7211 2.8722 -1.0086 -4.4343 -0.5280 43.6678
#
#
#
# Elastic Compliance Matrix: (Units=1/GPa)
#
#
# Indices 1 2 3 4 5 6 
#
# 1 0.010759 -0.007400 -0.005197 0.000906 0.004536 0.000089
# 2 -0.007400 0.017830 0.011431 0.002537 -0.005798 -0.000430
# 3 -0.005197 0.011431 0.038190 -0.000249 -0.012434 0.000159
# 4 0.000906 0.002537 -0.000249 0.045532 0.002732 0.004448
# 5 0.004536 -0.005798 -0.012434 0.002732 0.039562 0.000671
# 6 0.000089 -0.000430 0.000159 0.004448 0.000671 0.023388
#
#
# Mechanical properties :
#
#
# Convention : Reuss Voigt Hill
#
# Bulk Modulus (GPa) = 15.51628 36.49735 26.00682
# Shear Modulus (GPa) = 25.11606 34.27462 29.69534
#
# Velocity S-wave (km/s) = 3.45168 4.03220 3.75318
# Velocity P-wave (km/s) = 4.82139 6.24429 5.57839
#
# Compressibility (1/GPa) = 0.06444845
#
# Stress axis : x y z
#
# Youngs Moduli (GPa) = 92.94303 56.08451 26.18488
#
# Poissons Ratio (x) = 0.41502 0.13608
# Poissons Ratio (y) = 0.68777 -0.29933
# Poissons Ratio (z) = 0.48303 -0.64113
#
# Static dielectric constant tensor:
#      x y z
#    x 1.714920 -0.000820 0.005060 
#    y -0.000820 1.758630 0.004350 
#    z 0.005060 0.004350 1.788240 
# 
# From -- ./inp_files/314409.got.cif
#   From: 2010.05.17/outbox.cif.g08.bks.cpg/sg2_158_cif.got.tgz:314409.got - 2010.06.03 11:33:40.
