data_PCOD9018793
_publ_section_title
;
Structure prediction by ZEFSAII (Michael W. Deem and Ramdas Pophale) SiO2 
 PCOD9018793
Probable space group: P -1
;
_chemical_formula_sum "Si O2"
_cell_formula_units_Z 16
_cell_length_a 20.656927
_cell_length_b 5.513088
_cell_length_c 10.073294
_cell_angle_alpha 53.543912
_cell_angle_beta 46.233689
_cell_angle_gamma 75.191687
_cell_volume 642.035929
_symmetry_space_group_name_H-M "P -1"
_symmetry_group_IT_number 2
_symmetry_cell_setting 'triclinic'
loop_
_space_group_symop_operation_xyz
x,y,z
-x,-y,-z
loop_
_atom_site_type_symbol
_atom_site_label
_atom_site_fract_x
_atom_site_fract_y
_atom_site_fract_z
Si Si1 0.044209 0.247965 0.078834
Si Si2 0.142812 0.824801 0.010100
Si Si3 0.729637 0.826332 0.747231
Si Si4 0.267922 0.129379 0.964216
Si Si5 0.514318 0.649393 0.078410
Si Si6 0.754174 0.281994 0.321575
Si Si7 0.550928 0.750749 0.457569
Si Si8 0.080595 0.305289 0.429426
O O1 0.977995 0.051646 0.350822
O O2 0.056722 0.963199 0.060668
O O3 0.148640 0.465445 0.870669
O O4 0.000000 0.500000 0.000000
O O5 0.118003 0.452362 0.185734
O O6 0.221565 0.942305 0.752105
O O7 0.180805 0.937257 0.065430
O O8 0.620113 0.643005 0.966502
O O9 0.820267 0.687884 0.636365
O O10 0.726573 0.089526 0.556382
O O11 0.747699 0.933932 0.839076
O O12 0.297421 0.497445 0.756028
O O13 0.356299 0.038959 0.810690
O O14 0.500000 0.500000 0.000000
O O15 0.443431 0.443537 0.353180
O O16 0.500000 0.000000 0.000000
O O17 0.500000 0.500000 0.500000
O O18 0.500000 0.000000 0.500000
O O19 0.000000 0.500000 0.500000
#
# Coordination Sequence:
#
# PCOD9018793 Si02
#       8
#     2   2   2   2   2   2   2   2
#     4  10  21  44  64 104 147 196 250 316 389 462
#     4  10  24  43  69 104 143 197 256 322 374 469
#     4  12  25  48  79 110 156 209 260 328 401 474
#     4  11  26  48  75 107 154 200 263 322 398 479
#     4  12  29  52  80 122 164 207 273 340 403 489
#     4  11  24  46  73 109 148 199 264 318 388 474
#     4  12  27  49  80 114 155 208 262 330 410 484
#     4  10  22  46  73 109 150 206 257 318 388 478
#
# _framework density 24.920725000000001
#
# number of rings (size 3 to 8) (size 9 to 14) (size 15 to 20)
#    0.000    1.000    3.750    1.500    5.250    1.000 
#    9.000    0.000    0.000    0.000    0.000    0.000 
#    0.000    0.000    0.000    0.000    0.000    0.000 
#
# Total GULP energy -89078.020077 kJ/mol
# GULP energy per Si atom -5567.376255 kJ/mol
# Density = 2.486400 g / cm^3
# Si number density = 24.920725 Si / 1000 Ang^3
#
#
#
# Elastic Constant Matrix: (Units=GPa)
#
#
# Indices 1 2 3 4 5 6 
#
# 1 86.8590 38.9914 14.6386 11.7154 -5.5642 -0.6373
# 2 38.9914 117.7106 33.9956 -3.0958 26.3507 -20.0871
# 3 14.6386 33.9956 152.2463 -2.4672 33.1756 -3.5661
# 4 11.7154 -3.0958 -2.4672 42.3827 -5.5255 5.3233
# 5 -5.5642 26.3507 33.1756 -5.5255 60.2451 4.7107
# 6 -0.6373 -20.0871 -3.5661 5.3233 4.7107 36.2836
#
#
#
# Elastic Compliance Matrix: (Units=1/GPa)
#
#
# Indices 1 2 3 4 5 6 
#
# 1 0.015467 -0.006579 -0.001236 -0.003736 0.004924 -0.003583
# 2 -0.006579 0.013848 -0.000770 0.000864 -0.006805 0.008232
# 3 -0.001236 -0.000770 0.007777 0.000096 -0.004117 0.000837
# 4 -0.003736 0.000864 0.000096 0.025379 0.001828 -0.003539
# 5 0.004924 -0.006805 -0.004117 0.001828 0.023039 -0.007345
# 6 -0.003583 0.008232 0.000837 -0.003539 -0.007345 0.033610
#
#
# Mechanical properties :
#
#
# Convention : Reuss Voigt Hill
#
# Bulk Modulus (GPa) = 50.19080 59.11856 54.65468
# Shear Modulus (GPa) = 34.98217 45.72830 40.35523
#
# Velocity S-wave (km/s) = 3.75071 4.28828 4.02847
# Velocity P-wave (km/s) = 6.24028 6.94934 6.60433
#
# Compressibility (1/GPa) = 0.01992397
#
# Stress axis : x y z
#
# Youngs Moduli (GPa) = 64.65222 72.21390 128.57995
#
# Poissons Ratio (x) = 0.47507 0.15888
# Poissons Ratio (y) = 0.42532 0.09899
# Poissons Ratio (z) = 0.07989 0.05560
#
# Static dielectric constant tensor:
#      x y z
#    x 2.098850 0.045030 -0.092850 
#    y 0.045030 3.013730 -0.109290 
#    z -0.092850 -0.109290 2.099810 
# 
# From -- ./inp_files/340105.got.cif
#   From: 2010.05.17/outbox.cif.g08.bks.cpg/sg2_171_cif.got.tgz:340105.got - 2010.06.03 11:33:40.
