data_PCOD9018046
_publ_section_title
;
Structure prediction by ZEFSAII (Michael W. Deem and Ramdas Pophale) SiO2 
 PCOD9018046
Probable space group: P -1
;
_chemical_formula_sum "Si O2"
_cell_formula_units_Z 14
_cell_length_a 8.863495
_cell_length_b 16.381555
_cell_length_c 10.694968
_cell_angle_alpha 35.010237
_cell_angle_beta 123.289533
_cell_angle_gamma 136.263333
_cell_volume 612.321718
_symmetry_space_group_name_H-M "P -1"
_symmetry_group_IT_number 2
_symmetry_cell_setting 'triclinic'
loop_
_space_group_symop_operation_xyz
x,y,z
-x,-y,-z
loop_
_atom_site_type_symbol
_atom_site_label
_atom_site_fract_x
_atom_site_fract_y
_atom_site_fract_z
Si Si1 0.691174 0.614053 0.109718
Si Si2 0.970082 0.987960 0.649481
Si Si3 0.189667 0.770703 0.714513
Si Si4 0.192547 0.487640 0.469014
Si Si5 0.690558 0.310684 0.386615
Si Si6 0.536963 0.869820 0.252016
Si Si7 0.711254 0.447412 0.843280
O O1 0.824811 0.627675 0.278569
O O2 0.633175 0.450469 0.204770
O O3 0.476980 0.581903 0.116452
O O4 0.829255 0.790373 0.876244
O O5 0.215171 0.081190 0.702980
O O6 0.000000 0.000000 0.500000
O O7 0.835162 0.072048 0.509035
O O8 0.307794 0.755825 0.666030
O O9 0.936855 0.607381 0.801006
O O10 0.284677 0.724136 0.934008
O O11 0.357966 0.680950 0.352243
O O12 0.293660 0.493550 0.372913
O O13 0.945000 0.421128 0.407791
O O14 0.534325 0.153141 0.606174
O O15 0.500000 0.000000 0.000000
#
# Coordination Sequence:
#
# PCOD9018046 Si02
#       7
#     2   2   2   2   2   2   2
#     4  11  23  42  67  96 133 176 222 275 333 391
#     4  12  29  44  65 100 143 178 222 276 335 397
#     4  10  24  44  66  99 133 173 225 273 341 394
#     4  10  21  43  68 101 131 171 226 281 333 394
#     4  10  22  42  72  97 132 171 227 276 334 400
#     4  11  23  42  70 101 135 179 224 275 335 393
#     4  10  23  41  72  95 131 175 225 278 329 405
#
# _framework density 22.863799
#
# number of rings (size 3 to 8) (size 9 to 14) (size 15 to 20)
#    0.000    1.429    0.000    5.571   10.000    3.429 
#    0.000    4.286    0.000    0.000    0.000    0.000 
#    0.000    0.000    0.000    0.000    0.000    0.000 
#
# Total GULP energy -78279.800619 kJ/mol
# GULP energy per Si atom -5591.414330 kJ/mol
# Density = 2.281176 g / cm^3
# Si number density = 22.863799 Si / 1000 Ang^3
#
#
#
# Elastic Constant Matrix: (Units=GPa)
#
#
# Indices 1 2 3 4 5 6 
#
# 1 135.2994 26.2248 61.3308 4.3983 -8.1211 1.1028
# 2 26.2248 46.6691 24.4883 4.3956 3.2669 3.5018
# 3 61.3308 24.4883 180.6908 -4.2820 -0.1425 -7.9960
# 4 4.3983 4.3956 -4.2820 29.9696 6.3486 -5.8147
# 5 -8.1211 3.2669 -0.1425 6.3486 46.1962 0.3191
# 6 1.1028 3.5018 -7.9960 -5.8147 0.3191 27.1022
#
#
#
# Elastic Compliance Matrix: (Units=1/GPa)
#
#
# Indices 1 2 3 4 5 6 
#
# 1 0.009626 -0.003795 -0.002851 -0.001967 0.002230 -0.001191
# 2 -0.003795 0.025756 -0.002512 -0.004103 -0.001899 -0.004773
# 3 -0.002851 -0.002512 0.007038 0.002530 -0.000671 0.003068
# 4 -0.001967 -0.004103 0.002530 0.037576 -0.005277 0.009480
# 5 0.002230 -0.001899 -0.000671 -0.005277 0.022906 -0.001445
# 6 -0.001191 -0.004773 0.003068 0.009480 -0.001445 0.040518
#
#
# Mechanical properties :
#
#
# Convention : Reuss Voigt Hill
#
# Bulk Modulus (GPa) = 41.48760 65.19410 53.34085
# Shear Modulus (GPa) = 29.45134 37.36129 33.40631
#
# Velocity S-wave (km/s) = 3.59293 4.04676 3.82658
# Velocity P-wave (km/s) = 5.94955 7.10007 6.55012
#
# Compressibility (1/GPa) = 0.02410359
#
# Stress axis : x y z
#
# Youngs Moduli (GPa) = 103.88203 38.82609 142.09514
#
# Poissons Ratio (x) = 0.14735 0.40506
# Poissons Ratio (y) = 0.39424 0.35700
# Poissons Ratio (z) = 0.29613 0.09755
#
# Static dielectric constant tensor:
#      x y z
#    x 1.864270 -0.011100 0.041910 
#    y -0.011100 1.880430 0.043260 
#    z 0.041910 0.043260 1.917500 
# 
# From -- ./inp_files/402687.got.cif
#   From: 2010.05.17/outbox.cif.g08.bks.cpg/sg2_202_cif.got.tgz:402687.got - 2010.06.03 11:33:40.
