data_PCOD9018172
_publ_section_title
;
Structure prediction by ZEFSAII (Michael W. Deem and Ramdas Pophale) SiO2 
 PCOD9018172
Probable space group: P -1
;
_chemical_formula_sum "Si O2"
_cell_formula_units_Z 12
_cell_length_a 9.542014
_cell_length_b 11.013272
_cell_length_c 11.476938
_cell_angle_alpha 146.386534
_cell_angle_beta 54.890939
_cell_angle_gamma 128.908386
_cell_volume 515.745575
_symmetry_space_group_name_H-M "P -1"
_symmetry_group_IT_number 2
_symmetry_cell_setting 'triclinic'
loop_
_space_group_symop_operation_xyz
x,y,z
-x,-y,-z
loop_
_atom_site_type_symbol
_atom_site_label
_atom_site_fract_x
_atom_site_fract_y
_atom_site_fract_z
Si Si1 0.320530 0.073772 0.512948
Si Si2 0.139762 0.882947 0.791649
Si Si3 0.518919 0.763795 0.182144
Si Si4 0.479675 0.482904 0.358075
Si Si5 0.907415 0.616421 0.486564
Si Si6 0.133474 0.401299 0.784473
O O1 0.394494 0.136449 0.656174
O O2 0.474745 0.257093 0.506222
O O3 0.152208 0.164312 0.641775
O O4 0.335084 0.819371 0.284981
O O5 0.123166 0.654591 0.692064
O O6 0.077743 0.775855 0.605833
O O7 0.330690 0.088690 0.861523
O O8 0.000000 0.000000 0.000000
O O9 0.500000 0.500000 0.000000
O O10 0.500000 0.500000 0.500000
O O11 0.268312 0.341423 0.335181
O O12 0.653680 0.425688 0.177998
O O13 0.913186 0.645450 0.367611
O O14 0.000000 0.500000 0.000000
#
# Coordination Sequence:
#
# PCOD9018172 Si02
#       6
#     2   2   2   2   2   2
#     4   9  21  41  66  94 134 174 229 276 354 400
#     4  11  25  38  68 102 133 183 232 281 349 407
#     4  11  24  42  65  96 137 185 233 279 340 418
#     4   8  16  36  69  93 128 172 215 281 346 405
#     4  10  21  43  68  97 146 171 225 296 349 409
#     4   9  19  38  72 106 137 177 228 285 353 420
#
# _framework density 23.267285000000001
#
# number of rings (size 3 to 8) (size 9 to 14) (size 15 to 20)
#    1.000    1.333    1.667    0.000    4.667    1.333 
#    0.000    2.500    0.000    6.000    0.000    0.000 
#    0.000    0.167    0.000    0.000    0.000    0.000 
#
# Total GULP energy -66847.089304 kJ/mol
# GULP energy per Si atom -5570.590775 kJ/mol
# Density = 2.321433 g / cm^3
# Si number density = 23.267285 Si / 1000 Ang^3
#
#
#
# Elastic Constant Matrix: (Units=GPa)
#
#
# Indices 1 2 3 4 5 6 
#
# 1 99.2510 50.0430 59.1752 -3.5479 -34.5369 -6.4157
# 2 50.0430 106.1896 67.8096 0.7510 -24.6316 4.7516
# 3 59.1752 67.8096 129.6784 -13.1305 -39.6721 -3.0642
# 4 -3.5479 0.7510 -13.1305 26.6978 6.3068 4.2881
# 5 -34.5369 -24.6316 -39.6721 6.3068 42.2434 -3.9840
# 6 -6.4157 4.7516 -3.0642 4.2881 -3.9840 45.9356
#
#
#
# Elastic Compliance Matrix: (Units=1/GPa)
#
#
# Indices 1 2 3 4 5 6 
#
# 1 0.017527 -0.004332 -0.002847 -0.001853 0.009758 0.003725
# 2 -0.004332 0.015926 -0.006929 -0.003956 -0.000397 -0.002380
# 3 -0.002847 -0.006929 0.015527 0.005429 0.007545 0.001502
# 4 -0.001853 -0.003956 0.005429 0.041872 -0.005338 -0.003859
# 5 0.009758 -0.000397 0.007545 -0.005338 0.039855 0.005862
# 6 0.003725 -0.002380 0.001502 -0.003859 0.005862 0.023505
#
#
# Mechanical properties :
#
#
# Convention : Reuss Voigt Hill
#
# Bulk Modulus (GPa) = 48.16007 76.57494 62.36750
# Shear Modulus (GPa) = 26.40610 33.51477 29.96044
#
# Velocity S-wave (km/s) = 3.37249 3.79941 3.59230
# Velocity P-wave (km/s) = 5.99237 7.22702 6.63846
#
# Compressibility (1/GPa) = 0.02076409
#
# Stress axis : x y z
#
# Youngs Moduli (GPa) = 57.05368 62.79180 64.40207
#
# Poissons Ratio (x) = 0.27201 0.18337
# Poissons Ratio (y) = 0.24715 0.44624
# Poissons Ratio (z) = 0.16245 0.43508
#
# Static dielectric constant tensor:
#      x y z
#    x 1.952400 0.059200 -0.056160 
#    y 0.059200 1.928570 0.079400 
#    z -0.056160 0.079400 1.896130 
# 
# From -- ./inp_files/429180.got.cif
#   From: 2010.05.17/outbox.cif.g08.bks.cpg/sg2_215_cif.got.tgz:429180.got - 2010.06.03 11:33:40.
