data_PCOD9018553
_publ_section_title
;
Structure prediction by ZEFSAII (Michael W. Deem and Ramdas Pophale) SiO2 
 PCOD9018553
Probable space group: P -1
;
_chemical_formula_sum "Si O2"
_cell_formula_units_Z 16
_cell_length_a 9.179134
_cell_length_b 26.890896
_cell_length_c 9.178872
_cell_angle_alpha 142.419683
_cell_angle_beta 109.342029
_cell_angle_gamma 43.841687
_cell_volume 787.033652
_symmetry_space_group_name_H-M "P -1"
_symmetry_group_IT_number 2
_symmetry_cell_setting 'triclinic'
loop_
_space_group_symop_operation_xyz
x,y,z
-x,-y,-z
loop_
_atom_site_type_symbol
_atom_site_label
_atom_site_fract_x
_atom_site_fract_y
_atom_site_fract_z
Si Si1 0.296394 0.083728 0.757119
Si Si2 0.237757 0.882947 0.701574
Si Si3 0.407913 0.355793 0.256020
Si Si4 0.873332 0.131400 0.683018
Si Si5 0.438430 0.653254 0.400468
Si Si6 0.924842 0.334917 0.805003
Si Si7 0.537209 0.902624 0.698070
Si Si8 0.913394 0.670489 0.837184
O O1 0.041233 0.140968 0.775877
O O2 0.500000 0.000000 0.500000
O O3 0.423734 0.977044 0.678215
O O4 0.209954 0.214169 0.049636
O O5 0.140050 0.880528 0.518861
O O6 0.426670 0.744039 0.527084
O O7 0.379742 0.901648 0.729932
O O8 0.000000 0.000000 0.000000
O O9 0.559378 0.328464 0.383167
O O10 0.281082 0.321719 0.174289
O O11 0.175757 0.515704 0.517016
O O12 0.599413 0.261708 0.968286
O O13 0.000000 0.000000 0.500000
O O14 0.206245 0.695228 0.358621
O O15 0.699779 0.495685 0.086846
O O16 0.170746 0.245191 0.577231
O O17 0.018984 0.307494 0.940336
O O18 0.500000 0.000000 0.000000
#
# Coordination Sequence:
#
# PCOD9018553 Si02
#       8
#     2   2   2   2   2   2   2   2
#     4  12  25  42  69  95 130 176 218 268 331 382
#     4  12  26  44  67  97 132 176 218 266 330 390
#     4  10  23  43  70 100 131 167 224 273 328 387
#     4  12  24  43  66  97 132 168 218 276 321 388
#     4  10  23  42  71  97 130 179 211 273 331 390
#     4  10  21  45  68  96 135 170 222 267 329 392
#     4  12  27  42  64  99 134 171 221 271 316 397
#     4  10  21  43  71  98 130 173 216 275 328 391
#
# _framework density 20.329498999999998
#
# number of rings (size 3 to 8) (size 9 to 14) (size 15 to 20)
#    0.000    1.000    2.500    3.750    5.250    1.000 
#    2.250    0.000    0.000    0.000    0.000    0.000 
#    0.000    0.000    0.000    0.000    0.000    0.000 
#
# Total GULP energy -89394.136525 kJ/mol
# GULP energy per Si atom -5587.133533 kJ/mol
# Density = 2.028323 g / cm^3
# Si number density = 20.329499 Si / 1000 Ang^3
#
#
#
# Elastic Constant Matrix: (Units=GPa)
#
#
# Indices 1 2 3 4 5 6 
#
# 1 131.7993 31.7194 61.7487 17.0120 -9.0078 8.7784
# 2 31.7194 56.0582 36.5970 -1.9500 -7.2376 3.6916
# 3 61.7487 36.5970 120.3643 -1.7080 -23.4112 6.8643
# 4 17.0120 -1.9500 -1.7080 29.3556 4.7106 7.1974
# 5 -9.0078 -7.2376 -23.4112 4.7106 40.5556 2.8160
# 6 8.7784 3.6916 6.8643 7.1974 2.8160 37.1842
#
#
#
# Elastic Compliance Matrix: (Units=1/GPa)
#
#
# Indices 1 2 3 4 5 6 
#
# 1 0.011771 -0.003623 -0.005056 -0.007326 -0.000096 -0.000061
# 2 -0.003623 0.023461 -0.005137 0.003650 0.000079 -0.001238
# 3 -0.005056 -0.005137 0.013711 0.002925 0.005662 -0.001822
# 4 -0.007326 0.003650 0.002925 0.040972 -0.003572 -0.006833
# 5 -0.000096 0.000079 0.005662 -0.003572 0.028507 -0.002498
# 6 -0.000061 -0.001238 -0.001822 -0.006833 -0.002498 0.028878
#
#
# Mechanical properties :
#
#
# Convention : Reuss Voigt Hill
#
# Bulk Modulus (GPa) = 46.92575 63.15022 55.03798
# Shear Modulus (GPa) = 27.46716 33.29621 30.38168
#
# Velocity S-wave (km/s) = 3.67972 4.05140 3.87002
# Velocity P-wave (km/s) = 6.41767 7.28120 6.86303
#
# Compressibility (1/GPa) = 0.02131026
#
# Stress axis : x y z
#
# Youngs Moduli (GPa) = 84.95275 42.62433 72.93563
#
# Poissons Ratio (x) = 0.15441 0.36880
# Poissons Ratio (y) = 0.30776 0.37468
# Poissons Ratio (z) = 0.42956 0.21896
#
# Static dielectric constant tensor:
#      x y z
#    x 1.690340 0.024780 0.014480 
#    y 0.024780 1.847790 -0.015710 
#    z 0.014480 -0.015710 1.701230 
# 
# From -- ./inp_files/227757.got.cif
#   From: 2010.05.17/outbox.cif.g08.bks.cpg/sg2_114_cif.got.tgz:227757.got - 2010.06.03 11:33:40.
