data_PCOD9018596
_publ_section_title
;
Structure prediction by ZEFSAII (Michael W. Deem and Ramdas Pophale) SiO2 
 PCOD9018596
Probable space group: P -1
;
_chemical_formula_sum "Si O2"
_cell_formula_units_Z 16
_cell_length_a 5.500105
_cell_length_b 18.369244
_cell_length_c 11.125896
_cell_angle_alpha 126.823303
_cell_angle_beta 103.329498
_cell_angle_gamma 60.366404
_cell_volume 778.616392
_symmetry_space_group_name_H-M "P -1"
_symmetry_group_IT_number 2
_symmetry_cell_setting 'triclinic'
loop_
_space_group_symop_operation_xyz
x,y,z
-x,-y,-z
loop_
_atom_site_type_symbol
_atom_site_label
_atom_site_fract_x
_atom_site_fract_y
_atom_site_fract_z
Si Si1 0.590128 0.436465 0.070949
Si Si2 0.074016 0.214900 0.828395
Si Si3 0.706085 0.934733 0.083757
Si Si4 0.840893 0.944548 0.496862
Si Si5 0.403125 0.312475 0.066669
Si Si6 0.052703 0.572657 0.671379
Si Si7 0.941512 0.945020 0.789237
Si Si8 0.943002 0.230991 0.200620
O O1 0.357766 0.410175 0.078238
O O2 0.712846 0.471619 0.236693
O O3 0.500000 0.500000 0.000000
O O4 0.823849 0.323047 0.945542
O O5 0.133866 0.122438 0.834244
O O6 0.050607 0.170256 0.655215
O O7 0.336126 0.237963 0.902157
O O8 0.378988 0.995693 0.139144
O O9 0.864093 0.998153 0.114876
O O10 0.765408 0.844039 0.906021
O O11 0.913505 0.939550 0.638874
O O12 0.500000 0.000000 0.500000
O O13 0.000000 0.000000 0.500000
O O14 0.710530 0.247649 0.090528
O O15 0.215042 0.358633 0.208783
O O16 0.099432 0.654761 0.676261
O O17 0.000000 0.500000 0.500000
O O18 0.077961 0.832768 0.753351
#
# Coordination Sequence:
#
# PCOD9018596 Si02
#       8
#     2   2   2   2   2   2   2   2
#     4  10  23  44  69 100 123 169 235 285 344 413
#     4  11  22  40  68  91 131 177 223 269 343 399
#     4  12  22  41  68  98 136 181 223 275 334 403
#     4  12  25  43  64  93 140 183 225 272 337 403
#     4  10  21  43  72  85 135 170 217 280 344 401
#     4  10  23  44  68  96 133 174 218 283 359 411
#     4  12  26  41  65 102 137 179 230 277 328 404
#     4  11  24  40  66 100 130 173 227 275 340 405
#
# _framework density 20.549274
#
# number of rings (size 3 to 8) (size 9 to 14) (size 15 to 20)
#    0.000    1.000    6.250    1.500    3.500    4.000 
#    6.750    0.000    0.000    0.000    0.000    0.000 
#    0.000    0.000    0.000    0.000    0.000    0.000 
#
# Total GULP energy -89194.934664 kJ/mol
# GULP energy per Si atom -5574.683416 kJ/mol
# Density = 2.050250 g / cm^3
# Si number density = 20.549274 Si / 1000 Ang^3
#
#
#
# Elastic Constant Matrix: (Units=GPa)
#
#
# Indices 1 2 3 4 5 6 
#
# 1 102.6617 47.7682 37.6813 3.5201 14.1467 20.4244
# 2 47.7682 166.8452 38.8906 -15.3555 15.4099 25.0739
# 3 37.6813 38.8906 134.9866 -8.9905 37.0019 4.4034
# 4 3.5201 -15.3555 -8.9905 21.2796 6.3649 -0.7458
# 5 14.1467 15.4099 37.0019 6.3649 28.9674 5.4407
# 6 20.4244 25.0739 4.4034 -0.7458 5.4407 28.3831
#
#
#
# Elastic Compliance Matrix: (Units=1/GPa)
#
#
# Indices 1 2 3 4 5 6 
#
# 1 0.013927 -0.002818 -0.004134 -0.007253 0.003011 -0.007658
# 2 -0.002818 0.008557 0.000149 0.007810 -0.004230 -0.004539
# 3 -0.004134 0.000149 0.015113 0.013724 -0.021310 0.004944
# 4 -0.007253 0.007810 0.013724 0.070083 -0.034412 0.004629
# 5 0.003011 -0.004230 -0.021310 -0.034412 0.071926 -0.009816
# 6 -0.007658 -0.004539 0.004944 0.004629 -0.009816 0.045989
#
#
# Mechanical properties :
#
#
# Convention : Reuss Voigt Hill
#
# Bulk Modulus (GPa) = 41.68341 72.57487 57.12914
# Shear Modulus (GPa) = 20.22655 34.40291 27.31473
#
# Velocity S-wave (km/s) = 3.14075 4.09610 3.64982
# Velocity P-wave (km/s) = 5.78628 7.60032 6.75448
#
# Compressibility (1/GPa) = 0.02399036
#
# Stress axis : x y z
#
# Youngs Moduli (GPa) = 71.80278 116.85905 66.16637
#
# Poissons Ratio (x) = 0.32935 0.27356
# Poissons Ratio (y) = 0.20237 -0.00986
# Poissons Ratio (z) = 0.29686 -0.01742
#
# Static dielectric constant tensor:
#      x y z
#    x 1.869380 0.015370 -0.003600 
#    y 0.015370 1.758090 0.004880 
#    z -0.003600 0.004880 1.719580 
# 
# From -- ./inp_files/369513.got.cif
#   From: 2010.05.17/outbox.cif.g08.bks.cpg/sg2_185_cif.got.tgz:369513.got - 2010.06.03 11:33:40.
