data_PCOD9018866
_publ_section_title
;
Structure prediction by ZEFSAII (Michael W. Deem and Ramdas Pophale) SiO2 
 PCOD9018866
Probable space group: P -1
;
_chemical_formula_sum "Si O2"
_cell_formula_units_Z 16
_cell_length_a 6.755733
_cell_length_b 20.736572
_cell_length_c 16.507273
_cell_angle_alpha 156.959097
_cell_angle_beta 64.240540
_cell_angle_gamma 102.413092
_cell_volume 693.908910
_symmetry_space_group_name_H-M "P -1"
_symmetry_group_IT_number 2
_symmetry_cell_setting 'triclinic'
loop_
_space_group_symop_operation_xyz
x,y,z
-x,-y,-z
loop_
_atom_site_type_symbol
_atom_site_label
_atom_site_fract_x
_atom_site_fract_y
_atom_site_fract_z
Si Si1 0.037242 0.843341 0.745158
Si Si2 0.234016 0.212372 0.570975
Si Si3 0.781567 0.711192 0.756063
Si Si4 0.242295 0.128329 0.882610
Si Si5 0.092983 0.184621 0.734425
Si Si6 0.533846 0.744604 0.144141
Si Si7 0.588552 0.517984 0.212135
Si Si8 0.806202 0.063005 0.870929
O O1 0.337276 0.672739 0.485727
O O2 0.869574 0.759224 0.712906
O O3 0.925138 0.943345 0.794477
O O4 0.000000 0.000000 0.000000
O O5 0.054269 0.249762 0.722564
O O6 0.250492 0.381218 0.720505
O O7 0.195887 0.080320 0.361247
O O8 0.517153 0.087960 0.418039
O O9 0.000000 0.500000 0.500000
O O10 0.784231 0.835090 0.974784
O O11 0.488736 0.764781 0.864498
O O12 0.334935 0.253039 0.962394
O O13 0.990692 0.142364 0.908683
O O14 0.276885 0.247869 0.816139
O O15 0.259920 0.950145 0.438205
O O16 0.806889 0.308016 0.966074
O O17 0.518651 0.553768 0.925238
#
# Coordination Sequence:
#
# PCOD9018866 Si02
#       8
#     2   2   2   2   2   2   2   2
#     4  12  24  47  70 102 140 186 236 290 348 413
#     4  10  23  42  69 100 136 176 230 278 341 415
#     4  11  24  42  66 100 136 177 238 289 346 415
#     4  10  21  44  65  96 133 181 226 279 342 413
#     4  10  24  44  67 100 140 185 224 280 347 421
#     4  10  24  43  68 102 142 178 226 283 351 408
#     4  12  24  42  69 102 138 174 235 285 336 413
#     4  11  23  45  74  96 138 191 227 290 356 405
#
# _framework density 23.057780000000001
#
# number of rings (size 3 to 8) (size 9 to 14) (size 15 to 20)
#    0.000    1.250    2.500    2.625    1.750    8.000 
#    2.250    0.000    0.000    0.000    0.000    0.000 
#    0.000    0.000    0.000    0.000    0.000    0.000 
#
# Total GULP energy -89386.033121 kJ/mol
# GULP energy per Si atom -5586.627070 kJ/mol
# Density = 2.300530 g / cm^3
# Si number density = 23.057780 Si / 1000 Ang^3
#
#
#
# Elastic Constant Matrix: (Units=GPa)
#
#
# Indices 1 2 3 4 5 6 
#
# 1 128.4719 24.7073 52.6733 -10.0426 -21.9910 17.2478
# 2 24.7073 67.0339 6.5019 -14.4311 -12.5546 -2.4837
# 3 52.6733 6.5019 124.5880 -23.0365 -28.8724 12.5230
# 4 -10.0426 -14.4311 -23.0365 22.9586 4.3287 7.5040
# 5 -21.9910 -12.5546 -28.8724 4.3287 39.2784 -1.8383
# 6 17.2478 -2.4837 12.5230 7.5040 -1.8383 35.5760
#
#
#
# Elastic Compliance Matrix: (Units=1/GPa)
#
#
# Indices 1 2 3 4 5 6 
#
# 1 0.010785 -0.003354 -0.003426 0.000110 0.002240 -0.004164
# 2 -0.003354 0.020119 0.004835 0.015352 0.006341 -0.001582
# 3 -0.003426 0.004835 0.014993 0.017096 0.008462 -0.006448
# 4 0.000110 0.015352 0.017096 0.075557 0.008249 -0.020510
# 5 0.002240 0.006341 0.008462 0.008249 0.033883 -0.003611
# 6 -0.004164 -0.001582 -0.006448 -0.020510 -0.003611 0.036426
#
#
# Mechanical properties :
#
#
# Convention : Reuss Voigt Hill
#
# Bulk Modulus (GPa) = 23.80571 54.20654 39.00612
# Shear Modulus (GPa) = 23.84864 35.31004 29.57934
#
# Velocity S-wave (km/s) = 3.21954 3.91752 3.58555
# Velocity P-wave (km/s) = 4.91603 6.63496 5.83909
#
# Compressibility (1/GPa) = 0.04200673
#
# Stress axis : x y z
#
# Youngs Moduli (GPa) = 92.72342 49.70422 66.69781
#
# Poissons Ratio (x) = 0.16669 0.22854
# Poissons Ratio (y) = 0.31097 -0.32249
# Poissons Ratio (z) = 0.31771 -0.24033
#
# Static dielectric constant tensor:
#      x y z
#    x 1.877510 0.052690 -0.051350 
#    y 0.052690 1.947580 -0.093840 
#    z -0.051350 -0.093840 2.088100 
# 
# From -- ./inp_files/551264.got.cif
#   From: 2010.05.17/outbox.cif.g08.bks.cpg/sg2_276_cif.got.tgz:551264.got - 2010.06.03 11:33:40.
