data_PCOD9018913
_publ_section_title
;
Structure prediction by ZEFSAII (Michael W. Deem and Ramdas Pophale) SiO2 
 PCOD9018913
Probable space group: P -1
;
_chemical_formula_sum "Si O2"
_cell_formula_units_Z 16
_cell_length_a 5.407278
_cell_length_b 7.390436
_cell_length_c 18.243097
_cell_angle_alpha 100.001592
_cell_angle_beta 66.367491
_cell_angle_gamma 116.096979
_cell_volume 599.798836
_symmetry_space_group_name_H-M "P -1"
_symmetry_group_IT_number 2
_symmetry_cell_setting 'triclinic'
loop_
_space_group_symop_operation_xyz
x,y,z
-x,-y,-z
loop_
_atom_site_type_symbol
_atom_site_label
_atom_site_fract_x
_atom_site_fract_y
_atom_site_fract_z
Si Si1 0.549162 0.234932 0.841604
Si Si2 0.263361 0.130823 0.220821
Si Si3 0.856667 0.827404 0.595681
Si Si4 0.833870 0.224405 0.574414
Si Si5 0.794687 0.453441 0.336972
Si Si6 0.880960 0.379404 0.165115
Si Si7 0.822702 0.633286 0.001898
Si Si8 0.675986 0.789917 0.283079
O O1 0.266257 0.238332 0.918803
O O2 0.543340 0.308358 0.764734
O O3 0.856930 0.393716 0.853090
O O4 0.574268 0.024101 0.811741
O O5 0.180468 0.189796 0.314216
O O6 0.544587 0.329172 0.174269
O O7 0.942292 0.969959 0.224169
O O8 0.521833 0.686934 0.600747
O O9 0.080223 0.763483 0.519421
O O10 0.939299 0.060055 0.583729
O O11 0.491937 0.137823 0.630890
O O12 0.989314 0.432793 0.614601
O O13 0.863400 0.335301 0.251782
O O14 0.761932 0.631335 0.305070
O O15 0.999581 0.261791 0.085280
O O16 0.500000 0.500000 0.000000
O O17 0.000000 0.500000 0.000000
#
# Coordination Sequence:
#
# PCOD9018913 Si02
#       8
#     2   2   2   2   2   2   2   2
#     4  11  22  44  68  89 135 171 209 269 334 387
#     4  11  23  43  62  96 127 168 220 263 328 395
#     4  10  22  42  59  87 129 165 211 269 324 395
#     4  11  22  42  61  87 127 168 209 270 331 383
#     4  11  21  41  62  88 126 163 214 266 325 390
#     4  10  21  44  66  91 131 170 215 263 328 402
#     4  10  23  42  70 103 134 176 225 278 338 405
#     4  12  21  40  66  91 126 169 214 270 328 387
#
# _framework density 26.675609999999999
#
# number of rings (size 3 to 8) (size 9 to 14) (size 15 to 20)
#    0.000    1.250    5.000    1.125    1.750    1.500 
#   13.500    0.625    0.000    0.000    0.000    0.000 
#    0.000    0.000    0.000    0.000    0.000    0.000 
#
# Total GULP energy -89275.563997 kJ/mol
# GULP energy per Si atom -5579.722750 kJ/mol
# Density = 2.661489 g / cm^3
# Si number density = 26.675610 Si / 1000 Ang^3
#
#
#
# Elastic Constant Matrix: (Units=GPa)
#
#
# Indices 1 2 3 4 5 6 
#
# 1 89.5537 43.6804 39.4058 2.2556 -6.2899 8.9324
# 2 43.6804 106.7653 37.1199 8.4006 -4.9207 2.9728
# 3 39.4058 37.1199 236.4414 14.2017 -49.4043 1.6061
# 4 2.2556 8.4006 14.2017 35.8708 2.7392 -12.7075
# 5 -6.2899 -4.9207 -49.4043 2.7392 35.9639 -2.8419
# 6 8.9324 2.9728 1.6061 -12.7075 -2.8419 52.1529
#
#
#
# Elastic Compliance Matrix: (Units=1/GPa)
#
#
# Indices 1 2 3 4 5 6 
#
# 1 0.014738 -0.005417 -0.001781 0.000358 -0.000805 -0.002117
# 2 -0.005417 0.012073 -0.000958 -0.002173 -0.000469 -0.000286
# 3 -0.001781 -0.000958 0.006755 -0.003066 0.009062 -0.000102
# 4 0.000358 -0.002173 -0.003066 0.032828 -0.006330 0.007811
# 5 -0.000805 -0.000469 0.009062 -0.006330 0.040576 0.000554
# 6 -0.002117 -0.000286 -0.000102 0.007811 0.000554 0.021490
#
#
# Mechanical properties :
#
#
# Convention : Reuss Voigt Hill
#
# Bulk Modulus (GPa) = 57.95816 74.79695 66.37756
# Shear Modulus (GPa) = 33.21741 45.63448 39.42594
#
# Velocity S-wave (km/s) = 3.53262 4.14057 3.84862
# Velocity P-wave (km/s) = 6.19785 7.13859 6.68479
#
# Compressibility (1/GPa) = 0.01725383
#
# Stress axis : x y z
#
# Youngs Moduli (GPa) = 67.85233 82.83023 148.03608
#
# Poissons Ratio (x) = 0.44867 0.26368
# Poissons Ratio (y) = 0.36754 0.14183
# Poissons Ratio (z) = 0.12086 0.07936
#
# Static dielectric constant tensor:
#      x y z
#    x 2.192260 0.051190 -0.059810 
#    y 0.051190 2.193280 0.028650 
#    z -0.059810 0.028650 2.116930 
# 
# From -- ./inp_files/112192.got.cif
#   From: 2010.05.17/outbox.cif.g08.bks.cpg/sg2_57_cif.got.tgz:112192.got - 2010.06.03 11:33:40.
