data_PCOD9018969
_publ_section_title
;
Structure prediction by ZEFSAII (Michael W. Deem and Ramdas Pophale) SiO2 
 PCOD9018969
Probable space group: P -1
;
_chemical_formula_sum "Si O2"
_cell_formula_units_Z 16
_cell_length_a 12.522559
_cell_length_b 9.535967
_cell_length_c 12.328060
_cell_angle_alpha 123.685625
_cell_angle_beta 134.341629
_cell_angle_gamma 46.783924
_cell_volume 759.091003
_symmetry_space_group_name_H-M "P -1"
_symmetry_group_IT_number 2
_symmetry_cell_setting 'triclinic'
loop_
_space_group_symop_operation_xyz
x,y,z
-x,-y,-z
loop_
_atom_site_type_symbol
_atom_site_label
_atom_site_fract_x
_atom_site_fract_y
_atom_site_fract_z
Si Si1 0.850570 0.693829 0.925849
Si Si2 0.655602 0.682510 0.454240
Si Si3 0.479922 0.495935 0.113396
Si Si4 0.342130 0.106669 0.664741
Si Si5 0.028982 0.502603 0.649020
Si Si6 0.594117 0.060684 0.004254
Si Si7 0.924719 0.230672 0.053806
Si Si8 0.519987 0.690494 0.591125
O O1 0.688897 0.666118 0.764196
O O2 0.945023 0.735655 0.913004
O O3 0.780784 0.876006 0.037377
O O4 0.000000 0.500000 0.000000
O O5 0.596544 0.567476 0.284775
O O6 0.659480 0.837674 0.439546
O O7 0.844647 0.551671 0.583041
O O8 0.537512 0.740621 0.500376
O O9 0.500000 0.500000 0.000000
O O10 0.556992 0.271426 0.102622
O O11 0.278743 0.638839 0.063966
O O12 0.508613 0.089362 0.836001
O O13 0.185065 0.288749 0.691714
O O14 0.359735 0.896712 0.605341
O O15 0.000000 0.500000 0.500000
O O16 0.066920 0.672242 0.784548
O O17 0.500000 0.000000 0.000000
O O18 0.000000 0.000000 0.000000
O O19 0.500000 0.500000 0.500000
#
# Coordination Sequence:
#
# PCOD9018969 Si02
#       8
#     2   2   2   2   2   2   2   2
#     4  11  26  47  65  97 138 181 227 283 346 411
#     4  11  23  41  71  97 136 172 222 291 339 406
#     4  12  23  42  67 104 134 175 235 280 338 418
#     4  10  22  43  71  92 131 181 222 277 344 408
#     4  10  21  44  67 101 137 175 224 284 350 405
#     4  11  23  41  69  94 133 180 227 278 343 408
#     4  12  25  42  72 102 138 178 234 289 339 409
#     4  11  26  45  66  99 136 179 230 275 347 412
#
# _framework density 21.077843000000001
#
# number of rings (size 3 to 8) (size 9 to 14) (size 15 to 20)
#    0.000    1.000    3.750    2.625    7.000    2.000 
#    2.250    0.625    0.000    0.000    0.000    0.000 
#    0.000    0.000    0.000    0.000    0.000    0.000 
#
# Total GULP energy -89225.327778 kJ/mol
# GULP energy per Si atom -5576.582986 kJ/mol
# Density = 2.102987 g / cm^3
# Si number density = 21.077843 Si / 1000 Ang^3
#
#
#
# Elastic Constant Matrix: (Units=GPa)
#
#
# Indices 1 2 3 4 5 6 
#
# 1 73.2250 48.5651 7.7372 5.6775 5.2640 -6.0142
# 2 48.5651 219.5532 67.0945 29.5174 20.9974 -15.1700
# 3 7.7372 67.0945 82.8310 14.6081 16.2763 -2.1939
# 4 5.6775 29.5174 14.6081 32.4647 4.0167 0.5970
# 5 5.2640 20.9974 16.2763 4.0167 34.2708 1.8043
# 6 -6.0142 -15.1700 -2.1939 0.5970 1.8043 31.7639
#
#
#
# Elastic Compliance Matrix: (Units=1/GPa)
#
#
# Indices 1 2 3 4 5 6 
#
# 1 0.016297 -0.004014 0.001969 0.000019 -0.001053 0.001364
# 2 -0.004014 0.007817 -0.004862 -0.004079 -0.001533 0.002801
# 3 0.001969 -0.004862 0.017384 -0.003096 -0.005196 -0.000395
# 4 0.000019 -0.004079 -0.003096 0.035966 -0.000100 -0.002829
# 5 -0.001053 -0.001533 -0.005196 -0.000100 0.032926 -0.003159
# 6 0.001364 0.002801 -0.000395 -0.002829 -0.003159 0.033284
#
#
# Mechanical properties :
#
#
# Convention : Reuss Voigt Hill
#
# Bulk Modulus (GPa) = 36.12303 69.15587 52.63945
# Shear Modulus (GPa) = 29.99116 36.51406 33.25261
#
# Velocity S-wave (km/s) = 3.77620 4.16666 3.97622
# Velocity P-wave (km/s) = 6.01565 7.48525 6.79032
#
# Compressibility (1/GPa) = 0.02768317
#
# Stress axis : x y z
#
# Youngs Moduli (GPa) = 61.36057 127.92441 57.52510
#
# Poissons Ratio (x) = 0.51352 -0.11327
# Poissons Ratio (y) = 0.24631 0.27969
# Poissons Ratio (z) = -0.12082 0.62199
#
# Static dielectric constant tensor:
#      x y z
#    x 1.864130 -0.083740 -0.039610 
#    y -0.083740 1.875330 0.014530 
#    z -0.039610 0.014530 1.784110 
# 
# From -- ./inp_files/343637.got.cif
#   From: 2010.05.17/outbox.cif.g08.bks.cpg/sg2_172_cif.got.tgz:343637.got - 2010.06.03 11:33:40.
