data_PCOD9018051
_publ_section_title
;
Structure prediction by ZEFSAII (Michael W. Deem and Ramdas Pophale) SiO2 
 PCOD9018051
Probable space group: P -1
;
_chemical_formula_sum "Si O2"
_cell_formula_units_Z 16
_cell_length_a 14.480104
_cell_length_b 9.587652
_cell_length_c 11.672120
_cell_angle_alpha 39.198832
_cell_angle_beta 61.507676
_cell_angle_gamma 37.824489
_cell_volume 588.663581
_symmetry_space_group_name_H-M "P -1"
_symmetry_group_IT_number 2
_symmetry_cell_setting 'triclinic'
loop_
_space_group_symop_operation_xyz
x,y,z
-x,-y,-z
loop_
_atom_site_type_symbol
_atom_site_label
_atom_site_fract_x
_atom_site_fract_y
_atom_site_fract_z
Si Si1 0.944960 0.145061 0.086092
Si Si2 0.932940 0.295873 0.434398
Si Si3 0.077804 0.247082 0.767535
Si Si4 0.374261 0.396641 0.579888
Si Si5 0.639155 0.716465 0.743267
Si Si6 0.153642 0.414146 0.934673
Si Si7 0.499761 0.348523 0.759983
Si Si8 0.609825 0.171111 0.297499
O O1 0.791715 0.430960 0.912729
O O2 0.069689 0.117994 0.972210
O O3 0.895381 0.291169 0.149861
O O4 0.990725 0.819763 0.242424
O O5 0.014935 0.371585 0.400794
O O6 0.790446 0.397563 0.518600
O O7 0.840052 0.579447 0.209282
O O8 0.000000 0.000000 0.500000
O O9 0.252711 0.025862 0.754223
O O10 0.371671 0.447912 0.684588
O O11 0.445542 0.503972 0.416759
O O12 0.498963 0.009616 0.726479
O O13 0.342423 0.104451 0.468174
O O14 0.561707 0.635777 0.773010
O O15 0.000000 0.500000 0.000000
O O16 0.333248 0.051610 0.091261
O O17 0.418109 0.552483 0.796678
#
# Coordination Sequence:
#
# PCOD9018051 Si02
#       8
#     2   2   2   2   2   2   2   2
#     4  11  26  47  69 101 144 191 233 295 352 423
#     4  12  27  46  71 102 138 184 241 300 357 424
#     4  11  26  48  65 102 143 185 234 287 362 418
#     4  10  21  43  68 101 141 179 234 291 350 412
#     4  10  21  43  70 100 141 182 235 284 352 419
#     4  12  25  46  71 101 139 186 241 289 356 412
#     4  10  23  40  73 103 138 184 233 290 347 422
#     4  10  23  42  70 106 138 188 230 286 349 429
#
# _framework density 27.180209000000001
#
# number of rings (size 3 to 8) (size 9 to 14) (size 15 to 20)
#    0.000    1.250    3.750    0.750    3.500    2.500 
#    4.500    0.000    0.000    0.000    0.000    0.000 
#    0.000    0.000    0.000    0.000    0.000    0.000 
#
# Total GULP energy -89476.139459 kJ/mol
# GULP energy per Si atom -5592.258716 kJ/mol
# Density = 2.711835 g / cm^3
# Si number density = 27.180209 Si / 1000 Ang^3
#
#
#
# Elastic Constant Matrix: (Units=GPa)
#
#
# Indices 1 2 3 4 5 6 
#
# 1 139.5295 36.6477 24.7880 -8.0305 -32.0588 13.9766
# 2 36.6477 147.1047 16.9794 -6.5960 -13.7236 18.1298
# 3 24.7880 16.9794 54.4819 4.4420 0.7169 4.0093
# 4 -8.0305 -6.5960 4.4420 55.0995 4.7343 -9.8533
# 5 -32.0588 -13.7236 0.7169 4.7343 44.9460 -6.7779
# 6 13.9766 18.1298 4.0093 -9.8533 -6.7779 59.3021
#
#
#
# Elastic Compliance Matrix: (Units=1/GPa)
#
#
# Indices 1 2 3 4 5 6 
#
# 1 0.009865 -0.001228 -0.004211 0.000934 0.006515 -0.000765
# 2 -0.001228 0.007649 -0.001753 0.000470 0.001179 -0.001718
# 3 -0.004211 -0.001753 0.021109 -0.002332 -0.003738 -0.000713
# 4 0.000934 0.000470 -0.002332 0.019108 -0.000731 0.002885
# 5 0.006515 0.001179 -0.003738 -0.000731 0.027602 0.001390
# 6 -0.000765 -0.001718 -0.000713 0.002885 0.001390 0.018255
#
#
# Mechanical properties :
#
#
# Convention : Reuss Voigt Hill
#
# Bulk Modulus (GPa) = 41.25500 55.32736 48.29118
# Shear Modulus (GPa) = 39.66680 49.38291 44.52486
#
# Velocity S-wave (km/s) = 3.82435 4.26710 4.05178
# Velocity P-wave (km/s) = 5.89171 6.68412 6.30038
#
# Compressibility (1/GPa) = 0.02423948
#
# Stress axis : x y z
#
# Youngs Moduli (GPa) = 101.37076 130.74007 47.37373
#
# Poissons Ratio (x) = 0.16049 0.19950
# Poissons Ratio (y) = 0.12444 0.08303
# Poissons Ratio (z) = 0.42689 0.22914
#
# Static dielectric constant tensor:
#      x y z
#    x 2.154580 0.030200 -0.010370 
#    y 0.030200 2.147100 0.006120 
#    z -0.010370 0.006120 2.191260 
# 
# From -- ./inp_files/446788.got.cif
#   From: 2010.05.17/outbox.cif.g08.bks.cpg/sg2_224_cif.got.tgz:446788.got - 2010.06.03 11:33:40.
