data_PCOD9018523
_publ_section_title
;
Structure prediction by ZEFSAII (Michael W. Deem and Ramdas Pophale) SiO2 
 PCOD9018523
Probable space group: P -1
;
_chemical_formula_sum "Si O2"
_cell_formula_units_Z 12
_cell_length_a 15.404156
_cell_length_b 10.557648
_cell_length_c 7.583797
_cell_angle_alpha 39.430780
_cell_angle_beta 59.379689
_cell_angle_gamma 38.470776
_cell_volume 472.933370
_symmetry_space_group_name_H-M "P -1"
_symmetry_group_IT_number 2
_symmetry_cell_setting 'triclinic'
loop_
_space_group_symop_operation_xyz
x,y,z
-x,-y,-z
loop_
_atom_site_type_symbol
_atom_site_label
_atom_site_fract_x
_atom_site_fract_y
_atom_site_fract_z
Si Si1 0.544469 0.140069 0.457042
Si Si2 0.104255 0.006481 0.099658
Si Si3 0.415426 0.458480 0.894765
Si Si4 0.838547 0.618107 0.875977
Si Si5 0.330778 0.434572 0.652718
Si Si6 0.885447 0.974870 0.326520
O O1 0.554673 0.352338 0.296226
O O2 0.418530 0.235130 0.609086
O O3 0.699027 0.824642 0.668734
O O4 0.496397 0.225008 0.214372
O O5 0.240840 0.758318 0.342076
O O6 0.142605 0.042250 0.830649
O O7 0.032201 0.890407 0.268092
O O8 0.980900 0.310940 0.987957
O O9 0.436955 0.352956 0.788334
O O10 0.242313 0.696083 0.842665
O O11 0.880916 0.791693 0.655486
O O12 0.774145 0.589701 0.138563
#
# Coordination Sequence:
#
# PCOD9018523 Si02
#       6
#     2   2   2   2   2   2
#     4  10  23  44  66  98 134 174 223 273 329 399
#     4  11  23  44  69  97 136 175 223 272 333 397
#     4  10  21  43  71  92 132 179 219 272 333 389
#     4  11  24  41  69 100 133 173 226 272 329 400
#     4  12  23  42  70 100 133 174 222 275 336 391
#     4  10  22  44  68  96 134 181 216 272 336 389
#
# _framework density 25.373552
#
# number of rings (size 3 to 8) (size 9 to 14) (size 15 to 20)
#    0.000    1.333    3.333    2.000    0.000    1.333 
#    3.000    1.667    0.000    0.000    0.000    0.000 
#    0.000    0.000    0.000    0.000    0.000    0.000 
#
# Total GULP energy -67211.609997 kJ/mol
# GULP energy per Si atom -5600.967500 kJ/mol
# Density = 2.531580 g / cm^3
# Si number density = 25.373552 Si / 1000 Ang^3
#
#
#
# Elastic Constant Matrix: (Units=GPa)
#
#
# Indices 1 2 3 4 5 6 
#
# 1 51.7052 22.4300 43.2412 3.6622 5.7871 12.5925
# 2 22.4300 112.2439 71.2468 -4.8006 1.2300 13.7096
# 3 43.2412 71.2468 171.8771 -17.3062 13.1029 20.4701
# 4 3.6622 -4.8006 -17.3062 48.0332 -2.7151 1.9541
# 5 5.7871 1.2300 13.1029 -2.7151 46.3894 3.2818
# 6 12.5925 13.7096 20.4701 1.9541 3.2818 27.2423
#
#
#
# Elastic Compliance Matrix: (Units=1/GPa)
#
#
# Indices 1 2 3 4 5 6 
#
# 1 0.026766 -0.000967 -0.005786 -0.004014 -0.001413 -0.007079
# 2 -0.000967 0.012364 -0.004720 -0.000222 0.001280 -0.002367
# 3 -0.005786 -0.004720 0.010016 0.003592 -0.001592 -0.002542
# 4 -0.004014 -0.000222 0.003592 0.022553 0.000987 -0.002468
# 5 -0.001413 0.001280 -0.001592 0.000987 0.022316 -0.001554
# 6 -0.007079 -0.002367 -0.002542 -0.002468 -0.001554 0.043445
#
#
# Mechanical properties :
#
#
# Convention : Reuss Voigt Hill
#
# Bulk Modulus (GPa) = 38.16955 67.74025 52.95490
# Shear Modulus (GPa) = 29.56130 37.59352 33.57741
#
# Velocity S-wave (km/s) = 3.41698 3.85333 3.64170
# Velocity P-wave (km/s) = 5.53564 6.82296 6.21273
#
# Compressibility (1/GPa) = 0.02619889
#
# Stress axis : x y z
#
# Youngs Moduli (GPa) = 37.36141 80.88014 99.83997
#
# Poissons Ratio (x) = 0.07825 0.57767
# Poissons Ratio (y) = 0.03615 0.47123
# Poissons Ratio (z) = 0.21617 0.38175
#
# Static dielectric constant tensor:
#      x y z
#    x 2.113440 -0.020060 -0.038220 
#    y -0.020060 1.920330 0.015460 
#    z -0.038220 0.015460 2.010290 
# 
# From -- ./inp_files/242266.got.cif
#   From: 2010.05.17/outbox.cif.g08.bks.cpg/sg2_122_cif.got.tgz:242266.got - 2010.06.03 11:33:40.
