data_PCOD9018699
_publ_section_title
;
Structure prediction by ZEFSAII (Michael W. Deem and Ramdas Pophale) SiO2 
 PCOD9018699
Probable space group: P -1
;
_chemical_formula_sum "Si O2"
_cell_formula_units_Z 16
_cell_length_a 5.067620
_cell_length_b 28.909005
_cell_length_c 7.022134
_cell_angle_alpha 43.257291
_cell_angle_beta 100.591531
_cell_angle_gamma 106.664072
_cell_volume 674.873237
_symmetry_space_group_name_H-M "P -1"
_symmetry_group_IT_number 2
_symmetry_cell_setting 'triclinic'
loop_
_space_group_symop_operation_xyz
x,y,z
-x,-y,-z
loop_
_atom_site_type_symbol
_atom_site_label
_atom_site_fract_x
_atom_site_fract_y
_atom_site_fract_z
Si Si1 0.611859 0.423015 0.586127
Si Si2 0.814627 0.581161 0.137438
Si Si3 0.392483 0.705989 0.273936
Si Si4 0.497257 0.080147 0.216566
Si Si5 0.395969 0.069470 0.802258
Si Si6 0.057631 0.286172 0.492174
Si Si7 0.155276 0.795331 0.672079
Si Si8 0.090756 0.126057 0.316732
O O1 0.659860 0.503379 0.292997
O O2 0.338100 0.402227 0.740585
O O3 0.611127 0.371104 0.568985
O O4 0.871330 0.418902 0.767342
O O5 0.814788 0.638507 0.807620
O O6 0.184165 0.708355 0.411483
O O7 0.687625 0.886665 0.766691
O O8 0.298239 0.745211 0.964782
O O9 0.117196 0.066551 0.654907
O O10 0.500000 0.000000 0.500000
O O11 0.387503 0.085371 0.975258
O O12 0.810914 0.118584 0.183725
O O13 0.625026 0.133038 0.553777
O O14 0.500000 0.000000 0.000000
O O15 0.950040 0.238203 0.441571
O O16 0.300139 0.262104 0.707873
O O17 0.912097 0.811365 0.724589
#
# Coordination Sequence:
#
# PCOD9018699 Si02
#       8
#     2   2   2   2   2   2   2   2
#     4  10  21  43  76 109 157 196 249 313 366 435
#     4  10  21  43  75 112 148 203 250 307 375 429
#     4  12  29  47  75 110 151 204 252 311 372 446
#     4  12  27  48  79 111 146 180 244 301 375 455
#     4  12  29  51  81 111 145 195 244 312 385 449
#     4  12  29  47  78 110 151 204 257 304 374 451
#     4  12  31  50  75 108 156 194 253 311 380 449
#     4  12  28  49  75 109 145 191 234 310 365 453
#
# _framework density 23.708155000000001
#
# number of rings (size 3 to 8) (size 9 to 14) (size 15 to 20)
#    0.000    0.500    3.750    1.875    7.000    2.000 
#    0.000    0.000    0.000    0.000    0.000    0.000 
#    0.000    0.000    0.000    0.000    0.000    0.000 
#
# Total GULP energy -89672.033887 kJ/mol
# GULP energy per Si atom -5604.502118 kJ/mol
# Density = 2.365419 g / cm^3
# Si number density = 23.708155 Si / 1000 Ang^3
#
#
#
# Elastic Constant Matrix: (Units=GPa)
#
#
# Indices 1 2 3 4 5 6 
#
# 1 137.3923 54.1923 23.5848 14.8999 -11.4940 -22.6103
# 2 54.1923 162.5615 55.7851 24.1928 -5.1010 -28.8797
# 3 23.5848 55.7851 93.6373 10.4055 -5.6391 -9.6644
# 4 14.8999 24.1928 10.4055 44.4700 0.8096 4.2020
# 5 -11.4940 -5.1010 -5.6391 0.8096 35.3892 6.8262
# 6 -22.6103 -28.8797 -9.6644 4.2020 6.8262 37.4220
#
#
#
# Elastic Compliance Matrix: (Units=1/GPa)
#
#
# Indices 1 2 3 4 5 6 
#
# 1 0.009125 -0.001766 -0.000456 -0.002398 0.001929 0.003950
# 2 -0.001766 0.009973 -0.004434 -0.004360 -0.000928 0.006143
# 3 -0.000456 -0.004434 0.013549 -0.000594 0.001462 -0.000398
# 4 -0.002398 -0.004360 -0.000594 0.026553 -0.000597 -0.007840
# 5 0.001929 -0.000928 0.001462 -0.000597 0.029875 -0.004555
# 6 0.003950 0.006143 -0.000398 -0.007840 -0.004555 0.035458
#
#
# Mechanical properties :
#
#
# Convention : Reuss Voigt Hill
#
# Bulk Modulus (GPa) = 51.72056 73.41284 62.56670
# Shear Modulus (GPa) = 34.65249 40.79152 37.72200
#
# Velocity S-wave (km/s) = 3.82727 4.15247 3.99318
# Velocity P-wave (km/s) = 6.43378 7.35005 6.90712
#
# Compressibility (1/GPa) = 0.01933467
#
# Stress axis : x y z
#
# Youngs Moduli (GPa) = 109.59084 100.27092 73.80699
#
# Poissons Ratio (x) = 0.17713 0.03363
# Poissons Ratio (y) = 0.19359 0.32726
# Poissons Ratio (z) = 0.04993 0.44460
#
# Static dielectric constant tensor:
#      x y z
#    x 1.909360 0.040770 -0.005310 
#    y 0.040770 1.890500 -0.042250 
#    z -0.005310 -0.042250 1.923900 
# 
# From -- ./inp_files/14946.got.cif
#   From: 2010.05.17/outbox.cif.g08.bks.cpg/sg2_8_cif.got.tgz:14946.got - 2010.06.03 11:33:40.
