data_PCOD9018988
_publ_section_title
;
Structure prediction by ZEFSAII (Michael W. Deem and Ramdas Pophale) SiO2 
 PCOD9018988
Probable space group: P -1
;
_chemical_formula_sum "Si O2"
_cell_formula_units_Z 16
_cell_length_a 9.031776
_cell_length_b 14.090105
_cell_length_c 16.623407
_cell_angle_alpha 146.571215
_cell_angle_beta 40.618396
_cell_angle_gamma 142.935425
_cell_volume 674.228917
_symmetry_space_group_name_H-M "P -1"
_symmetry_group_IT_number 2
_symmetry_cell_setting 'triclinic'
loop_
_space_group_symop_operation_xyz
x,y,z
-x,-y,-z
loop_
_atom_site_type_symbol
_atom_site_label
_atom_site_fract_x
_atom_site_fract_y
_atom_site_fract_z
Si Si1 0.328897 0.175775 0.568336
Si Si2 0.287401 0.728380 0.947373
Si Si3 0.516925 0.128770 0.208445
Si Si4 0.874484 0.764041 0.477738
Si Si5 0.694154 0.774060 0.064852
Si Si6 0.377257 0.422433 0.214633
Si Si7 0.868577 0.471212 0.845819
Si Si8 0.819400 0.188408 0.290148
O O1 0.206902 0.223100 0.572272
O O2 0.427342 0.351857 0.715070
O O3 0.589010 0.178214 0.431640
O O4 0.123012 0.967841 0.536803
O O5 0.341451 0.809808 0.891555
O O6 0.500086 0.659839 0.828707
O O7 0.011320 0.542346 0.922797
O O8 0.324271 0.899111 0.113990
O O9 0.352753 0.241311 0.377447
O O10 0.710995 0.161035 0.224329
O O11 0.952914 0.591047 0.326106
O O12 0.406918 0.715072 0.170776
O O13 0.862036 0.002521 0.162537
O O14 0.653169 0.700899 0.939079
O O15 0.804622 0.643130 0.968120
O O16 0.088679 0.376604 0.321356
#
# Coordination Sequence:
#
# PCOD9018988 Si02
#       8
#     2   2   2   2   2   2   2   2
#     4  10  22  41  66  97 125 166 216 264 317 374
#     4  11  24  41  65  99 128 162 221 267 305 377
#     4  10  24  41  67  95 129 171 208 265 321 372
#     4  10  21  44  67  90 130 168 211 265 319 375
#     4  11  25  42  67  95 130 172 205 262 327 376
#     4  12  24  40  66  98 127 168 217 261 316 379
#     4  11  24  45  65  95 131 166 215 260 316 387
#     4  11  22  44  65  92 134 171 207 260 327 379
#
# _framework density 23.730812
#
# number of rings (size 3 to 8) (size 9 to 14) (size 15 to 20)
#    0.000    1.250    3.750    1.500    5.250    1.000 
#    4.500    0.625    0.000    0.000    0.000    0.000 
#    0.000    0.000    0.000    0.000    0.000    0.000 
#
# Total GULP energy -89489.533895 kJ/mol
# GULP energy per Si atom -5593.095868 kJ/mol
# Density = 2.367680 g / cm^3
# Si number density = 23.730812 Si / 1000 Ang^3
#
#
#
# Elastic Constant Matrix: (Units=GPa)
#
#
# Indices 1 2 3 4 5 6 
#
# 1 61.0736 25.9282 9.9709 0.0036 -16.5756 23.0627
# 2 25.9282 57.1569 25.2090 8.4931 -5.1581 34.3161
# 3 9.9709 25.2090 97.0597 9.2592 -17.9877 16.4672
# 4 0.0036 8.4931 9.2592 37.5660 9.4119 5.8199
# 5 -16.5756 -5.1581 -17.9877 9.4119 22.9320 -2.6960
# 6 23.0627 34.3161 16.4672 5.8199 -2.6960 36.1218
#
#
#
# Elastic Compliance Matrix: (Units=1/GPa)
#
#
# Indices 1 2 3 4 5 6 
#
# 1 0.029612 -0.003853 0.005580 -0.004395 0.024929 -0.015222
# 2 -0.003853 0.043503 -0.004286 -0.003336 0.000738 -0.036322
# 3 0.005580 -0.004286 0.015380 -0.006517 0.017319 -0.004160
# 4 -0.004395 -0.003336 -0.006517 0.034483 -0.022995 0.001675
# 5 0.024929 0.000738 0.017319 -0.022995 0.083098 -0.014606
# 6 -0.015222 -0.036322 -0.004160 0.001675 -0.014606 0.072446
#
#
# Mechanical properties :
#
#
# Convention : Reuss Voigt Hill
#
# Bulk Modulus (GPa) = 11.99332 37.50071 24.74702
# Shear Modulus (GPa) = 16.05488 29.60274 22.82881
#
# Velocity S-wave (km/s) = 2.60386 3.53574 3.10496
# Velocity P-wave (km/s) = 3.75566 5.70136 4.82755
#
# Compressibility (1/GPa) = 0.08337973
#
# Stress axis : x y z
#
# Youngs Moduli (GPa) = 33.76959 22.98678 65.01931
#
# Poissons Ratio (x) = 0.08856 -0.36283
# Poissons Ratio (y) = 0.13010 0.27865
# Poissons Ratio (z) = -0.18845 0.09851
#
# Static dielectric constant tensor:
#      x y z
#    x 1.904090 0.005890 -0.017990 
#    y 0.005890 1.966110 -0.005920 
#    z -0.017990 -0.005920 1.898060 
# 
# From -- ./inp_files/189373.got.cif
#   From: 2010.05.17/outbox.cif.g08.bks.cpg/sg2_95_cif.got.tgz:189373.got - 2010.06.03 11:33:40.
