data_PCOD9018978
_publ_section_title
;
Structure prediction by ZEFSAII (Michael W. Deem and Ramdas Pophale) SiO2 
 PCOD9018978
Probable space group: P -1
;
_chemical_formula_sum "Si O2"
_cell_formula_units_Z 13
_cell_length_a 9.853272
_cell_length_b 8.920673
_cell_length_c 7.707894
_cell_angle_alpha 75.646119
_cell_angle_beta 75.958685
_cell_angle_gamma 45.481850
_cell_volume 465.674146
_symmetry_space_group_name_H-M "P -1"
_symmetry_group_IT_number 2
_symmetry_cell_setting 'triclinic'
loop_
_space_group_symop_operation_xyz
x,y,z
-x,-y,-z
loop_
_atom_site_type_symbol
_atom_site_label
_atom_site_fract_x
_atom_site_fract_y
_atom_site_fract_z
Si Si1 0.435175 0.884622 0.410448
Si Si2 0.645795 0.955200 0.107949
Si Si3 0.919796 0.630954 0.662743
Si Si4 0.868996 0.265046 0.283502
Si Si5 0.000000 0.500000 0.000000
Si Si6 0.527328 0.347528 0.199575
Si Si7 0.762996 0.215211 0.710912
O O1 0.587417 0.898950 0.310942
O O2 0.498096 0.743168 0.597951
O O3 0.397566 0.784488 0.304680
O O4 0.228464 0.124385 0.412743
O O5 0.855474 0.746829 0.051353
O O6 0.610113 0.162387 0.091385
O O7 0.500000 0.000000 0.000000
O O8 0.000000 0.500000 0.500000
O O9 0.077579 0.591415 0.763572
O O10 0.841993 0.582616 0.852613
O O11 0.691284 0.344634 0.205875
O O12 0.823994 0.259633 0.501179
O O13 0.048105 0.025576 0.236064
O O14 0.333717 0.592979 0.182053
#
# Coordination Sequence:
#
# PCOD9018978 Si02
#       7
#     2   2   2   2   1   2   2
#     4  10  21  44  67 103 136 174 232 290 337 417
#     4  12  27  46  65  96 144 177 233 293 344 415
#     4  11  24  43  76 105 138 190 230 286 354 406
#     4   9  20  39  66 102 144 168 233 290 334 420
#     4  12  28  46  70 102 144 184 236 286 356 408
#     4  11  23  41  73 104 126 187 235 276 357 416
#     4   9  20  37  68 101 136 171 225 286 345 406
#
# _framework density 27.916518
#
# number of rings (size 3 to 8) (size 9 to 14) (size 15 to 20)
#    0.000    1.538    1.538    4.154    6.462    1.231 
#    0.000    1.538    6.769    0.000    0.000    0.000 
#    0.000    0.000    0.000    0.000    0.000    0.000 
#
# Total GULP energy -72709.865879 kJ/mol
# GULP energy per Si atom -5593.066606 kJ/mol
# Density = 2.785298 g / cm^3
# Si number density = 27.916518 Si / 1000 Ang^3
#
#
#
# Elastic Constant Matrix: (Units=GPa)
#
#
# Indices 1 2 3 4 5 6 
#
# 1 97.8022 58.1179 34.0054 25.8533 -10.0552 32.1732
# 2 58.1179 282.4388 81.2552 53.3181 8.1014 17.0048
# 3 34.0054 81.2552 138.9505 -0.5669 11.9690 11.8921
# 4 25.8533 53.3181 -0.5669 67.5922 10.2200 3.9483
# 5 -10.0552 8.1014 11.9690 10.2200 33.8350 -1.7508
# 6 32.1732 17.0048 11.8921 3.9483 -1.7508 37.5411
#
#
#
# Elastic Compliance Matrix: (Units=1/GPa)
#
#
# Indices 1 2 3 4 5 6 
#
# 1 0.019539 -0.000965 -0.003819 -0.007271 0.008865 -0.013920
# 2 -0.000965 0.005319 -0.002929 -0.003938 0.000654 -0.000210
# 3 -0.003819 -0.002929 0.010280 0.004645 -0.005442 0.000601
# 4 -0.007271 -0.003938 0.004645 0.021901 -0.009280 0.003807
# 5 0.008865 0.000654 -0.005442 -0.009280 0.036581 -0.003488
# 6 -0.013920 -0.000210 0.000601 0.003807 -0.003488 0.037908
#
#
# Mechanical properties :
#
#
# Convention : Reuss Voigt Hill
#
# Bulk Modulus (GPa) = 50.73072 96.21648 73.47360
# Shear Modulus (GPa) = 32.56779 50.84787 41.70783
#
# Velocity S-wave (km/s) = 3.41928 4.27245 3.86945
# Velocity P-wave (km/s) = 5.81381 7.67327 6.80733
#
# Compressibility (1/GPa) = 0.01971192
#
# Stress axis : x y z
#
# Youngs Moduli (GPa) = 51.18004 188.00587 97.27251
#
# Poissons Ratio (x) = 0.18150 0.37150
# Poissons Ratio (y) = 0.04941 0.28488
# Poissons Ratio (z) = 0.19546 0.55060
#
# Static dielectric constant tensor:
#      x y z
#    x 2.789750 0.334500 -1.183380 
#    y 0.334500 2.295950 -0.773450 
#    z -1.183380 -0.773450 4.725520 
# 
# From -- ./inp_files/238279.got.cif
#   From: 2010.05.17/outbox.cif.g08.bks.cpg/sg2_120_cif.got.tgz:238279.got - 2010.06.03 11:33:40.
