data_PCOD9018719
_publ_section_title
;
Structure prediction by ZEFSAII (Michael W. Deem and Ramdas Pophale) SiO2 
 PCOD9018719
Probable space group: P -1
;
_chemical_formula_sum "Si O2"
_cell_formula_units_Z 16
_cell_length_a 24.751076
_cell_length_b 8.714557
_cell_length_c 8.459793
_cell_angle_alpha 48.625512
_cell_angle_beta 50.091701
_cell_angle_gamma 30.742726
_cell_volume 687.000345
_symmetry_space_group_name_H-M "P -1"
_symmetry_group_IT_number 2
_symmetry_cell_setting 'triclinic'
loop_
_space_group_symop_operation_xyz
x,y,z
-x,-y,-z
loop_
_atom_site_type_symbol
_atom_site_label
_atom_site_fract_x
_atom_site_fract_y
_atom_site_fract_z
Si Si1 0.870300 0.456050 0.609758
Si Si2 0.267866 0.853341 0.556442
Si Si3 0.097510 0.628224 0.059591
Si Si4 0.900877 0.851208 0.569365
Si Si5 0.621037 0.424646 0.139476
Si Si6 0.253973 0.586446 0.322802
Si Si7 0.420066 0.767606 0.100924
Si Si8 0.710829 0.810932 0.221935
O O1 0.836522 0.458855 0.846937
O O2 0.835595 0.365741 0.613111
O O3 0.995954 0.237112 0.528748
O O4 0.799934 0.811018 0.469880
O O5 0.343579 0.616664 0.718246
O O6 0.341272 0.778555 0.326255
O O7 0.170848 0.941164 0.594080
O O8 0.066236 0.459636 0.273061
O O9 0.164834 0.471291 0.878559
O O10 0.000000 0.000000 0.000000
O O11 0.812699 0.076583 0.716701
O O12 0.494599 0.687345 0.156911
O O13 0.673998 0.096519 0.191653
O O14 0.665759 0.511236 0.892245
O O15 0.310325 0.335768 0.526755
O O16 0.500000 0.500000 0.000000
O O17 0.351606 0.063407 0.913423
#
# Coordination Sequence:
#
# PCOD9018719 Si02
#       8
#     2   2   2   2   2   2   2   2
#     4  11  24  41  67 103 145 185 245 286 347 429
#     4  11  21  46  73 100 146 179 236 302 346 424
#     4  11  22  42  70 101 139 188 237 290 354 424
#     4  11  23  44  71 103 144 193 236 283 364 421
#     4  11  24  44  72 105 139 191 238 295 357 407
#     4  12  25  44  68 104 151 187 238 292 347 422
#     4  10  21  43  77 103 137 187 239 294 361 415
#     4  11  22  44  70 100 147 184 235 302 348 418
#
# _framework density 23.289653000000001
#
# number of rings (size 3 to 8) (size 9 to 14) (size 15 to 20)
#    0.000    1.000    5.000    3.750    0.000    3.500 
#    0.000    2.500    0.000    0.000    0.000    0.000 
#    0.000    0.000    0.000    0.000    0.000    0.000 
#
# Total GULP energy -89322.660432 kJ/mol
# GULP energy per Si atom -5582.666277 kJ/mol
# Density = 2.323664 g / cm^3
# Si number density = 23.289653 Si / 1000 Ang^3
#
#
#
# Elastic Constant Matrix: (Units=GPa)
#
#
# Indices 1 2 3 4 5 6 
#
# 1 81.3532 39.8584 15.5654 -0.2284 2.9520 -25.8829
# 2 39.8584 64.4865 33.0302 0.6159 -4.5859 -16.0585
# 3 15.5654 33.0302 116.4277 -5.9900 10.4770 -24.4328
# 4 -0.2284 0.6159 -5.9900 34.2147 -5.0409 -3.6970
# 5 2.9520 -4.5859 10.4770 -5.0409 30.3965 -3.7333
# 6 -25.8829 -16.0585 -24.4328 -3.6970 -3.7333 41.5115
#
#
#
# Elastic Compliance Matrix: (Units=1/GPa)
#
#
# Indices 1 2 3 4 5 6 
#
# 1 0.021113 -0.012463 0.003219 0.001491 -0.003559 0.010051
# 2 -0.012463 0.027090 -0.006884 -0.000758 0.007454 -0.000741
# 3 0.003219 -0.006884 0.011911 0.002260 -0.004325 0.006167
# 4 0.001491 -0.000758 0.002260 0.030897 0.004717 0.005142
# 5 -0.003559 0.007454 -0.004325 0.004717 0.036869 0.001855
# 6 0.010051 -0.000741 0.006167 0.005142 0.001855 0.034325
#
#
# Mechanical properties :
#
#
# Convention : Reuss Voigt Hill
#
# Bulk Modulus (GPa) = 35.89675 48.79726 42.34701
# Shear Modulus (GPa) = 24.54014 32.81209 28.67612
#
# Velocity S-wave (km/s) = 3.24958 3.75756 3.51277
# Velocity P-wave (km/s) = 5.43382 6.31059 5.88854
#
# Compressibility (1/GPa) = 0.02785767
#
# Stress axis : x y z
#
# Youngs Moduli (GPa) = 47.36316 36.91465 83.95399
#
# Poissons Ratio (x) = 0.46008 -0.27027
# Poissons Ratio (y) = 0.59031 0.57795
# Poissons Ratio (z) = -0.15247 0.25412
#
# Static dielectric constant tensor:
#      x y z
#    x 1.892740 -0.013200 0.004440 
#    y -0.013200 1.933180 -0.030880 
#    z 0.004440 -0.030880 1.923340 
# 
# From -- ./inp_files/352026.got.cif
#   From: 2010.05.17/outbox.cif.g08.bks.cpg/sg2_177_cif.got.tgz:352026.got - 2010.06.03 11:33:40.
