data_PCOD9018021
_publ_section_title
;
Structure prediction by ZEFSAII (Michael W. Deem and Ramdas Pophale) SiO2 
 PCOD9018021
Probable space group: P -1
;
_chemical_formula_sum "Si O2"
_cell_formula_units_Z 12
_cell_length_a 16.821157
_cell_length_b 11.084540
_cell_length_c 9.675596
_cell_angle_alpha 39.357390
_cell_angle_beta 41.440957
_cell_angle_gamma 23.070772
_cell_volume 442.969780
_symmetry_space_group_name_H-M "P -1"
_symmetry_group_IT_number 2
_symmetry_cell_setting 'triclinic'
loop_
_space_group_symop_operation_xyz
x,y,z
-x,-y,-z
loop_
_atom_site_type_symbol
_atom_site_label
_atom_site_fract_x
_atom_site_fract_y
_atom_site_fract_z
Si Si1 0.907036 0.153167 0.135237
Si Si2 0.251894 0.015573 0.851111
Si Si3 0.187760 0.136659 0.519221
Si Si4 0.864318 0.449565 0.330850
Si Si5 0.572239 0.688887 0.277708
Si Si6 0.710911 0.233513 0.724834
O O1 0.678300 0.520673 0.141963
O O2 0.893248 0.948466 0.374794
O O3 0.056055 0.126912 0.018151
O O4 0.000000 0.000000 0.000000
O O5 0.310905 0.938862 0.679827
O O6 0.193201 0.304288 0.713781
O O7 0.389814 0.753181 0.029073
O O8 0.000000 0.500000 0.500000
O O9 0.338695 0.041200 0.298266
O O10 0.715800 0.647533 0.214447
O O11 0.804998 0.315304 0.583923
O O12 0.097235 0.138504 0.250141
O O13 0.598372 0.456661 0.537001
#
# Coordination Sequence:
#
# PCOD9018021 Si02
#       6
#     2   2   2   2   2   2
#     4  10  22  43  66  92 136 178 220 268 315 408
#     4  11  21  40  67 100 134 164 227 261 347 388
#     4  11  27  41  64  93 139 189 217 270 310 397
#     4   9  19  36  69 103 127 169 201 296 338 382
#     4  10  21  43  67  99 132 172 224 267 343 382
#     4   9  19  36  69 100 127 166 207 288 334 387
#
# _framework density 27.089884999999999
#
# number of rings (size 3 to 8) (size 9 to 14) (size 15 to 20)
#    1.000    1.000    1.667    1.000    4.667    1.333 
#    0.000    8.333    0.000    0.000    0.000    0.000 
#    0.000    0.000    0.000    0.000    0.000    0.000 
#
# Total GULP energy -66978.633979 kJ/mol
# GULP energy per Si atom -5581.552832 kJ/mol
# Density = 2.702823 g / cm^3
# Si number density = 27.089885 Si / 1000 Ang^3
#
#
#
# Elastic Constant Matrix: (Units=GPa)
#
#
# Indices 1 2 3 4 5 6 
#
# 1 123.7324 37.0303 23.8911 2.3509 -8.0865 34.4593
# 2 37.0303 161.7988 49.0003 25.2547 0.2659 27.9897
# 3 23.8911 49.0003 99.4032 -4.1872 14.4016 19.8876
# 4 2.3509 25.2547 -4.1872 47.6609 9.8792 5.4124
# 5 -8.0865 0.2659 14.4016 9.8792 49.6064 -1.6708
# 6 34.4593 27.9897 19.8876 5.4124 -1.6708 42.4202
#
#
#
# Elastic Compliance Matrix: (Units=1/GPa)
#
#
# Indices 1 2 3 4 5 6 
#
# 1 0.010777 -0.000962 -0.000785 0.000449 0.001640 -0.007744
# 2 -0.000962 0.008877 -0.004167 -0.005156 0.001952 -0.002388
# 3 -0.000785 -0.004167 0.014107 0.005058 -0.005346 -0.004082
# 4 0.000449 -0.005156 0.005058 0.025834 -0.006610 -0.002890
# 5 0.001640 0.001952 -0.005346 -0.006610 0.023340 0.001649
# 6 -0.007744 -0.002388 -0.004082 -0.002890 0.001649 0.033788
#
#
# Mechanical properties :
#
#
# Convention : Reuss Voigt Hill
#
# Bulk Modulus (GPa) = 45.59316 67.19752 56.39534
# Shear Modulus (GPa) = 36.80205 46.27168 41.53686
#
# Velocity S-wave (km/s) = 3.68980 4.13738 3.91998
# Velocity P-wave (km/s) = 5.91775 6.90529 6.43051
#
# Compressibility (1/GPa) = 0.02193312
#
# Stress axis : x y z
#
# Youngs Moduli (GPa) = 92.79181 112.64764 70.88540
#
# Poissons Ratio (x) = 0.10832 0.05567
# Poissons Ratio (y) = 0.08923 0.29539
# Poissons Ratio (z) = 0.07288 0.46941
#
# Static dielectric constant tensor:
#      x y z
#    x 2.265120 -0.141030 0.112800 
#    y -0.141030 2.188270 0.029510 
#    z 0.112800 0.029510 2.313510 
# 
# From -- ./inp_files/470277.got.cif
#   From: 2010.05.17/outbox.cif.g08.bks.cpg/sg2_236_cif.got.tgz:470277.got - 2010.06.03 11:33:40.
