data_PCOD9018166
_publ_section_title
;
Structure prediction by ZEFSAII (Michael W. Deem and Ramdas Pophale) SiO2 
 PCOD9018166
Probable space group: P -1
;
_chemical_formula_sum "Si O2"
_cell_formula_units_Z 16
_cell_length_a 6.898490
_cell_length_b 14.607325
_cell_length_c 23.116709
_cell_angle_alpha 17.685686
_cell_angle_beta 89.342652
_cell_angle_gamma 89.420632
_cell_volume 707.621911
_symmetry_space_group_name_H-M "P -1"
_symmetry_group_IT_number 2
_symmetry_cell_setting 'triclinic'
loop_
_space_group_symop_operation_xyz
x,y,z
-x,-y,-z
loop_
_atom_site_type_symbol
_atom_site_label
_atom_site_fract_x
_atom_site_fract_y
_atom_site_fract_z
Si Si1 0.501786 0.486830 0.438361
Si Si2 0.749776 0.667748 0.167247
Si Si3 0.643690 0.083390 0.012101
Si Si4 0.777009 0.328698 0.980447
Si Si5 0.900147 0.277498 0.299930
Si Si6 0.553728 0.274040 0.219473
Si Si7 0.806430 0.006387 0.288391
Si Si8 0.209884 0.852841 0.431436
O O1 0.500000 0.500000 0.500000
O O2 0.315904 0.304560 0.524087
O O3 0.686251 0.285807 0.541548
O O4 0.533051 0.800655 0.214552
O O5 0.837982 0.555288 0.174500
O O6 0.825146 0.417605 0.361521
O O7 0.763066 0.972611 0.022326
O O8 0.517181 0.677192 0.151369
O O9 0.770205 0.214105 0.984220
O O10 0.558676 0.429636 0.937601
O O11 0.936471 0.590895 0.822284
O O12 0.836532 0.088360 0.172393
O O13 0.707137 0.179087 0.325297
O O14 0.000000 0.000000 0.500000
O O15 0.677978 0.262979 0.166603
O O16 0.375059 0.051688 0.341752
O O17 0.008814 0.988982 0.330516
#
# Coordination Sequence:
#
# PCOD9018166 Si02
#       8
#     2   2   2   2   2   2   2   2
#     4  10  21  43  68  97 134 174 221 277 343 395
#     4  10  22  46  66  97 136 176 226 276 334 396
#     4  10  22  44  70  99 133 183 220 274 340 401
#     4  12  25  42  69 101 135 179 226 273 339 405
#     4  12  27  43  70 103 134 179 230 279 336 400
#     4  11  24  44  67  97 136 178 222 282 341 394
#     4  11  24  44  69 100 136 174 226 279 337 409
#     4  10  24  43  68  99 134 181 223 278 340 396
#
# _framework density 22.610944
#
# number of rings (size 3 to 8) (size 9 to 14) (size 15 to 20)
#    0.000    1.250    2.500    2.625    1.750    7.000 
#    9.000    0.000    0.000    0.000    0.000    0.000 
#    0.000    0.000    0.000    0.000    0.000    0.000 
#
# Total GULP energy -89307.792925 kJ/mol
# GULP energy per Si atom -5581.737058 kJ/mol
# Density = 2.255948 g / cm^3
# Si number density = 22.610944 Si / 1000 Ang^3
#
#
#
# Elastic Constant Matrix: (Units=GPa)
#
#
# Indices 1 2 3 4 5 6 
#
# 1 133.1952 28.2587 11.5905 -9.1849 21.3913 23.3563
# 2 28.2587 94.9468 -53.2429 -35.8481 28.5324 14.6758
# 3 11.5905 -53.2429 -8.8505 -16.9925 22.6656 24.2849
# 4 -9.1849 -35.8481 -16.9925 9.8082 10.9714 8.1904
# 5 21.3913 28.5324 22.6656 10.9714 23.7224 -2.0408
# 6 23.3563 14.6758 24.2849 8.1904 -2.0408 40.9369
#
#
#
# Elastic Compliance Matrix: (Units=1/GPa)
#
#
# Indices 1 2 3 4 5 6 
#
# 1 0.009874 -0.001907 -0.004013 0.003514 -0.004703 -0.003507
# 2 -0.001907 0.004810 -0.006426 -0.002637 0.003627 0.003884
# 3 -0.004013 -0.006426 0.011136 -0.025155 0.012655 0.003651
# 4 0.003514 -0.002637 -0.025155 0.040338 0.005905 0.006087
# 5 -0.004703 0.003627 0.012655 0.005905 0.026696 -0.005975
# 6 -0.003507 0.003884 0.003651 0.006087 -0.005975 0.021355
#
#
# Mechanical properties :
#
#
# Convention : Reuss Voigt Hill
#
# Bulk Modulus (GPa) = 885.38959 21.38934 453.38946
# Shear Modulus (GPa) = 35.89945 30.40585 33.15265
#
# Velocity S-wave (km/s) = 3.98892 3.67105 3.83328
# Velocity P-wave (km/s) = 20.33817 5.23919 14.85076
#
# Compressibility (1/GPa) = 0.00112945
#
# Stress axis : x y z
#
# Youngs Moduli (GPa) = 101.27372 207.88609 89.79734
#
# Poissons Ratio (x) = 0.39641 0.36036
# Poissons Ratio (y) = 0.19311 0.57701
# Poissons Ratio (z) = 0.40642 1.33582
#
# Static dielectric constant tensor:
#      x y z
#    x 1.813810 -0.026310 -0.011640 
#    y -0.026310 1.904670 -0.065160 
#    z -0.011640 -0.065160 1.852790 
# 
# From -- ./inp_files/124310.got.cif
#   From: 2010.05.17/outbox.cif.g08.bks.cpg/sg2_63_cif.got.tgz:124310.got - 2010.06.03 11:33:40.
