data_PCOD9018038
_publ_section_title
;
Structure prediction by ZEFSAII (Michael W. Deem and Ramdas Pophale) SiO2 
 PCOD9018038
Probable space group: P -1
;
_chemical_formula_sum "Si O2"
_cell_formula_units_Z 14
_cell_length_a 6.655309
_cell_length_b 15.871648
_cell_length_c 26.185061
_cell_angle_alpha 16.792600
_cell_angle_beta 119.910781
_cell_angle_gamma 111.194630
_cell_volume 614.091718
_symmetry_space_group_name_H-M "P -1"
_symmetry_group_IT_number 2
_symmetry_cell_setting 'triclinic'
loop_
_space_group_symop_operation_xyz
x,y,z
-x,-y,-z
loop_
_atom_site_type_symbol
_atom_site_label
_atom_site_fract_x
_atom_site_fract_y
_atom_site_fract_z
Si Si1 0.814804 0.815946 0.725005
Si Si2 0.286806 0.748641 0.965757
Si Si3 0.212762 0.837038 0.578036
Si Si4 0.306906 0.228554 0.768436
Si Si5 0.546176 0.688225 0.526888
Si Si6 0.879230 0.683274 0.192584
Si Si7 0.669793 0.143736 0.204361
O O1 0.891023 0.431144 0.965239
O O2 0.041486 0.897040 0.726261
O O3 0.771970 0.897880 0.611739
O O4 0.562801 0.065918 0.581025
O O5 0.528651 0.438163 0.202968
O O6 0.372581 0.845735 0.867558
O O7 0.201502 0.055913 0.814557
O O8 0.122875 0.639416 0.642720
O O9 0.000000 0.000000 0.500000
O O10 0.344020 0.543318 0.573695
O O11 0.145773 0.298514 0.759908
O O12 0.604926 0.963693 0.973942
O O13 0.834154 0.379630 0.752374
O O14 0.595712 0.889519 0.371158
O O15 0.500000 0.500000 0.000000
#
# Coordination Sequence:
#
# PCOD9018038 Si02
#       7
#     2   2   2   2   2   2   2
#     4  12  24  46  73  97 137 180 227 285 342 398
#     4  11  25  42  66 105 137 171 229 286 332 398
#     4  11  21  42  70 104 133 168 235 288 331 395
#     4  10  23  44  65 101 142 178 225 278 340 402
#     4  12  22  43  74  94 135 188 226 267 343 409
#     4  10  21  43  68 100 138 182 223 276 344 404
#     4  12  25  45  70 101 136 182 228 276 344 408
#
# _framework density 22.797898
#
# number of rings (size 3 to 8) (size 9 to 14) (size 15 to 20)
#    0.000    0.857    4.286    3.000    0.000    0.571 
#    7.714    2.857    0.000    0.000    0.000    0.000 
#    0.000    0.000    0.000    0.000    0.000    0.000 
#
# Total GULP energy -78203.605114 kJ/mol
# GULP energy per Si atom -5585.971794 kJ/mol
# Density = 2.274601 g / cm^3
# Si number density = 22.797898 Si / 1000 Ang^3
#
#
#
# Elastic Constant Matrix: (Units=GPa)
#
#
# Indices 1 2 3 4 5 6 
#
# 1 95.7998 44.6811 34.4645 -12.2252 -6.7189 -13.8076
# 2 44.6811 133.5295 37.4545 -24.4172 -13.7176 -29.3360
# 3 34.4645 37.4545 61.0490 -14.9077 -10.6467 -14.9875
# 4 -12.2252 -24.4172 -14.9077 47.2579 -2.2206 -6.0001
# 5 -6.7189 -13.7176 -10.6467 -2.2206 44.3246 -0.2213
# 6 -13.8076 -29.3360 -14.9875 -6.0001 -0.2213 40.4004
#
#
#
# Elastic Compliance Matrix: (Units=1/GPa)
#
#
# Indices 1 2 3 4 5 6 
#
# 1 0.014032 -0.002853 -0.005986 0.000330 -0.000174 0.000552
# 2 -0.002853 0.012208 -0.001793 0.006194 0.003266 0.008162
# 3 -0.005986 -0.001793 0.025009 0.006524 0.004906 0.006925
# 4 0.000330 0.006194 0.006524 0.028166 0.005001 0.011241
# 5 -0.000174 0.003266 0.004906 0.005001 0.024999 0.005012
# 6 0.000552 0.008162 0.006925 0.011241 0.005012 0.035133
#
#
# Mechanical properties :
#
#
# Convention : Reuss Voigt Hill
#
# Bulk Modulus (GPa) = 33.35102 58.17538 45.76320
# Shear Modulus (GPa) = 29.27316 37.98181 33.62749
#
# Velocity S-wave (km/s) = 3.58722 4.08612 3.84477
# Velocity P-wave (km/s) = 5.64077 6.91629 6.31084
#
# Compressibility (1/GPa) = 0.02998409
#
# Stress axis : x y z
#
# Youngs Moduli (GPa) = 71.26730 81.91473 39.98626
#
# Poissons Ratio (x) = 0.23368 0.23935
# Poissons Ratio (y) = 0.20331 0.07172
# Poissons Ratio (z) = 0.42659 0.14691
#
# Static dielectric constant tensor:
#      x y z
#    x 1.895900 0.091460 0.019270 
#    y 0.091460 1.817200 -0.034770 
#    z 0.019270 -0.034770 1.840530 
# 
# From -- ./inp_files/101263.got.cif
#   From: 2010.05.17/outbox.cif.g08.bks.cpg/sg2_51_cif.got.tgz:101263.got - 2010.06.03 11:33:40.
