data_PCOD9018348
_publ_section_title
;
Structure prediction by ZEFSAII (Michael W. Deem and Ramdas Pophale) SiO2 
 PCOD9018348
Probable space group: P -1
;
_chemical_formula_sum "Si O2"
_cell_formula_units_Z 16
_cell_length_a 7.718058
_cell_length_b 5.708621
_cell_length_c 22.715521
_cell_angle_alpha 84.733115
_cell_angle_beta 54.371154
_cell_angle_gamma 116.341000
_cell_volume 639.199203
_symmetry_space_group_name_H-M "P -1"
_symmetry_group_IT_number 2
_symmetry_cell_setting 'triclinic'
loop_
_space_group_symop_operation_xyz
x,y,z
-x,-y,-z
loop_
_atom_site_type_symbol
_atom_site_label
_atom_site_fract_x
_atom_site_fract_y
_atom_site_fract_z
Si Si1 0.144749 0.793454 0.305296
Si Si2 0.643511 0.211375 0.371375
Si Si3 0.522119 0.703105 0.177720
Si Si4 0.697063 0.843583 0.930267
Si Si5 0.016674 0.125424 0.234117
Si Si6 0.954820 0.234855 0.477174
Si Si7 0.605031 0.671515 0.682088
Si Si8 0.223336 0.827188 0.974673
O O1 0.882923 0.451421 0.361347
O O2 0.421928 0.856472 0.231536
O O3 0.077870 0.941520 0.265597
O O4 0.202785 0.978556 0.347880
O O5 0.749009 0.066264 0.313828
O O6 0.585952 0.378108 0.331314
O O7 0.365627 0.980180 0.465682
O O8 0.545849 0.510066 0.224513
O O9 0.263510 0.467133 0.193500
O O10 0.747173 0.941440 0.083237
O O11 0.503791 0.869922 0.925598
O O12 0.941712 0.904545 0.841724
O O13 0.500000 0.500000 0.000000
O O14 0.802616 0.076485 0.957494
O O15 0.189799 0.390851 0.378045
O O16 0.000000 0.500000 0.500000
O O17 0.000000 0.000000 0.500000
O O18 0.000000 0.500000 0.000000
#
# Coordination Sequence:
#
# PCOD9018348 Si02
#       8
#     2   2   2   2   2   2   2   2
#     4  10  22  43  66 101 139 181 229 295 347 427
#     4  10  24  43  72 103 139 184 244 286 357 435
#     4  10  21  44  68  98 145 175 233 300 351 427
#     4  11  23  47  72  93 139 183 226 296 364 416
#     4  10  21  43  70 100 136 185 233 292 352 427
#     4  10  24  45  71 107 150 187 244 311 357 435
#     4  10  24  44  72 101 138 192 231 293 367 416
#     4  11  25  46  68 106 137 179 240 294 362 439
#
# _framework density 25.031320999999998
#
# number of rings (size 3 to 8) (size 9 to 14) (size 15 to 20)
#    0.000    1.750    2.500    0.000    7.000    1.000 
#    6.750    6.875    0.000    0.000    0.000    0.000 
#    0.000    0.000    0.000    0.000    0.000    0.000 
#
# Total GULP energy -89497.605508 kJ/mol
# GULP energy per Si atom -5593.600344 kJ/mol
# Density = 2.497435 g / cm^3
# Si number density = 25.031321 Si / 1000 Ang^3
#
#
#
# Elastic Constant Matrix: (Units=GPa)
#
#
# Indices 1 2 3 4 5 6 
#
# 1 119.5435 27.6037 24.6319 -7.0906 3.5024 0.7243
# 2 27.6037 134.4316 29.0192 16.6472 -4.4145 21.4228
# 3 24.6319 29.0192 88.9750 3.4215 -2.9474 0.0975
# 4 -7.0906 16.6472 3.4215 44.4397 -10.0396 -0.1504
# 5 3.5024 -4.4145 -2.9474 -10.0396 39.9884 -0.4296
# 6 0.7243 21.4228 0.0975 -0.1504 -0.4296 44.5652
#
#
#
# Elastic Compliance Matrix: (Units=1/GPa)
#
#
# Indices 1 2 3 4 5 6 
#
# 1 0.009378 -0.001893 -0.002086 0.002230 -0.000616 0.000764
# 2 -0.001893 0.009540 -0.002438 -0.003689 0.000064 -0.004562
# 3 -0.002086 -0.002438 0.012645 -0.000207 0.000806 0.001185
# 4 0.002230 -0.003689 -0.000207 0.025578 0.005824 0.001880
# 5 -0.000616 0.000064 0.000806 0.005824 0.026593 0.000253
# 6 0.000764 -0.004562 0.001185 0.001880 0.000253 0.024626
#
#
# Mechanical properties :
#
#
# Convention : Reuss Voigt Hill
#
# Bulk Modulus (GPa) = 53.39585 56.16218 54.77902
# Shear Modulus (GPa) = 39.23539 43.24502 41.24021
#
# Velocity S-wave (km/s) = 3.96340 4.16099 4.06340
# Velocity P-wave (km/s) = 6.50559 6.75060 6.62923
#
# Compressibility (1/GPa) = 0.01872805
#
# Stress axis : x y z
#
# Youngs Moduli (GPa) = 106.63516 104.82533 79.08217
#
# Poissons Ratio (x) = 0.19848 0.16493
# Poissons Ratio (y) = 0.20191 0.19282
# Poissons Ratio (z) = 0.22240 0.25559
#
# Static dielectric constant tensor:
#      x y z
#    x 1.990290 0.012710 -0.000380 
#    y 0.012710 2.024950 -0.008520 
#    z -0.000380 -0.008520 2.025910 
# 
# From -- ./inp_files/605864.got.cif
#   From: 2010.05.17/outbox.cif.g08.bks.cpg/sg2_303_cif.got.tgz:605864.got - 2010.06.03 11:33:40.
