data_PCOD9018764
_publ_section_title
;
Structure prediction by ZEFSAII (Michael W. Deem and Ramdas Pophale) SiO2 
 PCOD9018764
Probable space group: P -1
;
_chemical_formula_sum "Si O2"
_cell_formula_units_Z 16
_cell_length_a 7.806179
_cell_length_b 12.645358
_cell_length_c 11.920406
_cell_angle_alpha 133.831811
_cell_angle_beta 68.193981
_cell_angle_gamma 129.276739
_cell_volume 652.338158
_symmetry_space_group_name_H-M "P -1"
_symmetry_group_IT_number 2
_symmetry_cell_setting 'triclinic'
loop_
_space_group_symop_operation_xyz
x,y,z
-x,-y,-z
loop_
_atom_site_type_symbol
_atom_site_label
_atom_site_fract_x
_atom_site_fract_y
_atom_site_fract_z
Si Si1 0.304216 0.789822 0.118841
Si Si2 0.994285 0.596577 0.372570
Si Si3 0.049086 0.742175 0.771758
Si Si4 0.215117 0.976337 0.118401
Si Si5 0.342811 0.929056 0.616243
Si Si6 0.134955 0.097701 0.653465
Si Si7 0.299342 0.335734 0.365059
Si Si8 0.805309 0.558484 0.144007
O O1 0.035360 0.661054 0.092466
O O2 0.358464 0.905438 0.079271
O O3 0.406591 0.927835 0.297248
O O4 0.364846 0.645166 0.000107
O O5 0.920956 0.414658 0.317599
O O6 0.893835 0.698888 0.527736
O O7 0.897104 0.557113 0.243454
O O8 0.256014 0.742873 0.439227
O O9 0.214842 0.866772 0.723116
O O10 0.798839 0.647251 0.714509
O O11 0.089286 0.864065 0.957199
O O12 0.344050 0.185296 0.225180
O O13 0.042702 0.944739 0.235838
O O14 0.280683 0.033738 0.624772
O O15 0.270714 0.307704 0.747509
O O16 0.000000 0.000000 0.500000
O O17 0.500000 0.500000 0.500000
#
# Coordination Sequence:
#
# PCOD9018764 Si02
#       8
#     2   2   2   2   2   2   2   2
#     4  10  24  39  65  97 123 169 221 272 317 387
#     4  11  22  44  65  92 131 176 210 268 327 385
#     4  11  24  43  67  94 137 173 213 269 327 394
#     4  11  22  42  65  94 130 174 210 268 330 384
#     4  11  23  40  65  98 127 170 222 262 330 387
#     4  11  21  42  68  87 130 175 213 268 325 385
#     4  11  24  39  62  98 132 169 218 262 323 387
#     4  10  21  44  63  87 130 167 218 265 328 375
#
# _framework density 24.527156000000002
#
# number of rings (size 3 to 8) (size 9 to 14) (size 15 to 20)
#    0.000    1.250    5.000    1.875    3.500    2.500 
#    0.000    1.250    0.000    0.000    0.000    0.000 
#    0.000    0.000    0.000    0.000    0.000    0.000 
#
# Total GULP energy -89303.062959 kJ/mol
# GULP energy per Si atom -5581.441435 kJ/mol
# Density = 2.447133 g / cm^3
# Si number density = 24.527156 Si / 1000 Ang^3
#
#
#
# Elastic Constant Matrix: (Units=GPa)
#
#
# Indices 1 2 3 4 5 6 
#
# 1 51.8529 44.1223 30.9030 17.1182 7.0465 -21.9634
# 2 44.1223 100.9879 56.2440 5.2436 -7.9712 -39.4936
# 3 30.9030 56.2440 149.5989 7.2199 11.0776 -11.8212
# 4 17.1182 5.2436 7.2199 52.8416 -8.5873 -9.9087
# 5 7.0465 -7.9712 11.0776 -8.5873 40.2894 3.2714
# 6 -21.9634 -39.4936 -11.8212 -9.9087 3.2714 42.2562
#
#
#
# Elastic Compliance Matrix: (Units=1/GPa)
#
#
# Indices 1 2 3 4 5 6 
#
# 1 0.041805 -0.017109 -0.000254 -0.013373 -0.013769 0.003597
# 2 -0.017109 0.028212 -0.006982 0.008610 0.010974 0.016692
# 3 -0.000254 -0.006982 0.009423 -0.001944 -0.004004 -0.004167
# 4 -0.013373 0.008610 -0.001944 0.025290 0.009501 0.005747
# 5 -0.013769 0.010974 -0.004004 0.009501 0.032387 0.001700
# 6 0.003597 0.016692 -0.004167 0.005747 0.001700 0.041185
#
#
# Mechanical properties :
#
#
# Convention : Reuss Voigt Hill
#
# Bulk Modulus (GPa) = 32.51987 62.77538 47.64762
# Shear Modulus (GPa) = 21.07551 38.48879 29.78215
#
# Velocity S-wave (km/s) = 2.93452 3.96565 3.48839
# Velocity P-wave (km/s) = 4.97688 6.82776 5.97443
#
# Compressibility (1/GPa) = 0.03075043
#
# Stress axis : x y z
#
# Youngs Moduli (GPa) = 23.92077 35.44556 106.12386
#
# Poissons Ratio (x) = 0.60643 0.02697
# Poissons Ratio (y) = 0.40926 0.74093
# Poissons Ratio (z) = 0.00608 0.24747
#
# Static dielectric constant tensor:
#      x y z
#    x 2.235620 0.179980 -0.001010 
#    y 0.179980 2.109080 0.041590 
#    z -0.001010 0.041590 1.980480 
# 
# From -- ./inp_files/209525.got.cif
#   From: 2010.05.17/outbox.cif.g08.bks.cpg/sg2_105_cif.got.tgz:209525.got - 2010.06.03 11:33:40.
