data_PCOD9018679
_publ_section_title
;
Structure prediction by ZEFSAII (Michael W. Deem and Ramdas Pophale) SiO2 
 PCOD9018679
Probable space group: P -1
;
_chemical_formula_sum "Si O2"
_cell_formula_units_Z 16
_cell_length_a 6.874925
_cell_length_b 5.079579
_cell_length_c 25.975949
_cell_angle_alpha 88.806345
_cell_angle_beta 128.411025
_cell_angle_gamma 77.134856
_cell_volume 677.747022
_symmetry_space_group_name_H-M "P -1"
_symmetry_group_IT_number 2
_symmetry_cell_setting 'triclinic'
loop_
_space_group_symop_operation_xyz
x,y,z
-x,-y,-z
loop_
_atom_site_type_symbol
_atom_site_label
_atom_site_fract_x
_atom_site_fract_y
_atom_site_fract_z
Si Si1 0.342451 0.751260 0.436784
Si Si2 0.854694 0.814735 0.507402
Si Si3 0.282282 0.972952 0.803902
Si Si4 0.953038 0.481672 0.185247
Si Si5 0.433796 0.782739 0.714726
Si Si6 0.244059 0.405841 0.960579
Si Si7 0.154477 0.356028 0.630717
Si Si8 0.796949 0.857951 0.946195
O O1 0.500000 0.500000 0.500000
O O2 0.570032 0.811010 0.440708
O O3 0.098966 0.657800 0.377852
O O4 0.218071 0.017982 0.450683
O O5 0.033007 0.513181 0.557255
O O6 0.000000 0.000000 0.500000
O O7 0.081851 0.269199 0.781546
O O8 0.320054 0.891230 0.751312
O O9 0.557537 0.000029 0.869719
O O10 0.203289 0.730007 0.821913
O O11 0.255739 0.317091 0.231074
O O12 0.844490 0.620731 0.111899
O O13 0.321511 0.535637 0.681741
O O14 0.330916 0.040399 0.658193
O O15 0.981998 0.605334 0.944283
O O16 0.500000 0.500000 0.000000
O O17 0.328744 0.177848 0.019645
O O18 0.000000 0.000000 0.000000
#
# Coordination Sequence:
#
# PCOD9018679 Si02
#       8
#     2   2   2   2   2   2   2   2
#     4   9  20  41  70 106 145 184 229 291 360 417
#     4  10  21  43  74 113 146 184 237 302 359 423
#     4  12  27  48  72 104 142 190 254 295 376 437
#     4  12  27  47  74 105 141 194 246 309 367 437
#     4  12  26  50  72  99 153 197 244 304 352 440
#     4  11  23  43  68 104 144 176 241 310 373 439
#     4  11  23  46  76 102 145 198 239 291 369 426
#     4  11  25  40  71 108 136 189 236 304 388 437
#
# _framework density 23.607628999999999
#
# number of rings (size 3 to 8) (size 9 to 14) (size 15 to 20)
#    0.000    1.000    3.750    2.250    3.500    4.000 
#    2.250    6.250    0.000    0.000    0.000    0.000 
#    0.000    0.000    0.000    0.000    0.000    0.000 
#
# Total GULP energy -89394.907152 kJ/mol
# GULP energy per Si atom -5587.181697 kJ/mol
# Density = 2.355390 g / cm^3
# Si number density = 23.607629 Si / 1000 Ang^3
#
#
#
# Elastic Constant Matrix: (Units=GPa)
#
#
# Indices 1 2 3 4 5 6 
#
# 1 145.3641 24.0213 37.2237 1.9439 6.4004 15.5334
# 2 24.0213 86.7704 5.4250 -4.1383 6.0426 9.2680
# 3 37.2237 5.4250 102.0755 -4.7967 11.1401 8.8403
# 4 1.9439 -4.1383 -4.7967 37.2661 -1.3746 11.4569
# 5 6.4004 6.0426 11.1401 -1.3746 32.7939 5.2803
# 6 15.5334 9.2680 8.8403 11.4569 5.2803 44.2891
#
#
#
# Elastic Compliance Matrix: (Units=1/GPa)
#
#
# Indices 1 2 3 4 5 6 
#
# 1 0.008084 -0.001896 -0.002709 -0.000435 -0.000040 -0.001780
# 2 -0.001896 0.012498 0.000521 0.002245 -0.001623 -0.002441
# 3 -0.002709 0.000521 0.011324 0.002028 -0.003075 -0.001577
# 4 -0.000435 0.002245 0.002028 0.030104 0.001646 -0.008706
# 5 -0.000040 -0.001623 -0.003075 0.001646 0.032450 -0.003327
# 6 -0.001780 -0.002441 -0.001577 -0.008706 -0.003327 0.026678
#
#
# Mechanical properties :
#
#
# Convention : Reuss Voigt Hill
#
# Bulk Modulus (GPa) = 42.12652 51.95000 47.03826
# Shear Modulus (GPa) = 36.43795 40.70582 38.57189
#
# Velocity S-wave (km/s) = 3.93298 4.15693 4.04651
# Velocity P-wave (km/s) = 6.20545 6.71517 6.46533
#
# Compressibility (1/GPa) = 0.02373802
#
# Stress axis : x y z
#
# Youngs Moduli (GPa) = 123.69751 80.01341 88.30442
#
# Poissons Ratio (x) = 0.15174 0.23923
# Poissons Ratio (y) = 0.23459 -0.04604
# Poissons Ratio (z) = 0.33512 -0.04172
#
# Static dielectric constant tensor:
#      x y z
#    x 1.893070 -0.053990 -0.031540 
#    y -0.053990 2.002750 -0.017230 
#    z -0.031540 -0.017230 1.919060 
# 
# From -- ./inp_files/614914.got.cif
#   From: 2010.05.17/outbox.cif.g08.bks.cpg/sg2_308_cif.got.tgz:614914.got - 2010.06.03 11:33:40.
