data_PCOD9018205
_publ_section_title
;
Structure prediction by ZEFSAII (Michael W. Deem and Ramdas Pophale) SiO2 
 PCOD9018205
Probable space group: P -1
;
_chemical_formula_sum "Si O2"
_cell_formula_units_Z 15
_cell_length_a 8.733730
_cell_length_b 20.582658
_cell_length_c 20.373945
_cell_angle_alpha 19.950424
_cell_angle_beta 35.775541
_cell_angle_gamma 46.281950
_cell_volume 682.003011
_symmetry_space_group_name_H-M "P -1"
_symmetry_group_IT_number 2
_symmetry_cell_setting 'triclinic'
loop_
_space_group_symop_operation_xyz
x,y,z
-x,-y,-z
loop_
_atom_site_type_symbol
_atom_site_label
_atom_site_fract_x
_atom_site_fract_y
_atom_site_fract_z
Si Si1 0.838265 0.122416 0.900914
Si Si2 0.996290 0.358766 0.073379
Si Si3 0.430396 0.042701 0.612329
Si Si4 0.074279 0.318462 0.512916
Si Si5 0.622706 0.906251 0.812377
Si Si6 0.934532 0.675654 0.705375
Si Si7 0.500000 0.000000 0.000000
Si Si8 0.638854 0.382070 0.974755
O O1 0.055300 0.309082 0.607153
O O2 0.645518 0.176609 0.969257
O O3 0.643429 0.997790 0.026230
O O4 0.000000 0.000000 0.000000
O O5 0.684106 0.188490 0.341858
O O6 0.214071 0.246346 0.110196
O O7 0.059690 0.513217 0.844387
O O8 0.000000 0.500000 0.000000
O O9 0.223070 0.159600 0.590167
O O10 0.557817 0.994129 0.682434
O O11 0.288906 0.817950 0.844327
O O12 0.250265 0.534064 0.215117
O O13 0.756189 0.222043 0.688519
O O14 0.839552 0.102139 0.588464
O O15 0.784733 0.576990 0.784563
O O16 0.690359 0.679975 0.836552
#
# Coordination Sequence:
#
# PCOD9018205 Si02
#       8
#     2   2   2   2   2   2   1   2
#     4  10  21  43  69 101 131 186 236 284 339 409
#     4  12  24  41  66 103 137 178 228 283 355 412
#     4  12  23  40  69  98 135 177 227 283 352 411
#     4  10  22  44  69  91 138 181 222 288 340 409
#     4  12  23  42  71  98 137 181 229 286 344 420
#     4  11  24  40  64  99 139 173 223 290 342 423
#     4   8  20  40  70  92 132 186 220 284 344 390
#     4  11  24  41  63 101 135 176 227 281 353 413
#
# _framework density 21.994038
#
# number of rings (size 3 to 8) (size 9 to 14) (size 15 to 20)
#    0.800    0.267    5.333    2.000    0.000    2.667 
#    0.000    2.667    0.000    0.000    0.000    0.000 
#    0.000    0.000    0.000    0.000    0.000    0.000 
#
# Total GULP energy -83540.229855 kJ/mol
# GULP energy per Si atom -5569.348657 kJ/mol
# Density = 2.194398 g / cm^3
# Si number density = 21.994038 Si / 1000 Ang^3
#
#
#
# Elastic Constant Matrix: (Units=GPa)
#
#
# Indices 1 2 3 4 5 6 
#
# 1 75.2378 20.3864 0.6159 -5.6436 7.1959 6.4383
# 2 20.3864 95.6251 48.0622 -0.2030 7.6071 5.2347
# 3 0.6159 48.0622 110.8284 -1.0562 9.6391 -0.9200
# 4 -5.6436 -0.2030 -1.0562 34.1826 1.4823 8.3132
# 5 7.1959 7.6071 9.6391 1.4823 28.6446 -2.0689
# 6 6.4383 5.2347 -0.9200 8.3132 -2.0689 19.2226
#
#
#
# Elastic Compliance Matrix: (Units=1/GPa)
#
#
# Indices 1 2 3 4 5 6 
#
# 1 0.015518 -0.003504 0.001792 0.004363 -0.004266 -0.006504
# 2 -0.003504 0.014616 -0.006245 0.000168 -0.001147 -0.003301
# 3 0.001792 -0.006245 0.011975 0.000462 -0.002761 0.001176
# 4 0.004363 0.000168 0.000462 0.034252 -0.004279 -0.016758
# 5 -0.004266 -0.001147 -0.002761 -0.004279 0.037982 0.007548
# 6 -0.006504 -0.003301 0.001176 -0.016758 0.007548 0.063215
#
#
# Mechanical properties :
#
#
# Convention : Reuss Voigt Hill
#
# Bulk Modulus (GPa) = 38.17556 46.64671 42.41114
# Shear Modulus (GPa) = 24.72749 30.58508 27.65629
#
# Velocity S-wave (km/s) = 3.35667 3.73313 3.54989
# Velocity P-wave (km/s) = 5.69367 6.31162 6.01059
#
# Compressibility (1/GPa) = 0.02619477
#
# Stress axis : x y z
#
# Youngs Moduli (GPa) = 64.44171 68.41980 83.50432
#
# Poissons Ratio (x) = 0.23977 -0.14965
# Poissons Ratio (y) = 0.22583 0.52147
# Poissons Ratio (z) = -0.11549 0.42727
#
# Static dielectric constant tensor:
#      x y z
#    x 1.867450 0.044130 -0.006820 
#    y 0.044130 1.815340 0.019100 
#    z -0.006820 0.019100 1.853080 
# 
# From -- ./inp_files/476826.got.cif
#   From: 2010.05.17/outbox.cif.g08.bks.cpg/sg2_239_cif.got.tgz:476826.got - 2010.06.03 11:33:40.
