data_PCOD9018079
_publ_section_title
;
Structure prediction by ZEFSAII (Michael W. Deem and Ramdas Pophale) SiO2 
 PCOD9018079
Probable space group: P -1
;
_chemical_formula_sum "Si O2"
_cell_formula_units_Z 16
_cell_length_a 8.983043
_cell_length_b 10.127519
_cell_length_c 13.877090
_cell_angle_alpha 58.096715
_cell_angle_beta 44.752183
_cell_angle_gamma 46.639387
_cell_volume 644.161701
_symmetry_space_group_name_H-M "P -1"
_symmetry_group_IT_number 2
_symmetry_cell_setting 'triclinic'
loop_
_space_group_symop_operation_xyz
x,y,z
-x,-y,-z
loop_
_atom_site_type_symbol
_atom_site_label
_atom_site_fract_x
_atom_site_fract_y
_atom_site_fract_z
Si Si1 0.735727 0.232200 0.442266
Si Si2 0.131319 0.818723 0.380539
Si Si3 0.025709 0.318973 0.159501
Si Si4 0.729441 0.531291 0.673970
Si Si5 0.460645 0.966923 0.141618
Si Si6 0.767766 0.703936 0.406954
Si Si7 0.887751 0.878912 0.130368
Si Si8 0.213618 0.594247 0.956179
O O1 0.838069 0.222494 0.504899
O O2 0.451559 0.289210 0.555740
O O3 0.767971 0.376687 0.308245
O O4 0.890960 0.025784 0.403473
O O5 0.151223 0.657429 0.369768
O O6 0.375345 0.822840 0.236888
O O7 0.967610 0.274190 0.096897
O O8 0.212946 0.156978 0.205078
O O9 0.157341 0.432762 0.039497
O O10 0.681398 0.692084 0.560298
O O11 0.483034 0.560239 0.825167
O O12 0.962034 0.480189 0.654899
O O13 0.662038 0.928797 0.142887
O O14 0.500000 0.000000 0.000000
O O15 0.806211 0.861670 0.282178
O O16 0.112896 0.682074 0.071527
O O17 0.000000 0.000000 0.000000
#
# Coordination Sequence:
#
# PCOD9018079 Si02
#       8
#     2   2   2   2   2   2   2   2
#     4  10  21  43  68 107 135 175 225 286 345 408
#     4  10  23  40  71 102 134 174 230 287 341 405
#     4  10  22  38  73 104 137 173 228 291 339 411
#     4  11  26  47  70  99 141 188 229 283 344 419
#     4  11  21  41  68  99 133 175 231 284 339 407
#     4  11  26  48  65 102 139 184 232 280 347 416
#     4  12  29  47  68 101 143 186 232 289 346 416
#     4  11  24  45  69 105 135 185 232 283 352 403
#
# _framework density 24.838486
#
# number of rings (size 3 to 8) (size 9 to 14) (size 15 to 20)
#    0.000    1.250    3.750    0.750    7.000    1.500 
#    4.500    0.000    0.000    0.000    0.000    0.000 
#    0.000    0.000    0.000    0.000    0.000    0.000 
#
# Total GULP energy -89260.902668 kJ/mol
# GULP energy per Si atom -5578.806417 kJ/mol
# Density = 2.478195 g / cm^3
# Si number density = 24.838486 Si / 1000 Ang^3
#
#
#
# Elastic Constant Matrix: (Units=GPa)
#
#
# Indices 1 2 3 4 5 6 
#
# 1 67.8464 32.6359 55.0194 1.1476 -17.7162 -22.8688
# 2 32.6359 59.4041 24.4384 8.5278 -4.5339 -12.5333
# 3 55.0194 24.4384 191.1600 -23.3306 -10.0099 -12.6787
# 4 1.1476 8.5278 -23.3306 29.8691 -5.7852 5.3906
# 5 -17.7162 -4.5339 -10.0099 -5.7852 48.9778 2.6839
# 6 -22.8688 -12.5333 -12.6787 5.3906 2.6839 28.6609
#
#
#
# Elastic Compliance Matrix: (Units=1/GPa)
#
#
# Indices 1 2 3 4 5 6 
#
# 1 0.035260 -0.010173 -0.007862 -0.006724 0.008277 0.020697
# 2 -0.010173 0.024877 -0.001225 -0.008988 -0.002918 0.004183
# 3 -0.007862 -0.001225 0.008313 0.007967 -0.000064 -0.004624
# 4 -0.006724 -0.008988 0.007967 0.046108 0.004626 -0.014876
# 5 0.008277 -0.002918 -0.000064 0.004626 0.023553 0.002225
# 6 0.020697 0.004183 -0.004624 -0.014876 0.002225 0.053778
#
#
# Mechanical properties :
#
#
# Convention : Reuss Voigt Hill
#
# Bulk Modulus (GPa) = 33.41178 60.28866 46.85022
# Shear Modulus (GPa) = 20.79983 35.25601 28.02792
#
# Velocity S-wave (km/s) = 2.89693 3.77159 3.36282
# Velocity P-wave (km/s) = 4.96693 6.57963 5.82932
#
# Compressibility (1/GPa) = 0.02992957
#
# Stress axis : x y z
#
# Youngs Moduli (GPa) = 28.36054 40.19776 120.29269
#
# Poissons Ratio (x) = 0.40895 0.94579
# Poissons Ratio (y) = 0.28852 0.14731
# Poissons Ratio (z) = 0.22298 0.04923
#
# Static dielectric constant tensor:
#      x y z
#    x 1.446840 -0.000260 0.592720 
#    y -0.000260 2.100060 0.023250 
#    z 0.592720 0.023250 1.305190 
# 
# From -- ./inp_files/499965.got.cif
#   From: 2010.05.17/outbox.cif.g08.bks.cpg/sg2_250_cif.got.tgz:499965.got - 2010.06.03 11:33:40.
