data_PCOD9018847
_publ_section_title
;
Structure prediction by ZEFSAII (Michael W. Deem and Ramdas Pophale) SiO2 
 PCOD9018847
Probable space group: P -1
;
_chemical_formula_sum "Si O2"
_cell_formula_units_Z 14
_cell_length_a 13.842513
_cell_length_b 9.891743
_cell_length_c 9.838334
_cell_angle_alpha 41.191026
_cell_angle_beta 99.542678
_cell_angle_gamma 122.703393
_cell_volume 672.386571
_symmetry_space_group_name_H-M "P -1"
_symmetry_group_IT_number 2
_symmetry_cell_setting 'triclinic'
loop_
_space_group_symop_operation_xyz
x,y,z
-x,-y,-z
loop_
_atom_site_type_symbol
_atom_site_label
_atom_site_fract_x
_atom_site_fract_y
_atom_site_fract_z
Si Si1 0.996199 0.641654 0.762675
Si Si2 0.171613 0.221598 0.275616
Si Si3 0.173229 0.790885 0.152933
Si Si4 0.121245 0.108890 0.039220
Si Si5 0.526882 0.390542 0.960706
Si Si6 0.650532 0.627027 0.282535
Si Si7 0.412454 0.853361 0.222981
O O1 0.888554 0.671181 0.737484
O O2 0.951418 0.448666 0.770659
O O3 0.122437 0.941148 0.537650
O O4 0.000000 0.500000 0.000000
O O5 0.117750 0.168031 0.149379
O O6 0.322743 0.430001 0.154458
O O7 0.140014 0.886939 0.201900
O O8 0.268928 0.736806 0.249238
O O9 0.256886 0.066560 0.873882
O O10 0.250868 0.359751 0.806013
O O11 0.000000 0.000000 0.000000
O O12 0.457217 0.408102 0.805039
O O13 0.500000 0.500000 0.000000
O O14 0.466617 0.081132 0.178387
O O15 0.592603 0.388917 0.551954
O O16 0.500000 0.000000 0.000000
#
# Coordination Sequence:
#
# PCOD9018847 Si02
#       7
#     2   2   2   2   2   2   2
#     4  11  25  42  62  98 127 169 211 255 324 376
#     4  11  24  42  66  92 134 166 204 269 311 376
#     4   9  22  42  62  93 126 155 219 256 309 373
#     4  10  21  44  65  91 125 165 209 263 314 364
#     4  11  22  46  62  97 131 162 216 256 316 378
#     4   9  23  42  66  91 127 160 213 264 303 375
#     4  11  23  40  67  92 124 171 206 254 320 369
#
# _framework density 20.821356000000002
#
# number of rings (size 3 to 8) (size 9 to 14) (size 15 to 20)
#    0.857    0.857    1.429    1.714    2.000    8.000 
#    7.714    0.000    0.000    0.000    0.000    0.000 
#    0.000    0.000    0.000    0.000    0.000    0.000 
#
# Total GULP energy -78131.745639 kJ/mol
# GULP energy per Si atom -5580.838974 kJ/mol
# Density = 2.077397 g / cm^3
# Si number density = 20.821356 Si / 1000 Ang^3
#
#
#
# Elastic Constant Matrix: (Units=GPa)
#
#
# Indices 1 2 3 4 5 6 
#
# 1 48.1779 -1.9683 -4.1915 -6.1143 2.2820 17.5008
# 2 -1.9683 65.2488 9.7408 -17.0768 -0.9502 -3.5285
# 3 -4.1915 9.7408 90.2420 -13.8410 19.1090 10.6839
# 4 -6.1143 -17.0768 -13.8410 23.9390 -7.4980 -4.6693
# 5 2.2820 -0.9502 19.1090 -7.4980 26.3519 -1.2788
# 6 17.5008 -3.5285 10.6839 -4.6693 -1.2788 35.7898
#
#
#
# Elastic Compliance Matrix: (Units=1/GPa)
#
#
# Indices 1 2 3 4 5 6 
#
# 1 0.027325 0.000891 0.004785 0.006154 -0.004736 -0.014069
# 2 0.000891 0.020328 -0.001534 0.016834 0.006775 0.004465
# 3 0.004785 -0.001534 0.015175 0.004247 -0.010598 -0.006846
# 4 0.006154 0.016834 0.004247 0.063878 0.015474 0.006269
# 5 -0.004736 0.006775 -0.010598 0.015474 0.051175 0.009995
# 6 -0.014069 0.004465 -0.006846 0.006269 0.009995 0.038479
#
#
# Mechanical properties :
#
#
# Convention : Reuss Voigt Hill
#
# Bulk Modulus (GPa) = 14.06233 23.42560 18.74397
# Shear Modulus (GPa) = 21.57214 30.55533 26.06373
#
# Velocity S-wave (km/s) = 3.22228 3.83495 3.54189
# Velocity P-wave (km/s) = 4.54011 5.55737 5.07429
#
# Compressibility (1/GPa) = 0.07111197
#
# Stress axis : x y z
#
# Youngs Moduli (GPa) = 36.59661 49.19381 65.89705
#
# Poissons Ratio (x) = -0.04382 -0.31534
# Poissons Ratio (y) = -0.03260 0.10109
# Poissons Ratio (z) = -0.17513 0.07547
#
# Static dielectric constant tensor:
#      x y z
#    x 1.734230 -0.022400 -0.014460 
#    y -0.022400 1.730170 -0.013860 
#    z -0.014460 -0.013860 1.741660 
# 
# From -- ./inp_files/294135.got.cif
#   From: 2010.05.17/outbox.cif.g08.bks.cpg/sg2_148_cif.got.tgz:294135.got - 2010.06.03 11:33:40.
