data_PCOD9018710
_publ_section_title
;
Structure prediction by ZEFSAII (Michael W. Deem and Ramdas Pophale) SiO2 
 PCOD9018710
Probable space group: P -1
;
_chemical_formula_sum "Si O2"
_cell_formula_units_Z 16
_cell_length_a 20.848399
_cell_length_b 6.232072
_cell_length_c 17.476709
_cell_angle_alpha 84.563456
_cell_angle_beta 160.577615
_cell_angle_gamma 94.654182
_cell_volume 751.456018
_symmetry_space_group_name_H-M "P -1"
_symmetry_group_IT_number 2
_symmetry_cell_setting 'triclinic'
loop_
_space_group_symop_operation_xyz
x,y,z
-x,-y,-z
loop_
_atom_site_type_symbol
_atom_site_label
_atom_site_fract_x
_atom_site_fract_y
_atom_site_fract_z
Si Si1 0.993016 0.505639 0.626161
Si Si2 0.567336 0.379840 0.867149
Si Si3 0.780792 0.575518 0.765097
Si Si4 0.507343 0.986747 0.098327
Si Si5 0.743480 0.248748 0.466536
Si Si6 0.877265 0.792934 0.355485
Si Si7 0.535767 0.792041 0.601236
Si Si8 0.377410 0.064367 0.541703
O O1 0.019159 0.342903 0.589817
O O2 0.900007 0.401830 0.599823
O O3 0.866093 0.686041 0.431167
O O4 0.205842 0.583087 0.884280
O O5 0.432567 0.592677 0.710390
O O6 0.493116 0.214914 0.724909
O O7 0.530696 0.252835 0.908832
O O8 0.723155 0.665346 0.782050
O O9 0.637645 0.377381 0.595016
O O10 0.727054 0.771725 0.640307
O O11 0.000000 0.500000 0.000000
O O12 0.685301 0.091424 0.336927
O O13 0.325777 0.139339 0.911583
O O14 0.500000 0.000000 0.000000
O O15 0.771794 0.084215 0.574758
O O16 0.000000 0.000000 0.500000
O O17 0.500000 0.000000 0.500000
O O18 0.523725 0.900638 0.667135
#
# Coordination Sequence:
#
# PCOD9018710 Si02
#       8
#     2   2   2   2   2   2   2   2
#     4  11  24  39  63  88 121 171 223 275 330 388
#     4  11  23  43  61  88 130 176 215 273 330 396
#     4  10  21  43  76 105 133 167 217 264 318 389
#     4  11  22  37  63  88 122 168 218 284 338 385
#     4  11  24  42  60  89 130 172 219 271 334 393
#     4  11  21  38  60  90 120 155 228 287 325 383
#     4   9  20  42  70 102 133 169 207 263 314 387
#     4  10  23  44  65  94 141 175 213 265 329 398
#
# _framework density 21.291999000000001
#
# number of rings (size 3 to 8) (size 9 to 14) (size 15 to 20)
#    0.000    1.500    2.500    2.250    1.750    4.000 
#    0.000   16.250    0.000    0.000    0.000    0.000 
#    0.000    0.000    0.000    0.000    0.000    0.000 
#
# Total GULP energy -89274.001808 kJ/mol
# GULP energy per Si atom -5579.625113 kJ/mol
# Density = 2.124354 g / cm^3
# Si number density = 21.291999 Si / 1000 Ang^3
#
#
#
# Elastic Constant Matrix: (Units=GPa)
#
#
# Indices 1 2 3 4 5 6 
#
# 1 119.9143 47.0531 28.2448 3.3373 0.1210 10.7585
# 2 47.0531 109.4730 26.9721 -1.8160 3.3676 22.2476
# 3 28.2448 26.9721 60.6292 -0.3271 17.5757 10.0962
# 4 3.3373 -1.8160 -0.3271 27.7980 0.5906 0.4419
# 5 0.1210 3.3676 17.5757 0.5906 22.2825 2.3356
# 6 10.7585 22.2476 10.0962 0.4419 2.3356 51.5166
#
#
#
# Elastic Compliance Matrix: (Units=1/GPa)
#
#
# Indices 1 2 3 4 5 6 
#
# 1 0.010941 -0.003718 -0.004692 -0.001703 0.004242 0.000063
# 2 -0.003718 0.012375 -0.003477 0.001250 0.001274 -0.003955
# 3 -0.004692 -0.003477 0.026348 0.001101 -0.020074 -0.001782
# 4 -0.001703 0.001250 0.001101 0.036324 -0.001946 -0.000623
# 5 0.004242 0.001274 -0.020074 -0.001946 0.060572 -0.000231
# 6 0.000063 -0.003955 -0.001782 -0.000623 -0.000231 0.021471
#
#
# Mechanical properties :
#
#
# Convention : Reuss Voigt Hill
#
# Bulk Modulus (GPa) = 38.62612 54.95073 46.78842
# Shear Modulus (GPa) = 24.94566 32.83584 28.89075
#
# Velocity S-wave (km/s) = 3.42657 3.93131 3.68759
# Velocity P-wave (km/s) = 5.81685 6.81697 6.33667
#
# Compressibility (1/GPa) = 0.02588922
#
# Stress axis : x y z
#
# Youngs Moduli (GPa) = 91.40026 80.81072 37.95299
#
# Poissons Ratio (x) = 0.30045 0.17809
# Poissons Ratio (y) = 0.33982 0.13197
# Poissons Ratio (z) = 0.42888 0.28098
#
# Static dielectric constant tensor:
#      x y z
#    x 1.820000 -0.014130 0.005110 
#    y -0.014130 1.815110 -0.068670 
#    z 0.005110 -0.068670 1.736080 
# 
# From -- ./inp_files/44408.got.cif
#   From: 2010.05.17/outbox.cif.g08.bks.cpg/sg2_23_cif.got.tgz:44408.got - 2010.06.03 11:33:40.
