data_PCOD9018050
_publ_section_title
;
Structure prediction by ZEFSAII (Michael W. Deem and Ramdas Pophale) SiO2 
 PCOD9018050
Probable space group: P -1
;
_chemical_formula_sum "Si O2"
_cell_formula_units_Z 13
_cell_length_a 14.590573
_cell_length_b 9.193797
_cell_length_c 9.365528
_cell_angle_alpha 66.102828
_cell_angle_beta 83.120562
_cell_angle_gamma 137.537563
_cell_volume 569.828749
_symmetry_space_group_name_H-M "P -1"
_symmetry_group_IT_number 2
_symmetry_cell_setting 'triclinic'
loop_
_space_group_symop_operation_xyz
x,y,z
-x,-y,-z
loop_
_atom_site_type_symbol
_atom_site_label
_atom_site_fract_x
_atom_site_fract_y
_atom_site_fract_z
Si Si1 0.902529 0.661589 0.904948
Si Si2 0.037888 0.178213 0.633460
Si Si3 0.000000 0.500000 0.000000
Si Si4 0.701903 0.223390 0.859161
Si Si5 0.297444 0.552605 0.688363
Si Si6 0.680817 0.049623 0.473856
Si Si7 0.690922 0.881309 0.827967
O O1 0.802311 0.379365 0.933682
O O2 0.053596 0.773926 0.901489
O O3 0.965533 0.900764 0.699984
O O4 0.767720 0.530044 0.102863
O O5 0.173496 0.483720 0.387433
O O6 0.138986 0.269311 0.721995
O O7 0.863611 0.025776 0.768261
O O8 0.158223 0.717536 0.761472
O O9 0.683665 0.017827 0.884843
O O10 0.500000 0.000000 0.000000
O O11 0.478320 0.714746 0.581432
O O12 0.339445 0.796818 0.533963
O O13 0.726513 0.011123 0.614963
O O14 0.500000 0.500000 0.000000
#
# Coordination Sequence:
#
# PCOD9018050 Si02
#       7
#     2   2   1   2   2   2   2
#     4  11  25  44  68 104 144 182 230 297 357 419
#     4  12  25  45  73 103 140 192 240 289 353 429
#     4  10  24  40  72  94 146 174 236 288 356 410
#     4  12  26  43  71 105 145 186 235 295 356 416
#     4  10  22  42  73  98 141 185 235 282 357 426
#     4  10  21  43  68 101 137 189 229 291 350 424
#     4  12  26  46  74 104 143 190 245 291 353 433
#
# _framework density 22.813870999999999
#
# number of rings (size 3 to 8) (size 9 to 14) (size 15 to 20)
#    0.000    0.923    1.538    5.077    8.615    1.231 
#    0.000    0.769    0.000    0.000    0.000    0.000 
#    0.000    0.000    0.000    0.000    0.000    0.000 
#
# Total GULP energy -72449.085347 kJ/mol
# GULP energy per Si atom -5573.006565 kJ/mol
# Density = 2.276195 g / cm^3
# Si number density = 22.813871 Si / 1000 Ang^3
#
#
#
# Elastic Constant Matrix: (Units=GPa)
#
#
# Indices 1 2 3 4 5 6 
#
# 1 90.9308 13.8720 4.7658 -4.6381 -5.4894 -22.6262
# 2 13.8720 105.5986 30.5027 5.5364 -2.3715 -6.8594
# 3 4.7658 30.5027 54.1792 9.1076 10.5393 -14.4950
# 4 -4.6381 5.5364 9.1076 30.2773 2.7658 10.1413
# 5 -5.4894 -2.3715 10.5393 2.7658 44.1932 -9.1013
# 6 -22.6262 -6.8594 -14.4950 10.1413 -9.1013 36.6519
#
#
#
# Elastic Compliance Matrix: (Units=1/GPa)
#
#
# Indices 1 2 3 4 5 6 
#
# 1 0.013846 -0.001576 0.002175 -0.002087 0.003418 0.010539
# 2 -0.001576 0.011704 -0.007110 -0.000045 0.001902 -0.001110
# 3 0.002175 -0.007110 0.028406 -0.011112 -0.003416 0.013472
# 4 -0.002087 -0.000045 -0.011112 0.042630 -0.004090 -0.018502
# 5 0.003418 0.001902 -0.003416 -0.004090 0.026018 0.008707
# 6 0.010539 -0.001110 0.013472 -0.018502 0.008707 0.046192
#
#
# Mechanical properties :
#
#
# Convention : Reuss Voigt Hill
#
# Bulk Modulus (GPa) = 24.43015 38.77661 31.60338
# Shear Modulus (GPa) = 25.58048 35.66236 30.62142
#
# Velocity S-wave (km/s) = 3.35217 3.95801 3.66762
# Velocity P-wave (km/s) = 5.07094 6.15805 5.64075
#
# Compressibility (1/GPa) = 0.04093304
#
# Stress axis : x y z
#
# Youngs Moduli (GPa) = 72.22251 85.44387 35.20445
#
# Poissons Ratio (x) = 0.13470 -0.07658
# Poissons Ratio (y) = 0.11386 0.25030
# Poissons Ratio (z) = -0.15710 0.60749
#
# Static dielectric constant tensor:
#      x y z
#    x 1.645430 -0.042250 -0.001660 
#    y -0.042250 2.002360 -0.115040 
#    z -0.001660 -0.115040 1.873060 
# 
# From -- ./inp_files/291997.got.cif
#   From: 2010.05.17/outbox.cif.g08.bks.cpg/sg2_146_cif.got.tgz:291997.got - 2010.06.03 11:33:40.
