data_PCOD9018638
_publ_section_title
;
Structure prediction by ZEFSAII (Michael W. Deem and Ramdas Pophale) SiO2 
 PCOD9018638
Probable space group: P -1
;
_chemical_formula_sum "Si O2"
_cell_formula_units_Z 16
_cell_length_a 5.374781
_cell_length_b 14.548919
_cell_length_c 10.231394
_cell_angle_alpha 122.651559
_cell_angle_beta 98.401132
_cell_angle_gamma 81.708107
_cell_volume 664.344974
_symmetry_space_group_name_H-M "P -1"
_symmetry_group_IT_number 2
_symmetry_cell_setting 'triclinic'
loop_
_space_group_symop_operation_xyz
x,y,z
-x,-y,-z
loop_
_atom_site_type_symbol
_atom_site_label
_atom_site_fract_x
_atom_site_fract_y
_atom_site_fract_z
Si Si1 0.534162 0.812910 0.504624
Si Si2 0.807879 0.766291 0.748376
Si Si3 0.325856 0.022030 0.796642
Si Si4 0.668064 0.553521 0.945955
Si Si5 0.852798 0.354788 0.673208
Si Si6 0.293385 0.467972 0.360493
Si Si7 0.297761 0.882826 0.929935
Si Si8 0.773506 0.788713 0.245204
O O1 0.764471 0.797264 0.615501
O O2 0.363136 0.914398 0.628761
O O3 0.570485 0.836325 0.372128
O O4 0.172205 0.119900 0.784869
O O5 0.828739 0.638496 0.683371
O O6 0.545658 0.814808 0.834408
O O7 0.058165 0.813490 0.860230
O O8 0.230055 0.980914 0.896706
O O9 0.595807 0.068534 0.891365
O O10 0.875067 0.451088 0.855631
O O11 0.574680 0.558871 0.791767
O O12 0.500000 0.500000 0.000000
O O13 0.703513 0.677713 0.083750
O O14 0.897042 0.425009 0.601820
O O15 0.585859 0.304448 0.592220
O O16 0.013118 0.253313 0.668179
O O17 0.500000 0.500000 0.500000
#
# Coordination Sequence:
#
# PCOD9018638 Si02
#       8
#     2   2   2   2   2   2   2   2
#     4  11  24  43  70 103 148 190 246 312 371 452
#     4  11  23  48  76 108 151 193 251 319 382 449
#     4  10  25  47  72 106 144 194 253 310 385 447
#     4  10  21  44  69 100 145 190 243 309 371 450
#     4  10  24  44  69 105 146 189 251 301 375 451
#     4  10  21  43  73 111 147 196 248 310 385 449
#     4  10  25  50  74 109 144 196 253 322 377 452
#     4  12  23  46  68 103 143 200 242 311 376 456
#
# _framework density 24.083874999999999
#
# number of rings (size 3 to 8) (size 9 to 14) (size 15 to 20)
#    0.750    0.750    2.500    1.500    3.500    5.000 
#   15.750    1.250    0.000    0.000    0.000    0.000 
#    0.000    0.000    0.000    0.000    0.000    0.000 
#
# Total GULP energy -89233.878212 kJ/mol
# GULP energy per Si atom -5577.117388 kJ/mol
# Density = 2.402906 g / cm^3
# Si number density = 24.083875 Si / 1000 Ang^3
#
#
#
# Elastic Constant Matrix: (Units=GPa)
#
#
# Indices 1 2 3 4 5 6 
#
# 1 57.6287 29.3609 28.9018 7.2017 9.7854 2.2264
# 2 29.3609 152.3836 11.0759 1.3031 0.9347 -14.0282
# 3 28.9018 11.0759 130.8476 -9.6883 10.5202 5.3599
# 4 7.2017 1.3031 -9.6883 36.5079 11.4411 4.4495
# 5 9.7854 0.9347 10.5202 11.4411 31.7225 6.2972
# 6 2.2264 -14.0282 5.3599 4.4495 6.2972 30.9601
#
#
#
# Elastic Compliance Matrix: (Units=1/GPa)
#
#
# Indices 1 2 3 4 5 6 
#
# 1 0.023045 -0.004165 -0.004717 -0.004361 -0.003576 -0.001374
# 2 -0.004165 0.007697 0.000097 0.000033 0.000277 0.003709
# 3 -0.004717 0.000097 0.009302 0.004490 -0.003001 -0.001262
# 4 -0.004361 0.000033 0.004490 0.033439 -0.011632 -0.002888
# 5 -0.003576 0.000277 -0.003001 -0.011632 0.038867 -0.005331
# 6 -0.001374 0.003709 -0.001262 -0.002888 -0.005331 0.035797
#
#
# Mechanical properties :
#
#
# Convention : Reuss Voigt Hill
#
# Bulk Modulus (GPa) = 44.49543 53.28190 48.88866
# Shear Modulus (GPa) = 28.86692 37.93950 33.40321
#
# Velocity S-wave (km/s) = 3.46584 3.97332 3.72822
# Velocity P-wave (km/s) = 5.87634 6.57428 6.23508
#
# Compressibility (1/GPa) = 0.02247422
#
# Stress axis : x y z
#
# Youngs Moduli (GPa) = 43.39306 129.91599 107.50824
#
# Poissons Ratio (x) = 0.54106 0.50710
# Poissons Ratio (y) = 0.18072 -0.01038
# Poissons Ratio (z) = 0.20468 -0.01255
#
# Static dielectric constant tensor:
#      x y z
#    x 2.070540 -0.049380 -0.039830 
#    y -0.049380 1.927170 -0.007910 
#    z -0.039830 -0.007910 1.899460 
# 
# From -- ./inp_files/368731.got.cif
#   From: 2010.05.17/outbox.cif.g08.bks.cpg/sg2_185_cif.got.tgz:368731.got - 2010.06.03 11:33:40.
