data_PCOD9018816
_publ_section_title
;
Structure prediction by ZEFSAII (Michael W. Deem and Ramdas Pophale) SiO2 
 PCOD9018816
Probable space group: P -1
;
_chemical_formula_sum "Si O2"
_cell_formula_units_Z 14
_cell_length_a 6.479548
_cell_length_b 6.624285
_cell_length_c 17.182117
_cell_angle_alpha 66.495049
_cell_angle_beta 87.434695
_cell_angle_gamma 116.375504
_cell_volume 583.374847
_symmetry_space_group_name_H-M "P -1"
_symmetry_group_IT_number 2
_symmetry_cell_setting 'triclinic'
loop_
_space_group_symop_operation_xyz
x,y,z
-x,-y,-z
loop_
_atom_site_type_symbol
_atom_site_label
_atom_site_fract_x
_atom_site_fract_y
_atom_site_fract_z
Si Si1 0.619595 0.517155 0.319529
Si Si2 0.738356 0.348376 0.062064
Si Si3 0.939136 0.029789 0.789398
Si Si4 0.783900 0.207640 0.459102
Si Si5 0.535540 0.175645 0.785029
Si Si6 0.427993 0.546152 0.098688
Si Si7 0.897486 0.957221 0.624331
O O1 0.762082 0.442392 0.389286
O O2 0.494385 0.686533 0.311481
O O3 0.386535 0.257973 0.334996
O O4 0.818495 0.719627 0.224767
O O5 0.658215 0.513479 0.089488
O O6 0.688972 0.100832 0.148666
O O7 0.572085 0.279047 0.998405
O O8 0.000000 0.500000 0.000000
O O9 0.745499 0.117976 0.779335
O O10 0.795724 0.741305 0.867496
O O11 0.990633 0.006072 0.702191
O O12 0.939053 0.134071 0.409956
O O13 0.500000 0.000000 0.500000
O O14 0.896035 0.188442 0.542294
O O15 0.594478 0.350920 0.833827
#
# Coordination Sequence:
#
# PCOD9018816 Si02
#       7
#     2   2   2   2   2   2   2
#     4  11  22  38  64  96 124 168 212 255 325 375
#     4  10  22  40  64  92 125 172 214 254 320 377
#     4  11  24  40  65  95 127 170 211 264 321 375
#     4   9  21  41  68  92 127 172 210 264 321 372
#     4  11  23  41  62  96 131 166 214 265 315 382
#     4  10  22  42  62  91 132 164 210 269 308 375
#     4  10  21  44  64  93 133 162 216 271 307 381
#
# _framework density 23.998290999999998
#
# number of rings (size 3 to 8) (size 9 to 14) (size 15 to 20)
#    0.000    1.714    1.429    2.143    0.000    4.571 
#    0.000    7.143    0.000    0.000    0.000    0.000 
#    0.000    0.000    0.000    0.000    0.000    0.000 
#
# Total GULP energy -78012.827320 kJ/mol
# GULP energy per Si atom -5572.344809 kJ/mol
# Density = 2.394367 g / cm^3
# Si number density = 23.998291 Si / 1000 Ang^3
#
#
#
# Elastic Constant Matrix: (Units=GPa)
#
#
# Indices 1 2 3 4 5 6 
#
# 1 87.2123 32.9016 8.9486 -6.3449 -6.6725 1.9345
# 2 32.9016 56.5932 27.5479 -0.2692 -0.9212 -0.8054
# 3 8.9486 27.5479 89.4319 -8.2185 21.2435 -7.4187
# 4 -6.3449 -0.2692 -8.2185 44.7747 -5.1541 4.5746
# 5 -6.6725 -0.9212 21.2435 -5.1541 64.8513 -12.7684
# 6 1.9345 -0.8054 -7.4187 4.5746 -12.7684 31.6808
#
#
#
# Elastic Compliance Matrix: (Units=1/GPa)
#
#
# Indices 1 2 3 4 5 6 
#
# 1 0.015176 -0.009443 0.001309 0.002536 0.001041 -0.000807
# 2 -0.009443 0.027108 -0.008055 -0.002482 0.001959 0.000527
# 3 0.001309 -0.008055 0.014889 0.002246 -0.004466 0.001077
# 4 0.002536 -0.002482 0.002246 0.023466 0.000813 -0.002753
# 5 0.001041 0.001959 -0.004466 0.000813 0.018303 0.006200
# 6 -0.000807 0.000527 0.001077 -0.002753 0.006200 0.034776
#
#
# Mechanical properties :
#
#
# Convention : Reuss Voigt Hill
#
# Bulk Modulus (GPa) = 40.32972 41.33706 40.83339
# Shear Modulus (GPa) = 28.67621 39.18400 33.93011
#
# Velocity S-wave (km/s) = 3.46052 4.04515 3.76421
# Velocity P-wave (km/s) = 5.72789 6.25141 5.99536
#
# Compressibility (1/GPa) = 0.02479561
#
# Stress axis : x y z
#
# Youngs Moduli (GPa) = 65.89174 36.88925 67.16576
#
# Poissons Ratio (x) = 0.34833 -0.08791
# Poissons Ratio (y) = 0.62220 0.54102
# Poissons Ratio (z) = -0.08625 0.29714
#
# Static dielectric constant tensor:
#      x y z
#    x 2.030330 0.034680 0.008360 
#    y 0.034680 1.912160 -0.052070 
#    z 0.008360 -0.052070 1.956800 
# 
# From -- ./inp_files/7924.got.cif
#   From: 2010.05.17/outbox.cif.g08.bks.cpg/sg2_4_cif.got.tgz:7924.got - 2010.06.03 11:33:40.
