data_PCOD9018006
_publ_section_title
;
Structure prediction by ZEFSAII (Michael W. Deem and Ramdas Pophale) SiO2 
 PCOD9018006
Probable space group: P -1
;
_chemical_formula_sum "Si O2"
_cell_formula_units_Z 14
_cell_length_a 12.194938
_cell_length_b 9.518161
_cell_length_c 5.251346
_cell_angle_alpha 110.496659
_cell_angle_beta 99.407257
_cell_angle_gamma 96.165042
_cell_volume 554.264250
_symmetry_space_group_name_H-M "P -1"
_symmetry_group_IT_number 2
_symmetry_cell_setting 'triclinic'
loop_
_space_group_symop_operation_xyz
x,y,z
-x,-y,-z
loop_
_atom_site_type_symbol
_atom_site_label
_atom_site_fract_x
_atom_site_fract_y
_atom_site_fract_z
Si Si1 0.297098 0.661105 0.518479
Si Si2 0.075138 0.659260 0.689483
Si Si3 0.566239 0.670075 0.209684
Si Si4 0.797353 0.119312 0.741390
Si Si5 0.079819 0.130493 0.269806
Si Si6 0.292375 0.331420 0.216830
Si Si7 0.426722 0.869088 0.051954
O O1 0.196686 0.619869 0.653111
O O2 0.259303 0.802125 0.453215
O O3 0.294535 0.509633 0.263573
O O4 0.405427 0.723127 0.762802
O O5 0.000000 0.500000 0.500000
O O6 0.008349 0.773883 0.581772
O O7 0.103454 0.750670 0.022612
O O8 0.630194 0.665226 0.498552
O O9 0.486272 0.799101 0.266370
O O10 0.500000 0.500000 0.000000
O O11 0.654130 0.727879 0.051290
O O12 0.693072 0.086003 0.883665
O O13 0.845160 0.967289 0.600867
O O14 0.169092 0.241875 0.196403
O O15 0.000000 0.000000 0.000000
O O16 0.500000 0.000000 0.000000
#
# Coordination Sequence:
#
# PCOD9018006 Si02
#       7
#     2   2   2   2   2   2   2
#     4  11  24  41  68 100 135 180 240 289 352 434
#     4  10  21  43  67  98 135 178 234 289 363 417
#     4  12  26  46  73 107 144 191 242 299 359 426
#     4  10  24  43  66 100 136 182 238 291 355 431
#     4  10  23  48  69 102 145 186 241 299 367 428
#     4  12  26  46  73 108 145 189 245 299 356 435
#     4  11  25  43  67  95 142 184 233 292 357 422
#
# _framework density 25.258710000000001
#
# number of rings (size 3 to 8) (size 9 to 14) (size 15 to 20)
#    0.000    1.143    2.857    2.143    6.000    1.714 
#    5.143    0.000    0.000    0.000    0.000    0.000 
#    0.000    0.000    0.000    0.000    0.000    0.000 
#
# Total GULP energy -78202.354518 kJ/mol
# GULP energy per Si atom -5585.882466 kJ/mol
# Density = 2.520122 g / cm^3
# Si number density = 25.258710 Si / 1000 Ang^3
#
#
#
# Elastic Constant Matrix: (Units=GPa)
#
#
# Indices 1 2 3 4 5 6 
#
# 1 79.8117 23.8431 27.6949 14.4944 18.9807 -5.5931
# 2 23.8431 108.9369 11.6485 9.7817 20.6598 -9.6569
# 3 27.6949 11.6485 69.1979 -6.5113 7.6624 9.3435
# 4 14.4944 9.7817 -6.5113 38.1149 -3.9058 7.5398
# 5 18.9807 20.6598 7.6624 -3.9058 23.1283 9.0729
# 6 -5.5931 -9.6569 9.3435 7.5398 9.0729 64.7579
#
#
#
# Elastic Compliance Matrix: (Units=1/GPa)
#
#
# Indices 1 2 3 4 5 6 
#
# 1 0.025531 0.003085 -0.010705 -0.017065 -0.026957 0.009973
# 2 0.003085 0.013364 -0.003165 -0.008103 -0.017169 0.006065
# 3 -0.010705 -0.003165 0.020154 0.010650 0.009427 -0.006865
# 4 -0.017065 -0.008103 0.010650 0.042355 0.030111 -0.013369
# 5 -0.026957 -0.017169 0.009427 0.030111 0.091514 -0.022576
# 6 0.009973 0.006065 -0.006865 -0.013369 -0.022576 0.022918
#
#
# Mechanical properties :
#
#
# Convention : Reuss Voigt Hill
#
# Bulk Modulus (GPa) = 26.68096 42.70217 34.69157
# Shear Modulus (GPa) = 20.00812 38.18422 29.09617
#
# Velocity S-wave (km/s) = 2.81753 3.89231 3.39769
# Velocity P-wave (km/s) = 4.60116 6.09448 5.39969
#
# Compressibility (1/GPa) = 0.03747991
#
# Stress axis : x y z
#
# Youngs Moduli (GPa) = 39.16755 74.82833 49.61843
#
# Poissons Ratio (x) = -0.23087 0.53118
# Poissons Ratio (y) = -0.12084 0.15703
# Poissons Ratio (z) = 0.41930 0.23681
#
# Static dielectric constant tensor:
#      x y z
#    x 2.021460 0.109860 0.031440 
#    y 0.109860 1.953660 -0.057940 
#    z 0.031440 -0.057940 2.050410 
# 
# From -- ./inp_files/37000.got.cif
#   From: 2010.05.17/outbox.cif.g08.bks.cpg/sg2_19_cif.got.tgz:37000.got - 2010.06.03 11:33:40.
