data_PCOD9018219
_publ_section_title
;
Structure prediction by ZEFSAII (Michael W. Deem and Ramdas Pophale) SiO2 
 PCOD9018219
Probable space group: P -1
;
_chemical_formula_sum "Si O2"
_cell_formula_units_Z 16
_cell_length_a 22.270051
_cell_length_b 9.512699
_cell_length_c 16.029626
_cell_angle_alpha 47.172653
_cell_angle_beta 18.124932
_cell_angle_gamma 47.183891
_cell_volume 766.339104
_symmetry_space_group_name_H-M "P -1"
_symmetry_group_IT_number 2
_symmetry_cell_setting 'triclinic'
loop_
_space_group_symop_operation_xyz
x,y,z
-x,-y,-z
loop_
_atom_site_type_symbol
_atom_site_label
_atom_site_fract_x
_atom_site_fract_y
_atom_site_fract_z
Si Si1 0.963816 0.172598 0.911570
Si Si2 0.786754 0.854424 0.966122
Si Si3 0.479272 0.652219 0.539734
Si Si4 0.852017 0.456765 0.435227
Si Si5 0.653622 0.099885 0.880031
Si Si6 0.107545 0.826046 0.181713
Si Si7 0.494904 0.532424 0.750722
Si Si8 0.714367 0.805853 0.771418
O O1 0.960624 0.099902 0.850150
O O2 0.097314 0.344597 0.671986
O O3 0.745171 0.271863 0.179480
O O4 0.000000 0.000000 0.000000
O O5 0.944811 0.664145 0.817411
O O6 0.715986 0.954749 0.931711
O O7 0.880501 0.003253 0.838826
O O8 0.603452 0.811355 0.279242
O O9 0.500000 0.500000 0.500000
O O10 0.552443 0.563304 0.567380
O O11 0.754208 0.293540 0.681753
O O12 0.687366 0.517382 0.558496
O O13 0.719293 0.992319 0.749110
O O14 0.422105 0.149918 0.148132
O O15 0.931932 0.721962 0.490962
O O16 0.320148 0.699106 0.943225
O O17 0.395177 0.339856 0.971543
#
# Coordination Sequence:
#
# PCOD9018219 Si02
#       8
#     2   2   2   2   2   2   2   2
#     4  11  28  46  68  96 142 177 223 283 339 401
#     4  12  25  42  72 101 135 178 231 273 335 403
#     4  11  24  44  67  99 131 183 227 276 337 399
#     4  11  24  46  68  99 132 180 224 280 332 394
#     4  10  23  41  71 103 137 171 228 287 320 399
#     4  11  26  42  68 101 132 183 219 279 344 398
#     4  10  25  42  66  99 144 171 225 283 333 400
#     4  10  21  43  69 102 135 177 224 275 343 388
#
# _framework density 20.878484
#
# number of rings (size 3 to 8) (size 9 to 14) (size 15 to 20)
#    0.000    1.250    2.500    1.500    7.000    3.500 
#    0.000    2.500    0.000    0.000    0.000    0.000 
#    0.000    0.000    0.000    0.000    0.000    0.000 
#
# Total GULP energy -89339.853965 kJ/mol
# GULP energy per Si atom -5583.740873 kJ/mol
# Density = 2.083096 g / cm^3
# Si number density = 20.878484 Si / 1000 Ang^3
#
#
#
# Elastic Constant Matrix: (Units=GPa)
#
#
# Indices 1 2 3 4 5 6 
#
# 1 115.0154 39.3283 49.1268 -8.1336 -6.4037 -18.0270
# 2 39.3283 61.3868 6.6697 -10.5601 -10.1628 -5.7028
# 3 49.1268 6.6697 103.8515 -17.3132 -8.6964 -5.0400
# 4 -8.1336 -10.5601 -17.3132 20.6856 9.7973 2.4454
# 5 -6.4037 -10.1628 -8.6964 9.7973 19.8904 -5.0716
# 6 -18.0270 -5.7028 -5.0400 2.4454 -5.0716 30.1165
#
#
#
# Elastic Compliance Matrix: (Units=1/GPa)
#
#
# Indices 1 2 3 4 5 6 
#
# 1 0.015980 -0.009533 -0.007538 -0.006830 0.002237 0.007430
# 2 -0.009533 0.024712 0.005161 0.009832 0.007027 0.000222
# 3 -0.007538 0.005161 0.014818 0.012246 0.000140 -0.002026
# 4 -0.006830 0.009832 0.012246 0.078202 -0.033441 -0.012158
# 5 0.002237 0.007027 0.000140 -0.033441 0.075751 0.018165
# 6 0.007430 0.000222 -0.002026 -0.012158 0.018165 0.041401
#
#
# Mechanical properties :
#
#
# Convention : Reuss Voigt Hill
#
# Bulk Modulus (GPa) = 31.55500 52.27817 41.91658
# Shear Modulus (GPa) = 17.52855 26.48041 22.00448
#
# Velocity S-wave (km/s) = 2.90064 3.56520 3.24995
# Velocity P-wave (km/s) = 5.13466 6.48391 5.84833
#
# Compressibility (1/GPa) = 0.03169070
#
# Stress axis : x y z
#
# Youngs Moduli (GPa) = 62.57834 40.46549 67.48323
#
# Poissons Ratio (x) = 0.38577 0.50868
# Poissons Ratio (y) = 0.59657 -0.34828
# Poissons Ratio (z) = 0.47170 -0.20884
#
# Static dielectric constant tensor:
#      x y z
#    x 1.727130 -0.019220 0.011500 
#    y -0.019220 1.799500 -0.040910 
#    z 0.011500 -0.040910 1.778070 
# 
# From -- ./inp_files/242577.got.cif
#   From: 2010.05.17/outbox.cif.g08.bks.cpg/sg2_122_cif.got.tgz:242577.got - 2010.06.03 11:33:40.
