data_PCOD9018367
_publ_section_title
;
Structure prediction by ZEFSAII (Michael W. Deem and Ramdas Pophale) SiO2 
 PCOD9018367
Probable space group: P -1
;
_chemical_formula_sum "Si O2"
_cell_formula_units_Z 14
_cell_length_a 5.687090
_cell_length_b 18.243750
_cell_length_c 8.039995
_cell_angle_alpha 60.980522
_cell_angle_beta 64.800478
_cell_angle_gamma 104.239597
_cell_volume 541.430122
_symmetry_space_group_name_H-M "P -1"
_symmetry_group_IT_number 2
_symmetry_cell_setting 'triclinic'
loop_
_space_group_symop_operation_xyz
x,y,z
-x,-y,-z
loop_
_atom_site_type_symbol
_atom_site_label
_atom_site_fract_x
_atom_site_fract_y
_atom_site_fract_z
Si Si1 0.281850 0.423321 0.801979
Si Si2 0.820147 0.242454 0.947857
Si Si3 0.879332 0.494791 0.734671
Si Si4 0.097582 0.714051 0.486424
Si Si5 0.664360 0.896762 0.252023
Si Si6 0.626675 0.998409 0.642856
Si Si7 0.762307 0.807672 0.656515
O O1 0.500000 0.500000 0.500000
O O2 0.512598 0.449888 0.857595
O O3 0.090380 0.303482 0.938558
O O4 0.006765 0.442853 0.868295
O O5 0.997648 0.289762 0.671142
O O6 0.606895 0.121192 0.118377
O O7 0.547121 0.258360 0.063527
O O8 0.000000 0.500000 0.500000
O O9 0.032219 0.605143 0.650401
O O10 0.474820 0.802561 0.287718
O O11 0.916642 0.748960 0.615419
O O12 0.670743 0.845351 0.478084
O O13 0.460305 0.943399 0.269602
O O14 0.000000 0.000000 0.000000
O O15 0.500000 0.000000 0.500000
O O16 0.003347 0.083830 0.438687
#
# Coordination Sequence:
#
# PCOD9018367 Si02
#       7
#     2   2   2   2   2   2   2
#     4  10  22  42  69 110 137 181 255 297 356 441
#     4  12  23  44  76  96 138 198 230 298 367 419
#     4  10  21  43  70 102 143 181 244 305 354 437
#     4  11  25  43  70 100 139 187 234 299 365 424
#     4  11  24  42  67 100 141 182 234 293 361 431
#     4  11  24  42  65 102 140 181 234 293 349 436
#     4  11  26  45  62 107 142 176 246 289 354 445
#
# _framework density 25.857444999999998
#
# number of rings (size 3 to 8) (size 9 to 14) (size 15 to 20)
#    0.000    1.143    4.286    2.143    4.000    5.714 
#    0.000    1.429    0.000    0.000    0.000    0.000 
#    0.000    0.000    0.000    0.000    0.000    0.000 
#
# Total GULP energy -78156.425147 kJ/mol
# GULP energy per Si atom -5582.601796 kJ/mol
# Density = 2.579859 g / cm^3
# Si number density = 25.857445 Si / 1000 Ang^3
#
#
#
# Elastic Constant Matrix: (Units=GPa)
#
#
# Indices 1 2 3 4 5 6 
#
# 1 95.3683 43.7257 4.5481 -25.7517 2.7216 18.3756
# 2 43.7257 172.6764 39.3001 -44.2031 -14.2660 -1.4499
# 3 4.5481 39.3001 71.6071 -13.7468 -7.7374 -1.9478
# 4 -25.7517 -44.2031 -13.7468 49.0502 12.9692 -1.4209
# 5 2.7216 -14.2660 -7.7374 12.9692 34.3036 -8.5987
# 6 18.3756 -1.4499 -1.9478 -1.4209 -8.5987 46.4605
#
#
#
# Elastic Compliance Matrix: (Units=1/GPa)
#
#
# Indices 1 2 3 4 5 6 
#
# 1 0.015280 -0.002856 0.001084 0.007319 -0.006703 -0.007104
# 2 -0.002856 0.008729 -0.003423 0.005031 0.001611 0.001711
# 3 0.001084 -0.003423 0.016281 0.001619 0.001678 0.000507
# 4 0.007319 0.005031 0.001619 0.032067 -0.011189 -0.003760
# 5 -0.006703 0.001611 0.001678 -0.011189 0.037302 0.009333
# 6 -0.007104 0.001711 0.000507 -0.003760 0.009333 0.026020
#
#
# Mechanical properties :
#
#
# Convention : Reuss Voigt Hill
#
# Bulk Modulus (GPa) = 33.44428 57.19994 45.32211
# Shear Modulus (GPa) = 32.04458 42.76806 37.40632
#
# Velocity S-wave (km/s) = 3.52416 4.07134 3.80759
# Velocity P-wave (km/s) = 5.43339 6.65360 6.07422
#
# Compressibility (1/GPa) = 0.02990048
#
# Stress axis : x y z
#
# Youngs Moduli (GPa) = 65.44677 114.56432 61.42308
#
# Poissons Ratio (x) = 0.32718 -0.06661
# Poissons Ratio (y) = 0.18691 0.21023
# Poissons Ratio (z) = -0.07097 0.39212
#
# Static dielectric constant tensor:
#      x y z
#    x 1.945730 0.085190 0.084730 
#    y 0.085190 2.183270 -0.645730 
#    z 0.084730 -0.645730 3.020170 
# 
# From -- ./inp_files/138854.got.cif
#   From: 2010.05.17/outbox.cif.g08.bks.cpg/sg2_70_cif.got.tgz:138854.got - 2010.06.03 11:33:40.
