data_PCOD9018629
_publ_section_title
;
Structure prediction by ZEFSAII (Michael W. Deem and Ramdas Pophale) SiO2 
 PCOD9018629
Probable space group: P -1
;
_chemical_formula_sum "Si O2"
_cell_formula_units_Z 8
_cell_length_a 12.177903
_cell_length_b 6.577993
_cell_length_c 5.252951
_cell_angle_alpha 81.035299
_cell_angle_beta 48.527832
_cell_angle_gamma 93.578677
_cell_volume 303.542539
_symmetry_space_group_name_H-M "P -1"
_symmetry_group_IT_number 2
_symmetry_cell_setting 'triclinic'
loop_
_space_group_symop_operation_xyz
x,y,z
-x,-y,-z
loop_
_atom_site_type_symbol
_atom_site_label
_atom_site_fract_x
_atom_site_fract_y
_atom_site_fract_z
Si Si1 0.460495 0.113402 0.284902
Si Si2 0.650255 0.487276 0.126648
Si Si3 0.832995 0.910752 0.513521
Si Si4 0.100753 0.729143 0.232987
O O1 0.573517 0.341129 0.041728
O O2 0.283316 0.105730 0.538112
O O3 0.500000 0.000000 0.500000
O O4 0.500000 0.000000 0.000000
O O5 0.500000 0.500000 0.500000
O O6 0.743694 0.716884 0.866392
O O7 0.759797 0.344681 0.099784
O O8 0.990090 0.845160 0.227076
O O9 0.856343 0.122074 0.610434
O O10 0.000000 0.500000 0.500000
#
# Coordination Sequence:
#
# PCOD9018629 Si02
#       4
#     2   2   2   2
#     4  12  25  45  75 110 150 195 249 311 375 447
#     4  11  23  41  73 110 146 190 243 308 371 443
#     4  10  21  43  73 103 147 195 245 304 371 443
#     4   9  20  41  73 102 148 193 248 300 372 444
#
# _framework density 26.355452
#
# number of rings (size 3 to 8) (size 9 to 14) (size 15 to 20)
#    0.000    1.500    2.500    2.250    0.000    0.000 
#    0.000    2.500    0.000    0.000    0.000    0.000 
#    0.000    0.000    0.000    0.000    0.000    0.000 
#
# Total GULP energy -44745.738891 kJ/mol
# GULP energy per Si atom -5593.217361 kJ/mol
# Density = 2.629547 g / cm^3
# Si number density = 26.355452 Si / 1000 Ang^3
#
#
#
# Elastic Constant Matrix: (Units=GPa)
#
#
# Indices 1 2 3 4 5 6 
#
# 1 217.5204 50.0529 52.6088 5.5745 -24.5109 -43.2379
# 2 50.0529 195.8432 37.0886 -7.0557 -4.6314 8.8560
# 3 52.6088 37.0886 85.9755 13.8415 -28.2753 -25.4223
# 4 5.5745 -7.0557 13.8415 55.0014 -6.4600 -13.4201
# 5 -24.5109 -4.6314 -28.2753 -6.4600 65.5531 6.1307
# 6 -43.2379 8.8560 -25.4223 -13.4201 6.1307 67.9720
#
#
#
# Elastic Compliance Matrix: (Units=1/GPa)
#
#
# Indices 1 2 3 4 5 6 
#
# 1 0.006149 -0.001308 -0.001933 0.000653 0.001120 0.003387
# 2 -0.001308 0.006150 -0.003098 0.000965 -0.001061 -0.002506
# 3 -0.001933 -0.003098 0.018040 -0.002851 0.006109 0.004807
# 4 0.000653 0.000965 -0.002851 0.019792 0.000747 0.003064
# 5 0.001120 -0.001061 0.006109 0.000747 0.018153 0.001646
# 6 0.003387 -0.002506 0.004807 0.003064 0.001646 0.019447
#
#
# Mechanical properties :
#
#
# Convention : Reuss Voigt Hill
#
# Bulk Modulus (GPa) = 56.62619 86.53773 71.58196
# Shear Modulus (GPa) = 47.03802 61.67787 54.35794
#
# Velocity S-wave (km/s) = 4.22922 4.84284 4.54640
# Velocity P-wave (km/s) = 6.73651 8.01105 7.40127
#
# Compressibility (1/GPa) = 0.01765967
#
# Stress axis : x y z
#
# Youngs Moduli (GPa) = 162.63892 162.59632 55.43187
#
# Poissons Ratio (x) = 0.21274 0.10716
# Poissons Ratio (y) = 0.21280 0.17173
# Poissons Ratio (z) = 0.31443 0.50372
#
# Static dielectric constant tensor:
#      x y z
#    x 2.108850 -0.032590 -0.060030 
#    y -0.032590 2.519880 0.163280 
#    z -0.060030 0.163280 2.205710 
# 
# From -- ./inp_files/2038.got.cif
#   From: 2010.05.17/outbox.cif.g08.bks.cpg/sg2_2_cif.got.tgz:2038.got - 2010.06.03 11:33:40.
