data_PCOD9018471
_publ_section_title
;
Structure prediction by ZEFSAII (Michael W. Deem and Ramdas Pophale) SiO2 
 PCOD9018471
Probable space group: P -1
;
_chemical_formula_sum "Si O2"
_cell_formula_units_Z 16
_cell_length_a 10.494734
_cell_length_b 8.632503
_cell_length_c 13.788703
_cell_angle_alpha 107.462460
_cell_angle_beta 37.001594
_cell_angle_gamma 123.857206
_cell_volume 597.531811
_symmetry_space_group_name_H-M "P -1"
_symmetry_group_IT_number 2
_symmetry_cell_setting 'triclinic'
loop_
_space_group_symop_operation_xyz
x,y,z
-x,-y,-z
loop_
_atom_site_type_symbol
_atom_site_label
_atom_site_fract_x
_atom_site_fract_y
_atom_site_fract_z
Si Si1 0.741051 0.410339 0.200528
Si Si2 0.996864 0.685807 0.513057
Si Si3 0.270533 0.132481 0.302581
Si Si4 0.945385 0.607423 0.839509
Si Si5 0.314452 0.165118 0.904182
Si Si6 0.739129 0.076483 0.438284
Si Si7 0.726102 0.213270 0.816985
Si Si8 0.805117 0.809512 0.223793
O O1 0.503958 0.246095 0.254564
O O2 0.719837 0.594280 0.263076
O O3 0.801233 0.330265 0.243196
O O4 0.000000 0.500000 0.000000
O O5 0.240532 0.874864 0.452177
O O6 0.016239 0.691071 0.385904
O O7 0.000000 0.500000 0.500000
O O8 0.766905 0.704292 0.689420
O O9 0.320176 0.998364 0.177438
O O10 0.000000 0.000000 0.500000
O O11 0.783633 0.373511 0.891350
O O12 0.044512 0.711210 0.695707
O O13 0.791111 0.696297 0.989111
O O14 0.528775 0.208973 0.859606
O O15 0.363697 0.189159 0.762537
O O16 0.084659 0.944772 0.030484
O O17 0.500000 0.000000 0.500000
O O18 0.814715 0.925375 0.334987
#
# Coordination Sequence:
#
# PCOD9018471 Si02
#       8
#     2   2   2   2   2   2   2   2
#     4  12  25  46  71 102 142 187 232 287 352 416
#     4  11  24  45  67  96 135 179 233 282 344 413
#     4  10  27  45  69 100 138 190 229 283 358 409
#     4  11  25  42  68 105 137 179 238 287 346 414
#     4  10  21  43  71 100 137 180 235 284 351 409
#     4  11  25  41  69 101 130 179 239 283 345 416
#     4  11  23  44  69  94 142 181 224 294 346 405
#     4  10  23  40  68 101 135 178 231 287 344 408
#
# _framework density 26.776816
#
# number of rings (size 3 to 8) (size 9 to 14) (size 15 to 20)
#    0.000    1.250    2.500    1.875   12.250    0.000 
#    4.500    4.375    0.000    0.000    0.000    0.000 
#    0.000    0.000    0.000    0.000    0.000    0.000 
#
# Total GULP energy -89486.629670 kJ/mol
# GULP energy per Si atom -5592.914354 kJ/mol
# Density = 2.671587 g / cm^3
# Si number density = 26.776816 Si / 1000 Ang^3
#
#
#
# Elastic Constant Matrix: (Units=GPa)
#
#
# Indices 1 2 3 4 5 6 
#
# 1 126.4408 40.9553 28.7351 12.1333 -37.8261 7.0149
# 2 40.9553 194.8032 50.6025 33.1907 -12.7483 0.7942
# 3 28.7351 50.6025 58.3137 8.0116 -21.0144 6.3570
# 4 12.1333 33.1907 8.0116 50.9968 -2.8292 -0.0507
# 5 -37.8261 -12.7483 -21.0144 -2.8292 47.9875 0.3347
# 6 7.0149 0.7942 6.3570 -0.0507 0.3347 51.6887
#
#
#
# Elastic Compliance Matrix: (Units=1/GPa)
#
#
# Indices 1 2 3 4 5 6 
#
# 1 0.011147 -0.001308 -0.001216 -0.001176 0.007847 -0.001395
# 2 -0.001308 0.007510 -0.006157 -0.003717 -0.001957 0.000828
# 3 -0.001216 -0.006157 0.026629 0.000616 0.009125 -0.003074
# 4 -0.001176 -0.003717 0.000616 0.022193 -0.000337 0.000165
# 5 0.007847 -0.001957 0.009125 -0.000337 0.030496 -0.002355
# 6 -0.001395 0.000828 -0.003074 0.000165 -0.002355 0.019917
#
#
# Mechanical properties :
#
#
# Convention : Reuss Voigt Hill
#
# Bulk Modulus (GPa) = 35.81287 68.90481 52.35884
# Shear Modulus (GPa) = 34.58746 47.41891 41.00319
#
# Velocity S-wave (km/s) = 3.59791 4.21276 3.91742
# Velocity P-wave (km/s) = 5.53747 7.03222 6.32913
#
# Compressibility (1/GPa) = 0.02792292
#
# Stress axis : x y z
#
# Youngs Moduli (GPa) = 89.71406 133.16436 37.55243
#
# Poissons Ratio (x) = 0.17417 0.04568
# Poissons Ratio (y) = 0.11734 0.23121
# Poissons Ratio (z) = 0.10913 0.81988
#
# Static dielectric constant tensor:
#      x y z
#    x 2.175420 -0.098300 0.017240 
#    y -0.098300 2.151350 -0.028940 
#    z 0.017240 -0.028940 2.174690 
# 
# From -- ./inp_files/329109.got.cif
#   From: 2010.05.17/outbox.cif.g08.bks.cpg/sg2_165_cif.got.tgz:329109.got - 2010.06.03 11:33:40.
