data_PCOD9018171
_publ_section_title
;
Structure prediction by ZEFSAII (Michael W. Deem and Ramdas Pophale) SiO2 
 PCOD9018171
Probable space group: P -1
;
_chemical_formula_sum "Si O2"
_cell_formula_units_Z 15
_cell_length_a 13.785080
_cell_length_b 25.977531
_cell_length_c 5.863577
_cell_angle_alpha 50.242026
_cell_angle_beta 51.165614
_cell_angle_gamma 20.463341
_cell_volume 561.290861
_symmetry_space_group_name_H-M "P -1"
_symmetry_group_IT_number 2
_symmetry_cell_setting 'triclinic'
loop_
_space_group_symop_operation_xyz
x,y,z
-x,-y,-z
loop_
_atom_site_type_symbol
_atom_site_label
_atom_site_fract_x
_atom_site_fract_y
_atom_site_fract_z
Si Si1 0.589511 0.347804 0.141690
Si Si2 0.175045 0.351824 0.948455
Si Si3 0.960046 0.692824 0.984372
Si Si4 0.288055 0.949500 0.748695
Si Si5 0.500000 0.000000 0.000000
Si Si6 0.386698 0.380221 0.733306
Si Si7 0.131990 0.151002 0.675673
Si Si8 0.208341 0.876502 0.775299
O O1 0.547784 0.363862 0.429083
O O2 0.661738 0.234557 0.291321
O O3 0.287988 0.522304 0.024443
O O4 0.844402 0.264032 0.892654
O O5 0.192355 0.306012 0.815015
O O6 0.394369 0.214980 0.188225
O O7 0.866004 0.484110 0.111943
O O8 0.234612 0.401750 0.723507
O O9 0.924263 0.751154 0.636494
O O10 0.788250 0.816891 0.071267
O O11 0.212784 0.062738 0.589073
O O12 0.217525 0.952030 0.596567
O O13 0.104044 0.998646 0.071663
O O14 0.373926 0.030265 0.851090
O O15 0.617293 0.231177 0.958374
#
# Coordination Sequence:
#
# PCOD9018171 Si02
#       8
#     2   2   2   2   1   2   2   2
#     4  11  25  45  72 104 136 181 237 279 346 418
#     4  10  21  43  68  97 144 173 221 294 340 401
#     4  12  26  46  69 102 140 185 233 282 342 407
#     4   9  19  40  69  95 134 176 218 274 354 402
#     4  12  28  46  70 102 132 192 234 278 344 398
#     4  10  22  42  68 105 136 176 229 282 349 415
#     4  11  26  48  69 101 143 183 233 286 335 413
#     4   9  19  41  68 101 134 173 218 289 354 399
#
# _framework density 26.724111000000001
#
# number of rings (size 3 to 8) (size 9 to 14) (size 15 to 20)
#    0.000    1.600    2.667    0.800    1.867    3.200 
#    2.400   16.667    0.000    0.000    0.000    0.000 
#    0.000    0.000    0.000    0.000    0.000    0.000 
#
# Total GULP energy -83598.066326 kJ/mol
# GULP energy per Si atom -5573.204422 kJ/mol
# Density = 2.666329 g / cm^3
# Si number density = 26.724111 Si / 1000 Ang^3
#
#
#
# Elastic Constant Matrix: (Units=GPa)
#
#
# Indices 1 2 3 4 5 6 
#
# 1 91.4358 28.5697 13.0054 -11.8052 0.8273 8.8844
# 2 28.5697 161.1224 23.8304 4.0332 8.0752 0.2936
# 3 13.0054 23.8304 40.3641 -6.0535 5.6516 -0.9498
# 4 -11.8052 4.0332 -6.0535 40.7280 -7.0549 8.6113
# 5 0.8273 8.0752 5.6516 -7.0549 13.4136 -8.8161
# 6 8.8844 0.2936 -0.9498 8.6113 -8.8161 30.0856
#
#
#
# Elastic Compliance Matrix: (Units=1/GPa)
#
#
# Indices 1 2 3 4 5 6 
#
# 1 0.013052 -0.002096 -0.002461 0.004820 0.000682 -0.005091
# 2 -0.002096 0.007368 -0.003468 -0.002573 -0.004245 -0.000070
# 3 -0.002461 -0.003468 0.029378 0.002683 -0.010060 -0.002028
# 4 0.004820 -0.002573 0.002683 0.029990 0.011630 -0.006490
# 5 0.000682 -0.004245 -0.010060 0.011630 0.105174 0.027013
# 6 -0.005091 -0.000070 -0.002028 -0.006490 0.027013 0.044452
#
#
# Mechanical properties :
#
#
# Convention : Reuss Voigt Hill
#
# Bulk Modulus (GPa) = 29.63016 47.08148 38.35582
# Shear Modulus (GPa) = 19.47692 32.01322 25.74507
#
# Velocity S-wave (km/s) = 2.70259 3.46485 3.10718
# Velocity P-wave (km/s) = 4.56619 5.80196 5.22077
#
# Compressibility (1/GPa) = 0.03374940
#
# Stress axis : x y z
#
# Youngs Moduli (GPa) = 76.61467 135.71605 34.03914
#
# Poissons Ratio (x) = 0.28447 0.08375
# Poissons Ratio (y) = 0.16059 0.11805
# Poissons Ratio (z) = 0.18851 0.47067
#
# Static dielectric constant tensor:
#      x y z
#    x 2.185680 0.080170 -0.039160 
#    y 0.080170 2.027490 0.035060 
#    z -0.039160 0.035060 2.125850 
# 
# From -- ./inp_files/101462.got.cif
#   From: 2010.05.17/outbox.cif.g08.bks.cpg/sg2_51_cif.got.tgz:101462.got - 2010.06.03 11:33:40.
