data_PCOD9018755
_publ_section_title
;
Structure prediction by ZEFSAII (Michael W. Deem and Ramdas Pophale) SiO2 
 PCOD9018755
Probable space group: P -1
;
_chemical_formula_sum "Si O2"
_cell_formula_units_Z 16
_cell_length_a 6.587192
_cell_length_b 20.809410
_cell_length_c 20.247319
_cell_angle_alpha 158.964796
_cell_angle_beta 73.954047
_cell_angle_gamma 116.247721
_cell_volume 809.365134
_symmetry_space_group_name_H-M "P -1"
_symmetry_group_IT_number 2
_symmetry_cell_setting 'triclinic'
loop_
_space_group_symop_operation_xyz
x,y,z
-x,-y,-z
loop_
_atom_site_type_symbol
_atom_site_label
_atom_site_fract_x
_atom_site_fract_y
_atom_site_fract_z
Si Si1 0.998510 0.270171 0.104528
Si Si2 0.758728 0.520241 0.109335
Si Si3 0.321537 0.216990 0.299749
Si Si4 0.475722 0.226412 0.572425
Si Si5 0.823786 0.457977 0.413506
Si Si6 0.937463 0.490766 0.205163
Si Si7 0.302319 0.846168 0.315690
Si Si8 0.557598 0.608413 0.399678
O O1 0.916713 0.388650 0.276179
O O2 0.926067 0.305256 0.071511
O O3 0.297515 0.391486 0.198816
O O4 0.863471 0.029767 0.908382
O O5 0.593706 0.616584 0.235701
O O6 0.821963 0.440456 0.094319
O O7 0.022984 0.709256 0.238335
O O8 0.641005 0.326781 0.883098
O O9 0.541094 0.276931 0.285426
O O10 0.182819 0.333896 0.401202
O O11 0.447453 0.318995 0.456701
O O12 0.419152 0.229939 0.503639
O O13 0.770652 0.326850 0.650615
O O14 0.323343 0.999246 0.402013
O O15 0.000000 0.500000 0.500000
O O16 0.785635 0.575347 0.338679
O O17 0.500000 0.000000 0.500000
#
# Coordination Sequence:
#
# PCOD9018755 Si02
#       8
#     2   2   2   2   2   2   2   2
#     4  11  23  41  65  92 124 168 207 259 315 367
#     4  10  23  42  63  95 126 163 211 256 306 377
#     4  11  24  41  66  93 123 169 206 257 318 366
#     4  10  22  42  64  90 128 168 205 261 310 362
#     4  11  23  43  64  94 130 159 210 261 307 380
#     4  10  21  44  62  89 132 160 212 262 300 373
#     4  11  22  42  66  94 128 165 206 258 313 367
#     4  10  22  43  61  93 128 160 217 258 301 380
#
# _framework density 19.768581000000001
#
# number of rings (size 3 to 8) (size 9 to 14) (size 15 to 20)
#    0.000    1.500    3.750    0.750    1.750    2.000 
#    9.000    0.000    0.000    0.000    0.000    0.000 
#    0.000    0.000    0.000    0.000    0.000    0.000 
#
# Total GULP energy -89401.247715 kJ/mol
# GULP energy per Si atom -5587.577982 kJ/mol
# Density = 1.972359 g / cm^3
# Si number density = 19.768581 Si / 1000 Ang^3
#
#
#
# Elastic Constant Matrix: (Units=GPa)
#
#
# Indices 1 2 3 4 5 6 
#
# 1 95.3522 34.4744 41.8319 12.4797 -3.9077 10.7850
# 2 34.4744 87.5157 32.9103 27.1495 -4.3820 4.6989
# 3 41.8319 32.9103 80.1819 22.7483 0.4447 -1.8994
# 4 12.4797 27.1495 22.7483 30.8753 -5.0139 -10.1644
# 5 -3.9077 -4.3820 0.4447 -5.0139 12.6954 -3.5895
# 6 10.7850 4.6989 -1.8994 -10.1644 -3.5895 34.5432
#
#
#
# Elastic Compliance Matrix: (Units=1/GPa)
#
#
# Indices 1 2 3 4 5 6 
#
# 1 0.015193 -0.003331 -0.006986 0.001107 0.003069 -0.004030
# 2 -0.003331 0.018676 -0.001274 -0.016913 -0.003158 -0.006875
# 3 -0.006986 -0.001274 0.020296 -0.012821 -0.008706 -0.001207
# 4 0.001107 -0.016913 -0.012821 0.069106 0.029205 0.024620
# 5 0.003069 -0.003158 -0.008706 0.029205 0.095411 0.017501
# 6 -0.004030 -0.006875 -0.001207 0.024620 0.017501 0.040139
#
#
# Mechanical properties :
#
#
# Convention : Reuss Voigt Hill
#
# Bulk Modulus (GPa) = 32.27638 53.49813 42.88725
# Shear Modulus (GPa) = 17.10381 25.87833 21.49107
#
# Velocity S-wave (km/s) = 2.94462 3.62202 3.30075
# Velocity P-wave (km/s) = 5.28428 6.67930 6.02232
#
# Compressibility (1/GPa) = 0.03098241
#
# Stress axis : x y z
#
# Youngs Moduli (GPa) = 65.81842 53.54505 49.27006
#
# Poissons Ratio (x) = 0.17838 0.34419
# Poissons Ratio (y) = 0.21926 0.06279
# Poissons Ratio (z) = 0.45979 0.06824
#
# Static dielectric constant tensor:
#      x y z
#    x 1.678540 -0.010240 0.001640 
#    y -0.010240 1.717180 -0.007080 
#    z 0.001640 -0.007080 1.655930 
# 
# From -- ./inp_files/120385.got.cif
#   From: 2010.05.17/outbox.cif.g08.bks.cpg/sg2_61_cif.got.tgz:120385.got - 2010.06.03 11:33:40.
