data_PCOD9018517
_publ_section_title
;
Structure prediction by ZEFSAII (Michael W. Deem and Ramdas Pophale) SiO2 
 PCOD9018517
Probable space group: P -1
;
_chemical_formula_sum "Si O2"
_cell_formula_units_Z 14
_cell_length_a 5.391928
_cell_length_b 23.822515
_cell_length_c 5.197565
_cell_angle_alpha 49.085342
_cell_angle_beta 94.142418
_cell_angle_gamma 81.266669
_cell_volume 485.313378
_symmetry_space_group_name_H-M "P -1"
_symmetry_group_IT_number 2
_symmetry_cell_setting 'triclinic'
loop_
_space_group_symop_operation_xyz
x,y,z
-x,-y,-z
loop_
_atom_site_type_symbol
_atom_site_label
_atom_site_fract_x
_atom_site_fract_y
_atom_site_fract_z
Si Si1 0.749364 0.528444 0.207129
Si Si2 0.687791 0.733248 0.952876
Si Si3 0.975462 0.120466 0.631533
Si Si4 0.662520 0.838885 0.121154
Si Si5 0.787420 0.295038 0.086426
Si Si6 0.834077 0.401058 0.164554
Si Si7 0.235221 0.986475 0.757683
O O1 0.766136 0.455727 0.241225
O O2 0.000000 0.500000 0.500000
O O3 0.438215 0.559687 0.137587
O O4 0.871260 0.593298 0.886260
O O5 0.632965 0.786900 0.527523
O O6 0.503840 0.677022 0.107559
O O7 0.982217 0.683294 0.108321
O O8 0.653552 0.787834 0.030184
O O9 0.071957 0.140580 0.856285
O O10 0.843414 0.205124 0.274375
O O11 0.209970 0.070118 0.630446
O O12 0.801012 0.063920 0.842755
O O13 0.470165 0.924302 0.834078
O O14 0.832316 0.314875 0.327462
O O15 0.000000 0.000000 0.500000
#
# Coordination Sequence:
#
# PCOD9018517 Si02
#       7
#     2   2   2   2   2   2   2
#     4  10  21  43  71 110 138 186 231 290 342 436
#     4  11  26  44  73  96 149 177 247 292 367 419
#     4  10  24  41  63  95 135 175 241 294 358 425
#     4  11  25  44  67  96 130 193 231 314 351 435
#     4  11  23  48  66 104 140 191 227 299 353 435
#     4  10  22  42  72 100 150 181 236 284 357 421
#     4  11  23  40  66  91 129 185 240 300 363 421
#
# _framework density 28.847337
#
# number of rings (size 3 to 8) (size 9 to 14) (size 15 to 20)
#    0.000    1.429    1.429    2.571    8.000    0.571 
#   12.857    0.000    0.000    0.000    0.000    0.000 
#    0.000    0.000    0.000    0.000    0.000    0.000 
#
# Total GULP energy -78078.691261 kJ/mol
# GULP energy per Si atom -5577.049376 kJ/mol
# Density = 2.878168 g / cm^3
# Si number density = 28.847337 Si / 1000 Ang^3
#
#
#
# Elastic Constant Matrix: (Units=GPa)
#
#
# Indices 1 2 3 4 5 6 
#
# 1 155.7218 24.1893 21.4910 9.3375 20.6334 22.9377
# 2 24.1893 220.4936 41.2057 16.6907 -0.1117 34.5481
# 3 21.4910 41.2057 71.9347 -2.6504 9.8694 11.4587
# 4 9.3375 16.6907 -2.6504 53.4478 1.7023 5.4787
# 5 20.6334 -0.1117 9.8694 1.7023 31.2640 12.8220
# 6 22.9377 34.5481 11.4587 5.4787 12.8220 33.4884
#
#
#
# Elastic Compliance Matrix: (Units=1/GPa)
#
#
# Indices 1 2 3 4 5 6 
#
# 1 0.007576 0.000022 -0.001340 -0.000949 -0.003131 -0.003399
# 2 0.000022 0.006273 -0.003124 -0.001561 0.003792 -0.006614
# 3 -0.001340 -0.003124 0.016827 0.002214 -0.004446 -0.000277
# 4 -0.000949 -0.001561 0.002214 0.019644 -0.000529 -0.001509
# 5 -0.003131 0.003792 -0.004446 -0.000529 0.042188 -0.016312
# 6 -0.003399 -0.006614 -0.000277 -0.001509 -0.016312 0.045600
#
#
# Mechanical properties :
#
#
# Convention : Reuss Voigt Hill
#
# Bulk Modulus (GPa) = 45.88815 69.10247 57.49531
# Shear Modulus (GPa) = 32.41375 47.72431 40.06903
#
# Velocity S-wave (km/s) = 3.35570 4.07181 3.73098
# Velocity P-wave (km/s) = 5.56382 6.79064 6.20761
#
# Compressibility (1/GPa) = 0.02179212
#
# Stress axis : x y z
#
# Youngs Moduli (GPa) = 132.00217 159.41159 59.42833
#
# Poissons Ratio (x) = -0.00353 0.07963
# Poissons Ratio (y) = -0.00293 0.18566
# Poissons Ratio (z) = 0.17687 0.49801
#
# Static dielectric constant tensor:
#      x y z
#    x 2.553520 -0.084510 -0.118170 
#    y -0.084510 2.239870 0.059200 
#    z -0.118170 0.059200 2.633920 
# 
# From -- ./inp_files/10268.got.cif
#   From: 2010.05.17/outbox.cif.g08.bks.cpg/sg2_6_cif.got.tgz:10268.got - 2010.06.03 11:33:40.
