data_PCOD9018743
_publ_section_title
;
Structure prediction by ZEFSAII (Michael W. Deem and Ramdas Pophale) SiO2 
 PCOD9018743
Probable space group: P -1
;
_chemical_formula_sum "Si O2"
_cell_formula_units_Z 14
_cell_length_a 9.046268
_cell_length_b 16.679718
_cell_length_c 23.158259
_cell_angle_alpha 19.211157
_cell_angle_beta 145.905617
_cell_angle_gamma 134.524110
_cell_volume 579.421213
_symmetry_space_group_name_H-M "P -1"
_symmetry_group_IT_number 2
_symmetry_cell_setting 'triclinic'
loop_
_space_group_symop_operation_xyz
x,y,z
-x,-y,-z
loop_
_atom_site_type_symbol
_atom_site_label
_atom_site_fract_x
_atom_site_fract_y
_atom_site_fract_z
Si Si1 0.221483 0.209720 0.319507
Si Si2 0.150401 0.837289 0.470327
Si Si3 0.922060 0.382095 0.907218
Si Si4 0.211950 0.210848 0.513461
Si Si5 0.347610 0.989847 0.897117
Si Si6 0.446561 0.808469 0.766373
Si Si7 0.347604 0.833177 0.224422
O O1 0.503309 0.257814 0.359746
O O2 0.041981 0.436698 0.153185
O O3 0.059910 0.143679 0.258766
O O4 0.345110 0.935328 0.584484
O O5 0.032546 0.706836 0.571323
O O6 0.979575 0.833973 0.358353
O O7 0.822019 0.545302 0.704662
O O8 0.250009 0.163008 0.149002
O O9 0.687551 0.284151 0.919601
O O10 0.515195 0.097720 0.722106
O O11 0.233483 0.983066 0.629585
O O12 0.545092 0.046514 0.875987
O O13 0.500000 0.000000 0.000000
O O14 0.500000 0.500000 0.000000
O O15 0.500000 0.500000 0.500000
O O16 0.000000 0.000000 0.000000
#
# Coordination Sequence:
#
# PCOD9018743 Si02
#       7
#     2   2   2   2   2   2   2
#     4  10  22  41  67  97 144 179 240 303 370 441
#     4  10  21  44  61 101 137 181 235 303 370 432
#     4  11  23  43  68 103 139 188 241 292 368 443
#     4  10  24  42  69  99 145 185 242 299 369 442
#     4  11  25  44  72 102 141 192 242 302 366 442
#     4  11  22  40  67 101 141 190 234 295 370 444
#     4  11  27  50  75 109 143 196 252 313 369 439
#
# _framework density 24.162040999999999
#
# number of rings (size 3 to 8) (size 9 to 14) (size 15 to 20)
#    0.000    1.429    1.429    2.571    4.000    5.143 
#   12.857    2.143    0.000    0.000    0.000    0.000 
#    0.000    0.000    0.000    0.000    0.000    0.000 
#
# Total GULP energy -78104.648551 kJ/mol
# GULP energy per Si atom -5578.903468 kJ/mol
# Density = 2.410705 g / cm^3
# Si number density = 24.162041 Si / 1000 Ang^3
#
#
#
# Elastic Constant Matrix: (Units=GPa)
#
#
# Indices 1 2 3 4 5 6 
#
# 1 146.6182 45.0782 68.3513 3.6278 -18.3449 24.7152
# 2 45.0782 117.4722 34.7392 20.3580 -9.6590 10.1480
# 3 68.3513 34.7392 96.9976 14.9155 -28.0437 16.0350
# 4 3.6278 20.3580 14.9155 42.1028 3.8472 -12.2506
# 5 -18.3449 -9.6590 -28.0437 3.8472 44.6896 7.7428
# 6 24.7152 10.1480 16.0350 -12.2506 7.7428 56.7768
#
#
#
# Elastic Compliance Matrix: (Units=1/GPa)
#
#
# Indices 1 2 3 4 5 6 
#
# 1 0.011074 -0.002401 -0.007032 0.002165 -0.000242 -0.001905
# 2 -0.002401 0.010916 -0.000333 -0.005827 0.002074 -0.002352
# 3 -0.007032 -0.000333 0.021800 -0.010155 0.012804 -0.006974
# 4 0.002165 -0.005827 -0.010155 0.034560 -0.011803 0.012033
# 5 -0.000242 0.002074 0.012804 -0.011803 0.033686 -0.011022
# 6 -0.001905 -0.002352 -0.006974 0.012033 -0.011022 0.024932
#
#
# Mechanical properties :
#
#
# Convention : Reuss Voigt Hill
#
# Bulk Modulus (GPa) = 41.22216 73.04726 57.13471
# Shear Modulus (GPa) = 30.37947 42.90846 36.64396
#
# Velocity S-wave (km/s) = 3.54972 4.21867 3.89857
# Velocity P-wave (km/s) = 5.82224 7.35034 6.63046
#
# Compressibility (1/GPa) = 0.02425880
#
# Stress axis : x y z
#
# Youngs Moduli (GPa) = 90.30274 91.60881 45.87138
#
# Poissons Ratio (x) = 0.21991 0.32255
# Poissons Ratio (y) = 0.21678 0.01530
# Poissons Ratio (z) = 0.63497 0.03055
#
# Static dielectric constant tensor:
#      x y z
#    x 1.992740 -0.050510 -0.063990 
#    y -0.050510 2.039420 0.042220 
#    z -0.063990 0.042220 2.063580 
# 
# From -- ./inp_files/37032.got.cif
#   From: 2010.05.17/outbox.cif.g08.bks.cpg/sg2_19_cif.got.tgz:37032.got - 2010.06.03 11:33:40.
