data_PCOD9018490
_publ_section_title
;
Structure prediction by ZEFSAII (Michael W. Deem and Ramdas Pophale) SiO2 
 PCOD9018490
Probable space group: P -1
;
_chemical_formula_sum "Si O2"
_cell_formula_units_Z 16
_cell_length_a 9.303586
_cell_length_b 21.547323
_cell_length_c 12.320426
_cell_angle_alpha 27.284099
_cell_angle_beta 38.383553
_cell_angle_gamma 44.336666
_cell_volume 701.498496
_symmetry_space_group_name_H-M "P -1"
_symmetry_group_IT_number 2
_symmetry_cell_setting 'triclinic'
loop_
_space_group_symop_operation_xyz
x,y,z
-x,-y,-z
loop_
_atom_site_type_symbol
_atom_site_label
_atom_site_fract_x
_atom_site_fract_y
_atom_site_fract_z
Si Si1 0.011626 0.946854 0.360425
Si Si2 0.161205 0.692918 0.528976
Si Si3 0.767823 0.198876 0.339404
Si Si4 0.647668 0.671857 0.871758
Si Si5 0.514809 0.599804 0.651706
Si Si6 0.688474 0.241154 0.895110
Si Si7 0.963250 0.756551 0.111557
Si Si8 0.494213 0.960648 0.413137
O O1 0.095266 0.846557 0.371335
O O2 0.062863 0.865005 0.568761
O O3 0.737256 0.993157 0.452128
O O4 0.138910 0.086579 0.065796
O O5 0.357909 0.633605 0.585491
O O6 0.240838 0.689001 0.364643
O O7 0.916435 0.626217 0.783361
O O8 0.606982 0.316519 0.307951
O O9 0.609853 0.079129 0.579105
O O10 0.904032 0.246598 0.078103
O O11 0.501618 0.559779 0.075331
O O12 0.553361 0.695453 0.012394
O O13 0.605358 0.817415 0.612733
O O14 0.767866 0.650795 0.401666
O O15 0.867450 0.257789 0.862002
O O16 0.657104 0.083986 0.128916
#
# Coordination Sequence:
#
# PCOD9018490 Si02
#       8
#     2   2   2   2   2   2   2   2
#     4  10  21  43  71 103 139 175 230 286 344 399
#     4  11  27  44  73 102 136 181 231 286 335 409
#     4  10  24  43  71 102 139 183 224 285 342 405
#     4  12  25  49  68  97 145 179 234 276 334 417
#     4  11  29  46  69 100 139 192 226 271 339 415
#     4  12  26  42  74 108 132 177 226 295 347 390
#     4  11  24  44  67 107 138 174 231 278 347 407
#     4  11  22  44  71 102 136 178 224 288 350 388
#
# _framework density 22.808315
#
# number of rings (size 3 to 8) (size 9 to 14) (size 15 to 20)
#    0.000    1.000    3.750    3.000    7.000    4.500 
#    0.000    0.000    0.000    0.000    0.000    0.000 
#    0.000    0.000    0.000    0.000    0.000    0.000 
#
# Total GULP energy -89532.045297 kJ/mol
# GULP energy per Si atom -5595.752831 kJ/mol
# Density = 2.275640 g / cm^3
# Si number density = 22.808315 Si / 1000 Ang^3
#
#
#
# Elastic Constant Matrix: (Units=GPa)
#
#
# Indices 1 2 3 4 5 6 
#
# 1 66.4505 -30.6861 33.8186 21.1488 -8.8013 -4.9081
# 2 -30.6861 -16.6444 10.8216 -3.0982 2.2221 -0.7615
# 3 33.8186 10.8216 110.4312 8.5823 -31.7061 4.4870
# 4 21.1488 -3.0982 8.5823 34.8732 12.4099 2.9908
# 5 -8.8013 2.2221 -31.7061 12.4099 39.4251 1.7829
# 6 -4.9081 -0.7615 4.4870 2.9908 1.7829 34.8912
#
#
#
# Elastic Compliance Matrix: (Units=1/GPa)
#
#
# Indices 1 2 3 4 5 6 
#
# 1 0.011499 -0.017029 0.001401 -0.011941 0.008337 0.001663
# 2 -0.017029 -0.024043 0.007987 0.005776 0.002365 -0.004563
# 3 0.001401 0.007987 0.011771 -0.007070 0.011606 -0.001129
# 4 -0.011941 0.005776 -0.007070 0.046734 -0.023231 -0.003463
# 5 0.008337 0.002365 0.011606 -0.023231 0.043762 -0.000513
# 6 0.001663 -0.004563 -0.001129 -0.003463 -0.000513 0.029263
#
#
# Mechanical properties :
#
#
# Convention : Reuss Voigt Hill
#
# Bulk Modulus (GPa) = -62.28623 20.90506 -20.69058
# Shear Modulus (GPa) = 38.78451 31.59011 35.18731
#
# Velocity S-wave (km/s) = 4.12813 3.72563 3.93203
# Velocity P-wave (km/s) = 2.15543 5.26237 3.39460
#
# Compressibility (1/GPa) = -0.01605491
#
# Stress axis : x y z
#
# Youngs Moduli (GPa) = 86.96290 -41.59275 84.95377
#
# Poissons Ratio (x) = -0.70829 -0.11906
# Poissons Ratio (y) = 1.48092 -0.67849
# Poissons Ratio (z) = -0.12187 0.33218
#
# Static dielectric constant tensor:
#      x y z
#    x 1.869880 -0.023690 -0.026060 
#    y -0.023690 1.861540 -0.018470 
#    z -0.026060 -0.018470 1.845640 
# 
# From -- ./inp_files/405227.got.cif
#   From: 2010.05.17/outbox.cif.g08.bks.cpg/sg2_203_cif.got.tgz:405227.got - 2010.06.03 11:33:40.
