data_PCOD9018561
_publ_section_title
;
Structure prediction by ZEFSAII (Michael W. Deem and Ramdas Pophale) SiO2 
 PCOD9018561
Probable space group: P -1
;
_chemical_formula_sum "Si O2"
_cell_formula_units_Z 12
_cell_length_a 15.816182
_cell_length_b 14.198308
_cell_length_c 6.916918
_cell_angle_alpha 132.025190
_cell_angle_beta 39.017983
_cell_angle_gamma 152.980835
_cell_volume 442.844816
_symmetry_space_group_name_H-M "P -1"
_symmetry_group_IT_number 2
_symmetry_cell_setting 'triclinic'
loop_
_space_group_symop_operation_xyz
x,y,z
-x,-y,-z
loop_
_atom_site_type_symbol
_atom_site_label
_atom_site_fract_x
_atom_site_fract_y
_atom_site_fract_z
Si Si1 0.980766 0.392175 0.136118
Si Si2 0.601079 0.109672 0.173646
Si Si3 0.589096 0.411000 0.295560
Si Si4 0.286909 0.274007 0.972113
Si Si5 0.976665 0.828959 0.032827
Si Si6 0.400344 0.736491 0.275666
O O1 0.242445 0.574658 0.914030
O O2 0.918990 0.224157 0.149750
O O3 0.138913 0.573893 0.519584
O O4 0.862903 0.288555 0.994385
O O5 0.541447 0.195668 0.511461
O O6 0.507103 0.928791 0.228994
O O7 0.500000 0.000000 0.000000
O O8 0.390210 0.276407 0.608045
O O9 0.754282 0.655553 0.323532
O O10 0.541645 0.340232 0.060260
O O11 0.500000 0.500000 0.000000
O O12 0.112384 0.235786 0.119702
O O13 0.140439 0.070422 0.084175
#
# Coordination Sequence:
#
# PCOD9018561 Si02
#       6
#     2   2   2   2   2   2
#     4   8  19  40  66  98 138 189 225 291 359 428
#     4   9  19  38  63 101 146 187 234 285 346 443
#     4  10  21  43  71  98 142 197 227 296 369 420
#     4  11  24  46  67 110 138 190 255 300 363 424
#     4   9  23  45  70  99 149 182 246 308 348 440
#     4   9  19  39  65 101 146 185 227 290 363 430
#
# _framework density 27.097529000000002
#
# number of rings (size 3 to 8) (size 9 to 14) (size 15 to 20)
#    2.000    0.667    0.000    1.000    0.000    3.333 
#   12.000    0.833    0.000    0.000    0.000    1.167 
#    0.000    0.000    0.000    0.000    0.000    0.000 
#
# Total GULP energy -66906.133900 kJ/mol
# GULP energy per Si atom -5575.511158 kJ/mol
# Density = 2.703585 g / cm^3
# Si number density = 27.097529 Si / 1000 Ang^3
#
#
#
# Elastic Constant Matrix: (Units=GPa)
#
#
# Indices 1 2 3 4 5 6 
#
# 1 133.9559 40.0503 45.3156 18.8480 15.3698 16.6400
# 2 40.0503 159.7563 55.4239 16.5061 25.1300 -10.1072
# 3 45.3156 55.4239 156.3369 15.8162 11.7759 1.8018
# 4 18.8480 16.5061 15.8162 50.4020 9.4252 20.6226
# 5 15.3698 25.1300 11.7759 9.4252 41.1769 3.7935
# 6 16.6400 -10.1072 1.8018 20.6226 3.7935 54.7281
#
#
#
# Elastic Compliance Matrix: (Units=1/GPa)
#
#
# Indices 1 2 3 4 5 6 
#
# 1 0.009173 -0.001451 -0.001894 -0.001056 -0.001525 -0.002491
# 2 -0.001451 0.008351 -0.002079 -0.002107 -0.003764 0.003107
# 3 -0.001894 -0.002079 0.007802 -0.001218 -0.000013 0.000395
# 4 -0.001056 -0.002107 -0.001218 0.025767 -0.002991 -0.009530
# 5 -0.001525 -0.003764 -0.000013 -0.002991 0.027936 -0.001040
# 6 -0.002491 0.003107 0.000395 -0.009530 -0.001040 0.023253
#
#
# Mechanical properties :
#
#
# Convention : Reuss Voigt Hill
#
# Bulk Modulus (GPa) = 69.07095 81.29206 75.18150
# Shear Modulus (GPa) = 42.38867 49.87867 46.13367
#
# Velocity S-wave (km/s) = 3.95941 4.29500 4.13062
# Velocity P-wave (km/s) = 6.81526 7.39331 7.11016
#
# Compressibility (1/GPa) = 0.01447787
#
# Stress axis : x y z
#
# Youngs Moduli (GPa) = 109.01909 119.74656 128.16955
#
# Poissons Ratio (x) = 0.17375 0.24274
# Poissons Ratio (y) = 0.15819 0.26647
# Poissons Ratio (z) = 0.20647 0.24896
#
# Static dielectric constant tensor:
#      x y z
#    x 2.309450 0.004810 -0.038460 
#    y 0.004810 2.192940 0.004150 
#    z -0.038460 0.004150 2.083220 
# 
# From -- ./inp_files/111707.got.cif
#   From: 2010.05.17/outbox.cif.g08.bks.cpg/sg2_56_cif.got.tgz:111707.got - 2010.06.03 11:33:40.
