data_PCOD9018003
_publ_section_title
;
Structure prediction by ZEFSAII (Michael W. Deem and Ramdas Pophale) SiO2 
 PCOD9018003
Probable space group: P -1
;
_chemical_formula_sum "Si O2"
_cell_formula_units_Z 16
_cell_length_a 16.960316
_cell_length_b 7.928955
_cell_length_c 6.528833
_cell_angle_alpha 58.401423
_cell_angle_beta 93.318508
_cell_angle_gamma 114.122581
_cell_volume 668.578274
_symmetry_space_group_name_H-M "P -1"
_symmetry_group_IT_number 2
_symmetry_cell_setting 'triclinic'
loop_
_space_group_symop_operation_xyz
x,y,z
-x,-y,-z
loop_
_atom_site_type_symbol
_atom_site_label
_atom_site_fract_x
_atom_site_fract_y
_atom_site_fract_z
Si Si1 0.117132 0.647415 0.340288
Si Si2 0.288995 0.875514 0.968009
Si Si3 0.470601 0.230706 0.901853
Si Si4 0.274519 0.209259 0.445440
Si Si5 0.644286 0.420254 0.050488
Si Si6 0.597019 0.422881 0.458848
Si Si7 0.092403 0.215243 0.355951
Si Si8 0.954769 0.570534 0.135136
O O1 0.099656 0.408760 0.391529
O O2 0.110564 0.620004 0.601555
O O3 0.038365 0.701031 0.213358
O O4 0.207124 0.815088 0.143805
O O5 0.295941 0.662356 0.018146
O O6 0.377411 0.021797 0.013353
O O7 0.283711 0.008542 0.682240
O O8 0.522725 0.231240 0.700125
O O9 0.451043 0.442706 0.738996
O O10 0.542747 0.283061 0.053542
O O11 0.331239 0.408721 0.483520
O O12 0.173570 0.161117 0.444940
O O13 0.321377 0.321157 0.167052
O O14 0.646814 0.369380 0.320062
O O15 0.092888 0.305200 0.068082
O O16 0.000000 0.000000 0.500000
O O17 0.000000 0.500000 0.000000
#
# Coordination Sequence:
#
# PCOD9018003 Si02
#       8
#     2   2   2   2   2   2   2   2
#     4  10  21  43  67  98 134 174 214 282 331 396
#     4  11  22  41  68  99 139 173 222 278 331 399
#     4   9  20  39  63  98 132 176 228 273 329 390
#     4  10  23  43  63  98 136 172 225 273 328 399
#     4  11  21  41  67  96 138 180 223 276 331 391
#     4   9  20  40  66  92 135 181 221 278 328 388
#     4  11  22  41  67  96 129 173 219 273 337 404
#     4   9  21  42  69  93 128 170 218 266 335 393
#
# _framework density 23.931380999999998
#
# number of rings (size 3 to 8) (size 9 to 14) (size 15 to 20)
#    0.000    2.000    1.250    2.250    0.000    2.000 
#    0.000   21.250    0.000    0.000    0.000    0.000 
#    0.000    0.000    0.000    0.000    0.000    0.000 
#
# Total GULP energy -89453.431846 kJ/mol
# GULP energy per Si atom -5590.839490 kJ/mol
# Density = 2.387691 g / cm^3
# Si number density = 23.931381 Si / 1000 Ang^3
#
#
#
# Elastic Constant Matrix: (Units=GPa)
#
#
# Indices 1 2 3 4 5 6 
#
# 1 95.6860 18.2196 28.8462 -5.3079 8.0232 22.0375
# 2 18.2196 47.3065 21.7703 -14.6135 -9.2312 14.0196
# 3 28.8462 21.7703 121.6832 2.8560 -11.3000 -0.7568
# 4 -5.3079 -14.6135 2.8560 26.7498 -1.7904 -7.5201
# 5 8.0232 -9.2312 -11.3000 -1.7904 53.6793 -7.5482
# 6 22.0375 14.0196 -0.7568 -7.5201 -7.5482 35.2373
#
#
#
# Elastic Compliance Matrix: (Units=1/GPa)
#
#
# Indices 1 2 3 4 5 6 
#
# 1 0.014443 -0.002426 -0.003456 -0.001033 -0.004654 -0.009359
# 2 -0.002426 0.032414 -0.005240 0.016076 0.004368 -0.007126
# 3 -0.003456 -0.005240 0.010289 -0.003301 0.002269 0.004249
# 4 -0.001033 0.016076 -0.003301 0.048150 0.004595 0.005439
# 5 -0.004654 0.004368 0.002269 0.004595 0.021669 0.006844
# 6 -0.009359 -0.007126 0.004249 0.005439 0.006844 0.039785
#
#
# Mechanical properties :
#
#
# Convention : Reuss Voigt Hill
#
# Bulk Modulus (GPa) = 28.65071 44.70532 36.67801
# Shear Modulus (GPa) = 24.92156 36.18926 30.55541
#
# Velocity S-wave (km/s) = 3.23054 3.89293 3.57710
# Velocity P-wave (km/s) = 5.09050 6.23921 5.69390
#
# Compressibility (1/GPa) = 0.03490314
#
# Stress axis : x y z
#
# Youngs Moduli (GPa) = 69.23737 30.85040 97.18672
#
# Poissons Ratio (x) = 0.07483 0.33588
# Poissons Ratio (y) = 0.16795 0.50928
# Poissons Ratio (z) = 0.23929 0.16166
#
# Static dielectric constant tensor:
#      x y z
#    x 1.913350 -0.034500 -0.004100 
#    y -0.034500 1.926940 -0.014050 
#    z -0.004100 -0.014050 1.958550 
# 
# From -- ./inp_files/106304.got.cif
#   From: 2010.05.17/outbox.cif.g08.bks.cpg/sg2_54_cif.got.tgz:106304.got - 2010.06.03 11:33:40.
