data_PCOD9018850
_publ_section_title
;
Structure prediction by ZEFSAII (Michael W. Deem and Ramdas Pophale) SiO2 
 PCOD9018850
Probable space group: P -1
;
_chemical_formula_sum "Si O2"
_cell_formula_units_Z 14
_cell_length_a 9.596337
_cell_length_b 7.563010
_cell_length_c 11.582261
_cell_angle_alpha 104.742874
_cell_angle_beta 68.851835
_cell_angle_gamma 60.745901
_cell_volume 580.281548
_symmetry_space_group_name_H-M "P -1"
_symmetry_group_IT_number 2
_symmetry_cell_setting 'triclinic'
loop_
_space_group_symop_operation_xyz
x,y,z
-x,-y,-z
loop_
_atom_site_type_symbol
_atom_site_label
_atom_site_fract_x
_atom_site_fract_y
_atom_site_fract_z
Si Si1 0.582686 0.166878 0.687741
Si Si2 0.692233 0.164514 0.265822
Si Si3 0.407005 0.197300 0.963871
Si Si4 0.940999 0.678698 0.442285
Si Si5 0.657128 0.600575 0.426651
Si Si6 0.063677 0.687539 0.172213
Si Si7 0.371102 0.681317 0.940355
O O1 0.492916 0.220748 0.597645
O O2 0.504391 0.422243 0.797024
O O3 0.809077 0.944645 0.577174
O O4 0.492675 0.097115 0.795572
O O5 0.741940 0.334893 0.320999
O O6 0.471933 0.316398 0.405215
O O7 0.699659 0.147326 0.121853
O O8 0.843279 0.906186 0.237159
O O9 0.499514 0.312052 0.006059
O O10 0.175900 0.411134 0.058913
O O11 0.500000 0.000000 0.000000
O O12 0.814428 0.634420 0.398158
O O13 0.000000 0.500000 0.500000
O O14 0.079610 0.663846 0.303306
O O15 0.186343 0.742228 0.072776
#
# Coordination Sequence:
#
# PCOD9018850 Si02
#       7
#     2   2   2   2   2   2   2
#     4  10  21  44  65  93 130 183 216 262 343 388
#     4  10  22  43  71  99 130 178 224 270 333 396
#     4  11  25  44  66  96 138 181 219 272 339 391
#     4  12  26  41  66 103 138 170 229 280 326 391
#     4  10  23  43  68  98 137 175 218 278 336 392
#     4  11  23  42  65 100 129 173 227 267 329 395
#     4  10  24  45  69  93 138 177 219 271 336 407
#
# _framework density 24.126221000000001
#
# number of rings (size 3 to 8) (size 9 to 14) (size 15 to 20)
#    0.000    1.429    1.429    3.429    4.000    3.429 
#    2.571   10.714    0.000    0.000    0.000    0.000 
#    0.000    0.000    0.000    0.000    0.000    0.000 
#
# Total GULP energy -78187.128250 kJ/mol
# GULP energy per Si atom -5584.794875 kJ/mol
# Density = 2.407131 g / cm^3
# Si number density = 24.126221 Si / 1000 Ang^3
#
#
#
# Elastic Constant Matrix: (Units=GPa)
#
#
# Indices 1 2 3 4 5 6 
#
# 1 51.3605 -1.9819 -3.1347 3.1710 4.3312 6.8426
# 2 -1.9819 135.3794 33.4468 -28.1067 2.5608 -12.6760
# 3 -3.1347 33.4468 144.4941 -25.9317 -10.4488 -4.5271
# 4 3.1710 -28.1067 -25.9317 52.6826 -0.3536 6.6995
# 5 4.3312 2.5608 -10.4488 -0.3536 24.2583 -4.2491
# 6 6.8426 -12.6760 -4.5271 6.6995 -4.2491 28.6636
#
#
#
# Elastic Compliance Matrix: (Units=1/GPa)
#
#
# Indices 1 2 3 4 5 6 
#
# 1 0.020640 -0.000255 -0.000147 -0.000773 -0.004710 -0.005581
# 2 -0.000255 0.008751 -0.001356 0.003664 -0.000932 0.002722
# 3 -0.000147 -0.001356 0.008103 0.003233 0.003798 0.000523
# 4 -0.000773 0.003664 0.003233 0.022950 0.000969 -0.002905
# 5 -0.004710 -0.000932 0.003798 0.000969 0.045176 0.007783
# 6 -0.005581 0.002722 0.000523 -0.002905 0.007783 0.039339
#
#
# Mechanical properties :
#
#
# Convention : Reuss Voigt Hill
#
# Bulk Modulus (GPa) = 29.43186 43.09937 36.26562
# Shear Modulus (GPa) = 31.28898 41.31450 36.30174
#
# Velocity S-wave (km/s) = 3.60514 4.14264 3.88320
# Velocity P-wave (km/s) = 5.43645 6.38630 5.93042
#
# Compressibility (1/GPa) = 0.03397678
#
# Stress axis : x y z
#
# Youngs Moduli (GPa) = 48.44997 114.27059 123.41824
#
# Poissons Ratio (x) = 0.02918 0.01818
# Poissons Ratio (y) = 0.01237 0.16731
# Poissons Ratio (z) = 0.00714 0.15491
#
# Static dielectric constant tensor:
#      x y z
#    x 1.969330 0.100750 0.000130 
#    y 0.100750 2.101180 0.025990 
#    z 0.000130 0.025990 2.000810 
# 
# From -- ./inp_files/419433.got.cif
#   From: 2010.05.17/outbox.cif.g08.bks.cpg/sg2_210_cif.got.tgz:419433.got - 2010.06.03 11:33:40.
