data_PCOD9018274
_publ_section_title
;
Structure prediction by ZEFSAII (Michael W. Deem and Ramdas Pophale) SiO2 
 PCOD9018274
Probable space group: P -1
;
_chemical_formula_sum "Si O2"
_cell_formula_units_Z 14
_cell_length_a 9.546986
_cell_length_b 8.313744
_cell_length_c 14.381225
_cell_angle_alpha 74.465221
_cell_angle_beta 51.731472
_cell_angle_gamma 43.297381
_cell_volume 578.020742
_symmetry_space_group_name_H-M "P -1"
_symmetry_group_IT_number 2
_symmetry_cell_setting 'triclinic'
loop_
_space_group_symop_operation_xyz
x,y,z
-x,-y,-z
loop_
_atom_site_type_symbol
_atom_site_label
_atom_site_fract_x
_atom_site_fract_y
_atom_site_fract_z
Si Si1 0.898121 0.518904 0.312434
Si Si2 0.885935 0.711570 0.089578
Si Si3 0.679698 0.195087 0.422995
Si Si4 0.321043 0.675268 0.398721
Si Si5 0.875314 0.368297 0.671292
Si Si6 0.629112 0.051551 0.805658
Si Si7 0.418550 0.497179 0.932330
O O1 0.050633 0.510299 0.333365
O O2 0.875125 0.643402 0.208597
O O3 0.602486 0.688578 0.446846
O O4 0.090572 0.231836 0.251231
O O5 0.586046 0.937130 0.140138
O O6 0.000000 0.500000 0.000000
O O7 0.104840 0.705296 0.007407
O O8 0.599558 0.391059 0.351997
O O9 0.782164 0.199737 0.477316
O O10 0.896998 0.916018 0.340680
O O11 0.135484 0.664288 0.428683
O O12 0.362257 0.811002 0.299108
O O13 0.584413 0.507280 0.798177
O O14 0.529441 0.232249 0.906041
O O15 0.500000 0.500000 0.000000
#
# Coordination Sequence:
#
# PCOD9018274 Si02
#       7
#     2   2   2   2   2   2   2
#     4  12  25  43  69 107 134 181 223 279 347 401
#     4  10  22  44  68  95 138 178 226 275 334 404
#     4  11  25  42  73  97 138 182 224 277 341 411
#     4  10  24  43  68 100 132 177 231 268 343 401
#     4  11  25  44  67 100 142 173 228 285 334 403
#     4  10  24  42  72  98 138 175 224 281 339 410
#     4  10  21  43  69  94 131 178 225 278 328 395
#
# _framework density 24.220583999999999
#
# number of rings (size 3 to 8) (size 9 to 14) (size 15 to 20)
#    0.000    1.429    2.857    0.857   10.000    4.000 
#    0.000    3.571    0.000    0.000    0.000    0.000 
#    0.000    0.000    0.000    0.000    0.000    0.000 
#
# Total GULP energy -78243.372078 kJ/mol
# GULP energy per Si atom -5588.812291 kJ/mol
# Density = 2.416546 g / cm^3
# Si number density = 24.220584 Si / 1000 Ang^3
#
#
#
# Elastic Constant Matrix: (Units=GPa)
#
#
# Indices 1 2 3 4 5 6 
#
# 1 195.1350 2.9715 54.1946 8.8360 -10.3289 -6.4892
# 2 2.9715 55.6789 25.3282 8.7623 4.0388 -5.7507
# 3 54.1946 25.3282 76.9720 -0.6957 -29.9353 -11.9074
# 4 8.8360 8.7623 -0.6957 21.2942 -3.1031 -0.5476
# 5 -10.3289 4.0388 -29.9353 -3.1031 54.6319 8.2402
# 6 -6.4892 -5.7507 -11.9074 -0.5476 8.2402 23.9469
#
#
#
# Elastic Compliance Matrix: (Units=1/GPa)
#
#
# Indices 1 2 3 4 5 6 
#
# 1 0.007397 0.004529 -0.008191 -0.005747 -0.003780 0.000188
# 2 0.004529 0.029328 -0.017172 -0.016192 -0.012177 0.003551
# 3 -0.008191 -0.017172 0.031912 0.014147 0.017430 0.003850
# 4 -0.005747 -0.016192 0.014147 0.058094 0.011309 -0.000974
# 5 -0.003780 -0.012177 0.017430 0.011309 0.029461 -0.005161
# 6 0.000188 0.003551 0.003850 -0.000974 -0.005161 0.046331
#
#
# Mechanical properties :
#
#
# Convention : Reuss Voigt Hill
#
# Bulk Modulus (GPa) = 37.08008 54.75272 45.91640
# Shear Modulus (GPa) = 19.74867 36.32736 28.03802
#
# Velocity S-wave (km/s) = 2.85856 3.87700 3.40606
# Velocity P-wave (km/s) = 5.12228 6.53425 5.87087
#
# Compressibility (1/GPa) = 0.02696866
#
# Stress axis : x y z
#
# Youngs Moduli (GPa) = 135.18863 34.09668 31.33620
#
# Poissons Ratio (x) = -0.15444 0.25668
# Poissons Ratio (y) = -0.61233 0.53812
# Poissons Ratio (z) = 1.10737 0.58552
#
# Static dielectric constant tensor:
#      x y z
#    x 1.999190 0.017150 0.014010 
#    y 0.017150 1.952810 0.014770 
#    z 0.014010 0.014770 2.013270 
# 
# From -- ./inp_files/492905.got.cif
#   From: 2010.05.17/outbox.cif.g08.bks.cpg/sg2_247_cif.got.tgz:492905.got - 2010.06.03 11:33:40.
