data_PCOD9018832
_publ_section_title
;
Structure prediction by ZEFSAII (Michael W. Deem and Ramdas Pophale) SiO2 
 PCOD9018832
Probable space group: P -1
;
_chemical_formula_sum "Si O2"
_cell_formula_units_Z 16
_cell_length_a 15.418539
_cell_length_b 6.441614
_cell_length_c 16.794276
_cell_angle_alpha 112.080663
_cell_angle_beta 30.633848
_cell_angle_gamma 121.398925
_cell_volume 715.356917
_symmetry_space_group_name_H-M "P -1"
_symmetry_group_IT_number 2
_symmetry_cell_setting 'triclinic'
loop_
_space_group_symop_operation_xyz
x,y,z
-x,-y,-z
loop_
_atom_site_type_symbol
_atom_site_label
_atom_site_fract_x
_atom_site_fract_y
_atom_site_fract_z
Si Si1 0.157057 0.273210 0.429181
Si Si2 0.531544 0.502711 0.245696
Si Si3 0.148901 0.325462 0.099745
Si Si4 0.816387 0.849493 0.326931
Si Si5 0.505777 0.036180 0.594478
Si Si6 0.941702 0.241167 0.741532
Si Si7 0.780450 0.424819 0.175278
Si Si8 0.286869 0.321253 0.163749
O O1 0.347797 0.288259 0.321901
O O2 0.218798 0.394406 0.310985
O O3 0.050984 0.363852 0.591750
O O4 0.000000 0.000000 0.500000
O O5 0.662044 0.435361 0.192937
O O6 0.460005 0.688598 0.371712
O O7 0.666103 0.649379 0.087997
O O8 0.116821 0.566551 0.140018
O O9 0.178178 0.333919 0.172535
O O10 0.972242 0.071928 0.185524
O O11 0.659743 0.942232 0.488115
O O12 0.750136 0.606621 0.290085
O O13 0.913640 0.806431 0.322404
O O14 0.310648 0.850547 0.758865
O O15 0.500000 0.000000 0.500000
O O16 0.767986 0.973986 0.826080
O O17 0.000000 0.500000 0.000000
O O18 0.500000 0.500000 0.000000
#
# Coordination Sequence:
#
# PCOD9018832 Si02
#       8
#     2   2   2   2   2   2   2   2
#     4  10  22  44  71  99 141 181 233 292 345 415
#     4  12  25  44  71 103 143 185 240 285 353 421
#     4  11  24  42  72 103 138 187 230 293 353 420
#     4  11  24  43  69  99 143 178 238 286 345 418
#     4  12  27  44  71 100 138 190 233 291 350 410
#     4  10  23  41  70 100 137 183 231 289 350 416
#     4  12  27  44  69 104 142 186 234 287 347 420
#     4  10  21  44  64  99 140 178 231 288 349 416
#
# _framework density 22.366458000000002
#
# number of rings (size 3 to 8) (size 9 to 14) (size 15 to 20)
#    0.000    1.000    2.500    3.375    5.250    3.000 
#    0.000    2.500    0.000    0.000    0.000    0.000 
#    0.000    0.000    0.000    0.000    0.000    0.000 
#
# Total GULP energy -89411.418168 kJ/mol
# GULP energy per Si atom -5588.213635 kJ/mol
# Density = 2.231555 g / cm^3
# Si number density = 22.366458 Si / 1000 Ang^3
#
#
#
# Elastic Constant Matrix: (Units=GPa)
#
#
# Indices 1 2 3 4 5 6 
#
# 1 111.5535 26.4375 35.2239 -3.3232 2.7227 5.6686
# 2 26.4375 64.7075 25.4980 -7.1282 -4.0008 1.4103
# 3 35.2239 25.4980 117.7902 -17.8573 7.4449 5.5374
# 4 -3.3232 -7.1282 -17.8573 46.6212 4.5075 -4.6168
# 5 2.7227 -4.0008 7.4449 4.5075 40.5668 -3.2098
# 6 5.6686 1.4103 5.5374 -4.6168 -3.2098 23.1318
#
#
#
# Elastic Compliance Matrix: (Units=1/GPa)
#
#
# Indices 1 2 3 4 5 6 
#
# 1 0.010652 -0.003490 -0.002416 -0.000839 -0.000687 -0.002082
# 2 -0.003490 0.018310 -0.002933 0.001288 0.002518 0.001047
# 3 -0.002416 -0.002933 0.010616 0.003555 -0.002583 -0.001419
# 4 -0.000839 0.001288 0.003555 0.023575 -0.002804 0.003592
# 5 -0.000687 0.002518 -0.002583 -0.002804 0.026022 0.003684
# 6 -0.002082 0.001047 -0.001419 0.003592 0.003684 0.045245
#
#
# Mechanical properties :
#
#
# Convention : Reuss Voigt Hill
#
# Bulk Modulus (GPa) = 45.66077 52.04109 48.85093
# Shear Modulus (GPa) = 31.36803 35.85675 33.61239
#
# Velocity S-wave (km/s) = 3.74900 4.00828 3.88081
# Velocity P-wave (km/s) = 6.26093 6.68877 6.47838
#
# Compressibility (1/GPa) = 0.02190064
#
# Stress axis : x y z
#
# Youngs Moduli (GPa) = 93.88173 54.61354 94.19799
#
# Poissons Ratio (x) = 0.19058 0.22757
# Poissons Ratio (y) = 0.32761 0.27631
# Poissons Ratio (z) = 0.22680 0.16020
#
# Static dielectric constant tensor:
#      x y z
#    x 1.846900 0.010170 0.011880 
#    y 0.010170 1.892810 0.029590 
#    z 0.011880 0.029590 1.871840 
# 
# From -- ./inp_files/402936.got.cif
#   From: 2010.05.17/outbox.cif.g08.bks.cpg/sg2_202_cif.got.tgz:402936.got - 2010.06.03 11:33:40.
