data_PCOD9018597
_publ_section_title
;
Structure prediction by ZEFSAII (Michael W. Deem and Ramdas Pophale) SiO2 
 PCOD9018597
Probable space group: P -1
;
_chemical_formula_sum "Si O2"
_cell_formula_units_Z 15
_cell_length_a 11.211262
_cell_length_b 12.246839
_cell_length_c 16.657083
_cell_angle_alpha 145.320553
_cell_angle_beta 33.235120
_cell_angle_gamma 148.057864
_cell_volume 611.157398
_symmetry_space_group_name_H-M "P -1"
_symmetry_group_IT_number 2
_symmetry_cell_setting 'triclinic'
loop_
_space_group_symop_operation_xyz
x,y,z
-x,-y,-z
loop_
_atom_site_type_symbol
_atom_site_label
_atom_site_fract_x
_atom_site_fract_y
_atom_site_fract_z
Si Si1 0.195881 0.317738 0.102342
Si Si2 0.969418 0.396997 0.542977
Si Si3 0.458530 0.689729 0.540875
Si Si4 0.146879 0.430158 0.717740
Si Si5 0.500000 0.000000 0.500000
Si Si6 0.567806 0.140637 0.814892
Si Si7 0.122158 0.088267 0.843757
Si Si8 0.293163 0.884355 0.978054
O O1 0.164625 0.522082 0.269062
O O2 0.440948 0.290188 0.957581
O O3 0.122516 0.254424 0.012537
O O4 0.002273 0.135381 0.166493
O O5 0.000000 0.500000 0.500000
O O6 0.261595 0.519023 0.482572
O O7 0.776180 0.138991 0.476816
O O8 0.318896 0.570022 0.629696
O O9 0.727485 0.704841 0.398781
O O10 0.496519 0.937118 0.669471
O O11 0.183077 0.619952 0.874386
O O12 0.863656 0.275954 0.751771
O O13 0.607663 0.857037 0.306638
O O14 0.433843 0.008713 0.892150
O O15 0.943788 0.079448 0.867406
O O16 0.500000 0.000000 0.000000
#
# Coordination Sequence:
#
# PCOD9018597 Si02
#       8
#     2   2   2   2   1   2   2   2
#     4  10  21  43  72  89 134 172 215 273 329 382
#     4  12  26  44  63 101 138 171 212 277 334 387
#     4  10  23  42  64  91 134 165 213 278 324 378
#     4  10  22  41  65  94 122 173 223 264 320 388
#     4  12  28  40  66 102 134 172 224 262 334 396
#     4  10  22  41  68  95 118 172 226 264 322 398
#     4  10  22  44  66  99 129 174 220 267 325 393
#     4  10  23  41  62  90 133 169 212 272 323 384
#
# _framework density 24.543596000000001
#
# number of rings (size 3 to 8) (size 9 to 14) (size 15 to 20)
#    0.000    1.600    1.333    3.600    5.600    1.067 
#    2.400    0.000    0.000    0.000    0.000    0.000 
#    0.000    0.000    0.000    0.000    0.000    0.000 
#
# Total GULP energy -83610.014312 kJ/mol
# GULP energy per Si atom -5574.000954 kJ/mol
# Density = 2.448773 g / cm^3
# Si number density = 24.543596 Si / 1000 Ang^3
#
#
#
# Elastic Constant Matrix: (Units=GPa)
#
#
# Indices 1 2 3 4 5 6 
#
# 1 135.4529 27.3942 41.8478 0.4973 -24.6937 48.2577
# 2 27.3942 84.9574 26.5019 7.2606 -21.1552 49.4255
# 3 41.8478 26.5019 111.4517 -8.9791 -30.7279 22.6761
# 4 0.4973 7.2606 -8.9791 45.2359 12.6080 6.4923
# 5 -24.6937 -21.1552 -30.7279 12.6080 43.8384 -13.2842
# 6 48.2577 49.4255 22.6761 6.4923 -13.2842 54.9948
#
#
#
# Elastic Compliance Matrix: (Units=1/GPa)
#
#
# Indices 1 2 3 4 5 6 
#
# 1 0.012953 0.006485 -0.002128 -0.000702 0.004549 -0.015135
# 2 0.006485 0.029636 -0.001289 -0.003466 0.009212 -0.029160
# 3 -0.002128 -0.001289 0.011952 0.000977 0.006112 -0.000541
# 4 -0.000702 -0.003466 0.000977 0.025767 -0.009395 -0.001983
# 5 0.004549 0.009212 0.006112 -0.009395 0.035238 -0.005170
# 6 -0.015135 -0.029160 -0.000541 -0.001983 -0.005170 0.056880
#
#
# Mechanical properties :
#
#
# Convention : Reuss Voigt Hill
#
# Bulk Modulus (GPa) = 16.48079 58.14999 37.31539
# Shear Modulus (GPa) = 26.80747 44.55502 35.68125
#
# Velocity S-wave (km/s) = 3.30849 4.26531 3.81700
# Velocity P-wave (km/s) = 4.61782 6.92828 5.88750
#
# Compressibility (1/GPa) = 0.06067671
#
# Stress axis : x y z
#
# Youngs Moduli (GPa) = 77.20351 33.74320 83.66785
#
# Poissons Ratio (x) = -0.21884 0.17808
# Poissons Ratio (y) = -0.50069 0.10783
# Poissons Ratio (z) = 0.16432 0.04349
#
# Static dielectric constant tensor:
#      x y z
#    x 1.985420 0.005480 0.025500 
#    y 0.005480 2.124780 0.070870 
#    z 0.025500 0.070870 1.966200 
# 
# From -- ./inp_files/569800.got.cif
#   From: 2010.05.17/outbox.cif.g08.bks.cpg/sg2_285_cif.got.tgz:569800.got - 2010.06.03 11:33:40.
