data_PCOD9018400
_publ_section_title
;
Structure prediction by ZEFSAII (Michael W. Deem and Ramdas Pophale) SiO2 
 PCOD9018400
Probable space group: P -1
;
_chemical_formula_sum "Si O2"
_cell_formula_units_Z 12
_cell_length_a 8.313378
_cell_length_b 8.516753
_cell_length_c 9.065789
_cell_angle_alpha 128.548921
_cell_angle_beta 98.614540
_cell_angle_gamma 68.342793
_cell_volume 463.717090
_symmetry_space_group_name_H-M "P -1"
_symmetry_group_IT_number 2
_symmetry_cell_setting 'triclinic'
loop_
_space_group_symop_operation_xyz
x,y,z
-x,-y,-z
loop_
_atom_site_type_symbol
_atom_site_label
_atom_site_fract_x
_atom_site_fract_y
_atom_site_fract_z
Si Si1 0.912150 0.837408 0.781467
Si Si2 0.727663 0.180349 0.178097
Si Si3 0.709372 0.946178 0.309737
Si Si4 0.932739 0.168032 0.725831
Si Si5 0.546716 0.468663 0.814263
Si Si6 0.356467 0.178889 0.457494
O O1 0.804998 0.715879 0.610284
O O2 0.116829 0.727818 0.776485
O O3 0.902625 0.037314 0.786883
O O4 0.805091 0.948523 0.974967
O O5 0.544067 0.311988 0.158671
O O6 0.716872 0.146603 0.330969
O O7 0.706273 0.923336 0.472151
O O8 0.895271 0.768652 0.188606
O O9 0.505430 0.985932 0.278324
O O10 0.754627 0.356860 0.772013
O O11 0.000000 0.000000 0.500000
O O12 0.450266 0.326732 0.632533
O O13 0.500000 0.500000 0.000000
#
# Coordination Sequence:
#
# PCOD9018400 Si02
#       6
#     2   2   2   2   2   2
#     4  10  21  43  70  93 131 182 220 261 330 415
#     4  10  24  42  68  99 134 171 220 276 334 384
#     4  10  22  40  72  95 125 180 228 256 324 414
#     4  11  18  40  71  92 125 182 219 250 335 413
#     4  12  25  43  67 102 137 169 218 290 329 374
#     4  11  22  41  70  98 129 178 227 266 325 401
#
# _framework density 25.877849000000001
#
# number of rings (size 3 to 8) (size 9 to 14) (size 15 to 20)
#    0.000    1.333    5.000    1.000    0.000    2.000 
#    0.000    2.500    0.000    3.000    0.000    0.000 
#    0.000    0.000    0.000    0.000    0.000    0.000 
#
# Total GULP energy -66863.846066 kJ/mol
# GULP energy per Si atom -5571.987172 kJ/mol
# Density = 2.581895 g / cm^3
# Si number density = 25.877849 Si / 1000 Ang^3
#
#
#
# Elastic Constant Matrix: (Units=GPa)
#
#
# Indices 1 2 3 4 5 6 
#
# 1 146.6184 39.7405 50.3935 8.9813 -25.4262 -45.3577
# 2 39.7405 87.1013 40.5008 -3.0747 -21.2940 -46.5519
# 3 50.3935 40.5008 122.9175 -10.1041 4.5956 -10.3569
# 4 8.9813 -3.0747 -10.1041 30.0712 -5.4286 0.0017
# 5 -25.4262 -21.2940 4.5956 -5.4286 50.8639 5.2999
# 6 -45.3577 -46.5519 -10.3569 0.0017 5.2999 50.9963
#
#
#
# Elastic Compliance Matrix: (Units=1/GPa)
#
#
# Indices 1 2 3 4 5 6 
#
# 1 0.015232 0.009915 -0.008595 -0.004622 0.009984 0.019816
# 2 0.009915 0.039743 -0.014503 -0.000402 0.018672 0.040213
# 3 -0.008595 -0.014503 0.015773 0.004660 -0.009557 -0.016688
# 4 -0.004622 -0.000402 0.004660 0.036407 0.001369 -0.003676
# 5 0.009984 0.018672 -0.009557 0.001369 0.031318 0.020729
# 6 0.019816 0.040213 -0.016688 -0.003676 0.020729 0.068399
#
#
# Mechanical properties :
#
#
# Convention : Reuss Voigt Hill
#
# Bulk Modulus (GPa) = 22.53206 68.65632 45.59419
# Shear Modulus (GPa) = 20.15872 41.45311 30.80592
#
# Velocity S-wave (km/s) = 2.79408 4.00669 3.45401
# Velocity P-wave (km/s) = 4.37437 6.92772 5.79346
#
# Compressibility (1/GPa) = 0.04438122
#
# Stress axis : x y z
#
# Youngs Moduli (GPa) = 65.65161 25.16142 63.40148
#
# Poissons Ratio (x) = -0.24949 0.54496
# Poissons Ratio (y) = -0.65097 0.91953
# Poissons Ratio (z) = 0.56430 0.36492
#
# Static dielectric constant tensor:
#      x y z
#    x 2.186860 0.005620 0.120110 
#    y 0.005620 2.068090 0.100030 
#    z 0.120110 0.100030 2.111840 
# 
# From -- ./inp_files/155874.got.cif
#   From: 2010.05.17/outbox.cif.g08.bks.cpg/sg2_78_cif.got.tgz:155874.got - 2010.06.03 11:33:40.
