data_PCOD9018015
_publ_section_title
;
Structure prediction by ZEFSAII (Michael W. Deem and Ramdas Pophale) SiO2 
 PCOD9018015
Probable space group: P -1
;
_chemical_formula_sum "Si O2"
_cell_formula_units_Z 15
_cell_length_a 13.064248
_cell_length_b 13.810154
_cell_length_c 8.566991
_cell_angle_alpha 124.902776
_cell_angle_beta 43.343981
_cell_angle_gamma 146.066425
_cell_volume 590.260200
_symmetry_space_group_name_H-M "P -1"
_symmetry_group_IT_number 2
_symmetry_cell_setting 'triclinic'
loop_
_space_group_symop_operation_xyz
x,y,z
-x,-y,-z
loop_
_atom_site_type_symbol
_atom_site_label
_atom_site_fract_x
_atom_site_fract_y
_atom_site_fract_z
Si Si1 0.500000 0.000000 0.000000
Si Si2 0.808434 0.657965 0.959739
Si Si3 0.273703 0.806554 0.610768
Si Si4 0.822115 0.327839 0.730848
Si Si5 0.701231 0.391539 0.442437
Si Si6 0.616827 0.739224 0.059682
Si Si7 0.337546 0.534695 0.783472
Si Si8 0.764116 0.911103 0.735835
O O1 0.328775 0.853908 0.184787
O O2 0.330259 0.020041 0.163255
O O3 0.594187 0.455086 0.955901
O O4 0.055911 0.755092 0.783571
O O5 0.801548 0.757710 0.934362
O O6 0.744902 0.629606 0.188250
O O7 0.247157 0.699636 0.396637
O O8 0.279935 0.741543 0.710291
O O9 0.500000 0.000000 0.500000
O O10 0.075422 0.440344 0.565497
O O11 0.788198 0.429861 0.956131
O O12 0.482740 0.274337 0.678324
O O13 0.703248 0.465703 0.351756
O O14 0.722276 0.885264 0.947365
O O15 0.591374 0.709820 0.689564
O O16 0.000000 0.000000 0.500000
#
# Coordination Sequence:
#
# PCOD9018015 Si02
#       8
#     1   2   2   2   2   2   2   2
#     4  10  24  38  70 102 136 184 244 278 362 424
#     4  10  21  43  67  98 138 178 235 286 355 427
#     4  12  26  39  68 104 137 182 235 293 357 424
#     4  11  23  42  68  99 143 187 236 296 356 431
#     4  12  23  43  71 100 139 185 237 298 351 423
#     4  10  23  43  71 100 132 193 239 283 357 436
#     4  10  23  41  69 103 138 184 241 291 351 434
#     4  10  23  44  68 100 145 188 234 299 364 428
#
# _framework density 25.412521000000002
#
# number of rings (size 3 to 8) (size 9 to 14) (size 15 to 20)
#    0.000    1.333    2.667    3.200    5.600    1.600 
#    0.000    5.333    0.000    0.000    0.000    0.000 
#    0.000    0.000    0.000    0.000    0.000    0.000 
#
# Total GULP energy -83524.118234 kJ/mol
# GULP energy per Si atom -5568.274549 kJ/mol
# Density = 2.535468 g / cm^3
# Si number density = 25.412521 Si / 1000 Ang^3
#
#
#
# Elastic Constant Matrix: (Units=GPa)
#
#
# Indices 1 2 3 4 5 6 
#
# 1 181.6732 28.1752 60.1511 -27.2162 5.6308 -30.4357
# 2 28.1752 54.0338 31.1898 -32.7030 1.4264 2.7150
# 3 60.1511 31.1898 141.0063 -28.2545 -16.3891 6.3510
# 4 -27.2162 -32.7030 -28.2545 45.8237 3.8539 -1.2578
# 5 5.6308 1.4264 -16.3891 3.8539 44.8803 -7.7346
# 6 -30.4357 2.7150 6.3510 -1.2578 -7.7346 28.6720
#
#
#
# Elastic Compliance Matrix: (Units=1/GPa)
#
#
# Indices 1 2 3 4 5 6 
#
# 1 0.009098 -0.001821 -0.003593 0.002243 -0.000776 0.010515
# 2 -0.001821 0.035029 -0.002795 0.022453 -0.004680 -0.004908
# 3 -0.003593 -0.002795 0.010192 0.001747 0.003276 -0.004846
# 4 0.002243 0.022453 0.001747 0.040588 -0.003732 0.000642
# 5 -0.000776 -0.004680 0.003276 -0.003732 0.024987 0.005471
# 6 0.010515 -0.004908 -0.004846 0.000642 0.005471 0.049081
#
#
# Mechanical properties :
#
#
# Convention : Reuss Voigt Hill
#
# Bulk Modulus (GPa) = 26.38384 68.41616 47.40000
# Shear Modulus (GPa) = 25.24920 41.02169 33.13545
#
# Velocity S-wave (km/s) = 3.15552 4.02211 3.61488
# Velocity P-wave (km/s) = 4.86633 6.96782 6.00964
#
# Compressibility (1/GPa) = 0.03790198
#
# Stress axis : x y z
#
# Youngs Moduli (GPa) = 109.91638 28.54739 98.11737
#
# Poissons Ratio (x) = 0.05197 0.35250
# Poissons Ratio (y) = 0.20010 0.27428
# Poissons Ratio (z) = 0.39489 0.07980
#
# Static dielectric constant tensor:
#      x y z
#    x 2.050540 -0.015530 -0.040990 
#    y -0.015530 2.095940 0.166850 
#    z -0.040990 0.166850 2.138130 
# 
# From -- ./inp_files/273586.got.cif
#   From: 2010.05.17/outbox.cif.g08.bks.cpg/sg2_137_cif.got.tgz:273586.got - 2010.06.03 11:33:40.
