data_PCOD9018149
_publ_section_title
;
Structure prediction by ZEFSAII (Michael W. Deem and Ramdas Pophale) SiO2 
 PCOD9018149
Probable space group: P -1
;
_chemical_formula_sum "Si O2"
_cell_formula_units_Z 16
_cell_length_a 9.696982
_cell_length_b 7.495909
_cell_length_c 23.314860
_cell_angle_alpha 136.953672
_cell_angle_beta 45.662987
_cell_angle_gamma 102.854450
_cell_volume 667.760173
_symmetry_space_group_name_H-M "P -1"
_symmetry_group_IT_number 2
_symmetry_cell_setting 'triclinic'
loop_
_space_group_symop_operation_xyz
x,y,z
-x,-y,-z
loop_
_atom_site_type_symbol
_atom_site_label
_atom_site_fract_x
_atom_site_fract_y
_atom_site_fract_z
Si Si1 0.627461 0.147449 0.854544
Si Si2 0.772165 0.931973 0.081993
Si Si3 0.505450 0.395387 0.369643
Si Si4 0.767662 0.870517 0.870945
Si Si5 0.998613 0.816292 0.572337
Si Si6 0.713377 0.739542 0.419943
Si Si7 0.336603 0.981121 0.377012
Si Si8 0.776203 0.284152 0.055349
O O1 0.424286 0.130622 0.881933
O O2 0.756152 0.897505 0.811526
O O3 0.810482 0.066891 0.732328
O O4 0.500000 0.500000 0.000000
O O5 0.666915 0.225301 0.226363
O O6 0.812714 0.019354 0.028013
O O7 0.024965 0.661532 0.973020
O O8 0.637449 0.495940 0.395329
O O9 0.254497 0.704710 0.491755
O O10 0.441979 0.165648 0.361515
O O11 0.001465 0.513180 0.737632
O O12 0.500000 0.000000 0.000000
O O13 0.798157 0.134284 0.952056
O O14 0.000000 0.500000 0.500000
O O15 0.903411 0.926076 0.562159
O O16 0.500000 0.000000 0.500000
O O17 0.693870 0.923846 0.526093
O O18 0.524470 0.607882 0.219282
#
# Coordination Sequence:
#
# PCOD9018149 Si02
#       8
#     2   2   2   2   2   2   2   2
#     4  12  25  43  70 105 142 180 229 291 354 412
#     4  11  23  44  68  96 141 181 224 284 348 406
#     4  11  23  45  71  97 139 176 228 295 340 411
#     4  12  26  46  71 104 144 184 237 289 348 421
#     4  10  21  43  68  96 134 171 224 280 344 406
#     4  12  28  47  68 103 143 188 234 286 354 413
#     4  11  24  42  74 102 130 178 236 283 349 414
#     4  11  25  44  70  99 141 182 233 282 351 414
#
# _framework density 23.960695999999999
#
# number of rings (size 3 to 8) (size 9 to 14) (size 15 to 20)
#    0.000    0.750    5.000    3.375    1.750    4.500 
#    0.000    1.875    0.000    0.000    0.000    0.000 
#    0.000    0.000    0.000    0.000    0.000    0.000 
#
# Total GULP energy -89496.112900 kJ/mol
# GULP energy per Si atom -5593.507056 kJ/mol
# Density = 2.390616 g / cm^3
# Si number density = 23.960696 Si / 1000 Ang^3
#
#
#
# Elastic Constant Matrix: (Units=GPa)
#
#
# Indices 1 2 3 4 5 6 
#
# 1 135.3368 15.7208 45.8428 1.8870 -4.6191 -6.3876
# 2 15.7208 59.1915 8.2050 -11.1329 -4.3560 -7.8230
# 3 45.8428 8.2050 125.3730 11.0154 0.8495 -14.0977
# 4 1.8870 -11.1329 11.0154 30.5369 -4.5865 -0.3538
# 5 -4.6191 -4.3560 0.8495 -4.5865 52.7079 -4.7540
# 6 -6.3876 -7.8230 -14.0977 -0.3538 -4.7540 33.4112
#
#
#
# Elastic Compliance Matrix: (Units=1/GPa)
#
#
# Indices 1 2 3 4 5 6 
#
# 1 0.008657 -0.001824 -0.003046 -0.000001 0.000660 0.000037
# 2 -0.001824 0.019786 -0.000863 0.008077 0.002587 0.004373
# 3 -0.003046 -0.000863 0.009843 -0.003719 -0.000527 0.003254
# 4 -0.000001 0.008077 -0.003719 0.037668 0.004123 0.001307
# 5 0.000660 0.002587 -0.000527 0.004123 0.019917 0.003387
# 6 0.000037 0.004373 0.003254 0.001307 0.003387 0.032830
#
#
# Mechanical properties :
#
#
# Convention : Reuss Voigt Hill
#
# Bulk Modulus (GPa) = 37.28761 51.04873 44.16817
# Shear Modulus (GPa) = 33.53307 40.00672 36.76990
#
# Velocity S-wave (km/s) = 3.74505 4.09061 3.92164
# Velocity P-wave (km/s) = 5.85631 6.60774 6.24334
#
# Compressibility (1/GPa) = 0.02681856
#
# Stress axis : x y z
#
# Youngs Moduli (GPa) = 115.51362 50.54132 101.59715
#
# Poissons Ratio (x) = 0.09218 0.30950
# Poissons Ratio (y) = 0.21067 0.08772
# Poissons Ratio (z) = 0.35189 0.04364
#
# Static dielectric constant tensor:
#      x y z
#    x 2.107670 -0.040600 -0.164960 
#    y -0.040600 1.978920 0.028710 
#    z -0.164960 0.028710 1.954070 
# 
# From -- ./inp_files/606869.got.cif
#   From: 2010.05.17/outbox.cif.g08.bks.cpg/sg2_304_cif.got.tgz:606869.got - 2010.06.03 11:33:40.
