data_PCOD9018766
_publ_section_title
;
Structure prediction by ZEFSAII (Michael W. Deem and Ramdas Pophale) SiO2 
 PCOD9018766
Probable space group: P -1
;
_chemical_formula_sum "Si O2"
_cell_formula_units_Z 16
_cell_length_a 13.883571
_cell_length_b 13.685756
_cell_length_c 13.770383
_cell_angle_alpha 31.997919
_cell_angle_beta 148.112465
_cell_angle_gamma 138.802718
_cell_volume 727.479244
_symmetry_space_group_name_H-M "P -1"
_symmetry_group_IT_number 2
_symmetry_cell_setting 'triclinic'
loop_
_space_group_symop_operation_xyz
x,y,z
-x,-y,-z
loop_
_atom_site_type_symbol
_atom_site_label
_atom_site_fract_x
_atom_site_fract_y
_atom_site_fract_z
Si Si1 0.470930 0.181313 0.635035
Si Si2 0.038994 0.194654 0.811131
Si Si3 0.772468 0.376400 0.839418
Si Si4 0.176985 0.375129 0.143445
Si Si5 0.799279 0.998345 0.282577
Si Si6 0.731212 0.875132 0.114761
Si Si7 0.713207 0.415756 0.292607
Si Si8 0.573686 0.424197 0.966720
O O1 0.600090 0.363085 0.631227
O O2 0.314200 0.217083 0.394337
O O3 0.357367 0.089113 0.706275
O O4 0.620523 0.047512 0.846300
O O5 0.105778 0.142888 0.804907
O O6 0.193009 0.368870 0.826543
O O7 0.857320 0.296618 0.564538
O O8 0.000000 0.000000 0.000000
O O9 0.801240 0.551440 0.787912
O O10 0.959409 0.345007 0.969271
O O11 0.752592 0.203021 0.042516
O O12 0.262711 0.511837 0.019289
O O13 0.795413 0.894489 0.263943
O O14 0.000000 0.000000 0.500000
O O15 0.579549 0.700904 0.118623
O O16 0.539738 0.423389 0.208083
O O17 0.651309 0.331679 0.206225
#
# Coordination Sequence:
#
# PCOD9018766 Si02
#       8
#     2   2   2   2   2   2   2   2
#     4  11  22  39  60  89 127 165 214 274 310 391
#     4  10  22  43  68 101 130 168 222 281 332 400
#     4  10  22  39  55  91 124 163 215 260 323 387
#     4  11  22  37  61  89 124 168 213 262 326 390
#     4  11  21  40  62  88 130 169 211 269 319 393
#     4  10  23  39  63  92 125 174 220 260 339 393
#     4   9  22  44  66  94 133 168 216 280 340 389
#     4  10  21  44  63  89 128 174 215 272 334 397
#
# _framework density 21.993753999999999
#
# number of rings (size 3 to 8) (size 9 to 14) (size 15 to 20)
#    0.000    1.750    1.250    3.375    1.750    4.000 
#    6.750    1.875    0.000    0.000    0.000    0.000 
#    0.000    0.000    0.000    0.000    0.000    0.000 
#
# Total GULP energy -89304.112289 kJ/mol
# GULP energy per Si atom -5581.507018 kJ/mol
# Density = 2.194370 g / cm^3
# Si number density = 21.993754 Si / 1000 Ang^3
#
#
#
# Elastic Constant Matrix: (Units=GPa)
#
#
# Indices 1 2 3 4 5 6 
#
# 1 49.6965 24.6959 -0.0828 6.7123 2.6179 9.2897
# 2 24.6959 58.0907 25.6925 10.1926 -1.9193 9.3148
# 3 -0.0828 25.6925 70.9588 14.1245 12.7328 4.1018
# 4 6.7123 10.1926 14.1245 31.1905 10.6771 2.6290
# 5 2.6179 -1.9193 12.7328 10.6771 25.4612 5.9080
# 6 9.2897 9.3148 4.1018 2.6290 5.9080 34.0933
#
#
#
# Elastic Compliance Matrix: (Units=1/GPa)
#
#
# Indices 1 2 3 4 5 6 
#
# 1 0.028584 -0.014446 0.006956 -0.002328 -0.005716 -0.003508
# 2 -0.014446 0.031008 -0.012247 -0.005674 0.013477 -0.004960
# 3 0.006956 -0.012247 0.021125 -0.003374 -0.011039 0.001082
# 4 -0.002328 -0.005674 -0.003374 0.041357 -0.016363 0.002237
# 5 -0.005716 0.013477 -0.011039 -0.016363 0.055380 -0.009132
# 6 -0.003508 -0.004960 0.001082 0.002237 -0.009132 0.032922
#
#
# Mechanical properties :
#
#
# Convention : Reuss Voigt Hill
#
# Bulk Modulus (GPa) = 24.24617 31.03970 27.64294
# Shear Modulus (GPa) = 18.96829 26.71168 22.83999
#
# Velocity S-wave (km/s) = 2.93992 3.48877 3.22604
# Velocity P-wave (km/s) = 4.75102 5.51110 5.14512
#
# Compressibility (1/GPa) = 0.04124363
#
# Stress axis : x y z
#
# Youngs Moduli (GPa) = 34.98486 32.24923 47.33778
#
# Poissons Ratio (x) = 0.46587 -0.32927
# Poissons Ratio (y) = 0.50539 0.57972
# Poissons Ratio (z) = -0.24335 0.39494
#
# Static dielectric constant tensor:
#      x y z
#    x 1.779920 -0.015680 0.020030 
#    y -0.015680 1.893950 -0.024310 
#    z 0.020030 -0.024310 1.829650 
# 
# From -- ./inp_files/534176.got.cif
#   From: 2010.05.17/outbox.cif.g08.bks.cpg/sg2_268_cif.got.tgz:534176.got - 2010.06.03 11:33:40.
