data_PCOD9018082
_publ_section_title
;
Structure prediction by ZEFSAII (Michael W. Deem and Ramdas Pophale) SiO2 
 PCOD9018082
Probable space group: P -1
;
_chemical_formula_sum "Si O2"
_cell_formula_units_Z 14
_cell_length_a 13.409534
_cell_length_b 10.928210
_cell_length_c 18.969179
_cell_angle_alpha 149.371556
_cell_angle_beta 153.337548
_cell_angle_gamma 32.529575
_cell_volume 601.171147
_symmetry_space_group_name_H-M "P -1"
_symmetry_group_IT_number 2
_symmetry_cell_setting 'triclinic'
loop_
_space_group_symop_operation_xyz
x,y,z
-x,-y,-z
loop_
_atom_site_type_symbol
_atom_site_label
_atom_site_fract_x
_atom_site_fract_y
_atom_site_fract_z
Si Si1 0.931671 0.811149 0.812328
Si Si2 0.973694 0.773436 0.654562
Si Si3 0.337600 0.726733 0.638433
Si Si4 0.448992 0.816788 0.472722
Si Si5 0.342724 0.359108 0.873587
Si Si6 0.813152 0.093281 0.510962
Si Si7 0.405891 0.943560 0.987937
O O1 0.013330 0.774444 0.764014
O O2 0.653087 0.903190 0.678269
O O3 0.076549 0.541637 0.802255
O O4 0.000000 0.000000 0.000000
O O5 0.000000 0.500000 0.500000
O O6 0.161040 0.894380 0.800970
O O7 0.714717 0.971557 0.576164
O O8 0.402387 0.470852 0.598584
O O9 0.094557 0.946862 0.616167
O O10 0.277026 0.701124 0.505868
O O11 0.563914 0.819784 0.832299
O O12 0.277368 0.792762 0.414671
O O13 0.310227 0.119307 0.692505
O O14 0.500000 0.500000 0.000000
O O15 0.444071 0.284324 0.979045
O O16 0.500000 0.000000 0.000000
#
# Coordination Sequence:
#
# PCOD9018082 Si02
#       7
#     2   2   2   2   2   2   2
#     4  12  27  45  74 116 146 200 266 325 379 464
#     4  12  29  51  78 110 162 208 256 326 405 463
#     4  10  23  43  70 103 151 200 260 310 396 461
#     4  12  25  44  76 109 154 199 261 317 399 462
#     4  11  21  44  76 102 151 203 262 317 383 465
#     4  10  21  43  68 108 149 197 255 322 386 463
#     4  11  26  45  76 110 150 206 259 322 390 468
#
# _framework density 23.287877999999999
#
# number of rings (size 3 to 8) (size 9 to 14) (size 15 to 20)
#    0.000    0.857    2.857    3.429    6.000    1.714 
#    2.571    0.000    0.000    0.000    0.000    0.000 
#    0.000    0.000    0.000    0.000    0.000    0.000 
#
# Total GULP energy -78125.910124 kJ/mol
# GULP energy per Si atom -5580.422152 kJ/mol
# Density = 2.323487 g / cm^3
# Si number density = 23.287878 Si / 1000 Ang^3
#
#
#
# Elastic Constant Matrix: (Units=GPa)
#
#
# Indices 1 2 3 4 5 6 
#
# 1 102.9416 30.2041 34.3417 -4.7229 1.8860 0.9974
# 2 30.2041 136.0951 60.3260 -24.1701 -9.5408 19.3701
# 3 34.3417 60.3260 163.6819 -6.2565 17.6226 11.1406
# 4 -4.7229 -24.1701 -6.2565 46.1103 4.1599 -1.8315
# 5 1.8860 -9.5408 17.6226 4.1599 41.8610 -2.2686
# 6 0.9974 19.3701 11.1406 -1.8315 -2.2686 33.2909
#
#
#
# Elastic Compliance Matrix: (Units=1/GPa)
#
#
# Indices 1 2 3 4 5 6 
#
# 1 0.010802 -0.001865 -0.001653 -0.000031 -0.000142 0.001304
# 2 -0.001865 0.011069 -0.003555 0.004636 0.003388 -0.004709
# 3 -0.001653 -0.003555 0.008264 -0.000570 -0.004210 -0.000966
# 4 -0.000031 0.004636 -0.000570 0.024092 -0.001164 -0.001260
# 5 -0.000142 0.003388 -0.004210 -0.001164 0.026620 0.001192
# 6 0.001304 -0.004709 -0.000966 -0.001260 0.001192 0.033074
#
#
# Mechanical properties :
#
#
# Convention : Reuss Voigt Hill
#
# Bulk Modulus (GPa) = 62.55332 72.49579 67.52456
# Shear Modulus (GPa) = 37.48235 42.77556 40.12895
#
# Velocity S-wave (km/s) = 4.01624 4.29046 4.15561
# Velocity P-wave (km/s) = 6.95889 7.46605 7.21692
#
# Compressibility (1/GPa) = 0.01598636
#
# Stress axis : x y z
#
# Youngs Moduli (GPa) = 92.57804 90.34556 121.01007
#
# Poissons Ratio (x) = 0.16853 0.20008
# Poissons Ratio (y) = 0.17270 0.43020
# Poissons Ratio (z) = 0.15307 0.32118
#
# Static dielectric constant tensor:
#      x y z
#    x 1.945280 0.039110 0.065910 
#    y 0.039110 1.909110 -0.017720 
#    z 0.065910 -0.017720 1.812880 
# 
# From -- ./inp_files/598045.got.cif
#   From: 2010.05.17/outbox.cif.g08.bks.cpg/sg2_300_cif.got.tgz:598045.got - 2010.06.03 11:33:40.
