data_PCOD9018357
_publ_section_title
;
Structure prediction by ZEFSAII (Michael W. Deem and Ramdas Pophale) SiO2 
 PCOD9018357
Probable space group: P -1
;
_chemical_formula_sum "Si O2"
_cell_formula_units_Z 14
_cell_length_a 9.061397
_cell_length_b 13.442491
_cell_length_c 11.753543
_cell_angle_alpha 35.101715
_cell_angle_beta 133.210475
_cell_angle_gamma 122.105585
_cell_volume 598.617164
_symmetry_space_group_name_H-M "P -1"
_symmetry_group_IT_number 2
_symmetry_cell_setting 'triclinic'
loop_
_space_group_symop_operation_xyz
x,y,z
-x,-y,-z
loop_
_atom_site_type_symbol
_atom_site_label
_atom_site_fract_x
_atom_site_fract_y
_atom_site_fract_z
Si Si1 0.153689 0.913213 0.566409
Si Si2 0.757552 0.592821 0.362115
Si Si3 0.419618 0.554832 0.032734
Si Si4 0.093861 0.784678 0.261481
Si Si5 0.846452 0.017698 0.113758
Si Si6 0.487094 0.232071 0.757324
Si Si7 0.551707 0.796931 0.508224
O O1 0.249602 0.714722 0.804291
O O2 0.340474 0.035185 0.554792
O O3 0.000000 0.000000 0.500000
O O4 0.020613 0.940273 0.358410
O O5 0.873836 0.405545 0.601873
O O6 0.613154 0.602670 0.385733
O O7 0.919032 0.739036 0.298783
O O8 0.612350 0.605489 0.163095
O O9 0.500000 0.500000 0.000000
O O10 0.351884 0.378182 0.220145
O O11 0.314424 0.813995 0.401496
O O12 0.063020 0.919483 0.015787
O O13 0.647140 0.906339 0.117088
O O14 0.725844 0.192000 0.940558
O O15 0.444583 0.221697 0.609936
#
# Coordination Sequence:
#
# PCOD9018357 Si02
#       7
#     2   2   2   2   2   2   2
#     4  12  25  46  73 108 144 191 239 288 364 428
#     4  10  22  43  70  99 136 186 238 290 354 420
#     4  11  28  48  70 105 154 186 234 296 361 432
#     4   9  22  42  67  99 134 182 235 288 355 413
#     4  10  22  39  66 102 134 176 231 293 346 416
#     4  10  21  43  70 101 134 175 245 298 342 414
#     4  10  24  48  71 106 142 188 237 300 353 418
#
# _framework density 23.387236000000001
#
# number of rings (size 3 to 8) (size 9 to 14) (size 15 to 20)
#    0.000    1.714    1.429    0.857    6.000   11.429 
#    0.000    0.000    0.000    0.000    0.000    0.000 
#    0.000    0.000    0.000    0.000    0.000    0.000 
#
# Total GULP energy -78166.534621 kJ/mol
# GULP energy per Si atom -5583.323902 kJ/mol
# Density = 2.333401 g / cm^3
# Si number density = 23.387236 Si / 1000 Ang^3
#
#
#
# Elastic Constant Matrix: (Units=GPa)
#
#
# Indices 1 2 3 4 5 6 
#
# 1 174.2072 29.2056 40.8111 2.7703 -1.8430 -16.4788
# 2 29.2056 68.8797 24.5846 6.1797 -11.9395 3.9307
# 3 40.8111 24.5846 155.2614 -3.9271 -10.5165 -13.9347
# 4 2.7703 6.1797 -3.9271 31.7155 2.3185 -7.8848
# 5 -1.8430 -11.9395 -10.5165 2.3185 29.7054 -7.1726
# 6 -16.4788 3.9307 -13.9347 -7.8848 -7.1726 40.9532
#
#
#
# Elastic Compliance Matrix: (Units=1/GPa)
#
#
# Indices 1 2 3 4 5 6 
#
# 1 0.006688 -0.002711 -0.001118 0.000482 -0.000486 0.002579
# 2 -0.002711 0.018102 -0.002191 -0.004856 0.005870 -0.003481
# 3 -0.001118 -0.002191 0.007574 0.002074 0.002329 0.003145
# 4 0.000482 -0.004856 0.002074 0.034755 -0.002041 0.007700
# 5 -0.000486 0.005870 0.002329 -0.002041 0.038519 0.006387
# 6 0.002579 -0.003481 0.003145 0.007700 0.006387 0.029461
#
#
# Mechanical properties :
#
#
# Convention : Reuss Voigt Hill
#
# Bulk Modulus (GPa) = 49.20606 65.28344 57.24475
# Shear Modulus (GPa) = 32.48583 40.72459 36.60521
#
# Velocity S-wave (km/s) = 3.73103 4.17744 3.96053
# Velocity P-wave (km/s) = 6.29652 7.15840 6.74125
#
# Compressibility (1/GPa) = 0.02032270
#
# Stress axis : x y z
#
# Youngs Moduli (GPa) = 149.52505 55.24367 132.03074
#
# Poissons Ratio (x) = 0.14978 0.14759
# Poissons Ratio (y) = 0.40541 0.28931
# Poissons Ratio (z) = 0.16715 0.12105
#
# Static dielectric constant tensor:
#      x y z
#    x 1.978260 -0.116900 0.097260 
#    y -0.116900 1.985340 -0.180430 
#    z 0.097260 -0.180430 1.976240 
# 
# From -- ./inp_files/398316.got.cif
#   From: 2010.05.17/outbox.cif.g08.bks.cpg/sg2_200_cif.got.tgz:398316.got - 2010.06.03 11:33:40.
