data_PCOD9018912
_publ_section_title
;
Structure prediction by ZEFSAII (Michael W. Deem and Ramdas Pophale) SiO2 
 PCOD9018912
Probable space group: P -1
;
_chemical_formula_sum "Si O2"
_cell_formula_units_Z 16
_cell_length_a 9.891136
_cell_length_b 11.309752
_cell_length_c 18.114053
_cell_angle_alpha 43.418546
_cell_angle_beta 29.964116
_cell_angle_gamma 56.888029
_cell_volume 674.990165
_symmetry_space_group_name_H-M "P -1"
_symmetry_group_IT_number 2
_symmetry_cell_setting 'triclinic'
loop_
_space_group_symop_operation_xyz
x,y,z
-x,-y,-z
loop_
_atom_site_type_symbol
_atom_site_label
_atom_site_fract_x
_atom_site_fract_y
_atom_site_fract_z
Si Si1 0.890125 0.206450 0.403670
Si Si2 0.075713 0.897257 0.799117
Si Si3 0.831090 0.434554 0.813410
Si Si4 0.351263 0.177413 0.089223
Si Si5 0.801872 0.466357 0.539996
Si Si6 0.577579 0.127916 0.727121
Si Si7 0.971288 0.813709 0.056632
Si Si8 0.523420 0.265087 0.417697
O O1 0.709430 0.086229 0.606825
O O2 0.671449 0.267435 0.425999
O O3 0.090959 0.368711 0.278924
O O4 0.080081 0.128703 0.292949
O O5 0.265210 0.784457 0.718990
O O6 0.777910 0.852426 0.917442
O O7 0.244585 0.103614 0.619373
O O8 0.054312 0.845154 0.918303
O O9 0.061675 0.428146 0.645223
O O10 0.866579 0.307792 0.921590
O O11 0.538186 0.368071 0.939105
O O12 0.532762 0.042867 0.092306
O O13 0.783669 0.263239 0.620473
O O14 0.542542 0.545717 0.648642
O O15 0.000000 0.500000 0.500000
O O16 0.363512 0.249407 0.754649
O O17 0.000000 0.000000 0.000000
#
# Coordination Sequence:
#
# PCOD9018912 Si02
#       8
#     2   2   2   2   2   2   2   2
#     4  10  22  43  65  95 129 175 215 265 322 384
#     4  10  24  41  68  96 127 172 219 265 323 378
#     4  11  24  42  65  97 131 171 213 269 324 384
#     4  11  23  42  65  98 134 167 212 274 321 382
#     4  11  24  42  64  95 130 170 211 266 325 380
#     4  11  23  38  66  95 126 170 219 263 319 386
#     4  12  23  41  65  98 126 168 214 267 319 378
#     4  10  21  44  66  91 130 174 220 264 315 392
#
# _framework density 23.704048
#
# number of rings (size 3 to 8) (size 9 to 14) (size 15 to 20)
#    0.000    1.250    1.250    4.500    1.750    2.500 
#    9.000    1.875    0.000    0.000    0.000    0.000 
#    0.000    0.000    0.000    0.000    0.000    0.000 
#
# Total GULP energy -89384.698316 kJ/mol
# GULP energy per Si atom -5586.543645 kJ/mol
# Density = 2.365010 g / cm^3
# Si number density = 23.704048 Si / 1000 Ang^3
#
#
#
# Elastic Constant Matrix: (Units=GPa)
#
#
# Indices 1 2 3 4 5 6 
#
# 1 141.4309 18.4851 20.7252 -11.5433 1.0689 17.4030
# 2 18.4851 53.2987 -5.4232 3.1088 12.9486 8.8036
# 3 20.7252 -5.4232 42.6339 -0.4204 4.7277 11.2422
# 4 -11.5433 3.1088 -0.4204 24.2288 7.1403 0.0153
# 5 1.0689 12.9486 4.7277 7.1403 42.2647 3.6471
# 6 17.4030 8.8036 11.2422 0.0153 3.6471 40.1393
#
#
#
# Elastic Compliance Matrix: (Units=1/GPa)
#
#
# Indices 1 2 3 4 5 6 
#
# 1 0.008743 -0.003598 -0.004256 0.004322 0.000790 -0.001883
# 2 -0.003598 0.023330 0.006732 -0.002535 -0.006966 -0.004808
# 3 -0.004256 0.006732 0.028777 -0.001103 -0.004358 -0.007295
# 4 0.004322 -0.002535 -0.001103 0.045669 -0.006890 -0.000400
# 5 0.000790 -0.006966 -0.004358 -0.006890 0.027433 -0.000084
# 6 -0.001883 -0.004808 -0.007295 -0.000400 -0.000084 0.028835
#
#
# Mechanical properties :
#
#
# Convention : Reuss Voigt Hill
#
# Bulk Modulus (GPa) = 17.06346 33.88198 25.47272
# Shear Modulus (GPa) = 27.09041 34.89831 30.99436
#
# Velocity S-wave (km/s) = 3.38429 3.84115 3.61994
# Velocity P-wave (km/s) = 4.74188 5.83073 5.31426
#
# Compressibility (1/GPa) = 0.05860477
#
# Stress axis : x y z
#
# Youngs Moduli (GPa) = 114.37636 42.86380 34.75010
#
# Poissons Ratio (x) = 0.15424 0.14791
# Poissons Ratio (y) = 0.41157 -0.23395
# Poissons Ratio (z) = 0.48683 -0.28857
#
# Static dielectric constant tensor:
#      x y z
#    x 2.089340 0.055660 -0.219220 
#    y 0.055660 1.963850 -0.075190 
#    z -0.219220 -0.075190 2.158900 
# 
# From -- ./inp_files/206970.got.cif
#   From: 2010.05.17/outbox.cif.g08.bks.cpg/sg2_104_cif.got.tgz:206970.got - 2010.06.03 11:33:40.
