data_PCOD9018402
_publ_section_title
;
Structure prediction by ZEFSAII (Michael W. Deem and Ramdas Pophale) SiO2 
 PCOD9018402
Probable space group: P -1
;
_chemical_formula_sum "Si O2"
_cell_formula_units_Z 16
_cell_length_a 5.264575
_cell_length_b 16.282172
_cell_length_c 8.297838
_cell_angle_alpha 56.210599
_cell_angle_beta 79.528893
_cell_angle_gamma 88.274164
_cell_volume 579.096344
_symmetry_space_group_name_H-M "P -1"
_symmetry_group_IT_number 2
_symmetry_cell_setting 'triclinic'
loop_
_space_group_symop_operation_xyz
x,y,z
-x,-y,-z
loop_
_atom_site_type_symbol
_atom_site_label
_atom_site_fract_x
_atom_site_fract_y
_atom_site_fract_z
Si Si1 0.172121 0.932000 0.947762
Si Si2 0.033681 0.261344 0.672981
Si Si3 0.171118 0.553415 0.063144
Si Si4 0.433211 0.355786 0.321046
Si Si5 0.044069 0.849863 0.682385
Si Si6 0.584628 0.920669 0.451684
Si Si7 0.656130 0.403283 0.584904
Si Si8 0.242386 0.316133 0.915878
O O1 0.084433 0.895469 0.813180
O O2 0.402249 0.016735 0.783936
O O3 0.177931 0.831183 0.165011
O O4 0.000000 0.000000 0.000000
O O5 0.945497 0.372627 0.583274
O O6 0.204461 0.268965 0.482901
O O7 0.206582 0.255453 0.819551
O O8 0.316210 0.462839 0.213507
O O9 0.946072 0.595986 0.147723
O O10 0.376091 0.633518 0.865128
O O11 0.000000 0.500000 0.000000
O O12 0.588641 0.355804 0.469501
O O13 0.330189 0.841971 0.580959
O O14 0.864116 0.900979 0.518327
O O15 0.861850 0.750427 0.852687
O O16 0.500000 0.000000 0.500000
O O17 0.500000 0.500000 0.500000
O O18 0.541226 0.353096 0.819675
#
# Coordination Sequence:
#
# PCOD9018402 Si02
#       8
#     2   2   2   2   2   2   2   2
#     4  10  22  42  67  97 130 174 219 278 336 397
#     4  10  22  41  63  90 128 162 216 263 325 393
#     4  11  22  40  61  89 128 169 211 263 327 384
#     4  10  22  39  59  88 128 162 208 266 323 387
#     4  10  23  44  69  98 133 174 226 275 334 404
#     4  10  21  43  70  93 134 174 220 277 337 401
#     4  11  21  38  65  91 126 165 211 262 325 387
#     4  10  23  37  64  94 120 170 218 265 319 396
#
# _framework density 27.629252000000001
#
# number of rings (size 3 to 8) (size 9 to 14) (size 15 to 20)
#    0.000    1.750    0.000    4.500    5.250    4.000 
#    6.750    5.625    0.000    0.000    0.000    0.000 
#    0.000    0.000    0.000    0.000    0.000    0.000 
#
# Total GULP energy -89081.169800 kJ/mol
# GULP energy per Si atom -5567.573112 kJ/mol
# Density = 2.756637 g / cm^3
# Si number density = 27.629252 Si / 1000 Ang^3
#
#
#
# Elastic Constant Matrix: (Units=GPa)
#
#
# Indices 1 2 3 4 5 6 
#
# 1 82.7885 4.1511 48.9216 7.0201 -22.6186 -8.5925
# 2 4.1511 61.8546 27.9002 14.8243 -2.0468 2.5282
# 3 48.9216 27.9002 229.9326 11.5591 -39.4558 -2.3640
# 4 7.0201 14.8243 11.5591 56.4154 -7.0241 -1.8123
# 5 -22.6186 -2.0468 -39.4558 -7.0241 49.5265 13.6510
# 6 -8.5925 2.5282 -2.3640 -1.8123 13.6510 27.0777
#
#
#
# Elastic Compliance Matrix: (Units=1/GPa)
#
#
# Indices 1 2 3 4 5 6 
#
# 1 0.014952 0.000347 -0.002449 -0.000861 0.004118 0.002365
# 2 0.000347 0.018290 -0.002271 -0.004573 -0.001120 -0.001537
# 3 -0.002449 -0.002271 0.005804 0.000144 0.004001 -0.002066
# 4 -0.000861 -0.004573 0.000144 0.019286 0.002167 0.000364
# 5 0.004118 -0.001120 0.004001 0.002167 0.029029 -0.012729
# 6 0.002365 -0.001537 -0.002066 0.000364 -0.012729 0.044086
#
#
# Mechanical properties :
#
#
# Convention : Reuss Voigt Hill
#
# Bulk Modulus (GPa) = 33.00359 59.61349 46.30854
# Shear Modulus (GPa) = 33.26813 46.17744 39.72279
#
# Velocity S-wave (km/s) = 3.47377 4.09262 3.79583
# Velocity P-wave (km/s) = 5.29722 6.62991 6.00068
#
# Compressibility (1/GPa) = 0.03029974
#
# Stress axis : x y z
#
# Youngs Moduli (GPa) = 66.87880 54.67528 172.29717
#
# Poissons Ratio (x) = -0.01899 0.42200
# Poissons Ratio (y) = -0.02323 0.39133
# Poissons Ratio (z) = 0.16380 0.12418
#
# Static dielectric constant tensor:
#      x y z
#    x 2.361680 0.193090 -0.209280 
#    y 0.193090 2.331870 -0.280060 
#    z -0.209280 -0.280060 2.339380 
# 
# From -- ./inp_files/141096.got.cif
#   From: 2010.05.17/outbox.cif.g08.bks.cpg/sg2_71_cif.got.tgz:141096.got - 2010.06.03 11:33:40.
