data_PCOD9018098
_publ_section_title
;
Structure prediction by ZEFSAII (Michael W. Deem and Ramdas Pophale) SiO2 
 PCOD9018098
Probable space group: P -1
;
_chemical_formula_sum "Si O2"
_cell_formula_units_Z 16
_cell_length_a 16.720284
_cell_length_b 9.125154
_cell_length_c 25.091181
_cell_angle_alpha 151.099449
_cell_angle_beta 151.038687
_cell_angle_gamma 48.977359
_cell_volume 791.515663
_symmetry_space_group_name_H-M "P -1"
_symmetry_group_IT_number 2
_symmetry_cell_setting 'triclinic'
loop_
_space_group_symop_operation_xyz
x,y,z
-x,-y,-z
loop_
_atom_site_type_symbol
_atom_site_label
_atom_site_fract_x
_atom_site_fract_y
_atom_site_fract_z
Si Si1 0.514375 0.701465 0.855336
Si Si2 0.983083 0.594584 0.254903
Si Si3 0.161161 0.733484 0.820724
Si Si4 0.626183 0.310842 0.516359
Si Si5 0.298644 0.610560 0.070461
Si Si6 0.618186 0.962300 0.508310
Si Si7 0.886585 0.600911 0.424194
Si Si8 0.979043 0.710352 0.103123
O O1 0.651271 0.689887 0.978167
O O2 0.473775 0.400666 0.692179
O O3 0.324888 0.608516 0.745296
O O4 0.617523 0.054668 0.995735
O O5 0.899624 0.474865 0.226706
O O6 0.161712 0.523903 0.328849
O O7 0.816832 0.419823 0.059354
O O8 0.061038 0.999447 0.418534
O O9 0.079063 0.496548 0.645841
O O10 0.098030 0.031597 0.879004
O O11 0.500000 0.500000 0.500000
O O12 0.496297 0.950653 0.296319
O O13 0.639342 0.230527 0.560197
O O14 0.160730 0.572165 0.026690
O O15 0.500000 0.000000 0.500000
O O16 0.823325 0.058683 0.679838
O O17 0.000000 0.500000 0.500000
O O18 0.000000 0.500000 0.000000
#
# Coordination Sequence:
#
# PCOD9018098 Si02
#       8
#     2   2   2   2   2   2   2   2
#     4  10  21  45  67  97 131 178 225 280 332 409
#     4  12  25  47  66 102 144 173 227 289 344 402
#     4  11  26  40  68 103 133 175 231 283 342 398
#     4  11  25  42  65  98 140 185 219 279 351 402
#     4  10  21  43  68  92 133 181 225 266 347 407
#     4  11  21  39  65  95 134 172 236 273 329 405
#     4  12  23  47  75  96 134 183 231 279 341 408
#     4  11  22  41  66  97 133 180 229 281 330 412
#
# _framework density 20.214383000000002
#
# number of rings (size 3 to 8) (size 9 to 14) (size 15 to 20)
#    0.000    1.000    3.750    5.250    3.500    2.500 
#    2.250    1.250    0.000    0.000    0.000    0.000 
#    0.000    0.000    0.000    0.000    0.000    0.000 
#
# Total GULP energy -89342.323423 kJ/mol
# GULP energy per Si atom -5583.895214 kJ/mol
# Density = 2.016837 g / cm^3
# Si number density = 20.214383 Si / 1000 Ang^3
#
#
#
# Elastic Constant Matrix: (Units=GPa)
#
#
# Indices 1 2 3 4 5 6 
#
# 1 148.1820 43.3902 32.2933 -22.4414 4.1580 20.6112
# 2 43.3902 82.9103 27.5532 -13.9483 5.9760 8.4120
# 3 32.2933 27.5532 75.4276 -28.6542 6.7734 13.8210
# 4 -22.4414 -13.9483 -28.6542 31.9092 -2.4167 -2.8999
# 5 4.1580 5.9760 6.7734 -2.4167 40.1943 5.5641
# 6 20.6112 8.4120 13.8210 -2.8999 5.5641 33.3274
#
#
#
# Elastic Compliance Matrix: (Units=1/GPa)
#
#
# Indices 1 2 3 4 5 6 
#
# 1 0.009072 -0.003553 -0.000208 0.004283 0.000483 -0.004336
# 2 -0.003553 0.015363 -0.003690 0.000819 -0.001264 0.000132
# 3 -0.000208 -0.003690 0.022909 0.018111 -0.001281 -0.006650
# 4 0.004283 0.000819 0.018111 0.050444 0.000249 -0.006018
# 5 0.000483 -0.001264 -0.001281 0.000249 0.025764 -0.003728
# 6 -0.004336 0.000132 -0.006650 -0.006018 -0.003728 0.035510
#
#
# Mechanical properties :
#
#
# Convention : Reuss Voigt Hill
#
# Bulk Modulus (GPa) = 30.82581 56.99927 43.91254
# Shear Modulus (GPa) = 27.05948 34.63840 30.84894
#
# Velocity S-wave (km/s) = 3.66269 4.14400 3.91076
# Velocity P-wave (km/s) = 5.75931 7.15231 6.49327
#
# Compressibility (1/GPa) = 0.03244035
#
# Stress axis : x y z
#
# Youngs Moduli (GPa) = 110.22480 65.09351 43.65175
#
# Poissons Ratio (x) = 0.23129 0.00909
# Poissons Ratio (y) = 0.39164 0.16109
# Poissons Ratio (z) = 0.02294 0.24021
#
# Static dielectric constant tensor:
#      x y z
#    x 1.711240 -0.035670 0.005920 
#    y -0.035670 1.737250 0.015810 
#    z 0.005920 0.015810 1.769720 
# 
# From -- ./inp_files/592107.got.cif
#   From: 2010.05.17/outbox.cif.g08.bks.cpg/sg2_297_cif.got.tgz:592107.got - 2010.06.03 11:33:40.
