data_PCOD9018975
_publ_section_title
;
Structure prediction by ZEFSAII (Michael W. Deem and Ramdas Pophale) SiO2 
 PCOD9018975
Probable space group: P -1
;
_chemical_formula_sum "Si O2"
_cell_formula_units_Z 16
_cell_length_a 10.197257
_cell_length_b 6.306407
_cell_length_c 11.794004
_cell_angle_alpha 68.266950
_cell_angle_beta 102.944174
_cell_angle_gamma 112.161966
_cell_volume 649.346000
_symmetry_space_group_name_H-M "P -1"
_symmetry_group_IT_number 2
_symmetry_cell_setting 'triclinic'
loop_
_space_group_symop_operation_xyz
x,y,z
-x,-y,-z
loop_
_atom_site_type_symbol
_atom_site_label
_atom_site_fract_x
_atom_site_fract_y
_atom_site_fract_z
Si Si1 0.776698 0.040339 0.802412
Si Si2 0.500539 0.956903 0.372724
Si Si3 0.931126 0.181763 0.299044
Si Si4 0.861765 0.258307 0.020454
Si Si5 0.105614 0.553206 0.402642
Si Si6 0.659795 0.536709 0.976867
Si Si7 0.283342 0.301687 0.588552
Si Si8 0.719031 0.460774 0.238941
O O1 0.640192 0.110271 0.719625
O O2 0.844096 0.131410 0.920114
O O3 0.886463 0.188535 0.699179
O O4 0.719210 0.751305 0.856678
O O5 0.587709 0.771137 0.418069
O O6 0.500000 0.000000 0.500000
O O7 0.592709 0.208407 0.279254
O O8 0.851912 0.366427 0.294018
O O9 0.083578 0.351261 0.337437
O O10 0.859666 0.930767 0.398376
O O11 0.894388 0.142503 0.166877
O O12 0.711546 0.314307 0.992969
O O13 0.000000 0.500000 0.000000
O O14 0.250787 0.533463 0.489185
O O15 0.000000 0.500000 0.500000
O O16 0.500000 0.500000 0.000000
O O17 0.743730 0.599372 0.098293
O O18 0.310754 0.361818 0.712916
#
# Coordination Sequence:
#
# PCOD9018975 Si02
#       8
#     2   2   2   2   2   2   2   2
#     4  12  27  46  74 104 144 188 238 302 356 427
#     4  11  26  44  68 104 144 180 241 299 351 425
#     4  10  22  45  67 102 141 181 239 293 347 430
#     4  11  25  47  71 109 147 180 247 300 356 432
#     4  12  25  45  71 105 145 189 242 290 358 439
#     4  11  25  46  75 105 142 192 238 298 364 425
#     4  11  24  42  74  96 137 194 228 295 364 413
#     4  10  21  44  67 102 139 178 236 294 352 428
#
# _framework density 24.640177000000001
#
# number of rings (size 3 to 8) (size 9 to 14) (size 15 to 20)
#    0.000    1.000    3.750    1.875    3.500    5.000 
#    0.000    0.000    0.000    0.000    0.000    0.000 
#    0.000    0.000    0.000    0.000    0.000    0.000 
#
# Total GULP energy -89210.499041 kJ/mol
# GULP energy per Si atom -5575.656190 kJ/mol
# Density = 2.458410 g / cm^3
# Si number density = 24.640177 Si / 1000 Ang^3
#
#
#
# Elastic Constant Matrix: (Units=GPa)
#
#
# Indices 1 2 3 4 5 6 
#
# 1 54.9933 8.3284 12.1899 2.8687 -1.9241 -8.8058
# 2 8.3284 35.2530 24.7322 -7.6179 -2.3766 6.5151
# 3 12.1899 24.7322 151.3328 -17.3024 -8.3040 -4.6399
# 4 2.8687 -7.6179 -17.3024 53.3740 4.5177 -5.7963
# 5 -1.9241 -2.3766 -8.3040 4.5177 32.2619 1.2750
# 6 -8.8058 6.5151 -4.6399 -5.7963 1.2750 41.1910
#
#
#
# Elastic Compliance Matrix: (Units=1/GPa)
#
#
# Indices 1 2 3 4 5 6 
#
# 1 0.020044 -0.005418 -0.000731 -0.001620 0.000645 0.004812
# 2 -0.005418 0.035217 -0.005164 0.002820 0.000821 -0.006939
# 3 -0.000731 -0.005164 0.007856 0.001936 0.001257 0.001779
# 4 -0.001620 0.002820 0.001936 0.020306 -0.002327 0.002355
# 5 0.000645 0.000821 0.001257 -0.002327 0.031791 -0.001162
# 6 0.004812 -0.006939 0.001779 0.002355 -0.001162 0.026971
#
#
# Mechanical properties :
#
#
# Convention : Reuss Voigt Hill
#
# Bulk Modulus (GPa) = 24.69801 36.89780 30.79791
# Shear Modulus (GPa) = 28.04150 38.45394 33.24772
#
# Velocity S-wave (km/s) = 3.37714 3.95475 3.67731
# Velocity P-wave (km/s) = 5.02514 5.98837 5.52778
#
# Compressibility (1/GPa) = 0.04048909
#
# Stress axis : x y z
#
# Youngs Moduli (GPa) = 49.88971 28.39575 127.29702
#
# Poissons Ratio (x) = 0.15385 0.09310
# Poissons Ratio (y) = 0.27031 0.65739
# Poissons Ratio (z) = 0.03649 0.14664
#
# Static dielectric constant tensor:
#      x y z
#    x 2.504090 0.042340 0.202400 
#    y 0.042340 2.013380 -0.039410 
#    z 0.202400 -0.039410 2.066480 
# 
# From -- ./inp_files/410095.got.cif
#   From: 2010.05.17/outbox.cif.g08.bks.cpg/sg2_206_cif.got.tgz:410095.got - 2010.06.03 11:33:40.
