data_PCOD9018157
_publ_section_title
;
Structure prediction by ZEFSAII (Michael W. Deem and Ramdas Pophale) SiO2 
 PCOD9018157
Probable space group: P -1
;
_chemical_formula_sum "Si O2"
_cell_formula_units_Z 14
_cell_length_a 12.937196
_cell_length_b 12.873370
_cell_length_c 7.025021
_cell_angle_alpha 123.954493
_cell_angle_beta 40.021044
_cell_angle_gamma 113.721811
_cell_volume 623.375873
_symmetry_space_group_name_H-M "P -1"
_symmetry_group_IT_number 2
_symmetry_cell_setting 'triclinic'
loop_
_space_group_symop_operation_xyz
x,y,z
-x,-y,-z
loop_
_atom_site_type_symbol
_atom_site_label
_atom_site_fract_x
_atom_site_fract_y
_atom_site_fract_z
Si Si1 0.413205 0.637421 0.280748
Si Si2 0.405806 0.998808 0.827402
Si Si3 0.584202 0.785137 0.499030
Si Si4 0.813049 0.477275 0.221451
Si Si5 0.893481 0.127776 0.744479
Si Si6 0.212740 0.246323 0.503690
Si Si7 0.698764 0.288250 0.902473
O O1 0.540114 0.721838 0.298330
O O2 0.263718 0.612126 0.606254
O O3 0.346128 0.695952 0.238061
O O4 0.500000 0.500000 0.000000
O O5 0.500000 0.000000 0.500000
O O6 0.542590 0.933058 0.699989
O O7 0.321416 0.131118 0.142298
O O8 0.263492 0.899489 0.935923
O O9 0.758448 0.759978 0.316035
O O10 0.463588 0.728969 0.765875
O O11 0.736708 0.618053 0.495081
O O12 0.771869 0.414545 0.013201
O O13 0.000000 0.500000 0.000000
O O14 0.818124 0.172936 0.692481
O O15 0.026562 0.226956 0.703580
O O16 0.000000 0.000000 0.500000
#
# Coordination Sequence:
#
# PCOD9018157 Si02
#       7
#     2   2   2   2   2   2   2
#     4  11  24  41  69  99 134 177 232 269 324 405
#     4  10  23  41  68  97 129 169 226 278 333 398
#     4  10  23  41  67  97 136 174 221 281 339 385
#     4  11  23  41  65 100 138 176 215 272 337 391
#     4   9  20  42  69  93 133 178 214 274 344 389
#     4  11  21  42  68  93 137 177 217 276 336 397
#     4  10  21  43  68  96 138 180 219 277 329 396
#
# _framework density 22.458359000000002
#
# number of rings (size 3 to 8) (size 9 to 14) (size 15 to 20)
#    0.000    1.714    1.429    2.143    4.000    2.857 
#    0.000    2.143    0.000    0.000    0.000    0.000 
#    0.000    0.000    0.000    0.000    0.000    0.000 
#
# Total GULP energy -78097.755182 kJ/mol
# GULP energy per Si atom -5578.411084 kJ/mol
# Density = 2.240724 g / cm^3
# Si number density = 22.458359 Si / 1000 Ang^3
#
#
#
# Elastic Constant Matrix: (Units=GPa)
#
#
# Indices 1 2 3 4 5 6 
#
# 1 157.5942 43.3346 38.6606 -11.3543 20.9751 -29.2584
# 2 43.3346 132.5594 32.9971 10.4392 17.1069 -14.7513
# 3 38.6606 32.9971 65.5077 4.4749 13.9766 -13.1591
# 4 -11.3543 10.4392 4.4749 41.9650 -3.3204 1.6949
# 5 20.9751 17.1069 13.9766 -3.3204 38.6345 3.3727
# 6 -29.2584 -14.7513 -13.1591 1.6949 3.3727 38.2350
#
#
#
# Elastic Compliance Matrix: (Units=1/GPa)
#
#
# Indices 1 2 3 4 5 6 
#
# 1 0.009172 -0.001369 -0.003010 0.002634 -0.003551 0.005651
# 2 -0.001369 0.009494 -0.002763 -0.002747 -0.002875 0.002039
# 3 -0.003010 -0.002763 0.020615 -0.002913 -0.005227 0.004315
# 4 0.002634 -0.002747 -0.002913 0.025848 0.003190 -0.001474
# 5 -0.003551 -0.002875 -0.005227 0.003190 0.031999 -0.008589
# 6 0.005651 0.002039 0.004315 -0.001474 -0.008589 0.033573
#
#
# Mechanical properties :
#
#
# Convention : Reuss Voigt Hill
#
# Bulk Modulus (GPa) = 40.00892 65.07178 52.54035
# Shear Modulus (GPa) = 32.61184 39.81149 36.21166
#
# Velocity S-wave (km/s) = 3.81478 4.21489 4.01982
# Velocity P-wave (km/s) = 6.10383 7.26115 6.70750
#
# Compressibility (1/GPa) = 0.02499442
#
# Stress axis : x y z
#
# Youngs Moduli (GPa) = 109.02787 105.33506 48.50836
#
# Poissons Ratio (x) = 0.14424 0.14603
# Poissons Ratio (y) = 0.14930 0.13404
# Poissons Ratio (z) = 0.32822 0.29107
#
# Static dielectric constant tensor:
#      x y z
#    x 1.893200 -0.020470 0.007700 
#    y -0.020470 1.942910 0.047020 
#    z 0.007700 0.047020 1.861630 
# 
# From -- ./inp_files/53247.got.cif
#   From: 2010.05.17/outbox.cif.g08.bks.cpg/sg2_27_cif.got.tgz:53247.got - 2010.06.03 11:33:40.
