data_PCOD9018937
_publ_section_title
;
Structure prediction by ZEFSAII (Michael W. Deem and Ramdas Pophale) SiO2 
 PCOD9018937
Probable space group: P -1
;
_chemical_formula_sum "Si O2"
_cell_formula_units_Z 16
_cell_length_a 11.859700
_cell_length_b 5.216120
_cell_length_c 17.083470
_cell_angle_alpha 91.497526
_cell_angle_beta 126.511745
_cell_angle_gamma 63.354290
_cell_volume 715.302869
_symmetry_space_group_name_H-M "P -1"
_symmetry_group_IT_number 2
_symmetry_cell_setting 'triclinic'
loop_
_space_group_symop_operation_xyz
x,y,z
-x,-y,-z
loop_
_atom_site_type_symbol
_atom_site_label
_atom_site_fract_x
_atom_site_fract_y
_atom_site_fract_z
Si Si1 0.222906 0.539943 0.079575
Si Si2 0.343783 0.253553 0.385730
Si Si3 0.084661 0.846230 0.678218
Si Si4 0.887538 0.863968 0.045407
Si Si5 0.719684 0.324250 0.512910
Si Si6 0.814446 0.571671 0.420537
Si Si7 0.511173 0.209163 0.306869
Si Si8 0.044636 0.409504 0.755980
O O1 0.394207 0.431916 0.193326
O O2 0.070694 0.704388 0.080211
O O3 0.214524 0.258099 0.042404
O O4 0.190308 0.780696 0.000290
O O5 0.322321 0.563911 0.414735
O O6 0.391832 0.161753 0.314797
O O7 0.154823 0.343187 0.319170
O O8 0.500000 0.000000 0.500000
O O9 0.181045 0.676698 0.637791
O O10 0.124220 0.593957 0.758310
O O11 0.089708 0.131557 0.713246
O O12 0.889742 0.999830 0.577813
O O13 0.903460 0.750677 0.139511
O O14 0.763463 0.540472 0.486268
O O15 0.582861 0.331230 0.402445
O O16 0.000000 0.500000 0.500000
O O17 0.668668 0.902994 0.336268
#
# Coordination Sequence:
#
# PCOD9018937 Si02
#       8
#     2   2   2   2   2   2   2   2
#     4  10  23  40  67  98 129 166 215 263 333 390
#     4  11  21  39  57  99 135 167 207 255 335 398
#     4  11  24  40  65  95 127 178 223 255 314 388
#     4  10  21  44  66  95 131 165 211 274 324 397
#     4  11  24  39  64  90 136 178 210 268 313 396
#     4  12  24  43  62  90 136 179 227 262 310 379
#     4  12  24  39  64  97 132 175 207 273 322 391
#     4  11  23  42  69  93 130 173 212 271 328 386
#
# _framework density 22.368145999999999
#
# number of rings (size 3 to 8) (size 9 to 14) (size 15 to 20)
#    0.000    1.000    3.750    3.750    3.500    1.000 
#    2.250    0.000    0.000    4.500    0.000    0.000 
#    0.000    0.000    0.000    0.000    0.000    0.000 
#
# Total GULP energy -89366.291114 kJ/mol
# GULP energy per Si atom -5585.393195 kJ/mol
# Density = 2.231723 g / cm^3
# Si number density = 22.368146 Si / 1000 Ang^3
#
#
#
# Elastic Constant Matrix: (Units=GPa)
#
#
# Indices 1 2 3 4 5 6 
#
# 1 54.4128 19.9500 5.1026 -10.8125 -12.9849 -5.2264
# 2 19.9500 87.3722 4.2766 -8.3119 8.4656 -11.0013
# 3 5.1026 4.2766 81.6469 -12.4037 -14.0945 -4.7672
# 4 -10.8125 -8.3119 -12.4037 23.8697 6.5660 -7.6995
# 5 -12.9849 8.4656 -14.0945 6.5660 29.2587 -2.2556
# 6 -5.2264 -11.0013 -4.7672 -7.6995 -2.2556 39.6425
#
#
#
# Elastic Compliance Matrix: (Units=1/GPa)
#
#
# Indices 1 2 3 4 5 6 
#
# 1 0.025409 -0.005732 0.002468 0.008804 0.012493 0.004477
# 2 -0.005732 0.014581 -0.000731 0.005553 -0.008066 0.003822
# 3 0.002468 -0.000731 0.014745 0.007846 0.006943 0.003814
# 4 0.008804 0.005553 0.007846 0.058220 -0.005858 0.014619
# 5 0.012493 -0.008066 0.006943 -0.005858 0.046852 0.001772
# 6 0.004477 0.003822 0.003814 0.014619 0.001772 0.030275
#
#
# Mechanical properties :
#
#
# Convention : Reuss Voigt Hill
#
# Bulk Modulus (GPa) = 21.39297 31.34336 26.36817
# Shear Modulus (GPa) = 23.40238 31.49436 27.44837
#
# Velocity S-wave (km/s) = 3.23807 3.75640 3.50683
# Velocity P-wave (km/s) = 4.85437 5.73210 5.31140
#
# Compressibility (1/GPa) = 0.04674433
#
# Stress axis : x y z
#
# Youngs Moduli (GPa) = 39.35650 68.58292 67.81879
#
# Poissons Ratio (x) = 0.39310 -0.16736
# Poissons Ratio (y) = 0.22558 0.04959
# Poissons Ratio (z) = -0.09712 0.05015
#
# Static dielectric constant tensor:
#      x y z
#    x 1.917490 0.032500 0.014920 
#    y 0.032500 1.860060 0.004000 
#    z 0.014920 0.004000 1.806820 
# 
# From -- ./inp_files/127157.got.cif
#   From: 2010.05.17/outbox.cif.g08.bks.cpg/sg2_64_cif.got.tgz:127157.got - 2010.06.03 11:33:40.
