data_PCOD9018267
_publ_section_title
;
Structure prediction by ZEFSAII (Michael W. Deem and Ramdas Pophale) SiO2 
 PCOD9018267
Probable space group: P -1
;
_chemical_formula_sum "Si O2"
_cell_formula_units_Z 12
_cell_length_a 7.076235
_cell_length_b 7.221440
_cell_length_c 11.061216
_cell_angle_alpha 97.601054
_cell_angle_beta 67.190215
_cell_angle_gamma 61.153120
_cell_volume 419.171757
_symmetry_space_group_name_H-M "P -1"
_symmetry_group_IT_number 2
_symmetry_cell_setting 'triclinic'
loop_
_space_group_symop_operation_xyz
x,y,z
-x,-y,-z
loop_
_atom_site_type_symbol
_atom_site_label
_atom_site_fract_x
_atom_site_fract_y
_atom_site_fract_z
Si Si1 0.336767 0.300700 0.027342
Si Si2 0.771520 0.635765 0.200036
Si Si3 0.611752 0.258446 0.520221
Si Si4 0.272149 0.771748 0.890832
Si Si5 0.981249 0.773522 0.423768
Si Si6 0.711734 0.767760 0.720542
O O1 0.555400 0.304574 0.036965
O O2 0.288606 0.169638 0.132538
O O3 0.060381 0.548815 0.111149
O O4 0.371257 0.220543 0.873604
O O5 0.620119 0.740101 0.370508
O O6 0.764638 0.415028 0.165681
O O7 0.500000 0.500000 0.500000
O O8 0.764905 0.258675 0.597233
O O9 0.824569 0.999223 0.396632
O O10 0.446680 0.805290 0.762734
O O11 0.000000 0.000000 0.000000
O O12 0.087982 0.512278 0.345113
O O13 0.814645 0.833713 0.592047
#
# Coordination Sequence:
#
# PCOD9018267 Si02
#       6
#     2   2   2   2   2   2
#     4   9  22  40  68  93 140 175 222 292 339 410
#     4  11  21  43  62  98 139 177 234 278 348 414
#     4  11  23  41  65 103 133 187 236 279 345 418
#     4  10  22  41  65  99 137 178 225 285 347 410
#     4  10  21  43  69  93 143 184 222 295 339 408
#     4   9  20  43  67 101 136 179 230 284 350 413
#
# _framework density 28.627879
#
# number of rings (size 3 to 8) (size 9 to 14) (size 15 to 20)
#    1.000    1.000    1.667    1.500    0.000    3.333 
#   12.000    7.500    0.000    0.000    0.000    0.000 
#    0.000    0.000    0.000    0.000    0.000    0.000 
#
# Total GULP energy -67075.145278 kJ/mol
# GULP energy per Si atom -5589.595440 kJ/mol
# Density = 2.856272 g / cm^3
# Si number density = 28.627879 Si / 1000 Ang^3
#
#
#
# Elastic Constant Matrix: (Units=GPa)
#
#
# Indices 1 2 3 4 5 6 
#
# 1 138.8131 45.1977 12.1925 11.3300 -17.2755 -32.5568
# 2 45.1977 193.6461 22.8418 -3.6265 -4.2016 -25.8854
# 3 12.1925 22.8418 120.1621 -5.4866 -23.2307 -13.2218
# 4 11.3300 -3.6265 -5.4866 45.5266 -10.6578 3.9410
# 5 -17.2755 -4.2016 -23.2307 -10.6578 51.0706 11.3293
# 6 -32.5568 -25.8854 -13.2218 3.9410 11.3293 68.4498
#
#
#
# Elastic Compliance Matrix: (Units=1/GPa)
#
#
# Indices 1 2 3 4 5 6 
#
# 1 0.008944 -0.001627 0.000000 -0.002274 0.001641 0.003498
# 2 -0.001627 0.005824 -0.000904 0.000485 -0.000678 0.001338
# 3 0.000000 -0.000904 0.009540 0.002092 0.004563 0.000625
# 4 -0.002274 0.000485 0.002092 0.024470 0.005970 -0.002891
# 5 0.001641 -0.000678 0.004563 0.005970 0.024049 -0.002919
# 6 0.003498 0.001338 0.000625 -0.002891 -0.002919 0.017549
#
#
# Mechanical properties :
#
#
# Convention : Reuss Voigt Hill
#
# Bulk Modulus (GPa) = 51.95592 68.12057 60.03825
# Shear Modulus (GPa) = 49.09054 57.83538 53.46296
#
# Velocity S-wave (km/s) = 4.14548 4.49959 4.32616
# Velocity P-wave (km/s) = 6.41104 7.13035 6.78024
#
# Compressibility (1/GPa) = 0.01924708
#
# Stress axis : x y z
#
# Youngs Moduli (GPa) = 111.80770 171.71390 104.81782
#
# Poissons Ratio (x) = 0.27937 -0.00001
# Poissons Ratio (y) = 0.18190 0.09471
# Poissons Ratio (z) = -0.00001 0.15516
#
# Static dielectric constant tensor:
#      x y z
#    x 2.271580 -0.065990 0.081220 
#    y -0.065990 2.346930 0.067030 
#    z 0.081220 0.067030 2.380340 
# 
# From -- ./inp_files/381900.got.cif
#   From: 2010.05.17/outbox.cif.g08.bks.cpg/sg2_191_cif.got.tgz:381900.got - 2010.06.03 11:33:40.
