data_PCOD9018591
_publ_section_title
;
Structure prediction by ZEFSAII (Michael W. Deem and Ramdas Pophale) SiO2 
 PCOD9018591
Probable space group: P -1
;
_chemical_formula_sum "Si O2"
_cell_formula_units_Z 16
_cell_length_a 5.388633
_cell_length_b 15.331208
_cell_length_c 15.534445
_cell_angle_alpha 143.243335
_cell_angle_beta 88.800358
_cell_angle_gamma 93.018654
_cell_volume 766.438510
_symmetry_space_group_name_H-M "P -1"
_symmetry_group_IT_number 2
_symmetry_cell_setting 'triclinic'
loop_
_space_group_symop_operation_xyz
x,y,z
-x,-y,-z
loop_
_atom_site_type_symbol
_atom_site_label
_atom_site_fract_x
_atom_site_fract_y
_atom_site_fract_z
Si Si1 0.305519 0.845231 0.087327
Si Si2 0.433761 0.666250 0.635247
Si Si3 0.243248 0.937727 0.341316
Si Si4 0.893098 0.848157 0.720459
Si Si5 0.851622 0.358810 0.556999
Si Si6 0.759653 0.124991 0.511123
Si Si7 0.300741 0.046911 0.963907
Si Si8 0.950722 0.311697 0.185777
O O1 0.285113 0.827032 0.174920
O O2 0.186946 0.001293 0.198740
O O3 0.561895 0.879981 0.062334
O O4 0.174211 0.719019 0.930572
O O5 0.500000 0.500000 0.500000
O O6 0.678936 0.772654 0.721469
O O7 0.333454 0.684238 0.553433
O O8 0.252823 0.675062 0.726408
O O9 0.493507 0.045293 0.425277
O O10 0.990417 0.025883 0.405260
O O11 0.230180 0.863343 0.376500
O O12 0.140659 0.906247 0.816612
O O13 0.919474 0.727000 0.550894
O O14 0.782927 0.278354 0.582322
O O15 0.895821 0.532785 0.695472
O O16 0.104072 0.167013 0.082750
O O17 0.500000 0.000000 0.000000
#
# Coordination Sequence:
#
# PCOD9018591 Si02
#       8
#     2   2   2   2   2   2   2   2
#     4  11  25  42  66  97 140 174 228 285 345 411
#     4  12  27  43  67  97 141 182 234 289 344 411
#     4  10  21  43  72 108 137 176 230 296 356 415
#     4  11  24  43  68  95 127 181 231 285 337 405
#     4  12  25  42  70  99 138 178 236 284 350 409
#     4  10  22  41  75 107 135 174 236 295 353 419
#     4  11  28  44  65  94 138 186 238 282 341 412
#     4  11  29  44  64 100 137 190 228 282 351 417
#
# _framework density 20.875778
#
# number of rings (size 3 to 8) (size 9 to 14) (size 15 to 20)
#    0.000    1.000    2.500    2.625    8.750    2.500 
#    0.000    0.625    0.000    0.750    0.000    0.000 
#    0.000    0.000    0.000    0.000    0.000    0.000 
#
# Total GULP energy -89254.087674 kJ/mol
# GULP energy per Si atom -5578.380480 kJ/mol
# Density = 2.082826 g / cm^3
# Si number density = 20.875778 Si / 1000 Ang^3
#
#
#
# Elastic Constant Matrix: (Units=GPa)
#
#
# Indices 1 2 3 4 5 6 
#
# 1 86.6891 24.0647 40.7322 -10.0485 8.6614 18.7787
# 2 24.0647 93.5126 41.7910 -10.5790 11.6723 12.2476
# 3 40.7322 41.7910 139.9891 -5.7138 9.7428 8.1440
# 4 -10.0485 -10.5790 -5.7138 44.6070 3.7322 -5.0545
# 5 8.6614 11.6723 9.7428 3.7322 39.3777 5.7753
# 6 18.7787 12.2476 8.1440 -5.0545 5.7753 23.3090
#
#
#
# Elastic Compliance Matrix: (Units=1/GPa)
#
#
# Indices 1 2 3 4 5 6 
#
# 1 0.016101 -0.000765 -0.003692 0.001854 -0.001019 -0.010625
# 2 -0.000765 0.013500 -0.003286 0.002357 -0.002633 -0.004166
# 3 -0.003692 -0.003286 0.009144 -0.000196 -0.000698 0.001636
# 4 0.001854 0.002357 -0.000196 0.024091 -0.003857 0.003516
# 5 -0.001019 -0.002633 -0.000698 -0.003857 0.027708 -0.005254
# 6 -0.010625 -0.004166 0.001636 0.003516 -0.005254 0.055143
#
#
# Mechanical properties :
#
#
# Convention : Reuss Voigt Hill
#
# Bulk Modulus (GPa) = 42.99331 59.26296 51.12814
# Shear Modulus (GPa) = 29.59897 35.69892 32.64895
#
# Velocity S-wave (km/s) = 3.76954 4.13978 3.95899
# Velocity P-wave (km/s) = 6.29169 7.16243 6.74113
#
# Compressibility (1/GPa) = 0.02325943
#
# Stress axis : x y z
#
# Youngs Moduli (GPa) = 62.10873 74.07483 109.36316
#
# Poissons Ratio (x) = 0.05667 0.40374
# Poissons Ratio (y) = 0.04752 0.35934
# Poissons Ratio (z) = 0.22929 0.24339
#
# Static dielectric constant tensor:
#      x y z
#    x 1.909360 -0.054510 -0.050140 
#    y -0.054510 1.763520 -0.026050 
#    z -0.050140 -0.026050 1.774280 
# 
# From -- ./inp_files/483978.got.cif
#   From: 2010.05.17/outbox.cif.g08.bks.cpg/sg2_242_cif.got.tgz:483978.got - 2010.06.03 11:33:40.
