data_PCOD9018373
_publ_section_title
;
Structure prediction by ZEFSAII (Michael W. Deem and Ramdas Pophale) SiO2 
 PCOD9018373
Probable space group: P -1
;
_chemical_formula_sum "Si O2"
_cell_formula_units_Z 14
_cell_length_a 5.905749
_cell_length_b 18.675400
_cell_length_c 9.706629
_cell_angle_alpha 42.613273
_cell_angle_beta 111.233077
_cell_angle_gamma 84.146309
_cell_volume 548.462392
_symmetry_space_group_name_H-M "P -1"
_symmetry_group_IT_number 2
_symmetry_cell_setting 'triclinic'
loop_
_space_group_symop_operation_xyz
x,y,z
-x,-y,-z
loop_
_atom_site_type_symbol
_atom_site_label
_atom_site_fract_x
_atom_site_fract_y
_atom_site_fract_z
Si Si1 0.961006 0.328382 0.182567
Si Si2 0.727130 0.289080 0.421417
Si Si3 0.645033 0.580033 0.364007
Si Si4 0.674043 0.137352 0.212550
Si Si5 0.455062 0.890321 0.469367
Si Si6 0.652751 0.906978 0.030291
Si Si7 0.781308 0.566071 0.700834
O O1 0.206966 0.178756 0.413824
O O2 0.060310 0.385842 0.243385
O O3 0.695987 0.341198 0.186991
O O4 0.956938 0.411754 0.938817
O O5 0.651711 0.186203 0.527161
O O6 0.496934 0.399720 0.317126
O O7 0.047634 0.216233 0.664971
O O8 0.500000 0.500000 0.500000
O O9 0.672635 0.632978 0.439079
O O10 0.000000 0.500000 0.500000
O O11 0.414352 0.713718 0.035705
O O12 0.530685 0.132675 0.332273
O O13 0.554372 0.116222 0.074142
O O14 0.000000 0.000000 0.500000
O O15 0.259727 0.031812 0.158441
O O16 0.500000 0.000000 0.000000
#
# Coordination Sequence:
#
# PCOD9018373 Si02
#       7
#     2   2   2   2   2   2   2
#     4  10  21  43  70 103 148 194 260 330 399 486
#     4  11  23  41  74 105 148 196 261 324 408 478
#     4  12  31  53  82 118 170 219 277 339 420 500
#     4  12  30  50  81 118 162 217 275 345 419 494
#     4  11  25  44  73 109 153 202 260 329 413 485
#     4  12  25  47  77 108 159 204 271 334 409 489
#     4  10  24  41  72 104 146 203 267 323 399 481
#
# _framework density 25.525908000000001
#
# number of rings (size 3 to 8) (size 9 to 14) (size 15 to 20)
#    0.000    0.857    1.429    3.857   10.000    1.143 
#    0.000    0.000    0.000    0.000    0.000    0.000 
#    0.000    0.000    0.000    0.000    0.000    0.000 
#
# Total GULP energy -77956.924880 kJ/mol
# GULP energy per Si atom -5568.351777 kJ/mol
# Density = 2.546781 g / cm^3
# Si number density = 25.525908 Si / 1000 Ang^3
#
#
#
# Elastic Constant Matrix: (Units=GPa)
#
#
# Indices 1 2 3 4 5 6 
#
# 1 81.3675 27.6775 38.3206 -12.4250 -5.2660 -9.5133
# 2 27.6775 88.1072 45.0388 20.0675 4.0979 -1.4693
# 3 38.3206 45.0388 182.8625 1.4485 -18.2723 7.0403
# 4 -12.4250 20.0675 1.4485 54.7359 6.9026 -6.4124
# 5 -5.2660 4.0979 -18.2723 6.9026 48.3579 3.5697
# 6 -9.5133 -1.4693 7.0403 -6.4124 3.5697 43.6217
#
#
#
# Elastic Compliance Matrix: (Units=1/GPa)
#
#
# Indices 1 2 3 4 5 6 
#
# 1 0.016828 -0.005443 -0.002411 0.006429 0.000110 0.004812
# 2 -0.005443 0.016242 -0.002967 -0.006977 -0.002019 -0.001022
# 3 -0.002411 -0.002967 0.007069 -0.000244 0.002845 -0.002035
# 4 0.006429 -0.006977 -0.000244 0.023168 -0.002463 0.004814
# 5 0.000110 -0.002019 0.002845 -0.002463 0.022489 -0.002706
# 6 0.004812 -0.001022 -0.002035 0.004814 -0.002706 0.025197
#
#
# Mechanical properties :
#
#
# Convention : Reuss Voigt Hill
#
# Bulk Modulus (GPa) = 54.06114 63.82343 58.94228
# Shear Modulus (GPa) = 36.02268 45.42980 40.72624
#
# Velocity S-wave (km/s) = 3.76070 4.22329 3.99869
# Velocity P-wave (km/s) = 6.33104 6.98851 6.66788
#
# Compressibility (1/GPa) = 0.01849758
#
# Stress axis : x y z
#
# Youngs Moduli (GPa) = 59.42322 61.56783 141.45849
#
# Poissons Ratio (x) = 0.33512 0.34108
# Poissons Ratio (y) = 0.32344 0.41970
# Poissons Ratio (z) = 0.14328 0.18267
#
# Static dielectric constant tensor:
#      x y z
#    x 2.249290 -0.033520 0.009670 
#    y -0.033520 2.049090 -0.049410 
#    z 0.009670 -0.049410 2.061200 
# 
# From -- ./inp_files/141040.got.cif
#   From: 2010.05.17/outbox.cif.g08.bks.cpg/sg2_71_cif.got.tgz:141040.got - 2010.06.03 11:33:40.
