data_PCOD9018976
_publ_section_title
;
Structure prediction by ZEFSAII (Michael W. Deem and Ramdas Pophale) SiO2 
 PCOD9018976
Probable space group: P -1
;
_chemical_formula_sum "Si O2"
_cell_formula_units_Z 16
_cell_length_a 22.201568
_cell_length_b 7.821830
_cell_length_c 6.506553
_cell_angle_alpha 73.319056
_cell_angle_beta 130.716268
_cell_angle_gamma 127.591008
_cell_volume 666.943044
_symmetry_space_group_name_H-M "P -1"
_symmetry_group_IT_number 2
_symmetry_cell_setting 'triclinic'
loop_
_space_group_symop_operation_xyz
x,y,z
-x,-y,-z
loop_
_atom_site_type_symbol
_atom_site_label
_atom_site_fract_x
_atom_site_fract_y
_atom_site_fract_z
Si Si1 0.141735 0.610073 0.429652
Si Si2 0.777284 0.580479 0.042164
Si Si3 0.929957 0.325637 0.135145
Si Si4 0.039086 0.025935 0.835690
Si Si5 0.581269 0.147748 0.795253
Si Si6 0.671269 0.910140 0.257385
Si Si7 0.262845 0.078742 0.014112
Si Si8 0.549609 0.723271 0.410420
O O1 0.189079 0.490118 0.659548
O O2 0.042760 0.510062 0.378659
O O3 0.224428 0.871408 0.519195
O O4 0.104157 0.562456 0.130135
O O5 0.870572 0.719276 0.056876
O O6 0.677908 0.355737 0.833206
O O7 0.753305 0.754690 0.971937
O O8 0.937114 0.151893 0.074541
O O9 0.838563 0.162259 0.135694
O O10 0.000000 0.000000 0.500000
O O11 0.000000 0.000000 0.000000
O O12 0.530343 0.226970 0.802023
O O13 0.500000 0.000000 0.500000
O O14 0.613045 0.010720 0.026029
O O15 0.598975 0.718660 0.315524
O O16 0.698003 0.825105 0.155444
O O17 0.351005 0.086349 0.314918
O O18 0.500000 0.500000 0.500000
#
# Coordination Sequence:
#
# PCOD9018976 Si02
#       8
#     2   2   2   2   2   2   2   2
#     4  10  21  44  67 102 144 179 239 285 374 424
#     4  10  23  46  70 106 140 190 242 299 360 442
#     4  10  22  43  71 102 143 190 228 301 357 439
#     4  11  24  48  73 110 150 197 248 304 366 448
#     4  11  23  46  72 100 139 181 236 301 368 428
#     4  11  25  44  70 103 134 186 225 299 363 436
#     4  11  23  44  69 100 139 177 239 284 353 433
#     4  12  24  47  66  96 136 174 235 289 344 431
#
# _framework density 23.990057
#
# number of rings (size 3 to 8) (size 9 to 14) (size 15 to 20)
#    0.000    1.250    5.000    0.375    0.000    3.000 
#   11.250    2.500    0.000    0.000    0.000    0.000 
#    0.000    0.000    0.000    0.000    0.000    0.000 
#
# Total GULP energy -89108.575735 kJ/mol
# GULP energy per Si atom -5569.285983 kJ/mol
# Density = 2.393545 g / cm^3
# Si number density = 23.990057 Si / 1000 Ang^3
#
#
#
# Elastic Constant Matrix: (Units=GPa)
#
#
# Indices 1 2 3 4 5 6 
#
# 1 94.0049 32.3953 39.8677 -4.5616 -9.9091 40.5877
# 2 32.3953 114.8373 40.6872 0.8521 -2.0210 48.9514
# 3 39.8677 40.6872 92.6826 11.7796 27.5689 10.2012
# 4 -4.5616 0.8521 11.7796 33.3470 7.3332 4.4253
# 5 -9.9091 -2.0210 27.5689 7.3332 37.9777 -9.8611
# 6 40.5877 48.9514 10.2012 4.4253 -9.8611 51.5585
#
#
#
# Elastic Compliance Matrix: (Units=1/GPa)
#
#
# Indices 1 2 3 4 5 6 
#
# 1 0.028988 0.010547 -0.019322 0.011359 0.012808 -0.027536
# 2 0.010547 0.021675 -0.013975 0.007948 0.005848 -0.025680
# 3 -0.019322 -0.013975 0.030746 -0.011110 -0.020936 0.019345
# 4 0.011359 0.007948 -0.011110 0.037685 -0.000395 -0.017599
# 5 0.012808 0.005848 -0.020936 -0.000395 0.044493 -0.002948
# 6 -0.027536 -0.025680 0.019345 -0.017599 -0.002948 0.062573
#
#
# Mechanical properties :
#
#
# Convention : Reuss Voigt Hill
#
# Bulk Modulus (GPa) = 27.84792 58.60280 43.22536
# Shear Modulus (GPa) = 17.62861 37.14828 27.38845
#
# Velocity S-wave (km/s) = 2.71372 3.93935 3.38251
# Velocity P-wave (km/s) = 4.63166 6.72103 5.77168
#
# Compressibility (1/GPa) = 0.03590932
#
# Stress axis : x y z
#
# Youngs Moduli (GPa) = 34.49724 46.13689 32.52412
#
# Poissons Ratio (x) = -0.48662 0.62843
# Poissons Ratio (y) = -0.36385 0.45452
# Poissons Ratio (z) = 0.66656 0.64476
#
# Static dielectric constant tensor:
#      x y z
#    x 2.017820 0.026750 -0.065560 
#    y 0.026750 1.922010 0.019020 
#    z -0.065560 0.019020 2.089120 
# 
# From -- ./inp_files/116968.got.cif
#   From: 2010.05.17/outbox.cif.g08.bks.cpg/sg2_59_cif.got.tgz:116968.got - 2010.06.03 11:33:40.
