data_PCOD9018301
_publ_section_title
;
Structure prediction by ZEFSAII (Michael W. Deem and Ramdas Pophale) SiO2 
 PCOD9018301
Probable space group: P -1
;
_chemical_formula_sum "Si O2"
_cell_formula_units_Z 16
_cell_length_a 5.228779
_cell_length_b 9.658986
_cell_length_c 13.647885
_cell_angle_alpha 99.727684
_cell_angle_beta 64.706232
_cell_angle_gamma 103.310317
_cell_volume 604.503894
_symmetry_space_group_name_H-M "P -1"
_symmetry_group_IT_number 2
_symmetry_cell_setting 'triclinic'
loop_
_space_group_symop_operation_xyz
x,y,z
-x,-y,-z
loop_
_atom_site_type_symbol
_atom_site_label
_atom_site_fract_x
_atom_site_fract_y
_atom_site_fract_z
Si Si1 0.344364 0.093309 0.343580
Si Si2 0.675340 0.654023 0.203073
Si Si3 0.134578 0.570008 0.384626
Si Si4 0.793620 0.952841 0.167529
Si Si5 0.321729 0.125093 0.038774
Si Si6 0.629163 0.374334 0.410172
Si Si7 0.236515 0.856609 0.486124
Si Si8 0.306065 0.616543 0.067805
O O1 0.464536 0.263230 0.345603
O O2 0.006615 0.086336 0.404843
O O3 0.504214 0.017592 0.226646
O O4 0.399327 0.992143 0.416181
O O5 0.471033 0.573582 0.310581
O O6 0.793900 0.821288 0.225432
O O7 0.427027 0.661099 0.162312
O O8 0.959499 0.591318 0.120425
O O9 0.094247 0.735832 0.413415
O O10 0.000000 0.500000 0.500000
O O11 0.939028 0.456829 0.332347
O O12 0.817534 0.881084 0.048464
O O13 0.055306 0.085045 0.150644
O O14 0.562219 0.264504 0.018790
O O15 0.500000 0.000000 0.000000
O O16 0.500000 0.500000 0.500000
O O17 0.636162 0.253726 0.479437
O O18 0.500000 0.500000 0.000000
#
# Coordination Sequence:
#
# PCOD9018301 Si02
#       8
#     2   2   2   2   2   2   2   2
#     4  11  22  41  64  97 132 177 241 286 344 423
#     4  11  23  46  71 105 139 194 240 289 370 440
#     4  10  22  43  66  95 142 187 235 286 355 428
#     4  10  22  40  69  99 131 181 236 289 357 427
#     4  10  21  43  69  96 134 174 223 301 362 417
#     4  11  23  40  63  93 136 186 226 289 357 408
#     4  10  22  41  63  93 134 177 232 289 341 415
#     4  11  25  46  74 105 142 181 238 302 370 438
#
# _framework density 26.467986
#
# number of rings (size 3 to 8) (size 9 to 14) (size 15 to 20)
#    0.000    1.500    3.750    0.750    0.000    4.000 
#    4.500    0.000    0.000    0.000    0.000    0.000 
#    0.000    0.000    0.000    0.000    0.000    0.000 
#
# Total GULP energy -89212.366604 kJ/mol
# GULP energy per Si atom -5575.772913 kJ/mol
# Density = 2.640774 g / cm^3
# Si number density = 26.467986 Si / 1000 Ang^3
#
#
#
# Elastic Constant Matrix: (Units=GPa)
#
#
# Indices 1 2 3 4 5 6 
#
# 1 85.7233 17.0156 26.8994 -9.6710 -38.0550 -5.5358
# 2 17.0156 185.9730 49.4302 -9.1795 -31.6583 2.9784
# 3 26.8994 49.4302 110.9877 -7.4939 -46.3051 12.9853
# 4 -9.6710 -9.1795 -7.4939 45.4690 -0.1085 -19.1785
# 5 -38.0550 -31.6583 -46.3051 -0.1085 47.6107 -3.9040
# 6 -5.5358 2.9784 12.9853 -19.1785 -3.9040 42.5625
#
#
#
# Elastic Compliance Matrix: (Units=1/GPa)
#
#
# Indices 1 2 3 4 5 6 
#
# 1 0.021503 0.001219 0.002872 0.008578 0.021440 0.007667
# 2 0.001219 0.006408 -0.001601 0.001888 0.003797 0.001398
# 3 0.002872 -0.001601 0.016590 0.002221 0.017207 -0.001997
# 4 0.008578 0.001888 0.002221 0.031077 0.011603 0.015373
# 5 0.021440 0.003797 0.017207 0.011603 0.058069 0.007828
# 6 0.007667 0.001398 -0.001997 0.015373 0.007828 0.032649
#
#
# Mechanical properties :
#
#
# Convention : Reuss Voigt Hill
#
# Bulk Modulus (GPa) = 20.20959 63.26384 41.73671
# Shear Modulus (GPa) = 28.12032 46.41770 37.26901
#
# Velocity S-wave (km/s) = 3.26303 4.19230 3.75651
# Velocity P-wave (km/s) = 4.67424 6.88388 5.88372
#
# Compressibility (1/GPa) = 0.04948146
#
# Stress axis : x y z
#
# Youngs Moduli (GPa) = 46.50617 156.04489 60.27900
#
# Poissons Ratio (x) = -0.19029 -0.17315
# Poissons Ratio (y) = -0.05671 0.09653
# Poissons Ratio (z) = -0.13359 0.24989
#
# Static dielectric constant tensor:
#      x y z
#    x 2.596780 0.046910 0.223380 
#    y 0.046910 2.113220 -0.020050 
#    z 0.223380 -0.020050 2.237740 
# 
# From -- ./inp_files/548144.got.cif
#   From: 2010.05.17/outbox.cif.g08.bks.cpg/sg2_275_cif.got.tgz:548144.got - 2010.06.03 11:33:40.
