data_PCOD9018136
_publ_section_title
;
Structure prediction by ZEFSAII (Michael W. Deem and Ramdas Pophale) SiO2 
 PCOD9018136
Probable space group: P -1
;
_chemical_formula_sum "Si O2"
_cell_formula_units_Z 14
_cell_length_a 11.475348
_cell_length_b 5.533929
_cell_length_c 9.009282
_cell_angle_alpha 75.401265
_cell_angle_beta 90.428123
_cell_angle_gamma 101.739846
_cell_volume 541.490757
_symmetry_space_group_name_H-M "P -1"
_symmetry_group_IT_number 2
_symmetry_cell_setting 'triclinic'
loop_
_space_group_symop_operation_xyz
x,y,z
-x,-y,-z
loop_
_atom_site_type_symbol
_atom_site_label
_atom_site_fract_x
_atom_site_fract_y
_atom_site_fract_z
Si Si1 0.967958 0.038799 0.659648
Si Si2 0.367258 0.146787 0.640451
Si Si3 0.556015 0.234020 0.851000
Si Si4 0.285979 0.931794 0.381745
Si Si5 0.708566 0.331273 0.086453
Si Si6 0.828703 0.552376 0.337961
Si Si7 0.061020 0.793096 0.951077
O O1 0.826903 0.961680 0.694195
O O2 0.031458 0.325368 0.665441
O O3 0.000000 0.000000 0.500000
O O4 0.040599 0.861164 0.772392
O O5 0.460632 0.322296 0.726297
O O6 0.245601 0.245810 0.632474
O O7 0.377643 0.105963 0.470524
O O8 0.360215 0.877386 0.765535
O O9 0.643626 0.153856 0.741326
O O10 0.629265 0.426019 0.944933
O O11 0.500000 0.000000 0.000000
O O12 0.218243 0.696401 0.522857
O O13 0.788448 0.525019 0.169993
O O14 0.800056 0.190043 0.021181
O O15 0.000000 0.500000 0.000000
O O16 0.000000 0.000000 0.000000
#
# Coordination Sequence:
#
# PCOD9018136 Si02
#       7
#     2   2   2   2   2   2   2
#     4  12  23  44  72 108 140 189 235 302 375 449
#     4  10  21  43  68  95 136 180 238 304 359 425
#     4  10  23  43  68  94 138 192 241 302 360 443
#     4  11  23  42  70 104 137 184 241 299 370 440
#     4  10  22  43  64  96 136 190 234 293 368 435
#     4  11  22  42  71 100 144 180 239 304 372 439
#     4  12  26  44  70 107 153 199 243 305 375 455
#
# _framework density 25.854552999999999
#
# number of rings (size 3 to 8) (size 9 to 14) (size 15 to 20)
#    0.000    1.143    2.857    3.429    0.000    3.429 
#    0.000    0.000    0.000    0.000    0.000    0.000 
#    0.000    0.000    0.000    0.000    0.000    0.000 
#
# Total GULP energy -78189.344880 kJ/mol
# GULP energy per Si atom -5584.953206 kJ/mol
# Density = 2.579571 g / cm^3
# Si number density = 25.854553 Si / 1000 Ang^3
#
#
#
# Elastic Constant Matrix: (Units=GPa)
#
#
# Indices 1 2 3 4 5 6 
#
# 1 99.5578 -2.0437 22.4717 7.3267 9.9585 4.3193
# 2 -2.0437 70.3665 31.4353 7.8023 0.1294 12.5479
# 3 22.4717 31.4353 116.0851 33.9793 13.8494 23.5509
# 4 7.3267 7.8023 33.9793 46.6706 7.1208 1.9320
# 5 9.9585 0.1294 13.8494 7.1208 54.5510 12.2686
# 6 4.3193 12.5479 23.5509 1.9320 12.2686 28.7639
#
#
#
# Elastic Compliance Matrix: (Units=1/GPa)
#
#
# Indices 1 2 3 4 5 6 
#
# 1 0.010725 0.001290 -0.002322 -0.000002 -0.001449 0.000346
# 2 0.001290 0.016958 -0.003956 -0.000237 0.001919 -0.005155
# 3 -0.002322 -0.003956 0.014776 -0.009346 0.000017 -0.009404
# 4 -0.000002 -0.000237 -0.009346 0.028425 -0.002933 0.007097
# 5 -0.001449 0.001919 0.000017 -0.002933 0.021091 -0.009432
# 6 0.000346 -0.005155 -0.009404 0.007097 -0.009432 0.048208
#
#
# Mechanical properties :
#
#
# Convention : Reuss Voigt Hill
#
# Bulk Modulus (GPa) = 30.78461 43.30399 37.04430
# Shear Modulus (GPa) = 31.05833 41.60684 36.33259
#
# Velocity S-wave (km/s) = 3.46970 4.01592 3.75276
# Velocity P-wave (km/s) = 5.29003 6.18780 5.75644
#
# Compressibility (1/GPa) = 0.03248377
#
# Stress axis : x y z
#
# Youngs Moduli (GPa) = 93.23886 58.96959 67.67553
#
# Poissons Ratio (x) = -0.07608 0.15717
# Poissons Ratio (y) = -0.12029 0.26769
# Poissons Ratio (z) = 0.21654 0.23326
#
# Static dielectric constant tensor:
#      x y z
#    x 2.128110 0.109890 0.007860 
#    y 0.109890 2.132560 0.085090 
#    z 0.007860 0.085090 2.012350 
# 
# From -- ./inp_files/26809.got.cif
#   From: 2010.05.17/outbox.cif.g08.bks.cpg/sg2_14_cif.got.tgz:26809.got - 2010.06.03 11:33:40.
