data_PCOD9018131
_publ_section_title
;
Structure prediction by ZEFSAII (Michael W. Deem and Ramdas Pophale) SiO2 
 PCOD9018131
Probable space group: P -1
;
_chemical_formula_sum "Si O2"
_cell_formula_units_Z 14
_cell_length_a 11.176020
_cell_length_b 9.130186
_cell_length_c 13.081774
_cell_angle_alpha 55.113885
_cell_angle_beta 145.424305
_cell_angle_gamma 115.082459
_cell_volume 618.211813
_symmetry_space_group_name_H-M "P -1"
_symmetry_group_IT_number 2
_symmetry_cell_setting 'triclinic'
loop_
_space_group_symop_operation_xyz
x,y,z
-x,-y,-z
loop_
_atom_site_type_symbol
_atom_site_label
_atom_site_fract_x
_atom_site_fract_y
_atom_site_fract_z
Si Si1 0.683554 0.250326 0.405131
Si Si2 0.273654 0.444440 0.826551
Si Si3 0.239805 0.147125 0.182206
Si Si4 0.146401 0.385247 0.431046
Si Si5 0.117247 0.099476 0.349978
Si Si6 0.281999 0.116653 0.823180
Si Si7 0.191227 0.762442 0.280639
O O1 0.762919 0.428078 0.347909
O O2 0.436326 0.260493 0.253812
O O3 0.827368 0.208917 0.622290
O O4 0.734430 0.078469 0.437959
O O5 0.291401 0.241909 0.880324
O O6 0.083097 0.512867 0.740109
O O7 0.500000 0.500000 0.000000
O O8 0.190366 0.150536 0.267170
O O9 0.307540 0.942430 0.269932
O O10 0.022761 0.210449 0.946151
O O11 0.127733 0.261780 0.369269
O O12 0.224172 0.252856 0.632213
O O13 0.279713 0.552464 0.426135
O O14 0.888499 0.025369 0.223164
O O15 0.500000 0.000000 0.000000
#
# Coordination Sequence:
#
# PCOD9018131 Si02
#       7
#     2   2   2   2   2   2   2
#     4  11  22  44  69 100 140 182 236 280 346 414
#     4  12  24  41  73 102 136 183 229 285 352 422
#     4  10  23  44  71 101 134 186 238 278 351 408
#     4  12  24  45  68 102 140 181 226 287 355 408
#     4  11  24  43  68  98 143 179 225 293 336 415
#     4  12  26  45  67 105 141 177 233 288 352 412
#     4  10  21  43  68  95 134 179 233 284 335 408
#
# _framework density 22.645959999999999
#
# number of rings (size 3 to 8) (size 9 to 14) (size 15 to 20)
#    0.000    0.857    2.857    6.000    2.000    1.714 
#    2.571    2.857    0.000    0.000    0.000    0.000 
#    0.000    0.000    0.000    0.000    0.000    0.000 
#
# Total GULP energy -78122.785886 kJ/mol
# GULP energy per Si atom -5580.198992 kJ/mol
# Density = 2.259442 g / cm^3
# Si number density = 22.645960 Si / 1000 Ang^3
#
#
#
# Elastic Constant Matrix: (Units=GPa)
#
#
# Indices 1 2 3 4 5 6 
#
# 1 71.0990 55.2986 23.9338 2.6194 16.4554 -5.7544
# 2 55.2986 160.0617 8.7434 -7.6649 8.4880 -22.8490
# 3 23.9338 8.7434 69.7112 2.6304 9.5624 -12.0349
# 4 2.6194 -7.6649 2.6304 33.3225 -0.3984 0.5678
# 5 16.4554 8.4880 9.5624 -0.3984 29.0132 -2.3117
# 6 -5.7544 -22.8490 -12.0349 0.5678 -2.3117 46.4838
#
#
#
# Elastic Compliance Matrix: (Units=1/GPa)
#
#
# Indices 1 2 3 4 5 6 
#
# 1 0.024909 -0.008341 -0.006576 -0.003421 -0.009819 -0.003166
# 2 -0.008341 0.009674 0.002074 0.002663 0.001597 0.004306
# 3 -0.006576 0.002074 0.017471 -0.000491 -0.002274 0.004622
# 4 -0.003421 0.002663 -0.000491 0.030943 0.001785 0.000469
# 5 -0.009819 0.001597 -0.002274 0.001785 0.040420 0.000969
# 6 -0.003166 0.004306 0.004622 0.000469 0.000969 0.024477
#
#
# Mechanical properties :
#
#
# Convention : Reuss Voigt Hill
#
# Bulk Modulus (GPa) = 37.92630 52.98038 45.45334
# Shear Modulus (GPa) = 27.41708 35.95698 31.68703
#
# Velocity S-wave (km/s) = 3.48326 3.98903 3.74469
# Velocity P-wave (km/s) = 5.74120 6.68299 6.22991
#
# Compressibility (1/GPa) = 0.02636693
#
# Stress axis : x y z
#
# Youngs Moduli (GPa) = 40.14689 103.37385 57.23830
#
# Poissons Ratio (x) = 0.86227 0.37641
# Poissons Ratio (y) = 0.33488 -0.11874
# Poissons Ratio (z) = 0.26401 -0.21444
#
# Static dielectric constant tensor:
#      x y z
#    x 1.877200 0.052420 -0.074790 
#    y 0.052420 1.915410 -0.057690 
#    z -0.074790 -0.057690 1.951870 
# 
# From -- ./inp_files/184720.got.cif
#   From: 2010.05.17/outbox.cif.g08.bks.cpg/sg2_93_cif.got.tgz:184720.got - 2010.06.03 11:33:40.
