data_PCOD9018200
_publ_section_title
;
Structure prediction by ZEFSAII (Michael W. Deem and Ramdas Pophale) SiO2 
 PCOD9018200
Probable space group: P -1
;
_chemical_formula_sum "Si O2"
_cell_formula_units_Z 10
_cell_length_a 14.974818
_cell_length_b 7.750758
_cell_length_c 15.207708
_cell_angle_alpha 141.877296
_cell_angle_beta 26.653475
_cell_angle_gamma 142.058957
_cell_volume 464.915115
_symmetry_space_group_name_H-M "P -1"
_symmetry_group_IT_number 2
_symmetry_cell_setting 'triclinic'
loop_
_space_group_symop_operation_xyz
x,y,z
-x,-y,-z
loop_
_atom_site_type_symbol
_atom_site_label
_atom_site_fract_x
_atom_site_fract_y
_atom_site_fract_z
Si Si1 0.940939 0.064387 0.674383
Si Si2 0.637162 0.478452 0.455407
Si Si3 0.298816 0.614166 0.896169
Si Si4 0.299497 0.222382 0.074881
Si Si5 0.088800 0.915034 0.977396
O O1 0.151798 0.249766 0.612560
O O2 0.787015 0.270929 0.894349
O O3 0.000000 0.000000 0.500000
O O4 0.825856 0.790344 0.728487
O O5 0.500000 0.500000 0.500000
O O6 0.493815 0.493033 0.671694
O O7 0.716488 0.197303 0.264926
O O8 0.355796 0.915496 0.911006
O O9 0.100033 0.361796 0.931863
O O10 0.155173 0.165335 0.092760
O O11 0.500000 0.500000 0.000000
O O12 0.000000 0.000000 0.000000
#
# Coordination Sequence:
#
# PCOD9018200 Si02
#       5
#     2   2   2   2   2
#     4   9  21  40  65  98 134 177 225 276 336 399
#     4  11  19  40  72  93 128 184 230 271 344 403
#     4   9  21  41  71  90 135 182 229 268 341 403
#     4  10  21  43  69 100 137 178 226 282 339 406
#     4  11  23  42  67 103 137 175 229 286 338 408
#
# _framework density 21.509305000000001
#
# number of rings (size 3 to 8) (size 9 to 14) (size 15 to 20)
#    1.200    0.800    2.000    1.800    0.000    3.200 
#    7.200    3.000    0.000    0.000    0.000    1.400 
#    0.000    0.000    0.000    0.000    0.000    0.000 
#
# Total GULP energy -55715.788116 kJ/mol
# GULP energy per Si atom -5571.578812 kJ/mol
# Density = 2.146035 g / cm^3
# Si number density = 21.509305 Si / 1000 Ang^3
#
#
#
# Elastic Constant Matrix: (Units=GPa)
#
#
# Indices 1 2 3 4 5 6 
#
# 1 113.1108 52.2255 49.0108 0.4691 21.1159 -6.7902
# 2 52.2255 135.2356 25.0823 -25.2627 23.1066 14.3331
# 3 49.0108 25.0823 159.3990 -19.8593 16.1266 -4.4051
# 4 0.4691 -25.2627 -19.8593 22.3209 -1.8978 -2.8061
# 5 21.1159 23.1066 16.1266 -1.8978 40.5336 6.4072
# 6 -6.7902 14.3331 -4.4051 -2.8061 6.4072 13.1950
#
#
#
# Elastic Compliance Matrix: (Units=1/GPa)
#
#
# Indices 1 2 3 4 5 6 
#
# 1 0.016942 -0.009014 -0.004392 -0.012790 -0.005202 0.016850
# 2 -0.009014 0.015854 0.002235 0.017902 -0.001795 -0.016436
# 3 -0.004392 0.002235 0.008856 0.010510 -0.002271 0.001607
# 4 -0.012790 0.017902 0.010510 0.073740 -0.003456 -0.005160
# 5 -0.005202 -0.001795 -0.002271 -0.003456 0.031949 -0.017734
# 6 0.016850 -0.016436 0.001607 -0.005160 -0.017734 0.110361
#
#
# Mechanical properties :
#
#
# Convention : Reuss Voigt Hill
#
# Bulk Modulus (GPa) = 51.79156 73.37584 62.58370
# Shear Modulus (GPa) = 17.45314 33.97169 25.71241
#
# Velocity S-wave (km/s) = 2.85164 3.97847 3.46122
# Velocity P-wave (km/s) = 5.91383 7.43585 6.71808
#
# Compressibility (1/GPa) = 0.01930816
#
# Stress axis : x y z
#
# Youngs Moduli (GPa) = 59.02561 63.07536 112.91800
#
# Poissons Ratio (x) = 0.56858 0.49597
# Poissons Ratio (y) = 0.53207 -0.25234
# Poissons Ratio (z) = 0.25926 -0.14096
#
# Static dielectric constant tensor:
#      x y z
#    x 1.820910 -0.039540 0.030900 
#    y -0.039540 1.800400 -0.004490 
#    z 0.030900 -0.004490 1.867050 
# 
# From -- ./inp_files/394643.got.cif
#   From: 2010.05.17/outbox.cif.g08.bks.cpg/sg2_198_cif.got.tgz:394643.got - 2010.06.03 11:33:40.
