data_PCOD9018779
_publ_section_title
;
Structure prediction by ZEFSAII (Michael W. Deem and Ramdas Pophale) SiO2 
 PCOD9018779
Probable space group: P -1
;
_chemical_formula_sum "Si O2"
_cell_formula_units_Z 14
_cell_length_a 5.228141
_cell_length_b 10.908648
_cell_length_c 18.325562
_cell_angle_alpha 145.349177
_cell_angle_beta 115.710619
_cell_angle_gamma 60.605613
_cell_volume 516.784849
_symmetry_space_group_name_H-M "P -1"
_symmetry_group_IT_number 2
_symmetry_cell_setting 'triclinic'
loop_
_space_group_symop_operation_xyz
x,y,z
-x,-y,-z
loop_
_atom_site_type_symbol
_atom_site_label
_atom_site_fract_x
_atom_site_fract_y
_atom_site_fract_z
Si Si1 0.122157 0.709965 0.739700
Si Si2 0.545565 0.256581 0.546145
Si Si3 0.545649 0.741823 0.622236
Si Si4 0.336231 0.894506 0.100878
Si Si5 0.150467 0.369903 0.884233
Si Si6 0.772134 0.460851 0.176614
Si Si7 0.238498 0.886343 0.353379
O O1 0.419303 0.523587 0.666810
O O2 0.052852 0.612500 0.762965
O O3 0.899592 0.699611 0.641185
O O4 0.009272 0.976956 0.870598
O O5 0.610263 0.171926 0.430780
O O6 0.796823 0.178637 0.598807
O O7 0.297644 0.127897 0.474232
O O8 0.500000 0.500000 0.500000
O O9 0.504421 0.903863 0.767389
O O10 0.502353 0.732313 0.106630
O O11 0.375896 0.743507 0.960196
O O12 0.088508 0.509589 0.870031
O O13 0.996993 0.170249 0.756139
O O14 0.000000 0.500000 0.000000
O O15 0.537060 0.696077 0.275840
#
# Coordination Sequence:
#
# PCOD9018779 Si02
#       7
#     2   2   2   2   2   2   2
#     4   9  23  40  67  88 127 172 202 268 315 376
#     4  10  21  44  63  95 128 170 213 260 315 383
#     4  10  23  38  62  94 128 165 210 259 315 382
#     4  10  23  41  63  94 127 164 210 262 321 368
#     4  12  25  39  67  94 127 170 213 262 316 387
#     4  11  22  46  63  95 130 164 216 264 322 369
#     4  10  24  41  69  94 129 168 215 263 316 376
#
# _framework density 27.090577
#
# number of rings (size 3 to 8) (size 9 to 14) (size 15 to 20)
#    0.857    0.857    1.429    2.143    6.000    0.000 
#    2.571    3.571    0.000    0.000    0.000    0.000 
#    0.000    0.000    0.000    0.000    0.000    0.000 
#
# Total GULP energy -78046.818494 kJ/mol
# GULP energy per Si atom -5574.772750 kJ/mol
# Density = 2.702892 g / cm^3
# Si number density = 27.090577 Si / 1000 Ang^3
#
#
#
# Elastic Constant Matrix: (Units=GPa)
#
#
# Indices 1 2 3 4 5 6 
#
# 1 41.7556 22.9333 39.1796 5.0239 -16.2511 -7.2937
# 2 22.9333 113.9704 51.6466 2.8705 -16.4360 -3.8707
# 3 39.1796 51.6466 182.5836 6.2680 -10.4785 2.4854
# 4 5.0239 2.8705 6.2680 57.8836 0.3329 -2.8301
# 5 -16.2511 -16.4360 -10.4785 0.3329 46.6513 -0.1502
# 6 -7.2937 -3.8707 2.4854 -2.8301 -0.1502 30.1982
#
#
#
# Elastic Compliance Matrix: (Units=1/GPa)
#
#
# Indices 1 2 3 4 5 6 
#
# 1 0.037824 -0.002604 -0.006818 -0.002026 0.010771 0.009227
# 2 -0.002604 0.010737 -0.002356 -0.000018 0.002350 0.000951
# 3 -0.006818 -0.002356 0.007563 -0.000229 -0.001513 -0.002600
# 4 -0.002026 -0.000018 -0.000229 0.017540 -0.000885 0.001166
# 5 0.010771 0.002350 -0.001513 -0.000885 0.025692 0.003072
# 6 0.009227 0.000951 -0.002600 0.001166 0.003072 0.035803
#
#
# Mechanical properties :
#
#
# Convention : Reuss Voigt Hill
#
# Bulk Modulus (GPa) = 30.70395 62.86983 46.78689
# Shear Modulus (GPa) = 29.48628 41.91666 35.70147
#
# Velocity S-wave (km/s) = 3.30272 3.93781 3.63417
# Velocity P-wave (km/s) = 5.08944 6.62818 5.90911
#
# Compressibility (1/GPa) = 0.03256910
#
# Stress axis : x y z
#
# Youngs Moduli (GPa) = 26.43846 93.13222 132.22682
#
# Poissons Ratio (x) = 0.24248 0.90149
# Poissons Ratio (y) = 0.06884 0.31153
# Poissons Ratio (z) = 0.18025 0.21942
#
# Static dielectric constant tensor:
#      x y z
#    x 1.948000 -0.028800 0.193880 
#    y -0.028800 2.104500 0.103380 
#    z 0.193880 0.103380 1.971260 
# 
# From -- ./inp_files/361954.got.cif
#   From: 2010.05.17/outbox.cif.g08.bks.cpg/sg2_181_cif.got.tgz:361954.got - 2010.06.03 11:33:40.
