data_PCOD9018328
_publ_section_title
;
Structure prediction by ZEFSAII (Michael W. Deem and Ramdas Pophale) SiO2 
 PCOD9018328
Probable space group: P -1
;
_chemical_formula_sum "Si O2"
_cell_formula_units_Z 14
_cell_length_a 27.067331
_cell_length_b 5.677197
_cell_length_c 8.775365
_cell_angle_alpha 122.408352
_cell_angle_beta 30.321933
_cell_angle_gamma 119.855491
_cell_volume 572.796571
_symmetry_space_group_name_H-M "P -1"
_symmetry_group_IT_number 2
_symmetry_cell_setting 'triclinic'
loop_
_space_group_symop_operation_xyz
x,y,z
-x,-y,-z
loop_
_atom_site_type_symbol
_atom_site_label
_atom_site_fract_x
_atom_site_fract_y
_atom_site_fract_z
Si Si1 0.446600 0.667489 0.331869
Si Si2 0.245019 0.108362 0.192485
Si Si3 0.418435 0.799615 0.773246
Si Si4 0.742344 0.288810 0.584711
Si Si5 0.253732 0.854479 0.789239
Si Si6 0.028163 0.681714 0.334272
Si Si7 0.084641 0.795056 0.688184
O O1 0.451770 0.602180 0.478570
O O2 0.332801 0.667046 0.589242
O O3 0.496177 0.987707 0.311980
O O4 0.500000 0.500000 0.000000
O O5 0.227008 0.389534 0.425128
O O6 0.153995 0.884272 0.391179
O O7 0.343341 0.996520 0.957493
O O8 0.250396 0.122413 0.000267
O O9 0.349318 0.675711 0.048029
O O10 0.711681 0.095328 0.457562
O O11 0.836390 0.181366 0.379052
O O12 0.145385 0.702413 0.013014
O O13 0.000000 0.500000 0.500000
O O14 0.968667 0.509876 0.300050
O O15 0.000000 0.000000 0.500000
O O16 0.000000 0.000000 0.000000
#
# Coordination Sequence:
#
# PCOD9018328 Si02
#       7
#     2   2   2   2   2   2   2
#     4  10  21  43  69  98 139 185 234 298 369 446
#     4  10  21  44  64  97 138 185 233 296 364 439
#     4   9  22  42  66  96 137 181 231 294 365 442
#     4  11  24  42  68 101 137 186 239 303 372 447
#     4  11  24  42  70 103 140 186 248 300 368 446
#     4  12  27  49  77 110 151 202 257 315 383 453
#     4  11  25  43  69  98 145 190 243 308 377 443
#
# _framework density 24.441489000000001
#
# number of rings (size 3 to 8) (size 9 to 14) (size 15 to 20)
#    0.000    1.429    1.429    2.571    2.000    4.000 
#    0.000   10.000    0.000    0.000    0.000    0.000 
#    0.000    0.000    0.000    0.000    0.000    0.000 
#
# Total GULP energy -78235.198514 kJ/mol
# GULP energy per Si atom -5588.228465 kJ/mol
# Density = 2.438586 g / cm^3
# Si number density = 24.441489 Si / 1000 Ang^3
#
#
#
# Elastic Constant Matrix: (Units=GPa)
#
#
# Indices 1 2 3 4 5 6 
#
# 1 99.2745 25.8798 43.3525 13.9679 15.9138 18.4238
# 2 25.8798 89.9538 38.5975 7.8316 -4.1777 12.0405
# 3 43.3525 38.5975 134.6746 10.6402 -11.8187 13.9958
# 4 13.9679 7.8316 10.6402 38.1066 12.2229 -3.4338
# 5 15.9138 -4.1777 -11.8187 12.2229 46.3233 5.0221
# 6 18.4238 12.0405 13.9958 -3.4338 5.0221 30.3117
#
#
#
# Elastic Compliance Matrix: (Units=1/GPa)
#
#
# Indices 1 2 3 4 5 6 
#
# 1 0.014390 -0.001720 -0.003697 -0.002939 -0.004624 -0.005923
# 2 -0.001720 0.013531 -0.002534 -0.002505 0.002239 -0.003815
# 3 -0.003697 -0.002534 0.010226 -0.002696 0.004638 -0.002541
# 4 -0.002939 -0.002505 -0.002696 0.032462 -0.009475 0.009274
# 5 -0.004624 0.002239 0.004638 -0.009475 0.027699 -0.005883
# 6 -0.005923 -0.003815 -0.002541 0.009274 -0.005883 0.041305
#
#
# Mechanical properties :
#
#
# Convention : Reuss Voigt Hill
#
# Bulk Modulus (GPa) = 44.95224 59.95140 52.45182
# Shear Modulus (GPa) = 30.68814 37.35319 34.02066
#
# Velocity S-wave (km/s) = 3.54725 3.91355 3.73490
# Velocity P-wave (km/s) = 5.93372 6.70842 6.33293
#
# Compressibility (1/GPa) = 0.02224583
#
# Stress axis : x y z
#
# Youngs Moduli (GPa) = 69.49237 73.90217 97.79222
#
# Poissons Ratio (x) = 0.12708 0.36158
# Poissons Ratio (y) = 0.11950 0.24777
# Poissons Ratio (z) = 0.25695 0.18724
#
# Static dielectric constant tensor:
#      x y z
#    x 2.051140 -0.034110 0.061810 
#    y -0.034110 1.965860 -0.054520 
#    z 0.061810 -0.054520 1.981600 
# 
# From -- ./inp_files/356050.got.cif
#   From: 2010.05.17/outbox.cif.g08.bks.cpg/sg2_179_cif.got.tgz:356050.got - 2010.06.03 11:33:40.
