data_PCOD9018448
_publ_section_title
;
Structure prediction by ZEFSAII (Michael W. Deem and Ramdas Pophale) SiO2 
 PCOD9018448
Probable space group: P -1
;
_chemical_formula_sum "Si O2"
_cell_formula_units_Z 14
_cell_length_a 31.309950
_cell_length_b 30.276757
_cell_length_c 13.352871
_cell_angle_alpha 19.369173
_cell_angle_beta 17.090053
_cell_angle_gamma 9.493852
_cell_volume 613.507446
_symmetry_space_group_name_H-M "P -1"
_symmetry_group_IT_number 2
_symmetry_cell_setting 'triclinic'
loop_
_space_group_symop_operation_xyz
x,y,z
-x,-y,-z
loop_
_atom_site_type_symbol
_atom_site_label
_atom_site_fract_x
_atom_site_fract_y
_atom_site_fract_z
Si Si1 0.354218 0.245458 0.939219
Si Si2 0.902333 0.520785 0.781762
Si Si3 0.768512 0.996847 0.789170
Si Si4 0.217906 0.868777 0.707074
Si Si5 0.398354 0.226993 0.653806
Si Si6 0.911006 0.281288 0.811034
Si Si7 0.812725 0.207591 0.384552
O O1 0.514395 0.258704 0.575409
O O2 0.251457 0.337218 0.857692
O O3 0.129180 0.392017 0.221336
O O4 0.574149 0.943182 0.090672
O O5 0.000000 0.500000 0.500000
O O6 0.570409 0.742968 0.032004
O O7 0.115995 0.229264 0.942599
O O8 0.929547 0.909068 0.514043
O O9 0.802612 0.087832 0.593846
O O10 0.257112 0.704878 0.901691
O O11 0.000000 0.000000 0.000000
O O12 0.250828 0.455808 0.424984
O O13 0.742710 0.990323 0.409462
O O14 0.907943 0.249128 0.005510
O O15 0.500000 0.500000 0.500000
O O16 0.000000 0.000000 0.500000
#
# Coordination Sequence:
#
# PCOD9018448 Si02
#       7
#     2   2   2   2   2   2   2
#     4  10  25  43  69 101 142 184 226 290 346 408
#     4  11  24  43  67  95 134 181 230 280 340 407
#     4  10  24  42  65 100 131 168 235 284 330 400
#     4  10  21  43  70  98 134 179 223 276 339 404
#     4  11  25  44  66 102 142 175 229 285 348 412
#     4  11  25  43  69 101 133 180 232 276 342 415
#     4  11  23  42  67  95 135 178 223 284 340 401
#
# _framework density 22.819609
#
# number of rings (size 3 to 8) (size 9 to 14) (size 15 to 20)
#    0.000    1.429    1.429    2.143    2.000   14.286 
#    0.000    0.000    0.000    0.000    0.000    0.000 
#    0.000    0.000    0.000    0.000    0.000    0.000 
#
# Total GULP energy -78105.229038 kJ/mol
# GULP energy per Si atom -5578.944931 kJ/mol
# Density = 2.276767 g / cm^3
# Si number density = 22.819609 Si / 1000 Ang^3
#
#
#
# Elastic Constant Matrix: (Units=GPa)
#
#
# Indices 1 2 3 4 5 6 
#
# 1 118.0918 44.2683 72.9340 -0.0915 35.7321 1.0621
# 2 44.2683 159.6919 97.1747 -50.1168 26.9307 -2.9061
# 3 72.9340 97.1747 188.3346 -35.5701 43.4689 12.4337
# 4 -0.0915 -50.1168 -35.5701 52.1915 -10.5684 8.0243
# 5 35.7321 26.9307 43.4689 -10.5684 65.3388 10.1917
# 6 1.0621 -2.9061 12.4337 8.0243 10.1917 32.3921
#
#
#
# Elastic Compliance Matrix: (Units=1/GPa)
#
#
# Indices 1 2 3 4 5 6 
#
# 1 0.013684 -0.002253 -0.004513 -0.007000 -0.005388 0.004511
# 2 -0.002253 0.011866 -0.003619 0.008912 0.000148 0.000273
# 3 -0.004513 -0.003619 0.010337 0.003961 -0.001554 -0.004637
# 4 -0.007000 0.008912 0.003961 0.032832 0.004391 -0.010006
# 5 -0.005388 0.000148 -0.001554 0.004391 0.021013 -0.006913
# 6 0.004511 0.000273 -0.004637 -0.010006 -0.006913 0.037182
#
#
# Mechanical properties :
#
#
# Convention : Reuss Voigt Hill
#
# Bulk Modulus (GPa) = 66.14993 99.43025 82.79009
# Shear Modulus (GPa) = 32.73896 46.76724 39.75310
#
# Velocity S-wave (km/s) = 3.79183 4.53198 4.17833
# Velocity P-wave (km/s) = 6.94419 8.42923 7.72249
#
# Compressibility (1/GPa) = 0.01511717
#
# Stress axis : x y z
#
# Youngs Moduli (GPa) = 73.07657 84.27782 96.73710
#
# Poissons Ratio (x) = 0.18991 0.43657
# Poissons Ratio (y) = 0.16467 0.35006
# Poissons Ratio (z) = 0.32979 0.30498
#
# Static dielectric constant tensor:
#      x y z
#    x 1.942470 -0.023840 0.016470 
#    y -0.023840 1.814160 0.042260 
#    z 0.016470 0.042260 1.894640 
# 
# From -- ./inp_files/477832.got.cif
#   From: 2010.05.17/outbox.cif.g08.bks.cpg/sg2_239_cif.got.tgz:477832.got - 2010.06.03 11:33:40.
