data_PCOD9018272
_publ_section_title
;
Structure prediction by ZEFSAII (Michael W. Deem and Ramdas Pophale) SiO2 
 PCOD9018272
Probable space group: P -1
;
_chemical_formula_sum "Si O2"
_cell_formula_units_Z 14
_cell_length_a 13.841429
_cell_length_b 7.515440
_cell_length_c 10.572485
_cell_angle_alpha 100.478625
_cell_angle_beta 39.559876
_cell_angle_gamma 75.159353
_cell_volume 533.277559
_symmetry_space_group_name_H-M "P -1"
_symmetry_group_IT_number 2
_symmetry_cell_setting 'triclinic'
loop_
_space_group_symop_operation_xyz
x,y,z
-x,-y,-z
loop_
_atom_site_type_symbol
_atom_site_label
_atom_site_fract_x
_atom_site_fract_y
_atom_site_fract_z
Si Si1 0.841370 0.946205 0.016815
Si Si2 0.291904 0.307264 0.241502
Si Si3 0.833568 0.236166 0.630165
Si Si4 0.768862 0.724416 0.262346
Si Si5 0.731419 0.370803 0.352817
Si Si6 0.592745 0.306886 0.106046
Si Si7 0.657780 0.026027 0.665806
O O1 0.793745 0.160701 0.174302
O O2 0.757420 0.065313 0.981072
O O3 0.736626 0.856965 0.181599
O O4 0.075049 0.739406 0.770093
O O5 0.131329 0.583622 0.420161
O O6 0.440108 0.288957 0.190535
O O7 0.233799 0.171026 0.356794
O O8 0.431346 0.179073 0.961051
O O9 0.742325 0.165317 0.611109
O O10 0.676267 0.364933 0.918545
O O11 0.000000 0.000000 0.500000
O O12 0.679315 0.595574 0.360576
O O13 0.711567 0.896325 0.460682
O O14 0.000000 0.500000 0.000000
O O15 0.534648 0.480648 0.641493
#
# Coordination Sequence:
#
# PCOD9018272 Si02
#       7
#     2   2   2   2   2   2   2
#     4  10  24  39  66  94 133 178 214 269 336 382
#     4  10  23  44  68  94 131 174 220 282 327 392
#     4  11  27  42  68 101 128 174 227 279 335 397
#     4  10  22  39  65  97 129 173 215 266 327 393
#     4  10  22  43  61  94 136 173 218 270 321 395
#     4  11  22  42  67  97 128 172 222 270 331 397
#     4  10  21  43  69  94 130 177 215 270 344 382
#
# _framework density 26.252745000000001
#
# number of rings (size 3 to 8) (size 9 to 14) (size 15 to 20)
#    0.000    1.714    1.429    2.143    6.000    3.429 
#    0.000    8.571    0.000    0.000    0.000    0.000 
#    0.000    0.000    0.000    0.000    0.000    0.000 
#
# Total GULP energy -78356.922900 kJ/mol
# GULP energy per Si atom -5596.923064 kJ/mol
# Density = 2.619299 g / cm^3
# Si number density = 26.252745 Si / 1000 Ang^3
#
#
#
# Elastic Constant Matrix: (Units=GPa)
#
#
# Indices 1 2 3 4 5 6 
#
# 1 53.8670 18.4673 28.2765 1.1351 11.8484 -10.3042
# 2 18.4673 175.3517 17.1641 20.6757 9.3261 7.1032
# 3 28.2765 17.1641 90.8460 13.8510 26.3191 -2.7050
# 4 1.1351 20.6757 13.8510 48.7781 -11.1388 -3.1408
# 5 11.8484 9.3261 26.3191 -11.1388 37.1912 12.7466
# 6 -10.3042 7.1032 -2.7050 -3.1408 12.7466 40.2257
#
#
#
# Elastic Compliance Matrix: (Units=1/GPa)
#
#
# Indices 1 2 3 4 5 6 
#
# 1 0.025207 -0.002260 -0.005563 0.001103 -0.006111 0.008505
# 2 -0.002260 0.006432 0.000441 -0.003279 -0.001707 -0.001400
# 3 -0.005563 0.000441 0.018537 -0.008579 -0.015378 0.003947
# 4 0.001103 -0.003279 -0.008579 0.027726 0.015713 -0.002529
# 5 -0.006111 -0.001707 -0.015378 0.015713 0.050728 -0.017146
# 6 0.008505 -0.001400 0.003947 -0.002529 -0.017146 0.032787
#
#
# Mechanical properties :
#
#
# Convention : Reuss Voigt Hill
#
# Bulk Modulus (GPa) = 28.23962 49.76450 39.00206
# Shear Modulus (GPa) = 26.59794 42.31611 34.45703
#
# Velocity S-wave (km/s) = 3.18645 4.01917 3.62679
# Velocity P-wave (km/s) = 4.93134 6.36674 5.69445
#
# Compressibility (1/GPa) = 0.03541124
#
# Stress axis : x y z
#
# Youngs Moduli (GPa) = 39.67123 155.47835 53.94730
#
# Poissons Ratio (x) = 0.35133 0.30013
# Poissons Ratio (y) = 0.08964 -0.02379
# Poissons Ratio (z) = 0.22071 -0.06857
#
# Static dielectric constant tensor:
#      x y z
#    x 2.061720 -0.041050 -0.019020 
#    y -0.041050 2.104810 -0.006380 
#    z -0.019020 -0.006380 2.134360 
# 
# From -- ./inp_files/461203.got.cif
#   From: 2010.05.17/outbox.cif.g08.bks.cpg/sg2_231_cif.got.tgz:461203.got - 2010.06.03 11:33:40.
