data_PCOD9018140
_publ_section_title
;
Structure prediction by ZEFSAII (Michael W. Deem and Ramdas Pophale) SiO2 
 PCOD9018140
Probable space group: P -1
;
_chemical_formula_sum "Si O2"
_cell_formula_units_Z 16
_cell_length_a 8.423577
_cell_length_b 24.017450
_cell_length_c 7.027973
_cell_angle_alpha 143.570794
_cell_angle_beta 117.253507
_cell_angle_gamma 53.045613
_cell_volume 673.724521
_symmetry_space_group_name_H-M "P -1"
_symmetry_group_IT_number 2
_symmetry_cell_setting 'triclinic'
loop_
_space_group_symop_operation_xyz
x,y,z
-x,-y,-z
loop_
_atom_site_type_symbol
_atom_site_label
_atom_site_fract_x
_atom_site_fract_y
_atom_site_fract_z
Si Si1 0.463861 0.658020 0.461867
Si Si2 0.793909 0.026592 0.054161
Si Si3 0.761184 0.231583 0.727619
Si Si4 0.597001 0.115124 0.807913
Si Si5 0.304062 0.585297 0.522912
Si Si6 0.180429 0.189138 0.862598
Si Si7 0.301083 0.051352 0.897535
Si Si8 0.067368 0.422487 0.502812
O O1 0.349504 0.690249 0.288750
O O2 0.374443 0.597192 0.380826
O O3 0.703024 0.598273 0.383671
O O4 0.413226 0.771190 0.846638
O O5 0.700096 0.136955 0.424198
O O6 0.850311 0.931231 0.968326
O O7 0.649238 0.054608 0.871025
O O8 0.000000 0.000000 0.000000
O O9 0.996269 0.169541 0.654686
O O10 0.738966 0.303488 0.095321
O O11 0.372204 0.138655 0.699991
O O12 0.719399 0.031053 0.486908
O O13 0.500000 0.500000 0.500000
O O14 0.113863 0.558753 0.390795
O O15 0.247397 0.151982 0.014564
O O16 0.102502 0.311117 0.137148
O O17 0.500000 0.000000 0.000000
O O18 0.000000 0.500000 0.500000
#
# Coordination Sequence:
#
# PCOD9018140 Si02
#       8
#     2   2   2   2   2   2   2   2
#     4  10  22  44  69  94 137 176 218 275 336 391
#     4  11  24  40  64  94 131 174 218 265 331 391
#     4  10  24  42  65  99 133 173 223 271 327 402
#     4  10  22  42  64  93 133 173 215 274 323 394
#     4  11  22  42  70  97 133 174 222 279 336 392
#     4  10  22  41  65  94 131 169 218 276 323 392
#     4  12  24  39  66  95 130 174 220 266 329 398
#     4  10  21  43  68  96 130 171 218 275 330 392
#
# _framework density 23.748577999999998
#
# number of rings (size 3 to 8) (size 9 to 14) (size 15 to 20)
#    0.000    1.500    2.500    1.875    1.750    6.500 
#    0.000    3.125    0.000    0.000    0.000    0.000 
#    0.000    0.000    0.000    0.000    0.000    0.000 
#
# Total GULP energy -89105.601031 kJ/mol
# GULP energy per Si atom -5569.100064 kJ/mol
# Density = 2.369452 g / cm^3
# Si number density = 23.748578 Si / 1000 Ang^3
#
#
#
# Elastic Constant Matrix: (Units=GPa)
#
#
# Indices 1 2 3 4 5 6 
#
# 1 113.2129 43.1628 20.7940 -7.3751 -7.7139 6.0759
# 2 43.1628 139.1929 12.8314 -6.4977 2.0136 14.2395
# 3 20.7940 12.8314 59.3567 -3.0288 4.8643 5.2224
# 4 -7.3751 -6.4977 -3.0288 32.8588 -2.8313 0.6504
# 5 -7.7139 2.0136 4.8643 -2.8313 21.7311 -2.8554
# 6 6.0759 14.2395 5.2224 0.6504 -2.8554 54.4419
#
#
#
# Elastic Compliance Matrix: (Units=1/GPa)
#
#
# Indices 1 2 3 4 5 6 
#
# 1 0.011173 -0.003135 -0.003587 0.002014 0.005345 0.000173
# 2 -0.003135 0.008454 -0.000356 0.000804 -0.001967 -0.001940
# 3 -0.003587 -0.000356 0.018803 0.000406 -0.005608 -0.001609
# 4 0.002014 0.000804 0.000406 0.031488 0.004572 -0.000610
# 5 0.005345 -0.001967 -0.005608 0.004572 0.050347 0.003042
# 6 0.000173 -0.001940 -0.001609 -0.000610 0.003042 0.019177
#
#
# Mechanical properties :
#
#
# Convention : Reuss Voigt Hill
#
# Bulk Modulus (GPa) = 41.19822 51.70432 46.45127
# Shear Modulus (GPa) = 30.92350 37.47133 34.19741
#
# Velocity S-wave (km/s) = 3.61240 3.97651 3.79882
# Velocity P-wave (km/s) = 5.89785 6.54998 6.23245
#
# Compressibility (1/GPa) = 0.02427289
#
# Stress axis : x y z
#
# Youngs Moduli (GPa) = 89.50092 118.29128 53.18366
#
# Poissons Ratio (x) = 0.37085 0.19077
# Poissons Ratio (y) = 0.28059 0.01895
# Poissons Ratio (z) = 0.32103 0.04215
#
# Static dielectric constant tensor:
#      x y z
#    x 2.121010 -0.041920 0.008580 
#    y -0.041920 1.811170 0.031710 
#    z 0.008580 0.031710 1.927360 
# 
# From -- ./inp_files/55753.got.cif
#   From: 2010.05.17/outbox.cif.g08.bks.cpg/sg2_28_cif.got.tgz:55753.got - 2010.06.03 11:33:40.
