data_PCOD9018302
_publ_section_title
;
Structure prediction by ZEFSAII (Michael W. Deem and Ramdas Pophale) SiO2 
 PCOD9018302
Probable space group: P -1
;
_chemical_formula_sum "Si O2"
_cell_formula_units_Z 13
_cell_length_a 12.366125
_cell_length_b 11.477647
_cell_length_c 4.908852
_cell_angle_alpha 80.894718
_cell_angle_beta 93.531706
_cell_angle_gamma 50.986699
_cell_volume 522.604721
_symmetry_space_group_name_H-M "P -1"
_symmetry_group_IT_number 2
_symmetry_cell_setting 'triclinic'
loop_
_space_group_symop_operation_xyz
x,y,z
-x,-y,-z
loop_
_atom_site_type_symbol
_atom_site_label
_atom_site_fract_x
_atom_site_fract_y
_atom_site_fract_z
Si Si1 0.563242 0.583098 0.050934
Si Si2 0.500000 0.000000 0.500000
Si Si3 0.780038 0.278127 0.488282
Si Si4 0.811017 0.675624 0.700608
Si Si5 0.431918 0.787273 0.472747
Si Si6 0.050193 0.841387 0.947800
Si Si7 0.953250 0.674863 0.224329
O O1 0.701110 0.447224 0.288706
O O2 0.470635 0.726173 0.193070
O O3 0.500000 0.500000 0.000000
O O4 0.558432 0.656870 0.743813
O O5 0.648347 0.818345 0.552983
O O6 0.406937 0.943193 0.449432
O O7 0.695702 0.213751 0.468184
O O8 0.804866 0.279573 0.810653
O O9 0.919593 0.174774 0.359939
O O10 0.904572 0.697614 0.517773
O O11 0.891194 0.495080 0.720114
O O12 0.842928 0.677720 0.022157
O O13 0.952814 0.804554 0.050031
O O14 0.000000 0.000000 0.000000
#
# Coordination Sequence:
#
# PCOD9018302 Si02
#       7
#     2   1   2   2   2   2   2
#     4  10  21  43  69  96 136 184 229 281 366 430
#     4  12  30  44  78 110 150 188 248 302 368 418
#     4  11  23  42  69  97 138 178 232 298 355 423
#     4  10  25  48  73 102 140 194 235 305 340 431
#     4  11  25  43  67 105 146 185 227 298 365 434
#     4  12  26  40  72 103 130 184 240 299 354 429
#     4  10  24  49  74  98 144 189 245 281 365 429
#
# _framework density 24.875395999999999
#
# number of rings (size 3 to 8) (size 9 to 14) (size 15 to 20)
#    0.000    1.231    0.000    6.000    8.615    3.692 
#    0.000    0.000    0.000    0.000    0.000    0.000 
#    0.000    0.000    0.000    0.000    0.000    0.000 
#
# Total GULP energy -72414.847130 kJ/mol
# GULP energy per Si atom -5570.372856 kJ/mol
# Density = 2.481878 g / cm^3
# Si number density = 24.875396 Si / 1000 Ang^3
#
#
#
# Elastic Constant Matrix: (Units=GPa)
#
#
# Indices 1 2 3 4 5 6 
#
# 1 72.3520 23.2010 3.3035 -4.2201 -13.8804 27.9704
# 2 23.2010 81.7955 9.6913 -4.4689 -13.3590 10.4186
# 3 3.3035 9.6913 95.7369 13.8516 4.6779 2.5100
# 4 -4.2201 -4.4689 13.8516 21.9332 -2.9631 7.2702
# 5 -13.8804 -13.3590 4.6779 -2.9631 15.5423 -10.6824
# 6 27.9704 10.4186 2.5100 7.2702 -10.6824 48.3287
#
#
#
# Elastic Compliance Matrix: (Units=1/GPa)
#
#
# Indices 1 2 3 4 5 6 
#
# 1 0.021892 -0.001744 -0.002522 0.010854 0.013440 -0.010825
# 2 -0.001744 0.015822 -0.003232 0.006894 0.014245 -0.000122
# 3 -0.002522 -0.003232 0.012940 -0.011003 -0.010453 0.000829
# 4 0.010854 0.006894 -0.011003 0.062981 0.022969 -0.011594
# 5 0.013440 0.014245 -0.010453 0.022969 0.102177 0.008823
# 6 -0.010825 -0.000122 0.000829 -0.011594 0.008823 0.030634
#
#
# Mechanical properties :
#
#
# Convention : Reuss Voigt Hill
#
# Bulk Modulus (GPa) = 28.04347 35.80844 31.92596
# Shear Modulus (GPa) = 18.29304 31.40674 24.84989
#
# Velocity S-wave (km/s) = 2.71474 3.55711 3.16408
# Velocity P-wave (km/s) = 4.59614 5.59438 5.11965
#
# Compressibility (1/GPa) = 0.03565893
#
# Stress axis : x y z
#
# Youngs Moduli (GPa) = 45.67865 63.20362 77.27701
#
# Poissons Ratio (x) = 0.11022 0.19491
# Poissons Ratio (y) = 0.07966 0.24974
# Poissons Ratio (z) = 0.11521 0.20426
#
# Static dielectric constant tensor:
#      x y z
#    x 2.100600 -0.004070 0.067680 
#    y -0.004070 2.020000 -0.071070 
#    z 0.067680 -0.071070 1.948570 
# 
# From -- ./inp_files/63813.got.cif
#   From: 2010.05.17/outbox.cif.g08.bks.cpg/sg2_32_cif.got.tgz:63813.got - 2010.06.03 11:33:40.
