data_PCOD9018202
_publ_section_title
;
Structure prediction by ZEFSAII (Michael W. Deem and Ramdas Pophale) SiO2 
 PCOD9018202
Probable space group: P -1
;
_chemical_formula_sum "Si O2"
_cell_formula_units_Z 15
_cell_length_a 10.707932
_cell_length_b 11.809813
_cell_length_c 19.864215
_cell_angle_alpha 29.271969
_cell_angle_beta 34.207792
_cell_angle_gamma 39.330504
_cell_volume 678.005590
_symmetry_space_group_name_H-M "P -1"
_symmetry_group_IT_number 2
_symmetry_cell_setting 'triclinic'
loop_
_space_group_symop_operation_xyz
x,y,z
-x,-y,-z
loop_
_atom_site_type_symbol
_atom_site_label
_atom_site_fract_x
_atom_site_fract_y
_atom_site_fract_z
Si Si1 0.759265 0.523798 0.060500
Si Si2 0.736381 0.114850 0.056983
Si Si3 0.000000 0.000000 0.500000
Si Si4 0.598276 0.107197 0.276756
Si Si5 0.333204 0.984528 0.232067
Si Si6 0.372055 0.785010 0.179101
Si Si7 0.150788 0.410833 0.290362
Si Si8 0.056486 0.324217 0.628413
O O1 0.734601 0.293767 0.149956
O O2 0.552569 0.565783 0.184664
O O3 0.732026 0.754109 0.906307
O O4 0.000000 0.500000 0.000000
O O5 0.638472 0.101226 0.182108
O O6 0.589135 0.975253 0.148091
O O7 0.721232 0.385738 0.899945
O O8 0.000000 0.000000 0.000000
O O9 0.830407 0.039174 0.621145
O O10 0.946511 0.729967 0.651747
O O11 0.333107 0.208924 0.351560
O O12 0.704815 0.851368 0.390559
O O13 0.317985 0.799056 0.275089
O O14 0.148845 0.818895 0.215158
O O15 0.500000 0.000000 0.000000
O O16 0.978666 0.544361 0.352939
O O17 0.000000 0.500000 0.500000
#
# Coordination Sequence:
#
# PCOD9018202 Si02
#       8
#     2   2   1   2   2   2   2   2
#     4  11  23  40  73 108 135 181 246 301 352 417
#     4  12  24  44  79 104 137 191 244 305 355 420
#     4  12  26  44  70  96 156 192 224 298 362 440
#     4  12  23  44  74 102 136 185 239 292 362 418
#     4  11  23  45  68 107 147 187 235 300 363 433
#     4  10  21  43  69 100 141 175 238 301 346 415
#     4  12  24  48  69 107 140 185 246 293 354 433
#     4  12  26  46  69 100 143 189 227 290 364 433
#
# _framework density 22.123712000000001
#
# number of rings (size 3 to 8) (size 9 to 14) (size 15 to 20)
#    0.000    0.533    5.333    4.400    1.867    0.533 
#    2.400    2.667    0.000    0.000    0.000    0.000 
#    0.000    0.000    0.000    0.000    0.000    0.000 
#
# Total GULP energy -83613.703144 kJ/mol
# GULP energy per Si atom -5574.246876 kJ/mol
# Density = 2.207336 g / cm^3
# Si number density = 22.123712 Si / 1000 Ang^3
#
#
#
# Elastic Constant Matrix: (Units=GPa)
#
#
# Indices 1 2 3 4 5 6 
#
# 1 68.2352 35.1102 -4.3776 1.7300 -2.7627 4.8834
# 2 35.1102 92.5530 1.8325 2.5543 2.4222 -13.8858
# 3 -4.3776 1.8325 62.2723 8.4615 13.0233 0.9677
# 4 1.7300 2.5543 8.4615 31.3246 1.3190 0.8924
# 5 -2.7627 2.4222 13.0233 1.3190 30.1456 -5.8120
# 6 4.8834 -13.8858 0.9677 0.8924 -5.8120 50.2406
#
#
#
# Elastic Compliance Matrix: (Units=1/GPa)
#
#
# Indices 1 2 3 4 5 6 
#
# 1 0.019158 -0.007895 0.001534 -0.000758 0.001000 -0.003945
# 2 -0.007895 0.014562 -0.000850 -0.000633 -0.000583 0.004752
# 3 0.001534 -0.000850 0.018494 -0.004634 -0.007880 -0.001569
# 4 -0.000758 -0.000633 -0.004634 0.033267 0.000421 -0.000554
# 5 0.001000 -0.000583 -0.007880 0.000421 0.037512 0.004226
# 6 -0.003945 0.004752 -0.001569 -0.000554 0.004226 0.022130
#
#
# Mechanical properties :
#
#
# Convention : Reuss Voigt Hill
#
# Bulk Modulus (GPa) = 26.45977 32.02116 29.24047
# Shear Modulus (GPa) = 29.04598 35.04184 32.04391
#
# Velocity S-wave (km/s) = 3.62731 3.98415 3.80991
# Velocity P-wave (km/s) = 5.43407 5.97241 5.70959
#
# Compressibility (1/GPa) = 0.03779322
#
# Stress axis : x y z
#
# Youngs Moduli (GPa) = 52.19741 68.67103 54.07287
#
# Poissons Ratio (x) = 0.54216 -0.08297
# Poissons Ratio (y) = 0.41210 0.04594
# Poissons Ratio (z) = -0.08009 0.05834
#
# Static dielectric constant tensor:
#      x y z
#    x 1.842050 -0.000680 -0.000680 
#    y -0.000680 1.841330 0.022030 
#    z -0.000680 0.022030 1.868000 
# 
# From -- ./inp_files/595039.got.cif
#   From: 2010.05.17/outbox.cif.g08.bks.cpg/sg2_298_cif.got.tgz:595039.got - 2010.06.03 11:33:40.
