data_PCOD9018525
_publ_section_title
;
Structure prediction by ZEFSAII (Michael W. Deem and Ramdas Pophale) SiO2 
 PCOD9018525
Probable space group: P -1
;
_chemical_formula_sum "Si O2"
_cell_formula_units_Z 16
_cell_length_a 5.741462
_cell_length_b 20.392568
_cell_length_c 8.799881
_cell_angle_alpha 63.331225
_cell_angle_beta 121.049455
_cell_angle_gamma 79.767857
_cell_volume 666.706586
_symmetry_space_group_name_H-M "P -1"
_symmetry_group_IT_number 2
_symmetry_cell_setting 'triclinic'
loop_
_space_group_symop_operation_xyz
x,y,z
-x,-y,-z
loop_
_atom_site_type_symbol
_atom_site_label
_atom_site_fract_x
_atom_site_fract_y
_atom_site_fract_z
Si Si1 0.003112 0.940634 0.199571
Si Si2 0.536258 0.099322 0.036846
Si Si3 0.194701 0.622152 0.768874
Si Si4 0.720775 0.752095 0.977945
Si Si5 0.283958 0.688795 0.998710
Si Si6 0.521720 0.786704 0.383094
Si Si7 0.646698 0.359503 0.507171
Si Si8 0.820942 0.557386 0.524913
O O1 0.751483 0.912388 0.103460
O O2 0.354697 0.854825 0.393688
O O3 0.859487 0.003662 0.231245
O O4 0.000000 0.000000 0.000000
O O5 0.568250 0.159600 0.859957
O O6 0.431709 0.152048 0.102766
O O7 0.327298 0.609202 0.994601
O O8 0.418732 0.616351 0.716338
O O9 0.903928 0.723410 0.579451
O O10 0.048598 0.569953 0.702484
O O11 0.428705 0.735120 0.898192
O O12 0.937909 0.736342 0.917671
O O13 0.992688 0.682838 0.262352
O O14 0.538901 0.647509 0.263293
O O15 0.399622 0.721467 0.415048
O O16 0.409798 0.448741 0.424710
O O17 0.000000 0.500000 0.500000
#
# Coordination Sequence:
#
# PCOD9018525 Si02
#       8
#     2   2   2   2   2   2   2   2
#     4   9  18  26  49  89 122 159 209 256 313 375
#     4  10  17  30  53  88 122 161 211 258 314 371
#     4  11  22  39  63  91 122 163 208 261 308 371
#     4  11  20  40  61  90 126 162 213 265 304 371
#     4  11  26  40  65  97 124 164 216 256 314 370
#     4  10  17  32  56  87 120 163 209 258 312 368
#     4  10  19  36  65  84 121 162 206 254 313 370
#     4  10  23  43  64  92 128 167 202 254 315 377
#
# _framework density 23.998560000000001
#
# number of rings (size 3 to 8) (size 9 to 14) (size 15 to 20)
#    0.000    1.750    3.750    1.500    5.250    1.000 
#    0.000    0.625    0.000    1.500    0.000    0.000 
#    0.000    0.000    0.000    0.000    0.000    0.000 
#
# Total GULP energy -89141.904978 kJ/mol
# GULP energy per Si atom -5571.369061 kJ/mol
# Density = 2.394394 g / cm^3
# Si number density = 23.998560 Si / 1000 Ang^3
#
#
#
# Elastic Constant Matrix: (Units=GPa)
#
#
# Indices 1 2 3 4 5 6 
#
# 1 136.4700 69.7156 21.5045 6.9374 -0.0493 -26.1920
# 2 69.7156 171.3392 28.5931 10.2995 4.8966 -50.1405
# 3 21.5045 28.5931 32.3608 8.4003 5.1890 1.7917
# 4 6.9374 10.2995 8.4003 35.9066 -5.0935 6.3100
# 5 -0.0493 4.8966 5.1890 -5.0935 16.3185 0.3242
# 6 -26.1920 -50.1405 1.7917 6.3100 0.3242 58.2968
#
#
#
# Elastic Compliance Matrix: (Units=1/GPa)
#
#
# Indices 1 2 3 4 5 6 
#
# 1 0.009851 -0.002590 -0.004699 -0.000161 0.002205 0.002347
# 2 -0.002590 0.010898 -0.007374 -0.002713 -0.001954 0.008740
# 3 -0.004699 -0.007374 0.045488 -0.008132 -0.014628 -0.008890
# 4 -0.000161 -0.002713 -0.008132 0.033579 0.013997 -0.005868
# 5 0.002205 -0.001954 -0.014628 0.013997 0.070936 -0.002150
# 6 0.002347 0.008740 -0.008890 -0.005868 -0.002150 0.026646
#
#
# Mechanical properties :
#
#
# Convention : Reuss Voigt Hill
#
# Bulk Modulus (GPa) = 27.09287 64.42182 45.75734
# Shear Modulus (GPa) = 20.91816 36.79483 28.85650
#
# Velocity S-wave (km/s) = 2.95556 3.91987 3.47136
# Velocity P-wave (km/s) = 4.79176 6.88400 5.93087
#
# Compressibility (1/GPa) = 0.03691008
#
# Stress axis : x y z
#
# Youngs Moduli (GPa) = 101.51368 91.76357 21.98384
#
# Poissons Ratio (x) = 0.23770 0.10330
# Poissons Ratio (y) = 0.26296 0.16210
# Poissons Ratio (z) = 0.47702 0.67664
#
# Static dielectric constant tensor:
#      x y z
#    x 2.082020 -0.030660 0.038460 
#    y -0.030660 1.968470 0.013450 
#    z 0.038460 0.013450 1.995010 
# 
# From -- ./inp_files/48598.got.cif
#   From: 2010.05.17/outbox.cif.g08.bks.cpg/sg2_25_cif.got.tgz:48598.got - 2010.06.03 11:33:40.
