data_PCOD9018649
_publ_section_title
;
Structure prediction by ZEFSAII (Michael W. Deem and Ramdas Pophale) SiO2 
 PCOD9018649
Probable space group: P -1
;
_chemical_formula_sum "Si O2"
_cell_formula_units_Z 14
_cell_length_a 7.311559
_cell_length_b 15.073775
_cell_length_c 6.008066
_cell_angle_alpha 109.214445
_cell_angle_beta 64.915783
_cell_angle_gamma 103.601029
_cell_volume 562.754123
_symmetry_space_group_name_H-M "P -1"
_symmetry_group_IT_number 2
_symmetry_cell_setting 'triclinic'
loop_
_space_group_symop_operation_xyz
x,y,z
-x,-y,-z
loop_
_atom_site_type_symbol
_atom_site_label
_atom_site_fract_x
_atom_site_fract_y
_atom_site_fract_z
Si Si1 0.251743 0.784496 0.879717
Si Si2 0.870136 0.693749 0.531349
Si Si3 0.449880 0.411483 0.110179
Si Si4 0.331557 0.151157 0.036423
Si Si5 0.091425 0.981228 0.189179
Si Si6 0.875762 0.397072 0.001541
Si Si7 0.579984 0.763231 0.353154
O O1 0.368959 0.783572 0.586367
O O2 0.449730 0.796452 0.953749
O O3 0.139483 0.874002 0.068617
O O4 0.106346 0.685688 0.896608
O O5 0.750239 0.605762 0.652448
O O6 0.731938 0.726529 0.425499
O O7 0.069713 0.658708 0.296102
O O8 0.855005 0.786492 0.763817
O O9 0.500000 0.500000 0.000000
O O10 0.644289 0.414220 0.168684
O O11 0.443680 0.322853 0.876858
O O12 0.338760 0.145807 0.761501
O O13 0.291041 0.057337 0.124425
O O14 0.000000 0.000000 0.500000
O O15 0.000000 0.000000 0.000000
O O16 0.000000 0.500000 0.000000
#
# Coordination Sequence:
#
# PCOD9018649 Si02
#       7
#     2   2   2   2   2   2   2
#     4  11  25  47  72 104 147 193 249 303 376 457
#     4  10  23  44  69  98 144 182 246 306 371 446
#     4  11  24  44  64 100 138 192 246 308 371 447
#     4  10  23  47  74 103 143 193 242 304 378 452
#     4  12  30  48  77 115 153 193 253 317 381 453
#     4  12  25  43  69 103 141 192 245 304 371 442
#     4  10  21  43  73  96 143 189 240 305 374 441
#
# _framework density 24.877651
#
# number of rings (size 3 to 8) (size 9 to 14) (size 15 to 20)
#    0.000    1.143    4.286    2.143   10.000    3.429 
#    2.571    0.000    0.000    0.000    0.000    0.000 
#    0.000    0.000    0.000    0.000    0.000    0.000 
#
# Total GULP energy -78102.254587 kJ/mol
# GULP energy per Si atom -5578.732471 kJ/mol
# Density = 2.482103 g / cm^3
# Si number density = 24.877651 Si / 1000 Ang^3
#
#
#
# Elastic Constant Matrix: (Units=GPa)
#
#
# Indices 1 2 3 4 5 6 
#
# 1 51.7576 15.9112 14.1016 0.5366 6.2832 1.8367
# 2 15.9112 164.6788 39.8146 -27.6514 2.1605 -6.3166
# 3 14.1016 39.8146 154.6902 -25.5215 -7.4982 -0.2076
# 4 0.5366 -27.6514 -25.5215 47.7839 2.5859 -5.0902
# 5 6.2832 2.1605 -7.4982 2.5859 36.5410 -2.8470
# 6 1.8367 -6.3166 -0.2076 -5.0902 -2.8470 34.2223
#
#
#
# Elastic Compliance Matrix: (Units=1/GPa)
#
#
# Indices 1 2 3 4 5 6 
#
# 1 0.021062 -0.002001 -0.002008 -0.002491 -0.003911 -0.002208
# 2 -0.002001 0.007257 -0.001062 0.003889 -0.000424 0.001984
# 3 -0.002008 -0.001062 0.007572 0.003422 0.001768 0.000614
# 4 -0.002491 0.003889 0.003422 0.025557 -0.000547 0.004628
# 5 -0.003911 -0.000424 0.001768 -0.000547 0.028656 0.002445
# 6 -0.002208 0.001984 0.000614 0.004628 0.002445 0.030601
#
#
# Mechanical properties :
#
#
# Convention : Reuss Voigt Hill
#
# Bulk Modulus (GPa) = 38.83652 56.75350 47.79501
# Shear Modulus (GPa) = 35.86028 43.79604 39.82816
#
# Velocity S-wave (km/s) = 3.80078 4.20033 4.00554
# Velocity P-wave (km/s) = 5.90814 6.81075 6.37544
#
# Compressibility (1/GPa) = 0.02574896
#
# Stress axis : x y z
#
# Youngs Moduli (GPa) = 47.47848 137.79552 132.06577
#
# Poissons Ratio (x) = 0.27573 0.26525
# Poissons Ratio (y) = 0.09501 0.14021
# Poissons Ratio (z) = 0.09536 0.14629
#
# Static dielectric constant tensor:
#      x y z
#    x 2.115280 -0.011950 0.096850 
#    y -0.011950 2.107690 -0.062980 
#    z 0.096850 -0.062980 1.992930 
# 
# From -- ./inp_files/39620.got.cif
#   From: 2010.05.17/outbox.cif.g08.bks.cpg/sg2_20_cif.got.tgz:39620.got - 2010.06.03 11:33:40.
