data_PCOD9018539
_publ_section_title
;
Structure prediction by ZEFSAII (Michael W. Deem and Ramdas Pophale) SiO2 
 PCOD9018539
Probable space group: P -1
;
_chemical_formula_sum "Si O2"
_cell_formula_units_Z 16
_cell_length_a 10.984130
_cell_length_b 12.042468
_cell_length_c 13.118085
_cell_angle_alpha 43.624805
_cell_angle_beta 97.471925
_cell_angle_gamma 63.813942
_cell_volume 738.805890
_symmetry_space_group_name_H-M "P -1"
_symmetry_group_IT_number 2
_symmetry_cell_setting 'triclinic'
loop_
_space_group_symop_operation_xyz
x,y,z
-x,-y,-z
loop_
_atom_site_type_symbol
_atom_site_label
_atom_site_fract_x
_atom_site_fract_y
_atom_site_fract_z
Si Si1 0.805755 0.127713 0.838611
Si Si2 0.507127 0.366628 0.185129
Si Si3 0.123668 0.744707 0.414545
Si Si4 0.630014 0.759192 0.097909
Si Si5 0.921747 0.958110 0.604731
Si Si6 0.784171 0.607166 0.895069
Si Si7 0.123341 0.273045 0.006548
Si Si8 0.318128 0.823729 0.992467
O O1 0.750188 0.324019 0.622965
O O2 0.852441 0.925906 0.908156
O O3 0.671026 0.209844 0.862280
O O4 0.000000 0.000000 0.000000
O O5 0.715849 0.121896 0.422907
O O6 0.500000 0.500000 0.000000
O O7 0.412183 0.293304 0.199324
O O8 0.374986 0.596501 0.099990
O O9 0.230285 0.494652 0.650581
O O10 0.102497 0.912872 0.380732
O O11 0.905969 0.913849 0.240953
O O12 0.774636 0.712270 0.072674
O O13 0.476039 0.798710 0.996757
O O14 0.500000 0.000000 0.000000
O O15 0.000000 0.000000 0.500000
O O16 0.071598 0.660402 0.845117
O O17 0.897073 0.517613 0.859572
O O18 0.765538 0.791383 0.833422
#
# Coordination Sequence:
#
# PCOD9018539 Si02
#       8
#     2   2   2   2   2   2   2   2
#     4  10  21  43  71  96 132 179 229 276 337 408
#     4  12  22  40  70 104 134 173 230 280 337 403
#     4  11  23  43  71  97 132 178 232 278 341 404
#     4  12  25  43  65  99 139 178 228 281 342 402
#     4  12  21  38  68 103 130 173 226 275 332 409
#     4  11  23  42  68  95 141 178 221 284 349 392
#     4  11  23  44  67  95 142 183 214 292 346 390
#     4  11  22  42  70 101 134 177 231 282 335 408
#
# _framework density 21.656566999999999
#
# number of rings (size 3 to 8) (size 9 to 14) (size 15 to 20)
#    0.000    0.750    6.250    2.250    0.000    1.000 
#    2.250    3.750    0.000    0.000    0.000    0.000 
#    0.000    0.000    0.000    0.000    0.000    0.000 
#
# Total GULP energy -89360.656115 kJ/mol
# GULP energy per Si atom -5585.041007 kJ/mol
# Density = 2.160728 g / cm^3
# Si number density = 21.656567 Si / 1000 Ang^3
#
#
#
# Elastic Constant Matrix: (Units=GPa)
#
#
# Indices 1 2 3 4 5 6 
#
# 1 146.5231 23.9225 46.5349 20.4317 8.1573 -9.8891
# 2 23.9225 113.6719 15.9019 15.6088 -14.5201 -5.7613
# 3 46.5349 15.9019 104.1812 10.4206 23.8011 -2.9758
# 4 20.4317 15.6088 10.4206 25.0177 -3.6945 -9.0571
# 5 8.1573 -14.5201 23.8011 -3.6945 28.4307 4.6338
# 6 -9.8891 -5.7613 -2.9758 -9.0571 4.6338 39.3409
#
#
#
# Elastic Compliance Matrix: (Units=1/GPa)
#
#
# Indices 1 2 3 4 5 6 
#
# 1 0.008760 -0.000828 -0.002935 -0.005322 -0.001299 0.000786
# 2 -0.000828 0.010830 -0.002609 -0.004120 0.007524 -0.000654
# 3 -0.002935 -0.002609 0.014799 -0.003881 -0.013498 0.000696
# 4 -0.005322 -0.004120 -0.003881 0.052959 0.008087 0.009005
# 5 -0.001299 0.007524 -0.013498 0.008087 0.052483 -0.004566
# 6 0.000786 -0.000654 0.000696 0.009005 -0.004566 0.028184
#
#
# Mechanical properties :
#
#
# Convention : Reuss Voigt Hill
#
# Bulk Modulus (GPa) = 46.19772 59.67720 52.93746
# Shear Modulus (GPa) = 26.59931 37.09232 31.84581
#
# Velocity S-wave (km/s) = 3.50842 4.14303 3.83886
# Velocity P-wave (km/s) = 6.14738 7.10649 6.64427
#
# Compressibility (1/GPa) = 0.02164609
#
# Stress axis : x y z
#
# Youngs Moduli (GPa) = 114.15994 92.33504 67.57016
#
# Poissons Ratio (x) = 0.07648 0.19829
# Poissons Ratio (y) = 0.09456 0.17627
# Poissons Ratio (z) = 0.33502 0.24087
#
# Static dielectric constant tensor:
#      x y z
#    x 1.871320 -0.015500 0.019870 
#    y -0.015500 1.852740 -0.130930 
#    z 0.019870 -0.130930 2.476860 
# 
# From -- ./inp_files/427608.got.cif
#   From: 2010.05.17/outbox.cif.g08.bks.cpg/sg2_214_cif.got.tgz:427608.got - 2010.06.03 11:33:40.
