data_PCOD9018550
_publ_section_title
;
Structure prediction by ZEFSAII (Michael W. Deem and Ramdas Pophale) SiO2 
 PCOD9018550
Probable space group: P -1
;
_chemical_formula_sum "Si O2"
_cell_formula_units_Z 16
_cell_length_a 10.921561
_cell_length_b 15.772758
_cell_length_c 5.225957
_cell_angle_alpha 69.264207
_cell_angle_beta 124.344306
_cell_angle_gamma 91.003928
_cell_volume 675.511548
_symmetry_space_group_name_H-M "P -1"
_symmetry_group_IT_number 2
_symmetry_cell_setting 'triclinic'
loop_
_space_group_symop_operation_xyz
x,y,z
-x,-y,-z
loop_
_atom_site_type_symbol
_atom_site_label
_atom_site_fract_x
_atom_site_fract_y
_atom_site_fract_z
Si Si1 0.809926 0.861566 0.316617
Si Si2 0.112116 0.896983 0.764777
Si Si3 0.790969 0.675609 0.338897
Si Si4 0.547539 0.752406 0.608715
Si Si5 0.068153 0.536933 0.787920
Si Si6 0.608872 0.569693 0.583002
Si Si7 0.642296 0.937329 0.519076
Si Si8 0.678730 0.131025 0.453510
O O1 0.751692 0.767155 0.369338
O O2 0.725794 0.935036 0.347204
O O3 0.986526 0.837667 0.628774
O O4 0.762945 0.898579 0.933902
O O5 0.233518 0.869965 0.708069
O O6 0.197673 0.888899 0.146950
O O7 0.000000 0.000000 0.500000
O O8 0.697907 0.602681 0.412223
O O9 0.973452 0.643601 0.570881
O O10 0.720216 0.708552 0.947581
O O11 0.518200 0.668516 0.493102
O O12 0.542552 0.861060 0.424698
O O13 0.436245 0.772606 0.703695
O O14 0.000000 0.500000 0.500000
O O15 0.247090 0.495818 0.028400
O O16 0.000000 0.500000 0.000000
O O17 0.500000 0.500000 0.500000
O O18 0.588640 0.047093 0.406827
#
# Coordination Sequence:
#
# PCOD9018550 Si02
#       8
#     2   2   2   2   2   2   2   2
#     4  11  22  38  70  93 132 179 229 276 332 402
#     4  12  23  42  63  94 138 183 232 283 341 402
#     4  10  23  45  68  97 137 179 236 281 344 429
#     4  11  25  42  66 100 140 178 233 286 349 418
#     4  10  21  43  71  98 126 178 227 274 345 423
#     4  11  24  45  74 102 141 180 228 303 363 413
#     4  11  21  41  65  96 130 183 226 273 330 412
#     4  12  25  40  67 100 141 183 229 284 347 405
#
# _framework density 23.685753999999999
#
# number of rings (size 3 to 8) (size 9 to 14) (size 15 to 20)
#    0.000    1.000    5.000    1.500    1.750    1.500 
#    0.000    3.125    0.000    0.000    0.000    0.000 
#    0.000    0.000    0.000    0.000    0.000    0.000 
#
# Total GULP energy -89175.680433 kJ/mol
# GULP energy per Si atom -5573.480027 kJ/mol
# Density = 2.363184 g / cm^3
# Si number density = 23.685754 Si / 1000 Ang^3
#
#
#
# Elastic Constant Matrix: (Units=GPa)
#
#
# Indices 1 2 3 4 5 6 
#
# 1 67.6573 52.0075 14.4592 13.9296 4.0181 -6.7460
# 2 52.0075 161.5161 23.4374 13.6194 8.2856 -4.1032
# 3 14.4592 23.4374 116.0403 19.3690 8.0747 1.9902
# 4 13.9296 13.6194 19.3690 34.3820 -9.9284 8.0993
# 5 4.0181 8.2856 8.0747 -9.9284 39.1165 5.1675
# 6 -6.7460 -4.1032 1.9902 8.0993 5.1675 51.5487
#
#
#
# Elastic Compliance Matrix: (Units=1/GPa)
#
#
# Indices 1 2 3 4 5 6 
#
# 1 0.021756 -0.006011 0.000112 -0.008520 -0.003685 0.004072
# 2 -0.006011 0.008373 -0.000710 -0.000885 -0.001257 0.000172
# 3 0.000112 -0.000710 0.010133 -0.006815 -0.003817 0.001020
# 4 -0.008520 -0.000885 -0.006815 0.043107 0.014621 -0.009161
# 5 -0.003685 -0.001257 -0.003817 0.014621 0.031486 -0.005889
# 6 0.004072 0.000172 0.001020 -0.009161 -0.005889 0.021936
#
#
# Mechanical properties :
#
#
# Convention : Reuss Voigt Hill
#
# Bulk Modulus (GPa) = 36.97632 58.33577 47.65605
# Shear Modulus (GPa) = 31.44199 42.03010 36.73604
#
# Velocity S-wave (km/s) = 3.64739 4.21704 3.94252
# Velocity P-wave (km/s) = 5.77781 6.95656 6.39440
#
# Compressibility (1/GPa) = 0.02704433
#
# Stress axis : x y z
#
# Youngs Moduli (GPa) = 45.96494 119.42783 98.68911
#
# Poissons Ratio (x) = 0.71783 -0.01103
# Poissons Ratio (y) = 0.27628 0.07006
# Poissons Ratio (z) = -0.00514 0.08479
#
# Static dielectric constant tensor:
#      x y z
#    x 2.039200 -0.019520 0.019200 
#    y -0.019520 1.984510 -0.043480 
#    z 0.019200 -0.043480 1.999360 
# 
# From -- ./inp_files/77522.got.cif
#   From: 2010.05.17/outbox.cif.g08.bks.cpg/sg2_39_cif.got.tgz:77522.got - 2010.06.03 11:33:40.
