data_PCOD9018374
_publ_section_title
;
Structure prediction by ZEFSAII (Michael W. Deem and Ramdas Pophale) SiO2 
 PCOD9018374
Probable space group: P -1
;
_chemical_formula_sum "Si O2"
_cell_formula_units_Z 14
_cell_length_a 4.868185
_cell_length_b 14.109421
_cell_length_c 11.032711
_cell_angle_alpha 122.530364
_cell_angle_beta 95.631347
_cell_angle_gamma 67.591112
_cell_volume 585.087372
_symmetry_space_group_name_H-M "P -1"
_symmetry_group_IT_number 2
_symmetry_cell_setting 'triclinic'
loop_
_space_group_symop_operation_xyz
x,y,z
-x,-y,-z
loop_
_atom_site_type_symbol
_atom_site_label
_atom_site_fract_x
_atom_site_fract_y
_atom_site_fract_z
Si Si1 0.714236 0.931970 0.849866
Si Si2 0.914781 0.718567 0.881607
Si Si3 0.175926 0.456692 0.602924
Si Si4 0.660341 0.084075 0.408338
Si Si5 0.244606 0.170536 0.689966
Si Si6 0.850056 0.301208 0.579167
Si Si7 0.674335 0.175380 0.926578
O O1 0.925562 0.801042 0.822597
O O2 0.524226 0.911914 0.717986
O O3 0.833725 0.032591 0.874288
O O4 0.500000 0.000000 0.000000
O O5 0.056134 0.576154 0.763805
O O6 0.571969 0.758465 0.934485
O O7 0.091697 0.760969 0.020259
O O8 0.534133 0.401305 0.589916
O O9 0.000000 0.500000 0.500000
O O10 0.088958 0.345766 0.562314
O O11 0.443882 0.129763 0.547511
O O12 0.840962 0.170322 0.457856
O O13 0.842051 0.941063 0.346547
O O14 0.468270 0.188020 0.809439
O O15 0.946966 0.284080 0.713375
#
# Coordination Sequence:
#
# PCOD9018374 Si02
#       7
#     2   2   2   2   2   2   2
#     4   9  20  41  66 102 132 170 214 274 339 400
#     4  11  23  43  65  95 131 177 219 272 334 385
#     4  12  27  45  68  96 134 181 229 277 322 394
#     4  10  21  43  70 104 136 174 218 277 339 399
#     4  10  23  43  70 103 134 175 220 275 337 404
#     4  12  24  45  67 100 132 174 230 274 329 388
#     4  10  23  42  68  96 135 167 216 277 334 400
#
# _framework density 23.928045999999998
#
# number of rings (size 3 to 8) (size 9 to 14) (size 15 to 20)
#    0.000    1.429    1.429    3.000    2.000    2.286 
#   15.429    4.286    0.000    0.000    0.000    0.000 
#    0.000    0.000    0.000    0.000    0.000    0.000 
#
# Total GULP energy -78341.940526 kJ/mol
# GULP energy per Si atom -5595.852895 kJ/mol
# Density = 2.387358 g / cm^3
# Si number density = 23.928046 Si / 1000 Ang^3
#
#
#
# Elastic Constant Matrix: (Units=GPa)
#
#
# Indices 1 2 3 4 5 6 
#
# 1 71.4419 -5.4712 14.6030 2.6745 15.1192 -2.0537
# 2 -5.4712 121.1697 30.5756 -16.8164 9.3817 -6.9489
# 3 14.6030 30.5756 99.3967 -6.2209 12.0594 9.4364
# 4 2.6745 -16.8164 -6.2209 42.0439 -1.5662 11.5574
# 5 15.1192 9.3817 12.0594 -1.5662 26.9252 5.3533
# 6 -2.0537 -6.9489 9.4364 11.5574 5.3533 44.3219
#
#
#
# Elastic Compliance Matrix: (Units=1/GPa)
#
#
# Indices 1 2 3 4 5 6 
#
# 1 0.016896 0.002049 -0.002339 -0.001875 -0.009917 0.003289
# 2 0.002049 0.009843 -0.002922 0.002699 -0.003508 0.001980
# 3 -0.002339 -0.002922 0.011989 0.001561 -0.002301 -0.003248
# 4 -0.001875 0.002699 0.001561 0.027348 0.002481 -0.007427
# 5 -0.009917 -0.003508 -0.002301 0.002481 0.046453 -0.006777
# 6 0.003289 0.001980 -0.003248 -0.007427 -0.006777 0.026472
#
#
# Mechanical properties :
#
#
# Convention : Reuss Voigt Hill
#
# Bulk Modulus (GPa) = 30.95676 41.26924 36.11300
# Shear Modulus (GPa) = 32.01188 39.47827 35.74507
#
# Velocity S-wave (km/s) = 3.66162 4.06627 3.86924
# Velocity P-wave (km/s) = 5.55357 6.27142 5.92338
#
# Compressibility (1/GPa) = 0.03230313
#
# Stress axis : x y z
#
# Youngs Moduli (GPa) = 59.18607 101.59956 83.41324
#
# Poissons Ratio (x) = -0.20822 0.19511
# Poissons Ratio (y) = -0.12130 0.24375
# Poissons Ratio (z) = 0.13844 0.29690
#
# Static dielectric constant tensor:
#      x y z
#    x 1.926540 -0.004400 -0.048370 
#    y -0.004400 1.943050 -0.038520 
#    z -0.048370 -0.038520 1.936380 
# 
# From -- ./inp_files/367173.got.cif
#   From: 2010.05.17/outbox.cif.g08.bks.cpg/sg2_184_cif.got.tgz:367173.got - 2010.06.03 11:33:40.
