data_PCOD9018801
_publ_section_title
;
Structure prediction by ZEFSAII (Michael W. Deem and Ramdas Pophale) SiO2 
 PCOD9018801
Probable space group: P -1
;
_chemical_formula_sum "Si O2"
_cell_formula_units_Z 16
_cell_length_a 15.986357
_cell_length_b 12.909711
_cell_length_c 8.142238
_cell_angle_alpha 75.426707
_cell_angle_beta 75.327476
_cell_angle_gamma 25.343229
_cell_volume 694.771014
_symmetry_space_group_name_H-M "P -1"
_symmetry_group_IT_number 2
_symmetry_cell_setting 'triclinic'
loop_
_space_group_symop_operation_xyz
x,y,z
-x,-y,-z
loop_
_atom_site_type_symbol
_atom_site_label
_atom_site_fract_x
_atom_site_fract_y
_atom_site_fract_z
Si Si1 0.901281 0.349360 0.212603
Si Si2 0.027260 0.980158 0.192552
Si Si3 0.757457 0.100206 0.275875
Si Si4 0.899880 0.588897 0.691752
Si Si5 0.202089 0.124558 0.916474
Si Si6 0.401585 0.211988 0.046065
Si Si7 0.574036 0.388633 0.693761
Si Si8 0.772390 0.963666 0.640141
O O1 0.911545 0.214194 0.214284
O O2 0.993517 0.263564 0.380213
O O3 0.073924 0.229787 0.091791
O O4 0.709633 0.607846 0.121734
O O5 0.236607 0.764707 0.260069
O O6 0.935240 0.973202 0.304727
O O7 0.000000 0.000000 0.000000
O O8 0.600130 0.367784 0.209557
O O9 0.694414 0.086094 0.450938
O O10 0.809390 0.968652 0.151143
O O11 0.753177 0.653853 0.788989
O O12 0.000000 0.500000 0.500000
O O13 0.087159 0.353273 0.806167
O O14 0.773283 0.834821 0.697826
O O15 0.424870 0.908644 0.921447
O O16 0.500000 0.000000 0.000000
O O17 0.500000 0.500000 0.500000
O O18 0.640075 0.191254 0.727515
#
# Coordination Sequence:
#
# PCOD9018801 Si02
#       8
#     2   2   2   2   2   2   2   2
#     4  10  23  42  66  94 133 174 224 276 335 407
#     4  11  23  40  65  96 131 178 221 271 344 405
#     4  11  23  41  67  94 136 171 220 281 339 402
#     4  11  23  43  68  97 135 175 222 283 341 399
#     4  11  23  42  66  99 132 174 223 284 336 400
#     4  11  25  43  69 100 132 179 229 278 341 406
#     4   9  23  41  62  94 130 171 217 277 329 399
#     4  10  21  44  64  90 132 172 218 275 336 397
#
# _framework density 23.029171000000002
#
# number of rings (size 3 to 8) (size 9 to 14) (size 15 to 20)
#    0.000    1.500    2.500    1.500    1.750   10.500 
#    0.000    3.750    0.000    0.000    0.000    0.000 
#    0.000    0.000    0.000    0.000    0.000    0.000 
#
# Total GULP energy -89151.365775 kJ/mol
# GULP energy per Si atom -5571.960361 kJ/mol
# Density = 2.297676 g / cm^3
# Si number density = 23.029171 Si / 1000 Ang^3
#
#
#
# Elastic Constant Matrix: (Units=GPa)
#
#
# Indices 1 2 3 4 5 6 
#
# 1 97.8389 35.8812 15.7607 -5.8417 -4.9802 -11.6574
# 2 35.8812 122.8560 36.4207 -26.4228 -6.1094 -6.5916
# 3 15.7607 36.4207 56.7275 -22.3592 -12.6293 -2.7859
# 4 -5.8417 -26.4228 -22.3592 39.8934 1.3400 2.9400
# 5 -4.9802 -6.1094 -12.6293 1.3400 18.1899 -2.3368
# 6 -11.6574 -6.5916 -2.7859 2.9400 -2.3368 38.9036
#
#
#
# Elastic Compliance Matrix: (Units=1/GPa)
#
#
# Indices 1 2 3 4 5 6 
#
# 1 0.011971 -0.003146 -0.001265 -0.001336 0.001849 0.003176
# 2 -0.003146 0.011426 -0.004879 0.004376 -0.000699 0.000271
# 3 -0.001265 -0.004879 0.030301 0.012873 0.018244 0.001087
# 4 -0.001336 0.004376 0.012873 0.034806 0.007359 -0.000925
# 5 0.001849 -0.000699 0.018244 0.007359 0.068049 0.005273
# 6 0.003176 0.000271 0.001087 -0.000925 0.005273 0.027167
#
#
# Mechanical properties :
#
#
# Convention : Reuss Voigt Hill
#
# Bulk Modulus (GPa) = 28.47578 50.39418 39.43498
# Shear Modulus (GPa) = 23.36374 32.02136 27.69255
#
# Velocity S-wave (km/s) = 3.18862 3.73295 3.47147
# Velocity P-wave (km/s) = 5.09395 6.36476 5.76448
#
# Compressibility (1/GPa) = 0.03511756
#
# Stress axis : x y z
#
# Youngs Moduli (GPa) = 83.53348 87.52073 33.00183
#
# Poissons Ratio (x) = 0.27537 0.04175
# Poissons Ratio (y) = 0.26282 0.16102
# Poissons Ratio (z) = 0.10567 0.42702
#
# Static dielectric constant tensor:
#      x y z
#    x 1.935920 -0.118510 0.025160 
#    y -0.118510 2.010010 -0.028050 
#    z 0.025160 -0.028050 2.163450 
# 
# From -- ./inp_files/126850.got.cif
#   From: 2010.05.17/outbox.cif.g08.bks.cpg/sg2_64_cif.got.tgz:126850.got - 2010.06.03 11:33:40.
