data_PCOD9018239
_publ_section_title
;
Structure prediction by ZEFSAII (Michael W. Deem and Ramdas Pophale) SiO2 
 PCOD9018239
Probable space group: P -1
;
_chemical_formula_sum "Si O2"
_cell_formula_units_Z 12
_cell_length_a 9.295564
_cell_length_b 11.264828
_cell_length_c 5.058326
_cell_angle_alpha 115.871809
_cell_angle_beta 75.048787
_cell_angle_gamma 94.264125
_cell_volume 460.004759
_symmetry_space_group_name_H-M "P -1"
_symmetry_group_IT_number 2
_symmetry_cell_setting 'triclinic'
loop_
_space_group_symop_operation_xyz
x,y,z
-x,-y,-z
loop_
_atom_site_type_symbol
_atom_site_label
_atom_site_fract_x
_atom_site_fract_y
_atom_site_fract_z
Si Si1 0.060647 0.898422 0.088436
Si Si2 0.167421 0.237488 0.644263
Si Si3 0.403300 0.870876 0.917178
Si Si4 0.452330 0.255946 0.777569
Si Si5 0.942593 0.394111 0.222410
Si Si6 0.347299 0.452867 0.646477
O O1 0.232640 0.914863 0.084812
O O2 0.059392 0.753423 0.802060
O O3 0.956374 0.871290 0.369542
O O4 0.000000 0.000000 0.000000
O O5 0.296890 0.183599 0.733271
O O6 0.269849 0.313020 0.454521
O O7 0.066904 0.365509 0.911800
O O8 0.435328 0.795786 0.555040
O O9 0.463304 0.775938 0.028523
O O10 0.500000 0.000000 0.000000
O O11 0.390943 0.403689 0.874792
O O12 0.779499 0.434965 0.232708
O O13 0.000000 0.500000 0.500000
O O14 0.500000 0.500000 0.500000
#
# Coordination Sequence:
#
# PCOD9018239 Si02
#       6
#     2   2   2   2   2   2
#     4  10  23  46  72 107 153 202 257 313 389 459
#     4   8  22  41  70 100 153 188 254 302 392 434
#     4  12  25  48  76 109 153 203 259 314 385 465
#     4  10  25  45  72 110 149 196 255 320 382 456
#     4  10  22  43  72 108 148 198 254 320 378 459
#     4  10  21  43  69 105 146 194 251 313 378 449
#
# _framework density 26.086687000000001
#
# number of rings (size 3 to 8) (size 9 to 14) (size 15 to 20)
#    2.000    0.000    0.000    3.000    2.333    0.000 
#    6.000    5.833    0.000    0.000    0.000    0.000 
#    0.000    0.000    0.000    0.000    0.000    0.000 
#
# Total GULP energy -66934.104080 kJ/mol
# GULP energy per Si atom -5577.842007 kJ/mol
# Density = 2.602731 g / cm^3
# Si number density = 26.086687 Si / 1000 Ang^3
#
#
#
# Elastic Constant Matrix: (Units=GPa)
#
#
# Indices 1 2 3 4 5 6 
#
# 1 218.2301 93.8611 60.4353 -24.5006 -48.9848 -5.5027
# 2 93.8611 190.9227 27.4538 -17.2053 -4.8408 -4.8404
# 3 60.4353 27.4538 98.5342 -13.7870 -13.7571 -14.4360
# 4 -24.5006 -17.2053 -13.7870 34.7602 4.6025 -7.0345
# 5 -48.9848 -4.8408 -13.7571 4.6025 45.7986 -1.8066
# 6 -5.5027 -4.8404 -14.4360 -7.0345 -1.8066 71.6489
#
#
#
# Elastic Compliance Matrix: (Units=1/GPa)
#
#
# Indices 1 2 3 4 5 6 
#
# 1 0.009092 -0.003600 -0.003054 0.002386 0.008198 0.000281
# 2 -0.003600 0.007059 0.000033 0.001451 -0.003230 0.000268
# 3 -0.003054 0.000033 0.012957 0.003505 0.000385 0.002732
# 4 0.002386 0.001451 0.003505 0.033348 0.000576 0.004276
# 5 0.008198 -0.003230 0.000385 0.000576 0.030371 0.001311
# 6 0.000281 0.000268 0.002732 0.004276 0.001311 0.015000
#
#
# Mechanical properties :
#
#
# Convention : Reuss Voigt Hill
#
# Bulk Modulus (GPa) = 63.03179 96.79860 79.91520
# Shear Modulus (GPa) = 39.57061 52.17067 45.87064
#
# Velocity S-wave (km/s) = 3.89895 4.47687 4.19787
# Velocity P-wave (km/s) = 6.66963 7.99439 7.36187
#
# Compressibility (1/GPa) = 0.01586501
#
# Stress axis : x y z
#
# Youngs Moduli (GPa) = 109.99217 141.66895 77.17879
#
# Poissons Ratio (x) = 0.51008 0.23567
# Poissons Ratio (y) = 0.39602 -0.00254
# Poissons Ratio (z) = 0.33586 -0.00466
#
# Static dielectric constant tensor:
#      x y z
#    x 2.059170 0.078540 0.041100 
#    y 0.078540 2.167760 0.095610 
#    z 0.041100 0.095610 2.196580 
# 
# From -- ./inp_files/25452.got.cif
#   From: 2010.05.17/outbox.cif.g08.bks.cpg/sg2_13_cif.got.tgz:25452.got - 2010.06.03 11:33:40.
