data_PCOD9018097
_publ_section_title
;
Structure prediction by ZEFSAII (Michael W. Deem and Ramdas Pophale) SiO2 
 PCOD9018097
Probable space group: P -1
;
_chemical_formula_sum "Si O2"
_cell_formula_units_Z 16
_cell_length_a 9.396352
_cell_length_b 20.033133
_cell_length_c 11.615753
_cell_angle_alpha 45.710631
_cell_angle_beta 53.473702
_cell_angle_gamma 25.291978
_cell_volume 663.998953
_symmetry_space_group_name_H-M "P -1"
_symmetry_group_IT_number 2
_symmetry_cell_setting 'triclinic'
loop_
_space_group_symop_operation_xyz
x,y,z
-x,-y,-z
loop_
_atom_site_type_symbol
_atom_site_label
_atom_site_fract_x
_atom_site_fract_y
_atom_site_fract_z
Si Si1 0.931875 0.791034 0.435974
Si Si2 0.400463 0.238412 0.309989
Si Si3 0.157819 0.820666 0.948310
Si Si4 0.888920 0.902231 0.752081
Si Si5 0.584976 0.562057 0.490697
Si Si6 0.686283 0.607652 0.138660
Si Si7 0.541900 0.248823 0.476289
Si Si8 0.561694 0.075201 0.105712
O O1 0.214682 0.681457 0.527829
O O2 0.131290 0.642972 0.418739
O O3 0.635135 0.855210 0.540973
O O4 0.788697 0.946693 0.260220
O O5 0.730325 0.132177 0.221830
O O6 0.366396 0.303512 0.373065
O O7 0.077861 0.409853 0.183898
O O8 0.100233 0.783903 0.907817
O O9 0.456741 0.665045 0.080771
O O10 0.817931 0.973861 0.998988
O O11 0.133019 0.835476 0.617497
O O12 0.649061 0.099523 0.653615
O O13 0.679377 0.905229 0.818166
O O14 0.579541 0.618012 0.303560
O O15 0.641605 0.605972 0.516075
O O16 0.623723 0.745487 0.003305
#
# Coordination Sequence:
#
# PCOD9018097 Si02
#       8
#     2   2   2   2   2   2   2   2
#     4  10  22  41  66  96 128 165 226 264 313 379
#     4  10  23  46  66  94 129 175 214 264 320 387
#     4  11  23  42  67  91 135 172 207 265 330 383
#     4  10  23  41  64 100 127 171 213 269 319 382
#     4  10  22  42  66  95 128 174 214 269 317 382
#     4  11  24  41  66  97 133 169 214 261 334 382
#     4  10  21  43  68  92 132 167 219 265 322 375
#     4  12  23  43  63 100 131 166 218 266 322 384
#
# _framework density 24.096423999999999
#
# number of rings (size 3 to 8) (size 9 to 14) (size 15 to 20)
#    0.000    1.500    2.500    1.875    1.750    3.000 
#    6.750    2.500    0.000    0.000    0.000    0.000 
#    0.000    0.000    0.000    0.000    0.000    0.000 
#
# Total GULP energy -89541.942445 kJ/mol
# GULP energy per Si atom -5596.371403 kJ/mol
# Density = 2.404158 g / cm^3
# Si number density = 24.096424 Si / 1000 Ang^3
#
#
#
# Elastic Constant Matrix: (Units=GPa)
#
#
# Indices 1 2 3 4 5 6 
#
# 1 122.8466 33.6000 25.6853 -6.3374 13.7041 -3.9346
# 2 33.6000 36.7263 29.4709 7.7620 -6.1153 -6.5521
# 3 25.6853 29.4709 103.9282 -1.4167 0.3141 2.7825
# 4 -6.3374 7.7620 -1.4167 39.2671 -1.6492 -8.5730
# 5 13.7041 -6.1153 0.3141 -1.6492 38.1307 6.1388
# 6 -3.9346 -6.5521 2.7825 -8.5730 6.1388 45.3035
#
#
#
# Elastic Compliance Matrix: (Units=1/GPa)
#
#
# Indices 1 2 3 4 5 6 
#
# 1 0.013042 -0.014846 0.001054 0.004960 -0.006992 0.000807
# 2 -0.014846 0.056498 -0.012658 -0.012707 0.013398 0.003439
# 3 0.001054 -0.012658 0.013041 0.002672 -0.002119 -0.001747
# 4 0.004960 -0.012707 0.002672 0.029719 -0.003281 0.004497
# 5 -0.006992 0.013398 -0.002119 -0.003281 0.031311 -0.003403
# 6 0.000807 0.003439 -0.001747 0.004497 -0.003403 0.024060
#
#
# Mechanical properties :
#
#
# Convention : Reuss Voigt Hill
#
# Bulk Modulus (GPa) = 33.69230 49.00151 41.34690
# Shear Modulus (GPa) = 21.69519 36.18994 28.94257
#
# Velocity S-wave (km/s) = 3.00384 3.87961 3.46947
# Velocity P-wave (km/s) = 5.10327 6.35990 5.76592
#
# Compressibility (1/GPa) = 0.02968038
#
# Stress axis : x y z
#
# Youngs Moduli (GPa) = 76.67345 17.69968 76.68374
#
# Poissons Ratio (x) = 0.26278 -0.08081
# Poissons Ratio (y) = 1.13832 0.97065
# Poissons Ratio (z) = -0.08080 0.22404
#
# Static dielectric constant tensor:
#      x y z
#    x 1.928300 -0.016850 0.026390 
#    y -0.016850 1.972580 0.051820 
#    z 0.026390 0.051820 1.937130 
# 
# From -- ./inp_files/405380.got.cif
#   From: 2010.05.17/outbox.cif.g08.bks.cpg/sg2_203_cif.got.tgz:405380.got - 2010.06.03 11:33:40.
