data_PCOD9018371
_publ_section_title
;
Structure prediction by ZEFSAII (Michael W. Deem and Ramdas Pophale) SiO2 
 PCOD9018371
Probable space group: P -1
;
_chemical_formula_sum "Si O2"
_cell_formula_units_Z 16
_cell_length_a 7.665732
_cell_length_b 14.141317
_cell_length_c 11.428497
_cell_angle_alpha 43.176528
_cell_angle_beta 123.634233
_cell_angle_gamma 135.449779
_cell_volume 593.185016
_symmetry_space_group_name_H-M "P -1"
_symmetry_group_IT_number 2
_symmetry_cell_setting 'triclinic'
loop_
_space_group_symop_operation_xyz
x,y,z
-x,-y,-z
loop_
_atom_site_type_symbol
_atom_site_label
_atom_site_fract_x
_atom_site_fract_y
_atom_site_fract_z
Si Si1 0.273437 0.221728 0.411812
Si Si2 0.128888 0.298440 0.518428
Si Si3 0.656956 0.607551 0.232924
Si Si4 0.576082 0.057850 0.634633
Si Si5 0.501328 0.725639 0.865287
Si Si6 0.140761 0.917858 0.068562
Si Si7 0.957071 0.155649 0.142282
Si Si8 0.976392 0.470101 0.878320
O O1 0.194872 0.203434 0.535024
O O2 0.486476 0.416904 0.307192
O O3 0.409293 0.132565 0.500617
O O4 0.020901 0.155114 0.302979
O O5 0.302641 0.367977 0.634886
O O6 0.850263 0.176724 0.574258
O O7 0.134124 0.441757 0.314377
O O8 0.940207 0.719967 0.187140
O O9 0.525314 0.687387 0.044471
O O10 0.532757 0.122604 0.293779
O O11 0.626640 0.042150 0.804026
O O12 0.759052 0.772121 0.862435
O O13 0.268434 0.568771 0.862485
O O14 0.190587 0.968727 0.906527
O O15 0.000000 0.000000 0.000000
O O16 0.869813 0.282290 0.986068
O O17 0.000000 0.500000 0.000000
#
# Coordination Sequence:
#
# PCOD9018371 Si02
#       8
#     2   2   2   2   2   2   2   2
#     4  12  25  46  68 111 139 184 240 291 353 415
#     4  11  26  44  69 104 149 179 238 294 348 415
#     4  10  22  42  74  97 144 184 231 298 343 413
#     4  11  26  47  73 100 144 191 231 288 359 418
#     4  11  23  47  72  99 138 186 235 286 353 424
#     4  10  21  43  70 103 135 184 237 285 350 422
#     4  11  23  40  75  98 138 183 233 291 348 413
#     4  12  24  44  69 107 140 184 233 292 355 416
#
# _framework density 26.973034999999999
#
# number of rings (size 3 to 8) (size 9 to 14) (size 15 to 20)
#    0.000    1.000    5.000    1.500    7.000    3.000 
#    2.250    1.875    0.000    0.000    0.000    0.000 
#    0.000    0.000    0.000    0.000    0.000    0.000 
#
# Total GULP energy -89631.360778 kJ/mol
# GULP energy per Si atom -5601.960049 kJ/mol
# Density = 2.691164 g / cm^3
# Si number density = 26.973035 Si / 1000 Ang^3
#
#
#
# Elastic Constant Matrix: (Units=GPa)
#
#
# Indices 1 2 3 4 5 6 
#
# 1 98.9783 20.0658 27.4067 -10.6774 -20.6018 -20.2790
# 2 20.0658 118.5003 51.8925 3.8743 -11.3328 -13.0277
# 3 27.4067 51.8925 166.2472 9.4648 -21.7449 -23.3055
# 4 -10.6774 3.8743 9.4648 58.4952 -8.4762 -1.9015
# 5 -20.6018 -11.3328 -21.7449 -8.4762 39.8714 3.4672
# 6 -20.2790 -13.0277 -23.3055 -1.9015 3.4672 53.8490
#
#
#
# Elastic Compliance Matrix: (Units=1/GPa)
#
#
# Indices 1 2 3 4 5 6 
#
# 1 0.013075 -0.000981 -0.000621 0.003636 0.006553 0.004124
# 2 -0.000981 0.009965 -0.002727 -0.000269 0.000711 0.000806
# 3 -0.000621 -0.002727 0.007681 -0.000705 0.002749 0.002229
# 4 0.003636 -0.000269 -0.000705 0.018699 0.005278 0.001320
# 5 0.006553 0.000711 0.002749 0.005278 0.031115 0.002013
# 6 0.004124 0.000806 0.002229 0.001320 0.002013 0.021200
#
#
# Mechanical properties :
#
#
# Convention : Reuss Voigt Hill
#
# Bulk Modulus (GPa) = 45.32660 64.71732 55.02196
# Shear Modulus (GPa) = 42.46382 49.40052 45.93217
#
# Velocity S-wave (km/s) = 3.97206 4.28422 4.13109
# Velocity P-wave (km/s) = 6.15445 6.96550 6.57249
#
# Compressibility (1/GPa) = 0.02206210
#
# Stress axis : x y z
#
# Youngs Moduli (GPa) = 76.48075 100.35532 130.19102
#
# Poissons Ratio (x) = 0.09843 0.08086
# Poissons Ratio (y) = 0.07502 0.35509
# Poissons Ratio (z) = 0.04750 0.27371
#
# Static dielectric constant tensor:
#      x y z
#    x 2.202840 0.040960 -0.157220 
#    y 0.040960 2.089250 -0.014090 
#    z -0.157220 -0.014090 2.181870 
# 
# From -- ./inp_files/397139.got.cif
#   From: 2010.05.17/outbox.cif.g08.bks.cpg/sg2_199_cif.got.tgz:397139.got - 2010.06.03 11:33:40.
