data_PCOD9018165
_publ_section_title
;
Structure prediction by ZEFSAII (Michael W. Deem and Ramdas Pophale) SiO2 
 PCOD9018165
Probable space group: P -1
;
_chemical_formula_sum "Si O2"
_cell_formula_units_Z 16
_cell_length_a 7.784770
_cell_length_b 15.184776
_cell_length_c 12.230839
_cell_angle_alpha 138.643236
_cell_angle_beta 100.504885
_cell_angle_gamma 108.849473
_cell_volume 663.393329
_symmetry_space_group_name_H-M "P -1"
_symmetry_group_IT_number 2
_symmetry_cell_setting 'triclinic'
loop_
_space_group_symop_operation_xyz
x,y,z
-x,-y,-z
loop_
_atom_site_type_symbol
_atom_site_label
_atom_site_fract_x
_atom_site_fract_y
_atom_site_fract_z
Si Si1 0.241481 0.702562 0.673436
Si Si2 0.928203 0.843784 0.259027
Si Si3 0.011489 0.005540 0.181533
Si Si4 0.358353 0.586326 0.932765
Si Si5 0.482576 0.119258 0.940038
Si Si6 0.172681 0.755718 0.467591
Si Si7 0.338338 0.284110 0.301295
Si Si8 0.731902 0.224679 0.730723
O O1 0.196921 0.716246 0.556348
O O2 0.474696 0.731144 0.723307
O O3 0.000000 0.500000 0.500000
O O4 0.336729 0.849032 0.920393
O O5 0.629022 0.672617 0.065361
O O6 0.045690 0.761992 0.215055
O O7 0.000000 0.000000 0.500000
O O8 0.024597 0.945640 0.245686
O O9 0.243699 0.202761 0.336727
O O10 0.792373 0.994852 0.156551
O O11 0.898753 0.844791 0.926937
O O12 0.389657 0.681334 0.909477
O O13 0.299246 0.670530 0.092143
O O14 0.117033 0.362093 0.689099
O O15 0.397787 0.982478 0.702026
O O16 0.233412 0.698526 0.316520
O O17 0.500000 0.500000 0.500000
O O18 0.500000 0.000000 0.500000
#
# Coordination Sequence:
#
# PCOD9018165 Si02
#       8
#     2   2   2   2   2   2   2   2
#     4  11  24  42  68 101 134 174 224 273 335 412
#     4  11  23  44  72 100 135 183 225 280 343 400
#     4   9  22  41  66  97 133 172 223 271 335 401
#     4  11  24  45  69 100 139 173 234 281 333 409
#     4  10  21  43  68  97 133 180 218 277 337 405
#     4  12  25  43  70  97 136 182 220 282 342 393
#     4  10  23  42  65  97 134 171 217 276 333 398
#     4  12  24  44  70 101 140 179 229 284 334 403
#
# _framework density 24.118424000000001
#
# number of rings (size 3 to 8) (size 9 to 14) (size 15 to 20)
#    0.000    1.250    3.750    1.500    3.500    1.500 
#    2.250    1.250    0.000    0.000    0.000    0.000 
#    0.000    0.000    0.000    0.000    0.000    0.000 
#
# Total GULP energy -89296.863796 kJ/mol
# GULP energy per Si atom -5581.053987 kJ/mol
# Density = 2.406353 g / cm^3
# Si number density = 24.118424 Si / 1000 Ang^3
#
#
#
# Elastic Constant Matrix: (Units=GPa)
#
#
# Indices 1 2 3 4 5 6 
#
# 1 91.3874 23.1657 28.4953 -18.8323 8.6222 7.8003
# 2 23.1657 152.5817 50.3303 -6.5269 6.1065 20.3689
# 3 28.4953 50.3303 120.5252 -1.7025 18.9209 2.6570
# 4 -18.8323 -6.5269 -1.7025 39.2642 -0.9169 -2.1826
# 5 8.6222 6.1065 18.9209 -0.9169 26.3719 0.9154
# 6 7.8003 20.3689 2.6570 -2.1826 0.9154 32.1180
#
#
#
# Elastic Compliance Matrix: (Units=1/GPa)
#
#
# Indices 1 2 3 4 5 6 
#
# 1 0.013518 -0.000592 -0.002464 0.006103 -0.002225 -0.002225
# 2 -0.000592 0.008410 -0.003391 0.000716 0.000874 -0.004886
# 3 -0.002464 -0.003391 0.011273 -0.001305 -0.006609 0.001916
# 4 0.006103 0.000716 -0.001305 0.028459 -0.000240 0.000113
# 5 -0.002225 0.000874 -0.006609 -0.000240 0.043202 -0.000715
# 6 -0.002225 -0.004886 0.001916 0.000113 -0.000715 0.034644
#
#
# Mechanical properties :
#
#
# Convention : Reuss Voigt Hill
#
# Bulk Modulus (GPa) = 49.24767 63.16411 56.20589
# Shear Modulus (GPa) = 31.41289 37.05102 34.23195
#
# Velocity S-wave (km/s) = 3.61285 3.92371 3.77148
# Velocity P-wave (km/s) = 6.15362 6.83910 6.50540
#
# Compressibility (1/GPa) = 0.02030553
#
# Stress axis : x y z
#
# Youngs Moduli (GPa) = 73.97292 118.90135 88.71050
#
# Poissons Ratio (x) = 0.07044 0.21859
# Poissons Ratio (y) = 0.04382 0.30085
# Poissons Ratio (z) = 0.18228 0.40324
#
# Static dielectric constant tensor:
#      x y z
#    x 1.959910 0.017320 -0.122270 
#    y 0.017320 2.044140 -0.122230 
#    z -0.122270 -0.122230 2.210280 
# 
# From -- ./inp_files/402227.got.cif
#   From: 2010.05.17/outbox.cif.g08.bks.cpg/sg2_202_cif.got.tgz:402227.got - 2010.06.03 11:33:40.
