data_PCOD9018798
_publ_section_title
;
Structure prediction by ZEFSAII (Michael W. Deem and Ramdas Pophale) SiO2 
 PCOD9018798
Probable space group: P -1
;
_chemical_formula_sum "Si O2"
_cell_formula_units_Z 16
_cell_length_a 8.171287
_cell_length_b 5.558785
_cell_length_c 23.593290
_cell_angle_alpha 73.932583
_cell_angle_beta 129.027871
_cell_angle_gamma 122.003349
_cell_volume 703.340881
_symmetry_space_group_name_H-M "P -1"
_symmetry_group_IT_number 2
_symmetry_cell_setting 'triclinic'
loop_
_space_group_symop_operation_xyz
x,y,z
-x,-y,-z
loop_
_atom_site_type_symbol
_atom_site_label
_atom_site_fract_x
_atom_site_fract_y
_atom_site_fract_z
Si Si1 0.381729 0.715983 0.529070
Si Si2 0.920353 0.208907 0.439754
Si Si3 0.753219 0.094753 0.937760
Si Si4 0.456446 0.339012 0.160434
Si Si5 0.768009 0.954624 0.178528
Si Si6 0.991724 0.341550 0.093074
Si Si7 0.735062 0.696307 0.693914
Si Si8 0.539943 0.030876 0.715000
O O1 0.230137 0.728108 0.549283
O O2 0.586314 0.660363 0.605910
O O3 0.172736 0.475612 0.461321
O O4 0.500000 0.000000 0.500000
O O5 0.730343 0.068549 0.357996
O O6 0.000000 0.000000 0.500000
O O7 0.496713 0.081238 0.874273
O O8 0.950894 0.331770 0.923744
O O9 0.681797 0.782184 0.921008
O O10 0.843663 0.179921 0.015372
O O11 0.703523 0.622934 0.185387
O O12 0.258121 0.381078 0.148440
O O13 0.477427 0.103737 0.218377
O O14 0.868783 0.149609 0.132337
O O15 0.977070 0.117273 0.259150
O O16 0.672286 0.375379 0.720218
O O17 0.653991 0.879196 0.707637
#
# Coordination Sequence:
#
# PCOD9018798 Si02
#       8
#     2   2   2   2   2   2   2   2
#     4  10  23  42  67  98 133 173 224 274 329 391
#     4  10  21  44  65  95 129 176 221 270 328 389
#     4  10  23  40  66  94 123 175 219 274 330 401
#     4  11  24  39  63  97 125 175 221 270 334 395
#     4  11  24  39  62  97 131 168 225 269 336 393
#     4  10  21  44  64  88 133 167 218 277 333 394
#     4  11  24  45  68  97 137 182 216 275 337 393
#     4  11  24  44  71  92 140 180 220 273 335 395
#
# _framework density 22.748570000000001
#
# number of rings (size 3 to 8) (size 9 to 14) (size 15 to 20)
#    0.000    1.500    2.500    1.500    5.250    2.000 
#    2.250    0.000    0.000    0.000    0.000    0.000 
#    0.000    0.000    0.000    0.000    0.000    0.000 
#
# Total GULP energy -89207.018366 kJ/mol
# GULP energy per Si atom -5575.438648 kJ/mol
# Density = 2.269679 g / cm^3
# Si number density = 22.748570 Si / 1000 Ang^3
#
#
#
# Elastic Constant Matrix: (Units=GPa)
#
#
# Indices 1 2 3 4 5 6 
#
# 1 42.5564 31.9576 24.7934 -1.3096 11.3444 15.2022
# 2 31.9576 170.3770 48.9479 20.0193 13.6673 29.2842
# 3 24.7934 48.9479 119.1234 13.2209 30.8032 11.8831
# 4 -1.3096 20.0193 13.2209 39.6729 -1.3184 4.8097
# 5 11.3444 13.6673 30.8032 -1.3184 32.1064 0.0896
# 6 15.2022 29.2842 11.8831 4.8097 0.0896 35.5715
#
#
#
# Elastic Compliance Matrix: (Units=1/GPa)
#
#
# Indices 1 2 3 4 5 6 
#
# 1 0.034160 -0.003570 -0.003223 0.005128 -0.007216 -0.011258
# 2 -0.003570 0.008174 -0.001641 -0.003210 -0.000764 -0.004219
# 3 -0.003223 -0.001641 0.013091 -0.003870 -0.010878 -0.001094
# 4 0.005128 -0.003210 -0.003870 0.028693 0.004451 -0.002147
# 5 -0.007216 -0.000764 -0.010878 0.004451 0.044622 0.006633
# 6 -0.011258 -0.004219 -0.001094 -0.002147 0.006633 0.037037
#
#
# Mechanical properties :
#
#
# Convention : Reuss Voigt Hill
#
# Bulk Modulus (GPa) = 25.93542 60.38385 43.15964
# Shear Modulus (GPa) = 25.57567 36.56070 31.06819
#
# Velocity S-wave (km/s) = 3.35666 4.01330 3.69957
# Velocity P-wave (km/s) = 5.14281 6.93376 6.10433
#
# Compressibility (1/GPa) = 0.03855730
#
# Stress axis : x y z
#
# Youngs Moduli (GPa) = 29.27388 122.33822 76.38591
#
# Poissons Ratio (x) = 0.43676 0.24619
# Poissons Ratio (y) = 0.10451 0.12536
# Poissons Ratio (z) = 0.09435 0.20077
#
# Static dielectric constant tensor:
#      x y z
#    x 1.873260 -0.058550 0.103210 
#    y -0.058550 1.902370 -0.090950 
#    z 0.103210 -0.090950 1.755860 
# 
# From -- ./inp_files/11094.got.cif
#   From: 2010.05.17/outbox.cif.g08.bks.cpg/sg2_6_cif.got.tgz:11094.got - 2010.06.03 11:33:40.
