data_PCOD9018295
_publ_section_title
;
Structure prediction by ZEFSAII (Michael W. Deem and Ramdas Pophale) SiO2 
 PCOD9018295
Probable space group: P -1
;
_chemical_formula_sum "Si O2"
_cell_formula_units_Z 16
_cell_length_a 11.383107
_cell_length_b 9.374697
_cell_length_c 14.333081
_cell_angle_alpha 67.974261
_cell_angle_beta 29.900802
_cell_angle_gamma 73.281314
_cell_volume 704.498880
_symmetry_space_group_name_H-M "P -1"
_symmetry_group_IT_number 2
_symmetry_cell_setting 'triclinic'
loop_
_space_group_symop_operation_xyz
x,y,z
-x,-y,-z
loop_
_atom_site_type_symbol
_atom_site_label
_atom_site_fract_x
_atom_site_fract_y
_atom_site_fract_z
Si Si1 0.140332 0.914276 0.221700
Si Si2 0.362185 0.022308 0.221319
Si Si3 0.630326 0.985349 0.559094
Si Si4 0.730857 0.520075 0.205911
Si Si5 0.593378 0.719461 0.406463
Si Si6 0.276559 0.377176 0.210604
Si Si7 0.472721 0.646483 0.780611
Si Si8 0.953105 0.370692 0.773536
O O1 0.115034 0.744403 0.236371
O O2 0.903570 0.993207 0.339571
O O3 0.182548 0.921867 0.302326
O O4 0.375201 0.996139 0.993431
O O5 0.359889 0.991970 0.340430
O O6 0.310545 0.203116 0.198103
O O7 0.516362 0.812654 0.662475
O O8 0.475659 0.107692 0.588656
O O9 0.679566 0.676161 0.254439
O O10 0.636354 0.389549 0.377637
O O11 0.582851 0.487029 0.222102
O O12 0.000000 0.500000 0.000000
O O13 0.803927 0.674884 0.339270
O O14 0.299773 0.373298 0.307141
O O15 0.057149 0.454455 0.298017
O O16 0.500000 0.500000 0.000000
O O17 0.246897 0.654803 0.002088
#
# Coordination Sequence:
#
# PCOD9018295 Si02
#       8
#     2   2   2   2   2   2   2   2
#     4  11  22  39  67  95 133 176 213 274 331 383
#     4  10  22  42  65 100 132 170 221 274 331 388
#     4  11  24  45  64 100 139 173 223 266 329 400
#     4  11  24  47  67  94 133 173 224 273 327 391
#     4  11  27  44  68  98 134 176 222 272 324 400
#     4   9  18  39  68  93 129 168 215 276 323 386
#     4  10  21  43  69  96 131 172 219 275 331 390
#     4  11  21  43  67  97 132 175 222 268 329 393
#
# _framework density 22.711178
#
# number of rings (size 3 to 8) (size 9 to 14) (size 15 to 20)
#    0.000    1.500    5.000    1.125    0.000    6.500 
#    2.250    5.625    0.000    0.000    0.000    0.000 
#    0.000    0.000    0.000    0.000    0.000    0.000 
#
# Total GULP energy -89456.498045 kJ/mol
# GULP energy per Si atom -5591.031128 kJ/mol
# Density = 2.265949 g / cm^3
# Si number density = 22.711178 Si / 1000 Ang^3
#
#
#
# Elastic Constant Matrix: (Units=GPa)
#
#
# Indices 1 2 3 4 5 6 
#
# 1 100.2282 58.4707 25.1789 19.4156 -5.6491 2.5640
# 2 58.4707 95.6929 23.0954 15.8140 -4.1421 -22.2615
# 3 25.1789 23.0954 110.3291 21.6421 -10.1690 -12.8526
# 4 19.4156 15.8140 21.6421 25.2231 0.7163 -0.1784
# 5 -5.6491 -4.1421 -10.1690 0.7163 28.3271 13.8530
# 6 2.5640 -22.2615 -12.8526 -0.1784 13.8530 54.1270
#
#
#
# Elastic Compliance Matrix: (Units=1/GPa)
#
#
# Indices 1 2 3 4 5 6 
#
# 1 0.018745 -0.011609 -0.000904 -0.006581 0.005449 -0.007294
# 2 -0.011609 0.020276 -0.000145 -0.003464 -0.004160 0.009908
# 3 -0.000904 -0.000145 0.011644 -0.009284 0.003297 0.001874
# 4 -0.006581 -0.003464 -0.009284 0.055001 -0.005726 -0.001671
# 5 0.005449 -0.004160 0.003297 -0.005726 0.043091 -0.012234
# 6 -0.007294 0.009908 0.001874 -0.001671 -0.012234 0.026466
#
#
# Mechanical properties :
#
#
# Convention : Reuss Voigt Hill
#
# Bulk Modulus (GPa) = 39.44952 57.74894 48.59923
# Shear Modulus (GPa) = 23.92478 34.83579 29.38028
#
# Velocity S-wave (km/s) = 3.24919 3.92070 3.60063
# Velocity P-wave (km/s) = 5.61107 6.78075 6.22345
#
# Compressibility (1/GPa) = 0.02534885
#
# Stress axis : x y z
#
# Youngs Moduli (GPa) = 53.34650 49.32047 85.88252
#
# Poissons Ratio (x) = 0.57256 0.07766
# Poissons Ratio (y) = 0.61929 0.01244
# Poissons Ratio (z) = 0.04824 0.00714
#
# Static dielectric constant tensor:
#      x y z
#    x 1.888230 0.028090 0.004630 
#    y 0.028090 1.831110 -0.008010 
#    z 0.004630 -0.008010 1.889710 
# 
# From -- ./inp_files/515282.got.cif
#   From: 2010.05.17/outbox.cif.g08.bks.cpg/sg2_258_cif.got.tgz:515282.got - 2010.06.03 11:33:40.
