data_PCOD9018286
_publ_section_title
;
Structure prediction by ZEFSAII (Michael W. Deem and Ramdas Pophale) SiO2 
 PCOD9018286
Probable space group: P -1
;
_chemical_formula_sum "Si O2"
_cell_formula_units_Z 14
_cell_length_a 11.839918
_cell_length_b 9.960754
_cell_length_c 8.989097
_cell_angle_alpha 46.017321
_cell_angle_beta 66.164029
_cell_angle_gamma 58.397594
_cell_volume 648.290706
_symmetry_space_group_name_H-M "P -1"
_symmetry_group_IT_number 2
_symmetry_cell_setting 'triclinic'
loop_
_space_group_symop_operation_xyz
x,y,z
-x,-y,-z
loop_
_atom_site_type_symbol
_atom_site_label
_atom_site_fract_x
_atom_site_fract_y
_atom_site_fract_z
Si Si1 0.211658 0.900960 0.026147
Si Si2 0.119148 0.486280 0.055129
Si Si3 0.367506 0.524240 0.730656
Si Si4 0.989215 0.306158 0.738270
Si Si5 0.424673 0.758163 0.778450
Si Si6 0.399327 0.831891 0.248743
Si Si7 0.650713 0.878214 0.682685
O O1 0.113880 0.784265 0.209316
O O2 0.293121 0.929831 0.101765
O O3 0.319293 0.766959 0.953729
O O4 0.125875 0.115008 0.833191
O O5 0.064316 0.627194 0.117724
O O6 0.200704 0.264902 0.247582
O O7 0.229160 0.535256 0.863698
O O8 0.000000 0.500000 0.000000
O O9 0.441933 0.593988 0.769305
O O10 0.349894 0.679606 0.486246
O O11 0.460363 0.307762 0.787668
O O12 0.000000 0.500000 0.500000
O O13 0.562440 0.751177 0.779851
O O14 0.361871 0.969214 0.561581
O O15 0.410921 0.988164 0.242739
#
# Coordination Sequence:
#
# PCOD9018286 Si02
#       7
#     2   2   2   2   2   2   2
#     4  11  23  43  69  94 133 183 222 280 337 401
#     4  12  25  41  64  96 133 176 220 273 334 410
#     4  10  23  43  66  97 134 173 220 272 342 394
#     4  11  26  44  64  99 135 178 230 274 336 406
#     4  10  21  43  69  95 129 170 228 280 332 400
#     4  10  23  43  66  99 132 173 221 282 336 395
#     4  10  23  41  67  99 130 172 222 281 336 396
#
# _framework density 21.595251000000001
#
# number of rings (size 3 to 8) (size 9 to 14) (size 15 to 20)
#    0.000    1.429    1.429    2.571    4.000    4.571 
#    2.571    2.143    0.000    0.000    0.000    0.000 
#    0.000    0.000    0.000    0.000    0.000    0.000 
#
# Total GULP energy -78333.438091 kJ/mol
# GULP energy per Si atom -5595.245578 kJ/mol
# Density = 2.154610 g / cm^3
# Si number density = 21.595251 Si / 1000 Ang^3
#
#
#
# Elastic Constant Matrix: (Units=GPa)
#
#
# Indices 1 2 3 4 5 6 
#
# 1 128.4278 28.2433 28.0121 5.0211 17.8583 4.0730
# 2 28.2433 83.9816 -14.2976 13.4948 7.9556 -8.1858
# 3 28.0121 -14.2976 110.0771 -8.0389 -1.8557 -13.0837
# 4 5.0211 13.4948 -8.0389 40.6013 -4.2720 4.4674
# 5 17.8583 7.9556 -1.8557 -4.2720 30.5171 -0.4417
# 6 4.0730 -8.1858 -13.0837 4.4674 -0.4417 30.1762
#
#
#
# Elastic Compliance Matrix: (Units=1/GPa)
#
#
# Indices 1 2 3 4 5 6 
#
# 1 0.010388 -0.003871 -0.003783 -0.000879 -0.005481 -0.004043
# 2 -0.003871 0.015467 0.003415 -0.004972 -0.002155 0.006903
# 3 -0.003783 0.003415 0.011352 0.001134 0.002263 0.006224
# 4 -0.000879 -0.004972 0.001134 0.027739 0.005694 -0.004762
# 5 -0.005481 -0.002155 0.002263 0.005694 0.037485 0.000842
# 6 -0.004043 0.006903 0.006224 -0.004762 0.000842 0.038973
#
#
# Mechanical properties :
#
#
# Convention : Reuss Voigt Hill
#
# Bulk Modulus (GPa) = 34.81000 45.15577 39.98289
# Shear Modulus (GPa) = 31.35645 38.96082 35.15863
#
# Velocity S-wave (km/s) = 3.81465 4.25212 4.03932
# Velocity P-wave (km/s) = 5.96292 6.71289 6.34899
#
# Compressibility (1/GPa) = 0.02872737
#
# Stress axis : x y z
#
# Youngs Moduli (GPa) = 96.26715 64.65518 88.09305
#
# Poissons Ratio (x) = 0.25029 0.33329
# Poissons Ratio (y) = 0.37266 -0.30085
# Poissons Ratio (z) = 0.36421 -0.22081
#
# Static dielectric constant tensor:
#      x y z
#    x 1.749080 -0.000280 -0.011020 
#    y -0.000280 1.765640 -0.021730 
#    z -0.011020 -0.021730 1.824930 
# 
# From -- ./inp_files/241934.got.cif
#   From: 2010.05.17/outbox.cif.g08.bks.cpg/sg2_121_cif.got.tgz:241934.got - 2010.06.03 11:33:40.
