data_PCOD9018572
_publ_section_title
;
Structure prediction by ZEFSAII (Michael W. Deem and Ramdas Pophale) SiO2 
 PCOD9018572
Probable space group: P -1
;
_chemical_formula_sum "Si O2"
_cell_formula_units_Z 16
_cell_length_a 13.899290
_cell_length_b 8.107421
_cell_length_c 19.946407
_cell_angle_alpha 48.820681
_cell_angle_beta 23.586638
_cell_angle_gamma 61.191582
_cell_volume 619.364620
_symmetry_space_group_name_H-M "P -1"
_symmetry_group_IT_number 2
_symmetry_cell_setting 'triclinic'
loop_
_space_group_symop_operation_xyz
x,y,z
-x,-y,-z
loop_
_atom_site_type_symbol
_atom_site_label
_atom_site_fract_x
_atom_site_fract_y
_atom_site_fract_z
Si Si1 0.224919 0.013425 0.691093
Si Si2 0.715332 0.750180 0.766990
Si Si3 0.164034 0.417741 0.718747
Si Si4 0.780912 0.701332 0.503913
Si Si5 0.275644 0.734658 0.439509
Si Si6 0.267005 0.034234 0.174815
Si Si7 0.378249 0.565373 0.908841
Si Si8 0.831568 0.811278 0.099644
O O1 0.143198 0.074117 0.654831
O O2 0.208483 0.225077 0.692893
O O3 0.500000 0.000000 0.500000
O O4 0.020829 0.795921 0.923497
O O5 0.674384 0.941586 0.789983
O O6 0.615144 0.735896 0.759828
O O7 0.013828 0.786272 0.580291
O O8 0.500000 0.500000 0.000000
O O9 0.243316 0.654923 0.560105
O O10 0.285229 0.420404 0.714484
O O11 0.863598 0.364445 0.943438
O O12 0.781637 0.485229 0.516504
O O13 0.502241 0.615429 0.742371
O O14 0.008247 0.801932 0.386513
O O15 0.596293 0.861991 0.201561
O O16 0.285457 0.289832 0.066128
O O17 0.500000 0.000000 0.000000
O O18 0.000000 0.000000 0.000000
#
# Coordination Sequence:
#
# PCOD9018572 Si02
#       8
#     2   2   2   2   2   2   2   2
#     4  10  23  44  68 100 142 183 239 303 358 427
#     4  10  21  43  74 102 143 189 237 294 357 437
#     4  10  21  43  72 100 142 188 241 297 359 433
#     4  11  26  44  67 107 143 189 239 300 363 423
#     4  11  22  43  73 104 145 193 238 298 364 433
#     4  11  25  42  70 104 146 185 240 300 354 433
#     4  11  24  47  73 104 146 195 242 291 369 437
#     4  10  23  43  71 106 142 189 246 298 360 437
#
# _framework density 25.832924999999999
#
# number of rings (size 3 to 8) (size 9 to 14) (size 15 to 20)
#    0.000    1.500    2.500    2.625    3.500    6.500 
#    4.500    3.125    0.000    0.000    0.000    0.000 
#    0.000    0.000    0.000    0.000    0.000    0.000 
#
# Total GULP energy -89295.250039 kJ/mol
# GULP energy per Si atom -5580.953127 kJ/mol
# Density = 2.577413 g / cm^3
# Si number density = 25.832925 Si / 1000 Ang^3
#
#
#
# Elastic Constant Matrix: (Units=GPa)
#
#
# Indices 1 2 3 4 5 6 
#
# 1 91.1542 30.9980 38.9754 22.5976 -4.1498 0.3985
# 2 30.9980 96.2822 48.4413 28.6319 -21.7542 6.2376
# 3 38.9754 48.4413 149.5898 40.3103 -3.9846 15.8801
# 4 22.5976 28.6319 40.3103 56.2369 6.3139 -7.0746
# 5 -4.1498 -21.7542 -3.9846 6.3139 68.2738 7.8623
# 6 0.3985 6.2376 15.8801 -7.0746 7.8623 34.8698
#
#
#
# Elastic Compliance Matrix: (Units=1/GPa)
#
#
# Indices 1 2 3 4 5 6 
#
# 1 0.013334 -0.002562 -0.002049 -0.002496 0.000022 0.000728
# 2 -0.002562 0.015911 -0.001964 -0.006923 0.005978 -0.004675
# 3 -0.002049 -0.001964 0.010213 -0.006353 0.001103 -0.005814
# 4 -0.002496 -0.006923 -0.006353 0.029078 -0.006751 0.011582
# 5 0.000022 0.005978 0.001103 -0.006751 0.018049 -0.007011
# 6 0.000728 -0.004675 -0.005814 0.011582 -0.007011 0.036085
#
#
# Mechanical properties :
#
#
# Convention : Reuss Voigt Hill
#
# Bulk Modulus (GPa) = 38.00908 63.76171 50.88540
# Shear Modulus (GPa) = 34.58049 46.45021 40.51535
#
# Velocity S-wave (km/s) = 3.66269 4.24500 3.96455
# Velocity P-wave (km/s) = 5.71248 6.98303 6.37946
#
# Compressibility (1/GPa) = 0.02630950
#
# Stress axis : x y z
#
# Youngs Moduli (GPa) = 74.99482 62.84781 97.91289
#
# Poissons Ratio (x) = 0.16104 0.20058
# Poissons Ratio (y) = 0.19216 0.19229
# Poissons Ratio (z) = 0.15363 0.12342
#
# Static dielectric constant tensor:
#      x y z
#    x 2.116930 -0.176420 0.080930 
#    y -0.176420 2.209720 -0.138360 
#    z 0.080930 -0.138360 2.127530 
# 
# From -- ./inp_files/597342.got.cif
#   From: 2010.05.17/outbox.cif.g08.bks.cpg/sg2_299_cif.got.tgz:597342.got - 2010.06.03 11:33:40.
