data_PCOD9018162
_publ_section_title
;
Structure prediction by ZEFSAII (Michael W. Deem and Ramdas Pophale) SiO2 
 PCOD9018162
Probable space group: P -1
;
_chemical_formula_sum "Si O2"
_cell_formula_units_Z 16
_cell_length_a 8.434793
_cell_length_b 8.411223
_cell_length_c 12.304189
_cell_angle_alpha 88.302929
_cell_angle_beta 98.681271
_cell_angle_gamma 59.057713
_cell_volume 734.191719
_symmetry_space_group_name_H-M "P -1"
_symmetry_group_IT_number 2
_symmetry_cell_setting 'triclinic'
loop_
_space_group_symop_operation_xyz
x,y,z
-x,-y,-z
loop_
_atom_site_type_symbol
_atom_site_label
_atom_site_fract_x
_atom_site_fract_y
_atom_site_fract_z
Si Si1 0.455134 0.353197 0.443166
Si Si2 0.849239 0.149982 0.396528
Si Si3 0.703816 0.422563 0.778392
Si Si4 0.221870 0.406943 0.011743
Si Si5 0.182709 0.452125 0.585845
Si Si6 0.260442 0.023358 0.050524
Si Si7 0.035464 0.990326 0.835021
Si Si8 0.609169 0.654044 0.189567
O O1 0.500000 0.500000 0.500000
O O2 0.644755 0.191641 0.411708
O O3 0.303317 0.467149 0.331624
O O4 0.358473 0.309626 0.530981
O O5 0.839591 0.345764 0.405293
O O6 0.896335 0.087932 0.277046
O O7 0.000000 0.000000 0.500000
O O8 0.510607 0.421335 0.761746
O O9 0.882909 0.213130 0.804285
O O10 0.705281 0.528657 0.882586
O O11 0.284149 0.455798 0.905287
O O12 0.294561 0.188863 0.026093
O O13 0.000000 0.500000 0.000000
O O14 0.235331 0.358957 0.711743
O O15 0.000000 0.500000 0.500000
O O16 0.444265 0.856493 0.129546
O O17 0.198777 0.962324 0.935487
O O18 0.084293 0.084619 0.113614
#
# Coordination Sequence:
#
# PCOD9018162 Si02
#       8
#     2   2   2   2   2   2   2   2
#     4  10  21  43  68  97 126 171 226 267 332 396
#     4  11  24  41  73 100 131 174 227 273 332 412
#     4  11  22  43  73  93 136 179 221 276 324 416
#     4  12  26  41  66 103 134 171 227 276 339 382
#     4  11  26  46  70  98 135 175 224 284 336 393
#     4  10  24  43  65  98 140 174 219 280 326 406
#     4  10  22  41  69  99 135 177 221 268 339 393
#     4  11  25  44  68  94 134 180 219 275 340 408
#
# _framework density 21.792674000000002
#
# number of rings (size 3 to 8) (size 9 to 14) (size 15 to 20)
#    0.000    1.250    3.750    2.250    7.000    1.000 
#    2.250    0.625    0.000    0.000    0.000    0.000 
#    0.000    0.000    0.000    0.000    0.000    0.000 
#
# Total GULP energy -89432.433088 kJ/mol
# GULP energy per Si atom -5589.527068 kJ/mol
# Density = 2.174307 g / cm^3
# Si number density = 21.792674 Si / 1000 Ang^3
#
#
#
# Elastic Constant Matrix: (Units=GPa)
#
#
# Indices 1 2 3 4 5 6 
#
# 1 49.6954 28.8107 38.6341 13.2252 12.6528 -14.8129
# 2 28.8107 69.4474 41.2134 -6.0202 5.5155 -10.5820
# 3 38.6341 41.2134 190.3465 10.6883 4.5076 -15.9329
# 4 13.2252 -6.0202 10.6883 39.4485 -16.0054 2.6990
# 5 12.6528 5.5155 4.5076 -16.0054 37.8110 -4.1505
# 6 -14.8129 -10.5820 -15.9329 2.6990 -4.1505 19.3660
#
#
#
# Elastic Compliance Matrix: (Units=1/GPa)
#
#
# Indices 1 2 3 4 5 6 
#
# 1 0.059607 -0.019192 -0.002577 -0.035989 -0.028575 0.031878
# 2 -0.019192 0.023895 -0.002648 0.014744 0.009064 -0.003914
# 3 -0.002577 -0.002648 0.006617 -0.001449 0.000093 0.002248
# 4 -0.035989 0.014744 -0.001449 0.053918 0.030514 -0.021639
# 5 -0.028575 0.009064 0.000093 0.030514 0.046369 -0.011142
# 6 0.031878 -0.003914 0.002248 -0.021639 -0.011142 0.076358
#
#
# Mechanical properties :
#
#
# Convention : Reuss Voigt Hill
#
# Bulk Modulus (GPa) = 24.22228 58.53399 41.37814
# Shear Modulus (GPa) = 15.18083 32.71383 23.94733
#
# Velocity S-wave (km/s) = 2.64219 3.87866 3.31852
# Velocity P-wave (km/s) = 4.52186 6.85394 5.80619
#
# Compressibility (1/GPa) = 0.04128431
#
# Stress axis : x y z
#
# Youngs Moduli (GPa) = 16.77641 41.84997 151.11669
#
# Poissons Ratio (x) = 0.80319 0.38944
# Poissons Ratio (y) = 0.32198 0.40023
# Poissons Ratio (z) = 0.04323 0.11084
#
# Static dielectric constant tensor:
#      x y z
#    x 1.818760 -0.026510 -0.018130 
#    y -0.026510 1.793400 -0.014810 
#    z -0.018130 -0.014810 1.771050 
# 
# From -- ./inp_files/245604.got.cif
#   From: 2010.05.17/outbox.cif.g08.bks.cpg/sg2_123_cif.got.tgz:245604.got - 2010.06.03 11:33:40.
