data_PCOD9018339
_publ_section_title
;
Structure prediction by ZEFSAII (Michael W. Deem and Ramdas Pophale) SiO2 
 PCOD9018339
Probable space group: P -1
;
_chemical_formula_sum "Si O2"
_cell_formula_units_Z 15
_cell_length_a 14.371718
_cell_length_b 5.357173
_cell_length_c 7.988711
_cell_angle_alpha 91.846067
_cell_angle_beta 67.706845
_cell_angle_gamma 85.711127
_cell_volume 566.273725
_symmetry_space_group_name_H-M "P -1"
_symmetry_group_IT_number 2
_symmetry_cell_setting 'triclinic'
loop_
_space_group_symop_operation_xyz
x,y,z
-x,-y,-z
loop_
_atom_site_type_symbol
_atom_site_label
_atom_site_fract_x
_atom_site_fract_y
_atom_site_fract_z
Si Si1 0.121827 0.838893 0.564551
Si Si2 0.416431 0.477291 0.818503
Si Si3 0.711171 0.947878 0.704816
Si Si4 0.500000 0.000000 0.000000
Si Si5 0.112885 0.082391 0.897583
Si Si6 0.562009 0.776607 0.550411
Si Si7 0.203418 0.411373 0.101173
Si Si8 0.018276 0.370885 0.700713
O O1 0.214585 0.844036 0.377752
O O2 0.947793 0.899739 0.403325
O O3 0.056177 0.609541 0.590563
O O4 0.229558 0.295876 0.261731
O O5 0.495778 0.694929 0.756914
O O6 0.411272 0.420103 0.620612
O O7 0.301834 0.522603 0.961274
O O8 0.467280 0.246440 0.889176
O O9 0.838402 0.120555 0.271613
O O10 0.661819 0.865789 0.564262
O O11 0.618288 0.031202 0.887511
O O12 0.086588 0.343482 0.821551
O O13 0.177742 0.161684 0.008707
O O14 0.000000 0.000000 0.000000
O O15 0.500000 0.000000 0.500000
O O16 0.099385 0.587180 0.177365
#
# Coordination Sequence:
#
# PCOD9018339 Si02
#       8
#     2   2   2   1   2   2   2   2
#     4  10  24  43  73  98 144 188 242 284 363 431
#     4  10  24  44  75  99 141 184 241 303 362 439
#     4  11  25  44  70 105 137 189 233 303 366 435
#     4  10  22  46  68 104 140 170 240 304 360 414
#     4  10  21  43  69  99 141 189 236 295 347 434
#     4  11  23  48  70 100 139 188 243 296 368 438
#     4  11  22  42  68 104 141 182 242 293 370 420
#     4  10  23  44  70 101 142 186 239 296 346 444
#
# _framework density 26.488958
#
# number of rings (size 3 to 8) (size 9 to 14) (size 15 to 20)
#    0.800    0.800    2.667    1.200    0.000    5.333 
#    4.800    2.667    0.000    0.000    0.000    0.000 
#    0.000    0.000    0.000    0.000    0.000    0.000 
#
# Total GULP energy -83743.092516 kJ/mol
# GULP energy per Si atom -5582.872834 kJ/mol
# Density = 2.642867 g / cm^3
# Si number density = 26.488958 Si / 1000 Ang^3
#
#
#
# Elastic Constant Matrix: (Units=GPa)
#
#
# Indices 1 2 3 4 5 6 
#
# 1 127.2640 66.0240 39.8751 -13.8822 1.8239 0.7649
# 2 66.0240 126.4160 50.8069 -33.0318 -23.9069 13.6302
# 3 39.8751 50.8069 140.3246 -33.9494 -33.7867 4.2696
# 4 -13.8822 -33.0318 -33.9494 41.0834 8.2045 -2.4913
# 5 1.8239 -23.9069 -33.7867 8.2045 60.6036 -4.9775
# 6 0.7649 13.6302 4.2696 -2.4913 -4.9775 40.8483
#
#
#
# Elastic Compliance Matrix: (Units=1/GPa)
#
#
# Indices 1 2 3 4 5 6 
#
# 1 0.011982 -0.006864 -0.002591 -0.002709 -0.004008 0.001683
# 2 -0.006864 0.015077 -0.000250 0.008456 0.004558 -0.003805
# 3 -0.002591 -0.000250 0.010840 0.006866 0.005097 0.000039
# 4 -0.002709 0.008456 0.006866 0.035361 0.002372 -0.001043
# 5 -0.004008 0.004558 0.005097 0.002372 0.020999 0.000725
# 6 0.001683 -0.003805 0.000039 -0.001043 0.000725 0.025740
#
#
# Mechanical properties :
#
#
# Convention : Reuss Voigt Hill
#
# Bulk Modulus (GPa) = 54.08252 78.60187 66.34220
# Shear Modulus (GPa) = 34.34715 44.32696 39.33705
#
# Velocity S-wave (km/s) = 3.60482 4.09517 3.85780
# Velocity P-wave (km/s) = 6.14717 7.21793 6.70396
#
# Compressibility (1/GPa) = 0.01849026
#
# Stress axis : x y z
#
# Youngs Moduli (GPa) = 83.45551 66.32526 92.24952
#
# Poissons Ratio (x) = 0.45525 0.23905
# Poissons Ratio (y) = 0.57283 0.02302
# Poissons Ratio (z) = 0.21626 0.01655
#
# Static dielectric constant tensor:
#      x y z
#    x 1.954270 -0.176590 -0.030260 
#    y -0.176590 1.562260 -0.299840 
#    z -0.030260 -0.299840 2.049470 
# 
# From -- ./inp_files/323528.got.cif
#   From: 2010.05.17/outbox.cif.g08.bks.cpg/sg2_162_cif.got.tgz:323528.got - 2010.06.03 11:33:40.
