data_PCOD9018610
_publ_section_title
;
Structure prediction by ZEFSAII (Michael W. Deem and Ramdas Pophale) SiO2 
 PCOD9018610
Probable space group: P -1
;
_chemical_formula_sum "Si O2"
_cell_formula_units_Z 14
_cell_length_a 19.821206
_cell_length_b 9.223528
_cell_length_c 8.985912
_cell_angle_alpha 55.283874
_cell_angle_beta 60.969902
_cell_angle_gamma 29.121062
_cell_volume 656.857753
_symmetry_space_group_name_H-M "P -1"
_symmetry_group_IT_number 2
_symmetry_cell_setting 'triclinic'
loop_
_space_group_symop_operation_xyz
x,y,z
-x,-y,-z
loop_
_atom_site_type_symbol
_atom_site_label
_atom_site_fract_x
_atom_site_fract_y
_atom_site_fract_z
Si Si1 0.349250 0.326934 0.406522
Si Si2 0.090502 0.660293 0.645407
Si Si3 0.929506 0.645300 0.332050
Si Si4 0.134673 0.475189 0.046025
Si Si5 0.641168 0.277869 0.177276
Si Si6 0.355071 0.312120 0.057091
Si Si7 0.330421 0.779089 0.172272
O O1 0.241515 0.414207 0.561314
O O2 0.354628 0.274524 0.255992
O O3 0.306780 0.613962 0.305656
O O4 0.500000 0.000000 0.500000
O O5 0.033597 0.594834 0.664931
O O6 0.099058 0.608089 0.841480
O O7 0.000000 0.000000 0.500000
O O8 0.000000 0.500000 0.500000
O O9 0.993112 0.695715 0.153324
O O10 0.762835 0.964432 0.328338
O O11 0.231474 0.435888 0.043513
O O12 0.223408 0.124325 0.149633
O O13 0.482366 0.525722 0.228027
O O14 0.660008 0.449810 0.076998
O O15 0.666262 0.186634 0.029014
O O16 0.500000 0.000000 0.000000
#
# Coordination Sequence:
#
# PCOD9018610 Si02
#       7
#     2   2   2   2   2   2   2
#     4  11  24  43  70 101 137 175 229 284 339 406
#     4  12  27  45  68 100 140 179 229 281 343 410
#     4  12  27  46  67 101 140 180 227 278 347 415
#     4  12  25  45  71  98 137 178 231 282 343 411
#     4  10  22  41  71  95 135 176 227 276 340 401
#     4  11  23  42  69 103 134 176 229 285 341 396
#     4  10  21  43  72  99 127 181 226 280 341 400
#
# _framework density 21.313594999999999
#
# number of rings (size 3 to 8) (size 9 to 14) (size 15 to 20)
#    0.000    0.857    2.857    3.857    8.000    0.571 
#    2.571    1.429    0.000    0.000    0.000    0.000 
#    0.000    0.000    0.000    0.000    0.000    0.000 
#
# Total GULP energy -78329.324284 kJ/mol
# GULP energy per Si atom -5594.951735 kJ/mol
# Density = 2.126508 g / cm^3
# Si number density = 21.313595 Si / 1000 Ang^3
#
#
#
# Elastic Constant Matrix: (Units=GPa)
#
#
# Indices 1 2 3 4 5 6 
#
# 1 148.2330 27.7255 60.0088 1.3066 22.0420 -17.2532
# 2 27.7255 76.0732 27.0252 -6.9909 11.2106 -20.1602
# 3 60.0088 27.0252 139.2190 1.4954 24.0987 -15.2476
# 4 1.3066 -6.9909 1.4954 35.1439 -12.8457 -2.9461
# 5 22.0420 11.2106 24.0987 -12.8457 36.7561 3.8082
# 6 -17.2532 -20.1602 -15.2476 -2.9461 3.8082 34.8481
#
#
#
# Elastic Compliance Matrix: (Units=1/GPa)
#
#
# Indices 1 2 3 4 5 6 
#
# 1 0.008999 -0.001094 -0.002572 -0.001764 -0.004306 0.003019
# 2 -0.001094 0.017363 -0.001217 0.002963 -0.003805 0.009637
# 3 -0.002572 -0.001217 0.009833 -0.002403 -0.005657 0.002740
# 4 -0.001764 0.002963 -0.002403 0.034278 0.013584 0.001203
# 5 -0.004306 -0.003805 -0.005657 0.013584 0.040450 -0.010080
# 6 0.003019 0.009637 0.002740 0.001203 -0.010080 0.038168
#
#
# Mechanical properties :
#
#
# Convention : Reuss Voigt Hill
#
# Bulk Modulus (GPa) = 37.83484 65.89378 51.86431
# Shear Modulus (GPa) = 29.82131 37.93400 33.87766
#
# Velocity S-wave (km/s) = 3.74460 4.22335 3.99116
# Velocity P-wave (km/s) = 6.04037 7.40038 6.75469
#
# Compressibility (1/GPa) = 0.02643066
#
# Stress axis : x y z
#
# Youngs Moduli (GPa) = 111.12352 57.59327 101.70048
#
# Poissons Ratio (x) = 0.06298 0.26154
# Poissons Ratio (y) = 0.12153 0.12375
# Poissons Ratio (z) = 0.28577 0.07008
#
# Static dielectric constant tensor:
#      x y z
#    x 1.742690 -0.039050 0.004400 
#    y -0.039050 1.858220 0.056150 
#    z 0.004400 0.056150 1.657070 
# 
# From -- ./inp_files/156572.got.cif
#   From: 2010.05.17/outbox.cif.g08.bks.cpg/sg2_79_cif.got.tgz:156572.got - 2010.06.03 11:33:40.
