data_PCOD9018796
_publ_section_title
;
Structure prediction by ZEFSAII (Michael W. Deem and Ramdas Pophale) SiO2 
 PCOD9018796
Probable space group: P -1
;
_chemical_formula_sum "Si O2"
_cell_formula_units_Z 16
_cell_length_a 8.164928
_cell_length_b 21.551509
_cell_length_c 6.956630
_cell_angle_alpha 41.704570
_cell_angle_beta 84.749676
_cell_angle_gamma 84.293381
_cell_volume 810.092027
_symmetry_space_group_name_H-M "P -1"
_symmetry_group_IT_number 2
_symmetry_cell_setting 'triclinic'
loop_
_space_group_symop_operation_xyz
x,y,z
-x,-y,-z
loop_
_atom_site_type_symbol
_atom_site_label
_atom_site_fract_x
_atom_site_fract_y
_atom_site_fract_z
Si Si1 0.588122 0.689067 0.080064
Si Si2 0.558878 0.264788 0.418212
Si Si3 0.137122 0.457017 0.733274
Si Si4 0.960926 0.694552 0.601322
Si Si5 0.705767 0.800446 0.140355
Si Si6 0.294995 0.629739 0.521808
Si Si7 0.117582 0.860379 0.337576
Si Si8 0.950949 0.963388 0.793858
O O1 0.724036 0.603751 0.258124
O O2 0.667044 0.773840 0.988467
O O3 0.419847 0.667152 0.261839
O O4 0.543970 0.710870 0.815251
O O5 0.461844 0.199102 0.723588
O O6 0.603486 0.357316 0.320130
O O7 0.723180 0.204925 0.485499
O O8 0.231654 0.534088 0.665921
O O9 0.000000 0.500000 0.500000
O O10 0.055244 0.391540 0.054017
O O11 0.124297 0.685589 0.471166
O O12 0.972786 0.786910 0.518924
O O13 0.810933 0.713888 0.427681
O O14 0.806780 0.891614 0.948387
O O15 0.099950 0.946247 0.284157
O O16 0.099070 0.907391 0.020070
O O17 0.000000 0.000000 0.500000
#
# Coordination Sequence:
#
# PCOD9018796 Si02
#       8
#     2   2   2   2   2   2   2   2
#     4  11  24  42  64  93 128 171 212 261 314 378
#     4  10  22  43  64  88 131 169 204 259 321 371
#     4  12  25  40  66  96 123 169 222 261 312 371
#     4  10  21  44  64  88 132 168 204 269 314 370
#     4  10  22  41  64  94 125 166 212 254 317 377
#     4  10  24  41  61  92 127 163 216 261 314 365
#     4   9  22  40  64  92 123 165 206 250 323 371
#     4  10  22  39  66  96 124 157 210 263 303 378
#
# _framework density 19.750841999999999
#
# number of rings (size 3 to 8) (size 9 to 14) (size 15 to 20)
#    0.000    1.750    1.250    1.500    5.250    6.000 
#    0.000    1.250    0.000    0.000    0.000    0.000 
#    0.000    0.000    0.000    0.000    0.000    0.000 
#
# Total GULP energy -89200.494865 kJ/mol
# GULP energy per Si atom -5575.030929 kJ/mol
# Density = 1.970589 g / cm^3
# Si number density = 19.750842 Si / 1000 Ang^3
#
#
#
# Elastic Constant Matrix: (Units=GPa)
#
#
# Indices 1 2 3 4 5 6 
#
# 1 59.9543 31.2889 17.3103 2.3811 -2.5423 11.4279
# 2 31.2889 142.9947 50.4396 0.4822 -5.1224 31.3155
# 3 17.3103 50.4396 79.1779 6.3834 -0.7647 17.9451
# 4 2.3811 0.4822 6.3834 29.2475 3.8221 1.2702
# 5 -2.5423 -5.1224 -0.7647 3.8221 24.4885 6.9804
# 6 11.4279 31.3155 17.9451 1.2702 6.9804 35.7622
#
#
#
# Elastic Compliance Matrix: (Units=1/GPa)
#
#
# Indices 1 2 3 4 5 6 
#
# 1 0.019426 -0.002884 -0.001509 -0.001391 0.002545 -0.003372
# 2 -0.002884 0.010997 -0.004816 0.000925 0.003716 -0.007049
# 3 -0.001509 -0.004816 0.017237 -0.003525 0.001074 -0.004034
# 4 -0.001391 0.000925 -0.003525 0.035788 -0.006019 0.001307
# 5 0.002545 0.003716 0.001074 -0.006019 0.046700 -0.013507
# 6 -0.003372 -0.007049 -0.004034 0.001307 -0.013507 0.039828
#
#
# Mechanical properties :
#
#
# Convention : Reuss Voigt Hill
#
# Bulk Modulus (GPa) = 34.19742 53.35606 43.77674
# Shear Modulus (GPa) = 25.23466 30.10550 27.67008
#
# Velocity S-wave (km/s) = 3.57830 3.90842 3.74700
# Velocity P-wave (km/s) = 5.86722 6.88773 6.39786
#
# Compressibility (1/GPa) = 0.02924197
#
# Stress axis : x y z
#
# Youngs Moduli (GPa) = 51.47720 90.93477 58.01636
#
# Poissons Ratio (x) = 0.26226 0.08753
# Poissons Ratio (y) = 0.14846 0.27940
# Poissons Ratio (z) = 0.07767 0.43794
#
# Static dielectric constant tensor:
#      x y z
#    x 1.725630 0.013260 -0.005060 
#    y 0.013260 1.714510 -0.003320 
#    z -0.005060 -0.003320 1.686410 
# 
# From -- ./inp_files/39871.got.cif
#   From: 2010.05.17/outbox.cif.g08.bks.cpg/sg2_20_cif.got.tgz:39871.got - 2010.06.03 11:33:40.
