data_PCOD9018870
_publ_section_title
;
Structure prediction by ZEFSAII (Michael W. Deem and Ramdas Pophale) SiO2 
 PCOD9018870
Probable space group: P -1
;
_chemical_formula_sum "Si O2"
_cell_formula_units_Z 14
_cell_length_a 6.467401
_cell_length_b 5.925422
_cell_length_c 20.759415
_cell_angle_alpha 64.203542
_cell_angle_beta 125.595189
_cell_angle_gamma 108.874348
_cell_volume 579.746758
_symmetry_space_group_name_H-M "P -1"
_symmetry_group_IT_number 2
_symmetry_cell_setting 'triclinic'
loop_
_space_group_symop_operation_xyz
x,y,z
-x,-y,-z
loop_
_atom_site_type_symbol
_atom_site_label
_atom_site_fract_x
_atom_site_fract_y
_atom_site_fract_z
Si Si1 0.567531 0.281395 0.453319
Si Si2 0.716286 0.363588 0.970552
Si Si3 0.720995 0.405661 0.823228
Si Si4 0.261840 0.689996 0.880592
Si Si5 0.719874 0.896834 0.274728
Si Si6 0.801197 0.357530 0.619161
Si Si7 0.446097 0.869759 0.666343
O O1 0.739215 0.407194 0.526370
O O2 0.311249 0.424373 0.387682
O O3 0.671434 0.263818 0.402635
O O4 0.500000 0.000000 0.500000
O O5 0.661252 0.278432 0.898112
O O6 0.517633 0.563967 0.926200
O O7 0.719546 0.199627 0.056685
O O8 0.000000 0.500000 0.000000
O O9 0.574294 0.216897 0.769882
O O10 0.594715 0.669794 0.758686
O O11 0.021744 0.476194 0.861538
O O12 0.223381 0.889420 0.794289
O O13 0.905775 0.687457 0.316813
O O14 0.752392 0.009929 0.337872
O O15 0.642491 0.097940 0.646468
#
# Coordination Sequence:
#
# PCOD9018870 Si02
#       7
#     2   2   2   2   2   2   2
#     4   9  21  42  70  95 138 181 224 283 341 403
#     4   9  20  41  69  94 136 181 226 278 337 398
#     4  11  23  40  65 101 135 178 226 280 337 405
#     4  10  21  44  65  96 140 178 223 288 332 397
#     4  12  25  39  72 104 132 184 231 274 348 404
#     4  10  22  44  67  99 136 180 229 282 339 405
#     4  11  22  42  63 101 140 174 227 285 334 407
#
# _framework density 24.148475999999999
#
# number of rings (size 3 to 8) (size 9 to 14) (size 15 to 20)
#    0.000    1.714    2.857    0.857    0.000    5.714 
#    0.000   16.429    0.000    0.000    0.000    0.000 
#    0.000    0.000    0.000    0.000    0.000    0.000 
#
# Total GULP energy -78275.985067 kJ/mol
# GULP energy per Si atom -5591.141790 kJ/mol
# Density = 2.409351 g / cm^3
# Si number density = 24.148476 Si / 1000 Ang^3
#
#
#
# Elastic Constant Matrix: (Units=GPa)
#
#
# Indices 1 2 3 4 5 6 
#
# 1 110.4850 44.2971 62.9800 -7.3401 -10.4405 6.2719
# 2 44.2971 60.9944 19.7160 2.8735 -13.8413 -4.4972
# 3 62.9800 19.7160 97.6511 3.8256 -26.0535 -5.1485
# 4 -7.3401 2.8735 3.8256 28.2487 -3.0399 -6.8051
# 5 -10.4405 -13.8413 -26.0535 -3.0399 47.7231 0.4836
# 6 6.2719 -4.4972 -5.1485 -6.8051 0.4836 34.9473
#
#
#
# Elastic Compliance Matrix: (Units=1/GPa)
#
#
# Indices 1 2 3 4 5 6 
#
# 1 0.023481 -0.014667 -0.014567 0.007237 -0.006540 -0.006748
# 2 -0.014667 0.027413 0.006561 -0.005187 0.007933 0.006007
# 3 -0.014567 0.006561 0.021483 -0.004948 0.010073 0.005521
# 4 0.007237 -0.005187 -0.004948 0.039675 -0.000146 0.005032
# 5 -0.006540 0.007933 0.010073 -0.000146 0.027281 0.003273
# 6 -0.006748 0.006007 0.005521 0.005032 0.003273 0.032346
#
#
# Mechanical properties :
#
#
# Convention : Reuss Voigt Hill
#
# Bulk Modulus (GPa) = 36.99349 58.12407 47.55878
# Shear Modulus (GPa) = 22.12043 31.65963 26.89003
#
# Velocity S-wave (km/s) = 3.02986 3.62476 3.34058
# Velocity P-wave (km/s) = 5.25286 6.45292 5.88357
#
# Compressibility (1/GPa) = 0.02703178
#
# Stress axis : x y z
#
# Youngs Moduli (GPa) = 42.58803 36.47862 46.54794
#
# Poissons Ratio (x) = 0.53503 0.67805
# Poissons Ratio (y) = 0.62463 -0.30539
# Poissons Ratio (z) = 0.62037 -0.23933
#
# Static dielectric constant tensor:
#      x y z
#    x 1.897040 0.004020 -0.025290 
#    y 0.004020 1.927770 0.046710 
#    z -0.025290 0.046710 1.967330 
# 
# From -- ./inp_files/10288.got.cif
#   From: 2010.05.17/outbox.cif.g08.bks.cpg/sg2_6_cif.got.tgz:10288.got - 2010.06.03 11:33:40.
