data_PCOD9018191
_publ_section_title
;
Structure prediction by ZEFSAII (Michael W. Deem and Ramdas Pophale) SiO2 
 PCOD9018191
Probable space group: P -1
;
_chemical_formula_sum "Si O2"
_cell_formula_units_Z 13
_cell_length_a 14.299127
_cell_length_b 8.543272
_cell_length_c 7.846096
_cell_angle_alpha 52.077307
_cell_angle_beta 56.306174
_cell_angle_gamma 44.126513
_cell_volume 515.045294
_symmetry_space_group_name_H-M "P -1"
_symmetry_group_IT_number 2
_symmetry_cell_setting 'triclinic'
loop_
_space_group_symop_operation_xyz
x,y,z
-x,-y,-z
loop_
_atom_site_type_symbol
_atom_site_label
_atom_site_fract_x
_atom_site_fract_y
_atom_site_fract_z
Si Si1 0.305601 0.356345 0.427306
Si Si2 0.660823 0.578314 0.284506
Si Si3 0.037965 0.906772 0.328073
Si Si4 0.381646 0.807141 0.239169
Si Si5 0.832331 0.786841 0.588381
Si Si6 0.043683 0.613767 0.022918
Si Si7 0.500000 0.500000 0.000000
O O1 0.339990 0.285295 0.637651
O O2 0.264748 0.204266 0.463486
O O3 0.425350 0.363191 0.217605
O O4 0.170220 0.633831 0.377837
O O5 0.528946 0.742056 0.191359
O O6 0.645490 0.368364 0.509080
O O7 0.804772 0.456945 0.126405
O O8 0.912120 0.905448 0.384818
O O9 0.052675 0.096860 0.084823
O O10 0.000000 0.000000 0.500000
O O11 0.396982 0.720963 0.089752
O O12 0.261066 0.071752 0.244909
O O13 0.942325 0.515225 0.727863
O O14 0.000000 0.500000 0.000000
#
# Coordination Sequence:
#
# PCOD9018191 Si02
#       7
#     2   2   2   2   2   2   1
#     4  11  24  42  71 102 143 183 231 283 345 412
#     4  10  21  43  68  99 135 185 228 279 348 404
#     4  12  22  47  71  96 143 183 226 298 339 404
#     4  10  22  44  73  95 138 184 226 289 342 403
#     4  12  25  44  72 106 137 185 232 285 346 410
#     4  12  24  39  72 104 130 184 236 277 355 411
#     4  10  22  42  66 104 136 178 232 282 342 410
#
# _framework density 25.240500000000001
#
# number of rings (size 3 to 8) (size 9 to 14) (size 15 to 20)
#    0.000    0.923    4.615    2.308    0.000    3.692 
#    0.000    3.077    0.000    0.000    0.000    0.000 
#    0.000    0.000    0.000    0.000    0.000    0.000 
#
# Total GULP energy -72616.915446 kJ/mol
# GULP energy per Si atom -5585.916573 kJ/mol
# Density = 2.518305 g / cm^3
# Si number density = 25.240500 Si / 1000 Ang^3
#
#
#
# Elastic Constant Matrix: (Units=GPa)
#
#
# Indices 1 2 3 4 5 6 
#
# 1 133.6353 10.7805 9.5130 -2.9970 -11.1351 23.9834
# 2 10.7805 102.2096 12.1441 7.8315 -1.5101 16.7538
# 3 9.5130 12.1441 67.8831 -5.3537 -16.7040 7.6248
# 4 -2.9970 7.8315 -5.3537 32.3688 -0.3518 -5.6307
# 5 -11.1351 -1.5101 -16.7040 -0.3518 33.8332 7.8742
# 6 23.9834 16.7538 7.6248 -5.6307 7.8742 40.3724
#
#
#
# Elastic Compliance Matrix: (Units=1/GPa)
#
#
# Indices 1 2 3 4 5 6 
#
# 1 0.008981 0.000122 0.000602 -0.000169 0.004758 -0.006451
# 2 0.000122 0.011090 -0.001494 -0.003797 0.000947 -0.005107
# 3 0.000602 -0.001494 0.018190 0.002703 0.010256 -0.004796
# 4 -0.000169 -0.003797 0.002703 0.033251 0.000110 0.005782
# 5 0.004758 0.000947 0.010256 0.000110 0.039206 -0.012788
# 6 -0.006451 -0.005107 -0.004796 0.005782 -0.012788 0.034927
#
#
# Mechanical properties :
#
#
# Convention : Reuss Voigt Hill
#
# Bulk Modulus (GPa) = 27.23312 40.95591 34.09452
# Shear Modulus (GPa) = 31.36250 39.40090 35.38170
#
# Velocity S-wave (km/s) = 3.52880 3.95526 3.74810
# Velocity P-wave (km/s) = 5.23604 6.09264 5.68051
#
# Compressibility (1/GPa) = 0.03671999
#
# Stress axis : x y z
#
# Youngs Moduli (GPa) = 111.34908 90.16732 54.97578
#
# Poissons Ratio (x) = -0.01099 -0.03308
# Poissons Ratio (y) = -0.01357 0.08214
# Poissons Ratio (z) = -0.06699 0.13472
#
# Static dielectric constant tensor:
#      x y z
#    x 1.991820 0.014480 0.025890 
#    y 0.014480 2.005270 -0.037600 
#    z 0.025890 -0.037600 1.987370 
# 
# From -- ./inp_files/204545.got.cif
#   From: 2010.05.17/outbox.cif.g08.bks.cpg/sg2_103_cif.got.tgz:204545.got - 2010.06.03 11:33:40.
