data_PCOD9018066
_publ_section_title
;
Structure prediction by ZEFSAII (Michael W. Deem and Ramdas Pophale) SiO2 
 PCOD9018066
Probable space group: P -1
;
_chemical_formula_sum "Si O2"
_cell_formula_units_Z 14
_cell_length_a 17.369453
_cell_length_b 5.266116
_cell_length_c 12.130621
_cell_angle_alpha 76.419644
_cell_angle_beta 30.313879
_cell_angle_gamma 75.322527
_cell_volume 541.477619
_symmetry_space_group_name_H-M "P -1"
_symmetry_group_IT_number 2
_symmetry_cell_setting 'triclinic'
loop_
_space_group_symop_operation_xyz
x,y,z
-x,-y,-z
loop_
_atom_site_type_symbol
_atom_site_label
_atom_site_fract_x
_atom_site_fract_y
_atom_site_fract_z
Si Si1 0.419154 0.577792 0.708859
Si Si2 0.689815 0.103203 0.915808
Si Si3 0.160738 0.550207 0.580305
Si Si4 0.162615 0.376585 0.359712
Si Si5 0.699410 0.856690 0.380457
Si Si6 0.405938 0.845263 0.318382
Si Si7 0.178690 0.208482 0.003636
O O1 0.500000 0.500000 0.500000
O O2 0.519114 0.816572 0.592083
O O3 0.472523 0.381809 0.762061
O O4 0.249875 0.488605 0.906162
O O5 0.781287 0.892013 0.743051
O O6 0.753889 0.002097 0.967483
O O7 0.726870 0.397633 0.823360
O O8 0.508800 0.071151 0.132713
O O9 0.151645 0.358361 0.507185
O O10 0.206629 0.390404 0.651208
O O11 0.299963 0.727311 0.373173
O O12 0.001974 0.729235 0.768437
O O13 0.000000 0.500000 0.500000
O O14 0.696793 0.075845 0.454839
O O15 0.770639 0.897400 0.169473
#
# Coordination Sequence:
#
# PCOD9018066 Si02
#       7
#     2   2   2   2   2   2   2
#     4   8  18  37  61  91 131 173 230 278 336 409
#     4  11  27  47  76 106 136 188 239 292 351 413
#     4  11  25  42  68  97 145 181 236 291 353 419
#     4  12  27  49  76 104 141 180 244 296 350 410
#     4  10  22  42  66 100 142 183 229 287 355 428
#     4  10  24  41  63 103 136 184 233 283 358 418
#     4  10  21  43  68 104 135 184 233 291 354 417
#
# _framework density 25.855179
#
# number of rings (size 3 to 8) (size 9 to 14) (size 15 to 20)
#    0.000    1.714    1.429    0.857    8.000    6.857 
#    5.143    0.000    0.000    0.000    0.000    0.000 
#    0.000    0.000    0.000    0.000    0.000    0.000 
#
# Total GULP energy -78376.005225 kJ/mol
# GULP energy per Si atom -5598.286087 kJ/mol
# Density = 2.579633 g / cm^3
# Si number density = 25.855179 Si / 1000 Ang^3
#
#
#
# Elastic Constant Matrix: (Units=GPa)
#
#
# Indices 1 2 3 4 5 6 
#
# 1 121.0790 7.7409 31.1452 4.8194 4.9267 1.2512
# 2 7.7409 53.1753 -2.1662 -1.6188 13.3397 -0.7575
# 3 31.1452 -2.1662 83.3593 11.7342 -4.8946 -0.7257
# 4 4.8194 -1.6188 11.7342 46.8206 8.9099 10.7762
# 5 4.9267 13.3397 -4.8946 8.9099 54.4755 2.9413
# 6 1.2512 -0.7575 -0.7257 10.7762 2.9413 45.0788
#
#
#
# Elastic Compliance Matrix: (Units=1/GPa)
#
#
# Indices 1 2 3 4 5 6 
#
# 1 0.009294 -0.001286 -0.003577 0.000129 -0.000851 -0.000312
# 2 -0.001286 0.020347 0.000486 0.001608 -0.005104 0.000334
# 3 -0.003577 0.000486 0.014003 -0.003762 0.002019 0.001100
# 4 0.000129 0.001608 -0.003762 0.024478 -0.004445 -0.005599
# 5 -0.000851 -0.005104 0.002019 -0.004445 0.020609 -0.000312
# 6 -0.000312 0.000334 0.001100 -0.005599 -0.000312 0.023574
#
#
# Mechanical properties :
#
#
# Convention : Reuss Voigt Hill
#
# Bulk Modulus (GPa) = 28.66100 36.78372 32.72236
# Shear Modulus (GPa) = 37.68257 44.00121 40.84189
#
# Velocity S-wave (km/s) = 3.82179 4.12980 3.97878
# Velocity P-wave (km/s) = 5.53029 6.08261 5.81301
#
# Compressibility (1/GPa) = 0.03489062
#
# Stress axis : x y z
#
# Youngs Moduli (GPa) = 107.59567 49.14801 71.41372
#
# Poissons Ratio (x) = 0.06319 0.25543
# Poissons Ratio (y) = 0.13833 -0.03470
# Poissons Ratio (z) = 0.38485 -0.02388
#
# Static dielectric constant tensor:
#      x y z
#    x 1.996220 -0.000840 0.022530 
#    y -0.000840 2.190820 0.031140 
#    z 0.022530 0.031140 2.041060 
# 
# From -- ./inp_files/369586.got.cif
#   From: 2010.05.17/outbox.cif.g08.bks.cpg/sg2_185_cif.got.tgz:369586.got - 2010.06.03 11:33:40.
