data_PCOD9018103
_publ_section_title
;
Structure prediction by ZEFSAII (Michael W. Deem and Ramdas Pophale) SiO2 
 PCOD9018103
Probable space group: P -1
;
_chemical_formula_sum "Si O2"
_cell_formula_units_Z 14
_cell_length_a 12.381005
_cell_length_b 7.437946
_cell_length_c 8.849446
_cell_angle_alpha 82.687105
_cell_angle_beta 114.605078
_cell_angle_gamma 58.272405
_cell_volume 563.516348
_symmetry_space_group_name_H-M "P -1"
_symmetry_group_IT_number 2
_symmetry_cell_setting 'triclinic'
loop_
_space_group_symop_operation_xyz
x,y,z
-x,-y,-z
loop_
_atom_site_type_symbol
_atom_site_label
_atom_site_fract_x
_atom_site_fract_y
_atom_site_fract_z
Si Si1 0.370656 0.881608 0.960680
Si Si2 0.193547 0.565202 0.407477
Si Si3 0.340393 0.299345 0.018489
Si Si4 0.080049 0.106937 0.589391
Si Si5 0.234863 0.938186 0.400841
Si Si6 0.471010 0.873543 0.336164
Si Si7 0.949808 0.341169 0.011891
O O1 0.521977 0.711617 0.962781
O O2 0.217941 0.935743 0.806865
O O3 0.419839 0.799698 0.170284
O O4 0.328280 0.141249 0.910973
O O5 0.253585 0.707902 0.468274
O O6 0.345794 0.295804 0.530604
O O7 0.122303 0.645587 0.190269
O O8 0.055970 0.650653 0.433157
O O9 0.178236 0.544357 0.942257
O O10 0.397219 0.137875 0.218750
O O11 0.164546 0.100774 0.491328
O O12 0.000000 0.000000 0.500000
O O13 0.609554 0.129406 0.564860
O O14 0.103477 0.088319 0.179805
O O15 0.000000 0.500000 0.000000
#
# Coordination Sequence:
#
# PCOD9018103 Si02
#       7
#     2   2   2   2   2   2   2
#     4   9  20  43  66  92 138 162 215 267 328 378
#     4  11  25  42  65  95 131 171 214 264 322 386
#     4   9  21  39  68  98 127 169 214 263 331 373
#     4  10  23  42  64  93 131 172 217 258 321 387
#     4  11  24  42  65  94 133 168 215 262 326 382
#     4  10  21  43  68  93 129 164 218 263 322 380
#     4  12  23  42  67  94 131 169 220 264 322 381
#
# _framework density 24.844000000000001
#
# number of rings (size 3 to 8) (size 9 to 14) (size 15 to 20)
#    0.857    0.857    1.429    2.571    4.000    2.857 
#    0.000    5.000    0.000    0.000    0.000    0.000 
#    0.000    0.000    0.000    0.000    0.000    0.000 
#
# Total GULP energy -78353.417394 kJ/mol
# GULP energy per Si atom -5596.672671 kJ/mol
# Density = 2.478745 g / cm^3
# Si number density = 24.844000 Si / 1000 Ang^3
#
#
#
# Elastic Constant Matrix: (Units=GPa)
#
#
# Indices 1 2 3 4 5 6 
#
# 1 141.6631 54.5197 21.0032 7.2708 5.6646 -41.5013
# 2 54.5197 60.9720 12.4715 8.6028 14.1234 -20.2349
# 3 21.0032 12.4715 97.8423 14.7064 24.1973 -6.7285
# 4 7.2708 8.6028 14.7064 34.4160 -6.5111 -8.4965
# 5 5.6646 14.1234 24.1973 -6.5111 36.4174 -1.2138
# 6 -41.5013 -20.2349 -6.7285 -8.4965 -1.2138 47.9381
#
#
#
# Elastic Compliance Matrix: (Units=1/GPa)
#
#
# Indices 1 2 3 4 5 6 
#
# 1 0.013313 -0.010475 -0.002734 0.003719 0.004723 0.007499
# 2 -0.010475 0.030287 0.003280 -0.008810 -0.013795 0.002265
# 3 -0.002734 0.003280 0.014733 -0.009068 -0.012285 -0.000833
# 4 0.003719 -0.008810 -0.009068 0.038726 0.015970 0.005496
# 5 0.004723 -0.013795 -0.012285 0.015970 0.043108 0.000463
# 6 0.007499 0.002265 -0.000833 0.005496 0.000463 0.029177
#
#
# Mechanical properties :
#
#
# Convention : Reuss Voigt Hill
#
# Bulk Modulus (GPa) = 25.99111 52.94070 39.46591
# Shear Modulus (GPa) = 24.74919 37.91985 31.33452
#
# Velocity S-wave (km/s) = 3.15966 3.91105 3.55526
# Velocity P-wave (km/s) = 4.87809 6.46147 5.72478
#
# Compressibility (1/GPa) = 0.03847469
#
# Stress axis : x y z
#
# Youngs Moduli (GPa) = 75.11637 33.01770 67.87379
#
# Poissons Ratio (x) = 0.34585 0.18556
# Poissons Ratio (y) = 0.78683 -0.22261
# Poissons Ratio (z) = 0.20536 -0.10829
#
# Static dielectric constant tensor:
#      x y z
#    x 1.950000 0.033140 -0.017180 
#    y 0.033140 2.025090 0.046280 
#    z -0.017180 0.046280 1.945640 
# 
# From -- ./inp_files/295584.got.cif
#   From: 2010.05.17/outbox.cif.g08.bks.cpg/sg2_148_cif.got.tgz:295584.got - 2010.06.03 11:33:40.
