data_PCOD9018346
_publ_section_title
;
Structure prediction by ZEFSAII (Michael W. Deem and Ramdas Pophale) SiO2 
 PCOD9018346
Probable space group: P -1
;
_chemical_formula_sum "Si O2"
_cell_formula_units_Z 12
_cell_length_a 8.506443
_cell_length_b 11.777477
_cell_length_c 11.187588
_cell_angle_alpha 137.973307
_cell_angle_beta 41.321318
_cell_angle_gamma 115.601209
_cell_volume 474.972340
_symmetry_space_group_name_H-M "P -1"
_symmetry_group_IT_number 2
_symmetry_cell_setting 'triclinic'
loop_
_space_group_symop_operation_xyz
x,y,z
-x,-y,-z
loop_
_atom_site_type_symbol
_atom_site_label
_atom_site_fract_x
_atom_site_fract_y
_atom_site_fract_z
Si Si1 0.053685 0.973266 0.806855
Si Si2 0.883576 0.710807 0.127034
Si Si3 0.224072 0.072278 0.279304
Si Si4 0.593455 0.402627 0.663330
Si Si5 0.748714 0.235007 0.829521
Si Si6 0.263424 0.455271 0.545452
O O1 0.212941 0.771814 0.534565
O O2 0.805061 0.001903 0.892885
O O3 0.175368 0.115623 0.788124
O O4 0.000000 0.000000 0.000000
O O5 0.642244 0.672037 0.291599
O O6 0.080524 0.721693 0.126245
O O7 0.022997 0.552607 0.835402
O O8 0.304637 0.248123 0.363202
O O9 0.943750 0.140573 0.545309
O O10 0.357441 0.916143 0.171166
O O11 0.739388 0.467063 0.524152
O O12 0.458382 0.587465 0.951287
O O13 0.500000 0.500000 0.500000
#
# Coordination Sequence:
#
# PCOD9018346 Si02
#       6
#     2   2   2   2   2   2
#     4  11  25  46  68  99 141 186 224 275 341 404
#     4  11  22  45  69 100 139 173 232 282 333 407
#     4  10  24  44  67 103 142 171 231 283 331 410
#     4  12  23  40  73 101 132 188 222 272 347 400
#     4  10  21  43  70 100 135 175 223 289 337 391
#     4  12  23  41  74 103 135 178 225 286 342 396
#
# _framework density 25.264628999999999
#
# number of rings (size 3 to 8) (size 9 to 14) (size 15 to 20)
#    0.000    1.000    5.000    2.000    0.000    2.000 
#    0.000    3.333    0.000    0.000    0.000    0.000 
#    0.000    0.000    0.000    0.000    0.000    0.000 
#
# Total GULP energy -67148.688872 kJ/mol
# GULP energy per Si atom -5595.724073 kJ/mol
# Density = 2.520713 g / cm^3
# Si number density = 25.264629 Si / 1000 Ang^3
#
#
#
# Elastic Constant Matrix: (Units=GPa)
#
#
# Indices 1 2 3 4 5 6 
#
# 1 31.4697 50.8205 24.8672 0.7297 7.5226 -19.0482
# 2 50.8205 204.2210 39.8184 24.0901 -3.8367 -14.6992
# 3 24.8672 39.8184 134.5765 6.8012 -7.6740 -31.7099
# 4 0.7297 24.0901 6.8012 60.3951 -12.3940 -8.7647
# 5 7.5226 -3.8367 -7.6740 -12.3940 33.2082 7.1863
# 6 -19.0482 -14.6992 -31.7099 -8.7647 7.1863 38.7915
#
#
#
# Elastic Compliance Matrix: (Units=1/GPa)
#
#
# Indices 1 2 3 4 5 6 
#
# 1 0.123956 -0.027902 -0.004109 0.009953 -0.040818 0.056747
# 2 -0.027902 0.011723 -0.000484 -0.004292 0.008605 -0.012219
# 3 -0.004109 -0.000484 0.009714 0.000365 0.002079 0.005437
# 4 0.009953 -0.004292 0.000365 0.019831 0.003121 0.007462
# 5 -0.040818 0.008605 0.002079 0.003121 0.046994 -0.023084
# 6 0.056747 -0.012219 0.005437 0.007462 -0.023084 0.059421
#
#
# Mechanical properties :
#
#
# Convention : Reuss Voigt Hill
#
# Bulk Modulus (GPa) = 12.43720 66.80882 39.62301
# Shear Modulus (GPa) = 13.75777 43.46304 28.61040
#
# Velocity S-wave (km/s) = 2.33608 4.15216 3.36881
# Velocity P-wave (km/s) = 3.49426 7.03479 5.55419
#
# Compressibility (1/GPa) = 0.08040393
#
# Stress axis : x y z
#
# Youngs Moduli (GPa) = 8.06736 85.30275 102.93896
#
# Poissons Ratio (x) = 2.38012 0.42295
# Poissons Ratio (y) = 0.22510 0.04985
# Poissons Ratio (z) = 0.03315 0.04131
#
# Static dielectric constant tensor:
#      x y z
#    x 2.013530 -0.034880 0.023910 
#    y -0.034880 2.013740 -0.022800 
#    z 0.023910 -0.022800 2.019130 
# 
# From -- ./inp_files/166841.got.cif
#   From: 2010.05.17/outbox.cif.g08.bks.cpg/sg2_84_cif.got.tgz:166841.got - 2010.06.03 11:33:40.
