data_PCOD9018662
_publ_section_title
;
Structure prediction by ZEFSAII (Michael W. Deem and Ramdas Pophale) SiO2 
 PCOD9018662
Probable space group: P -1
;
_chemical_formula_sum "Si O2"
_cell_formula_units_Z 12
_cell_length_a 8.919607
_cell_length_b 12.755992
_cell_length_c 5.308584
_cell_angle_alpha 70.633430
_cell_angle_beta 57.273189
_cell_angle_gamma 79.798660
_cell_volume 479.368565
_symmetry_space_group_name_H-M "P -1"
_symmetry_group_IT_number 2
_symmetry_cell_setting 'triclinic'
loop_
_space_group_symop_operation_xyz
x,y,z
-x,-y,-z
loop_
_atom_site_type_symbol
_atom_site_label
_atom_site_fract_x
_atom_site_fract_y
_atom_site_fract_z
Si Si1 0.634437 0.944316 0.732177
Si Si2 0.455034 0.831438 0.576083
Si Si3 0.826353 0.262658 0.441810
Si Si4 0.122011 0.504218 0.633404
Si Si5 0.811933 0.737294 0.186257
Si Si6 0.005571 0.101213 0.716291
O O1 0.548362 0.836799 0.759644
O O2 0.637426 0.048016 0.448337
O O3 0.843118 0.928908 0.604081
O O4 0.500000 0.000000 0.000000
O O5 0.302903 0.752293 0.667272
O O6 0.629853 0.806605 0.261275
O O7 0.782031 0.376512 0.533641
O O8 0.831775 0.153152 0.701198
O O9 0.031713 0.268300 0.158015
O O10 0.236644 0.391441 0.615648
O O11 0.000000 0.500000 0.500000
O O12 0.000000 0.500000 0.000000
O O13 0.912202 0.796638 0.279460
O O14 0.000000 0.000000 0.000000
#
# Coordination Sequence:
#
# PCOD9018662 Si02
#       6
#     2   2   2   2   2   2
#     4  10  22  42  61  89 140 181 221 280 344 410
#     4  10  23  39  63  97 131 176 225 280 339 410
#     4  11  23  41  69  98 134 176 233 284 341 419
#     4  10  21  43  74 100 137 184 231 290 354 417
#     4  10  22  42  66  96 137 177 228 278 355 408
#     4  11  23  40  67  97 135 182 231 280 351 418
#
# _framework density 25.032927999999998
#
# number of rings (size 3 to 8) (size 9 to 14) (size 15 to 20)
#    0.000    1.667    1.667    2.000    0.000    8.667 
#    0.000    4.167    0.000    4.000    0.000    0.000 
#    0.000    0.000    0.000    0.000    0.000    0.000 
#
# Total GULP energy -66959.234428 kJ/mol
# GULP energy per Si atom -5579.936202 kJ/mol
# Density = 2.497595 g / cm^3
# Si number density = 25.032928 Si / 1000 Ang^3
#
#
#
# Elastic Constant Matrix: (Units=GPa)
#
#
# Indices 1 2 3 4 5 6 
#
# 1 114.1694 48.5603 21.7139 2.5601 -7.9689 8.7456
# 2 48.5603 168.6976 16.0098 5.4394 -3.6569 19.0972
# 3 21.7139 16.0098 91.8974 9.7077 -4.2053 -2.1456
# 4 2.5601 5.4394 9.7077 22.0610 -0.5497 2.4249
# 5 -7.9689 -3.6569 -4.2053 -0.5497 39.2375 18.1318
# 6 8.7456 19.0972 -2.1456 2.4249 18.1318 44.5713
#
#
#
# Elastic Compliance Matrix: (Units=1/GPa)
#
#
# Indices 1 2 3 4 5 6 
#
# 1 0.010584 -0.002562 -0.002047 0.000616 0.002726 -0.002220
# 2 -0.002562 0.007136 -0.000553 -0.000833 0.001534 -0.003160
# 3 -0.002047 -0.000553 0.012036 -0.005081 0.000075 0.001464
# 4 0.000616 -0.000833 -0.005081 0.048107 0.001712 -0.003322
# 5 0.002726 0.001534 0.000075 0.001712 0.033013 -0.014711
# 6 -0.002220 -0.003160 0.001464 -0.003322 -0.014711 0.030461
#
#
# Mechanical properties :
#
#
# Convention : Reuss Voigt Hill
#
# Bulk Modulus (GPa) = 51.46163 60.81474 56.13819
# Shear Modulus (GPa) = 31.61788 40.40597 36.01193
#
# Velocity S-wave (km/s) = 3.55780 4.02196 3.79698
# Velocity P-wave (km/s) = 6.12205 6.77605 6.45733
#
# Compressibility (1/GPa) = 0.01943195
#
# Stress axis : x y z
#
# Youngs Moduli (GPa) = 94.47853 140.14272 83.08328
#
# Poissons Ratio (x) = 0.35904 0.17005
# Poissons Ratio (y) = 0.24205 0.04597
# Poissons Ratio (z) = 0.19337 0.07755
#
# Static dielectric constant tensor:
#      x y z
#    x 2.014340 -0.004710 0.086800 
#    y -0.004710 2.016590 -0.116930 
#    z 0.086800 -0.116930 2.257640 
# 
# From -- ./inp_files/23885.got.cif
#   From: 2010.05.17/outbox.cif.g08.bks.cpg/sg2_12_cif.got.tgz:23885.got - 2010.06.03 11:33:40.
