data_PCOD9018844
_publ_section_title
;
Structure prediction by ZEFSAII (Michael W. Deem and Ramdas Pophale) SiO2 
 PCOD9018844
Probable space group: P -1
;
_chemical_formula_sum "Si O2"
_cell_formula_units_Z 14
_cell_length_a 15.705575
_cell_length_b 7.624238
_cell_length_c 19.346353
_cell_angle_alpha 121.726307
_cell_angle_beta 159.713043
_cell_angle_gamma 47.679370
_cell_volume 541.108445
_symmetry_space_group_name_H-M "P -1"
_symmetry_group_IT_number 2
_symmetry_cell_setting 'triclinic'
loop_
_space_group_symop_operation_xyz
x,y,z
-x,-y,-z
loop_
_atom_site_type_symbol
_atom_site_label
_atom_site_fract_x
_atom_site_fract_y
_atom_site_fract_z
Si Si1 0.440395 0.202763 0.756898
Si Si2 0.882802 0.984200 0.784874
Si Si3 0.145445 0.661900 0.726397
Si Si4 0.840878 0.568538 0.173690
Si Si5 0.825177 0.207514 0.644771
Si Si6 0.644081 0.765760 0.927785
Si Si7 0.548551 0.511573 0.366766
O O1 0.305191 0.483001 0.743974
O O2 0.209561 0.240451 0.531206
O O3 0.447071 0.030609 0.788107
O O4 0.788509 0.065846 0.970150
O O5 0.738050 0.129469 0.631040
O O6 0.662270 0.179729 0.717309
O O7 0.968718 0.702301 0.781867
O O8 0.276249 0.489331 0.859708
O O9 0.086608 0.931366 0.750175
O O10 0.095951 0.604655 0.398023
O O11 0.591811 0.779026 0.972905
O O12 0.565355 0.381927 0.426296
O O13 0.005684 0.322894 0.827609
O O14 0.584294 0.575394 0.808672
#
# Coordination Sequence:
#
# PCOD9018844 Si02
#       7
#     2   2   2   2   2   2   2
#     4  10  22  41  69  90 117 167 210 251 306 358
#     4  10  22  39  63  95 121 164 209 246 306 365
#     4  10  21  44  65  90 124 157 212 262 294 358
#     4  10  24  40  61  94 126 162 199 252 310 364
#     4   9  20  39  63  92 121 162 207 253 300 358
#     4  10  22  39  62  94 123 164 204 241 316 363
#     4  11  21  41  62  91 135 158 195 258 304 372
#
# _framework density 25.872819
#
# number of rings (size 3 to 8) (size 9 to 14) (size 15 to 20)
#    0.000    2.000    1.429    0.857    2.000    8.571 
#   10.286    2.143    0.000    0.000    0.000    0.000 
#    0.000    0.000    0.000    0.000    0.000    0.000 
#
# Total GULP energy -78374.440434 kJ/mol
# GULP energy per Si atom -5598.174317 kJ/mol
# Density = 2.581393 g / cm^3
# Si number density = 25.872819 Si / 1000 Ang^3
#
#
#
# Elastic Constant Matrix: (Units=GPa)
#
#
# Indices 1 2 3 4 5 6 
#
# 1 69.3796 25.2934 17.8735 -5.3096 -16.7724 13.9301
# 2 25.2934 99.0526 18.9363 14.2585 3.5151 -18.9890
# 3 17.8735 18.9363 96.3335 21.0217 -16.5536 -16.0650
# 4 -5.3096 14.2585 21.0217 49.8597 -3.5475 -0.0924
# 5 -16.7724 3.5151 -16.5536 -3.5475 39.9820 -6.1997
# 6 13.9301 -18.9890 -16.0650 -0.0924 -6.1997 37.7628
#
#
#
# Elastic Compliance Matrix: (Units=1/GPa)
#
#
# Indices 1 2 3 4 5 6 
#
# 1 0.024900 -0.009634 -0.005863 0.008365 0.007232 -0.015316
# 2 -0.009634 0.015495 0.001373 -0.006274 -0.003637 0.011317
# 3 -0.005863 0.001373 0.015226 -0.007086 0.004658 0.010078
# 4 0.008365 -0.006274 -0.007086 0.025858 0.002048 -0.008856
# 5 0.007232 -0.003637 0.004658 0.002048 0.030872 0.002558
# 6 -0.015316 0.011317 0.010078 -0.008856 0.002558 0.042507
#
#
# Mechanical properties :
#
#
# Convention : Reuss Voigt Hill
#
# Bulk Modulus (GPa) = 36.53287 43.21913 39.87600
# Shear Modulus (GPa) = 26.01039 39.03175 32.52107
#
# Velocity S-wave (km/s) = 3.17411 3.88828 3.54921
# Velocity P-wave (km/s) = 5.25206 6.07446 5.67817
#
# Compressibility (1/GPa) = 0.02737261
#
# Stress axis : x y z
#
# Youngs Moduli (GPa) = 40.16065 64.53640 65.67788
#
# Poissons Ratio (x) = 0.62177 0.38506
# Poissons Ratio (y) = 0.38693 -0.09018
# Poissons Ratio (z) = 0.23545 -0.08861
#
# Static dielectric constant tensor:
#      x y z
#    x 2.045890 0.038900 0.019150 
#    y 0.038900 2.017010 -0.020590 
#    z 0.019150 -0.020590 2.032540 
# 
# From -- ./inp_files/273668.got.cif
#   From: 2010.05.17/outbox.cif.g08.bks.cpg/sg2_137_cif.got.tgz:273668.got - 2010.06.03 11:33:40.
