data_PCOD9018304
_publ_section_title
;
Structure prediction by ZEFSAII (Michael W. Deem and Ramdas Pophale) SiO2 
 PCOD9018304
Probable space group: P -1
;
_chemical_formula_sum "Si O2"
_cell_formula_units_Z 16
_cell_length_a 14.227823
_cell_length_b 9.833167
_cell_length_c 6.879823
_cell_angle_alpha 61.102149
_cell_angle_beta 104.404043
_cell_angle_gamma 126.189141
_cell_volume 679.182326
_symmetry_space_group_name_H-M "P -1"
_symmetry_group_IT_number 2
_symmetry_cell_setting 'triclinic'
loop_
_space_group_symop_operation_xyz
x,y,z
-x,-y,-z
loop_
_atom_site_type_symbol
_atom_site_label
_atom_site_fract_x
_atom_site_fract_y
_atom_site_fract_z
Si Si1 0.410335 0.600242 0.987741
Si Si2 0.035665 0.218102 0.186693
Si Si3 0.632751 0.150101 0.009700
Si Si4 0.903277 0.484478 0.318129
Si Si5 0.771715 0.524483 0.572370
Si Si6 0.223966 0.180409 0.181745
Si Si7 0.375226 0.365795 0.783904
Si Si8 0.799220 0.087068 0.335097
O O1 0.374887 0.745961 0.876356
O O2 0.434610 0.556560 0.815546
O O3 0.298786 0.398875 0.128143
O O4 0.517347 0.657692 0.147843
O O5 0.044552 0.358705 0.930130
O O6 0.095125 0.908687 0.717048
O O7 0.117186 0.338074 0.329505
O O8 0.090788 0.113063 0.190404
O O9 0.703777 0.058916 0.153340
O O10 0.699555 0.318486 0.773004
O O11 0.500000 0.000000 0.000000
O O12 0.817762 0.509301 0.394849
O O13 0.848585 0.288411 0.316694
O O14 0.000000 0.500000 0.500000
O O15 0.688675 0.600577 0.443064
O O16 0.251124 0.063099 0.416417
O O17 0.272712 0.199718 0.977830
#
# Coordination Sequence:
#
# PCOD9018304 Si02
#       8
#     2   2   2   2   2   2   2   2
#     4   9  20  45  67  93 137 184 224 277 333 404
#     4  12  23  46  71  97 140 180 229 276 344 410
#     4  12  27  42  67 104 140 174 226 282 342 406
#     4  12  23  43  73  97 136 186 225 275 343 407
#     4  12  22  43  72 100 130 187 225 276 342 409
#     4  10  21  43  69  96 137 180 223 285 334 396
#     4   9  20  39  73  94 127 185 236 262 337 404
#     4  12  25  43  67 104 141 175 226 289 338 401
#
# _framework density 23.557736999999999
#
# number of rings (size 3 to 8) (size 9 to 14) (size 15 to 20)
#    0.750    0.250    5.000    2.250    1.750    2.500 
#    0.000    5.625    0.000    0.000    0.000    0.000 
#    0.000    0.000    0.000    0.000    0.000    0.000 
#
# Total GULP energy -89455.012366 kJ/mol
# GULP energy per Si atom -5590.938273 kJ/mol
# Density = 2.350412 g / cm^3
# Si number density = 23.557737 Si / 1000 Ang^3
#
#
#
# Elastic Constant Matrix: (Units=GPa)
#
#
# Indices 1 2 3 4 5 6 
#
# 1 102.7040 3.6065 9.5266 13.9780 15.6028 17.1244
# 2 3.6065 44.2947 10.6854 14.9116 -2.3171 12.3004
# 3 9.5266 10.6854 131.7071 10.0936 17.2412 23.4003
# 4 13.9780 14.9116 10.0936 32.1424 5.2669 7.7156
# 5 15.6028 -2.3171 17.2412 5.2669 38.9569 12.1900
# 6 17.1244 12.3004 23.4003 7.7156 12.1900 35.9256
#
#
#
# Elastic Compliance Matrix: (Units=1/GPa)
#
#
# Indices 1 2 3 4 5 6 
#
# 1 0.011372 0.001473 0.000530 -0.004286 -0.002739 -0.004421
# 2 0.001473 0.030099 -0.000609 -0.013063 0.006353 -0.009961
# 3 0.000530 -0.000609 0.008862 -0.001187 -0.002540 -0.004700
# 4 -0.004286 -0.013063 -0.001187 0.040050 -0.003960 0.000030
# 5 -0.002739 0.006353 -0.002540 -0.003960 0.031653 -0.009105
# 6 -0.004421 -0.009961 -0.004700 0.000030 -0.009105 0.039497
#
#
# Mechanical properties :
#
#
# Convention : Reuss Voigt Hill
#
# Bulk Modulus (GPa) = 18.82464 36.26031 27.54248
# Shear Modulus (GPa) = 28.33632 38.39745 33.36688
#
# Velocity S-wave (km/s) = 3.47197 4.04162 3.76758
# Velocity P-wave (km/s) = 4.90723 6.09960 5.53561
#
# Compressibility (1/GPa) = 0.05312188
#
# Stress axis : x y z
#
# Youngs Moduli (GPa) = 87.93304 33.22358 112.83998
#
# Poissons Ratio (x) = -0.04894 -0.05984
# Poissons Ratio (y) = -0.12954 0.06875
# Poissons Ratio (z) = -0.04663 0.02024
#
# Static dielectric constant tensor:
#      x y z
#    x 1.942960 -0.017450 0.008770 
#    y -0.017450 1.935530 0.052860 
#    z 0.008770 0.052860 1.849080 
# 
# From -- ./inp_files/330611.got.cif
#   From: 2010.05.17/outbox.cif.g08.bks.cpg/sg2_166_cif.got.tgz:330611.got - 2010.06.03 11:33:40.
