data_PCOD9018413
_publ_section_title
;
Structure prediction by ZEFSAII (Michael W. Deem and Ramdas Pophale) SiO2 
 PCOD9018413
Probable space group: P -1
;
_chemical_formula_sum "Si O2"
_cell_formula_units_Z 16
_cell_length_a 11.534833
_cell_length_b 10.819249
_cell_length_c 13.834982
_cell_angle_alpha 130.556182
_cell_angle_beta 146.833785
_cell_angle_gamma 62.519116
_cell_volume 703.258304
_symmetry_space_group_name_H-M "P -1"
_symmetry_group_IT_number 2
_symmetry_cell_setting 'triclinic'
loop_
_space_group_symop_operation_xyz
x,y,z
-x,-y,-z
loop_
_atom_site_type_symbol
_atom_site_label
_atom_site_fract_x
_atom_site_fract_y
_atom_site_fract_z
Si Si1 0.828720 0.163939 0.790337
Si Si2 0.487077 0.209930 0.152012
Si Si3 0.521794 0.695735 0.134853
Si Si4 0.150643 0.524059 0.523060
Si Si5 0.254274 0.033612 0.721341
Si Si6 0.658268 0.791360 0.490409
Si Si7 0.121595 0.366172 0.970011
Si Si8 0.105173 0.573529 0.882634
O O1 0.587460 0.206403 0.646443
O O2 0.940215 0.202100 0.783227
O O3 0.798370 0.972602 0.699671
O O4 0.967844 0.290658 0.028933
O O5 0.661220 0.316011 0.255139
O O6 0.616750 0.118679 0.271475
O O7 0.312990 0.088461 0.901766
O O8 0.342661 0.335422 0.155596
O O9 0.623915 0.818104 0.185419
O O10 0.653804 0.755806 0.354391
O O11 0.500000 0.500000 0.000000
O O12 0.278078 0.694129 0.997422
O O13 0.247920 0.361928 0.484295
O O14 0.000000 0.500000 0.500000
O O15 0.031695 0.545198 0.351040
O O16 0.000000 0.000000 0.500000
O O17 0.179380 0.442843 0.942861
O O18 0.000000 0.500000 0.000000
#
# Coordination Sequence:
#
# PCOD9018413 Si02
#       8
#     2   2   2   2   2   2   2   2
#     4   9  21  42  66  93 130 188 227 291 350 405
#     4  11  26  44  67 103 141 176 240 288 342 435
#     4  11  22  41  67  98 134 184 230 284 353 425
#     4  12  25  40  66 102 138 181 230 290 350 421
#     4  11  27  45  69 102 141 184 230 289 360 417
#     4  10  22  40  65  96 135 179 237 281 348 417
#     4  10  21  43  70  94 137 185 228 293 348 399
#     4  10  22  39  66  98 134 182 230 286 352 410
#
# _framework density 22.751244
#
# number of rings (size 3 to 8) (size 9 to 14) (size 15 to 20)
#    0.000    1.500    0.000    5.250    7.000    2.500 
#    0.000   11.875    0.000    0.000    0.000    0.000 
#    0.000    0.000    0.000    0.000    0.000    0.000 
#
# Total GULP energy -89164.640192 kJ/mol
# GULP energy per Si atom -5572.790012 kJ/mol
# Density = 2.269946 g / cm^3
# Si number density = 22.751244 Si / 1000 Ang^3
#
#
#
# Elastic Constant Matrix: (Units=GPa)
#
#
# Indices 1 2 3 4 5 6 
#
# 1 92.2854 59.3144 38.1308 0.6770 20.9662 7.7192
# 2 59.3144 137.5741 40.5938 -10.2668 24.2806 5.9042
# 3 38.1308 40.5938 103.9731 -1.4649 3.8450 7.9557
# 4 0.6770 -10.2668 -1.4649 35.8690 1.8347 5.3935
# 5 20.9662 24.2806 3.8450 1.8347 31.4639 9.1329
# 6 7.7192 5.9042 7.9557 5.3935 9.1329 33.0840
#
#
#
# Elastic Compliance Matrix: (Units=1/GPa)
#
#
# Indices 1 2 3 4 5 6 
#
# 1 0.017508 -0.005199 -0.004157 -0.001636 -0.007069 0.000061
# 2 -0.005199 0.011388 -0.002342 0.003437 -0.005437 0.000684
# 3 -0.004157 -0.002342 0.012115 0.000097 0.003847 -0.002603
# 4 -0.001636 0.003437 0.000097 0.029683 -0.001986 -0.004546
# 5 -0.007069 -0.005437 0.003847 -0.001986 0.043211 -0.009910
# 6 0.000061 0.000684 -0.002603 -0.004546 -0.009910 0.034193
#
#
# Mechanical properties :
#
#
# Convention : Reuss Voigt Hill
#
# Bulk Modulus (GPa) = 56.77258 67.76782 62.27020
# Shear Modulus (GPa) = 28.19015 33.13628 30.66322
#
# Velocity S-wave (km/s) = 3.52385 3.82050 3.67517
# Velocity P-wave (km/s) = 6.44705 7.02230 6.74081
#
# Compressibility (1/GPa) = 0.01761414
#
# Stress axis : x y z
#
# Youngs Moduli (GPa) = 57.11652 87.81038 82.53966
#
# Poissons Ratio (x) = 0.45652 0.34315
# Poissons Ratio (y) = 0.29694 0.19335
# Poissons Ratio (z) = 0.23745 0.20570
#
# Static dielectric constant tensor:
#      x y z
#    x 1.935450 -0.027080 -0.028360 
#    y -0.027080 1.977020 -0.004950 
#    z -0.028360 -0.004950 1.948370 
# 
# From -- ./inp_files/519182.got.cif
#   From: 2010.05.17/outbox.cif.g08.bks.cpg/sg2_260_cif.got.tgz:519182.got - 2010.06.03 11:33:40.
