data_PCOD9018603
_publ_section_title
;
Structure prediction by ZEFSAII (Michael W. Deem and Ramdas Pophale) SiO2 
 PCOD9018603
Probable space group: P -1
;
_chemical_formula_sum "Si O2"
_cell_formula_units_Z 15
_cell_length_a 20.773164
_cell_length_b 12.793135
_cell_length_c 9.625625
_cell_angle_alpha 35.661939
_cell_angle_beta 48.443770
_cell_angle_gamma 28.514893
_cell_volume 700.104101
_symmetry_space_group_name_H-M "P -1"
_symmetry_group_IT_number 2
_symmetry_cell_setting 'triclinic'
loop_
_space_group_symop_operation_xyz
x,y,z
-x,-y,-z
loop_
_atom_site_type_symbol
_atom_site_label
_atom_site_fract_x
_atom_site_fract_y
_atom_site_fract_z
Si Si1 0.598626 0.002694 0.810695
Si Si2 0.236163 0.814103 0.935000
Si Si3 0.510506 0.535367 0.720340
Si Si4 0.900188 0.672764 0.257203
Si Si5 0.713826 0.877094 0.072322
Si Si6 0.000000 0.000000 0.000000
Si Si7 0.389143 0.290158 0.432651
Si Si8 0.843496 0.559749 0.740067
O O1 0.693771 0.797767 0.764463
O O2 0.510302 0.317319 0.549448
O O3 0.500000 0.000000 0.000000
O O4 0.698876 0.891046 0.914034
O O5 0.365141 0.691459 0.809168
O O6 0.102513 0.007969 0.824085
O O7 0.187824 0.006570 0.927832
O O8 0.269193 0.558803 0.214161
O O9 0.554993 0.615849 0.681275
O O10 0.611309 0.203125 0.916443
O O11 0.843711 0.632488 0.502783
O O12 0.056356 0.471057 0.283224
O O13 0.857169 0.678178 0.160864
O O14 0.663928 0.764440 0.320568
O O15 0.085868 0.747532 0.032264
O O16 0.500000 0.000000 0.500000
#
# Coordination Sequence:
#
# PCOD9018603 Si02
#       8
#     2   2   2   2   2   1   2   2
#     4  12  27  45  66 100 145 189 229 278 349 422
#     4  11  21  39  67 101 132 168 230 294 337 395
#     4  12  24  43  65  98 139 184 231 274 345 416
#     4  10  21  43  72  97 128 178 236 287 337 401
#     4  12  25  42  69  98 140 186 221 284 350 414
#     4  10  24  38  68 100 130 174 226 294 340 396
#     4  12  23  37  68 103 135 174 230 293 338 398
#     4  10  23  44  69 100 136 176 233 288 341 409
#
# _framework density 21.425384999999999
#
# number of rings (size 3 to 8) (size 9 to 14) (size 15 to 20)
#    0.000    0.800    5.333    2.400    3.733    0.533 
#    0.000    0.000    0.000    3.200    0.000    0.000 
#    0.000    0.000    0.000    0.000    0.000    0.000 
#
# Total GULP energy -83518.968778 kJ/mol
# GULP energy per Si atom -5567.931252 kJ/mol
# Density = 2.137662 g / cm^3
# Si number density = 21.425385 Si / 1000 Ang^3
#
#
#
# Elastic Constant Matrix: (Units=GPa)
#
#
# Indices 1 2 3 4 5 6 
#
# 1 112.8211 2.3009 23.7036 8.7017 -6.5248 1.3355
# 2 2.3009 60.8932 22.0548 -5.2856 -18.5846 -1.2792
# 3 23.7036 22.0548 102.6885 -5.8424 -12.7914 -4.9069
# 4 8.7017 -5.2856 -5.8424 24.7061 5.1188 -7.0981
# 5 -6.5248 -18.5846 -12.7914 5.1188 38.7562 0.1938
# 6 1.3355 -1.2792 -4.9069 -7.0981 0.1938 24.7327
#
#
#
# Elastic Compliance Matrix: (Units=1/GPa)
#
#
# Indices 1 2 3 4 5 6 
#
# 1 0.009922 0.000624 -0.002609 -0.005064 0.001790 -0.002488
# 2 0.000624 0.020381 -0.003315 0.001823 0.008539 0.000819
# 3 -0.002609 -0.003315 0.011578 0.003626 0.001297 0.003297
# 4 -0.005064 0.001823 0.003626 0.048972 -0.005326 0.015183
# 5 0.001790 0.008539 0.001297 -0.005326 0.031336 -0.001172
# 6 -0.002488 0.000819 0.003297 0.015183 -0.001172 0.045630
#
#
# Mechanical properties :
#
#
# Convention : Reuss Voigt Hill
#
# Bulk Modulus (GPa) = 31.96628 41.39127 36.67878
# Shear Modulus (GPa) = 26.47679 32.86190 29.66934
#
# Velocity S-wave (km/s) = 3.51916 3.92060 3.72529
# Velocity P-wave (km/s) = 5.60936 6.31313 5.97162
#
# Compressibility (1/GPa) = 0.03128296
#
# Stress axis : x y z
#
# Youngs Moduli (GPa) = 100.78148 49.06571 86.37327
#
# Poissons Ratio (x) = -0.03064 0.22531
# Poissons Ratio (y) = -0.06293 0.28632
# Poissons Ratio (z) = 0.26289 0.16265
#
# Static dielectric constant tensor:
#      x y z
#    x 1.893200 -0.057190 0.067790 
#    y -0.057190 1.801870 -0.090900 
#    z 0.067790 -0.090900 1.862740 
# 
# From -- ./inp_files/283299.got.cif
#   From: 2010.05.17/outbox.cif.g08.bks.cpg/sg2_142_cif.got.tgz:283299.got - 2010.06.03 11:33:40.
