data_PCOD9018470
_publ_section_title
;
Structure prediction by ZEFSAII (Michael W. Deem and Ramdas Pophale) SiO2 
 PCOD9018470
Probable space group: P -1
;
_chemical_formula_sum "Si O2"
_cell_formula_units_Z 16
_cell_length_a 8.758100
_cell_length_b 9.137316
_cell_length_c 13.021701
_cell_angle_alpha 54.323899
_cell_angle_beta 115.933428
_cell_angle_gamma 92.890686
_cell_volume 730.787863
_symmetry_space_group_name_H-M "P -1"
_symmetry_group_IT_number 2
_symmetry_cell_setting 'triclinic'
loop_
_space_group_symop_operation_xyz
x,y,z
-x,-y,-z
loop_
_atom_site_type_symbol
_atom_site_label
_atom_site_fract_x
_atom_site_fract_y
_atom_site_fract_z
Si Si1 0.333623 0.695283 0.340169
Si Si2 0.825974 0.619882 0.527301
Si Si3 0.462829 0.547533 0.215793
Si Si4 0.933805 0.872323 0.614772
Si Si5 0.961204 0.974152 0.115639
Si Si6 0.882095 0.360426 0.052907
Si Si7 0.608551 0.132862 0.521185
Si Si8 0.204579 0.309989 0.744526
O O1 0.322655 0.493238 0.462196
O O2 0.371236 0.665426 0.242391
O O3 0.422374 0.820742 0.386167
O O4 0.132865 0.810058 0.261781
O O5 0.824228 0.756617 0.565571
O O6 0.798052 0.716461 0.368648
O O7 0.026570 0.479023 0.645467
O O8 0.548461 0.334639 0.365624
O O9 0.623029 0.629739 0.198021
O O10 0.318057 0.553919 0.082098
O O11 0.078828 0.716832 0.787310
O O12 0.807672 0.019444 0.594838
O O13 0.000000 0.000000 0.500000
O O14 0.802796 0.882983 0.126537
O O15 0.943277 0.168221 0.085807
O O16 0.000000 0.000000 0.000000
O O17 0.000000 0.500000 0.000000
O O18 0.500000 0.000000 0.500000
#
# Coordination Sequence:
#
# PCOD9018470 Si02
#       8
#     2   2   2   2   2   2   2   2
#     4  11  22  42  71 100 136 186 240 278 348 425
#     4  10  21  43  71 100 134 187 232 286 348 421
#     4  12  25  44  70 110 142 188 236 300 354 409
#     4  12  26  45  72 101 139 189 236 283 356 426
#     4  11  23  45  69  96 129 190 238 282 346 432
#     4  12  26  47  70 102 148 188 232 287 362 435
#     4  12  25  42  65 107 148 179 235 295 348 423
#     4  10  23  41  73 101 138 170 247 297 339 412
#
# _framework density 21.894178
#
# number of rings (size 3 to 8) (size 9 to 14) (size 15 to 20)
#    0.000    0.750    3.750    4.125    5.250    0.500 
#    0.000    2.500    0.000    0.000    0.000    0.000 
#    0.000    0.000    0.000    0.000    0.000    0.000 
#
# Total GULP energy -89317.270184 kJ/mol
# GULP energy per Si atom -5582.329387 kJ/mol
# Density = 2.184435 g / cm^3
# Si number density = 21.894178 Si / 1000 Ang^3
#
#
#
# Elastic Constant Matrix: (Units=GPa)
#
#
# Indices 1 2 3 4 5 6 
#
# 1 87.8299 43.1009 26.3213 5.3214 -5.2442 27.6487
# 2 43.1009 141.1650 37.4293 8.0060 -8.1464 24.7625
# 3 26.3213 37.4293 95.0494 15.2739 -3.9693 25.3138
# 4 5.3214 8.0060 15.2739 37.8315 4.9840 2.3983
# 5 -5.2442 -8.1464 -3.9693 4.9840 37.7378 -6.2986
# 6 27.6487 24.7625 25.3138 2.3983 -6.2986 51.7125
#
#
#
# Elastic Compliance Matrix: (Units=1/GPa)
#
#
# Indices 1 2 3 4 5 6 
#
# 1 0.015277 -0.003232 -0.001262 -0.000631 0.000387 -0.005926
# 2 -0.003232 0.008975 -0.002125 -0.000648 0.001123 -0.001362
# 3 -0.001262 -0.002125 0.013754 -0.004710 0.000643 -0.004744
# 4 -0.000631 -0.000648 -0.004710 0.029070 -0.004383 0.001071
# 5 0.000387 0.001123 0.000643 -0.004383 0.027865 0.002538
# 6 -0.005926 -0.001362 -0.004744 0.001071 0.002538 0.025740
#
#
# Mechanical properties :
#
#
# Convention : Reuss Voigt Hill
#
# Bulk Modulus (GPa) = 40.37611 59.74969 50.06290
# Shear Modulus (GPa) = 35.16786 39.93586 37.55186
#
# Velocity S-wave (km/s) = 4.01217 4.27551 4.14593
# Velocity P-wave (km/s) = 6.32020 7.19186 6.77007
#
# Compressibility (1/GPa) = 0.02476712
#
# Stress axis : x y z
#
# Youngs Moduli (GPa) = 65.45882 111.42327 72.70476
#
# Poissons Ratio (x) = 0.36014 0.09175
# Poissons Ratio (y) = 0.21157 0.15452
# Poissons Ratio (z) = 0.08261 0.23680
#
# Static dielectric constant tensor:
#      x y z
#    x 1.735450 0.044960 -0.094500 
#    y 0.044960 1.763950 0.043570 
#    z -0.094500 0.043570 1.696250 
# 
# From -- ./inp_files/381466.got.cif
#   From: 2010.05.17/outbox.cif.g08.bks.cpg/sg2_191_cif.got.tgz:381466.got - 2010.06.03 11:33:40.
