data_PCOD9018035
_publ_section_title
;
Structure prediction by ZEFSAII (Michael W. Deem and Ramdas Pophale) SiO2 
 PCOD9018035
Probable space group: P -1
;
_chemical_formula_sum "Si O2"
_cell_formula_units_Z 16
_cell_length_a 9.307042
_cell_length_b 17.271579
_cell_length_c 8.962357
_cell_angle_alpha 72.110864
_cell_angle_beta 125.788379
_cell_angle_gamma 140.805761
_cell_volume 707.925233
_symmetry_space_group_name_H-M "P -1"
_symmetry_group_IT_number 2
_symmetry_cell_setting 'triclinic'
loop_
_space_group_symop_operation_xyz
x,y,z
-x,-y,-z
loop_
_atom_site_type_symbol
_atom_site_label
_atom_site_fract_x
_atom_site_fract_y
_atom_site_fract_z
Si Si1 0.799663 0.110954 0.756775
Si Si2 0.778340 0.452671 0.770503
Si Si3 0.731890 0.760444 0.593110
Si Si4 0.608991 0.541024 0.804301
Si Si5 0.047262 0.363751 0.757882
Si Si6 0.198951 0.136911 0.119912
Si Si7 0.200586 0.867741 0.593224
Si Si8 0.163677 0.664963 0.633890
O O1 0.806179 0.090384 0.597948
O O2 0.811408 0.211442 0.708350
O O3 0.531117 0.984220 0.755602
O O4 0.078885 0.178687 0.960719
O O5 0.527258 0.310367 0.632289
O O6 0.618515 0.475322 0.723925
O O7 0.972050 0.548415 0.696704
O O8 0.000000 0.500000 0.000000
O O9 0.659976 0.648886 0.701587
O O10 0.794999 0.850228 0.704981
O O11 0.003294 0.839060 0.610611
O O12 0.322559 0.438693 0.783790
O O13 0.842771 0.593412 0.033527
O O14 0.910701 0.380893 0.555704
O O15 0.513606 0.236768 0.202090
O O16 0.000000 0.000000 0.000000
O O17 0.114595 0.743483 0.591634
#
# Coordination Sequence:
#
# PCOD9018035 Si02
#       8
#     2   2   2   2   2   2   2   2
#     4  10  21  43  68 100 133 186 237 280 343 408
#     4  12  27  42  66 107 146 178 227 292 354 417
#     4  12  25  47  71 103 137 189 236 286 348 414
#     4  11  22  43  69 102 139 179 239 284 340 419
#     4  10  22  40  69 101 133 186 230 282 337 422
#     4  12  27  46  66 102 142 181 231 293 354 410
#     4  10  22  43  73  96 133 186 243 284 330 421
#     4  11  23  42  70  97 146 182 224 287 355 408
#
# _framework density 22.601255999999999
#
# number of rings (size 3 to 8) (size 9 to 14) (size 15 to 20)
#    0.000    1.000    5.000    1.875    5.250    1.000 
#    2.250    0.625    0.000    0.000    0.000    0.000 
#    0.000    0.000    0.000    0.000    0.000    0.000 
#
# Total GULP energy -89352.788492 kJ/mol
# GULP energy per Si atom -5584.549281 kJ/mol
# Density = 2.254982 g / cm^3
# Si number density = 22.601256 Si / 1000 Ang^3
#
#
#
# Elastic Constant Matrix: (Units=GPa)
#
#
# Indices 1 2 3 4 5 6 
#
# 1 101.5797 34.0503 21.4071 20.9250 -20.3962 17.3664
# 2 34.0503 76.9658 22.2236 4.4334 -12.2277 10.7415
# 3 21.4071 22.2236 132.7066 13.5386 1.7631 4.0167
# 4 20.9250 4.4334 13.5386 30.2874 -3.6266 1.6049
# 5 -20.3962 -12.2277 1.7631 -3.6266 35.2563 5.2550
# 6 17.3664 10.7415 4.0167 1.6049 5.2550 34.7562
#
#
#
# Elastic Compliance Matrix: (Units=1/GPa)
#
#
# Indices 1 2 3 4 5 6 
#
# 1 0.016124 -0.004006 -0.000917 -0.008761 0.008208 -0.007549
# 2 -0.004006 0.016476 -0.002273 0.002071 0.004255 -0.003566
# 3 -0.000917 -0.002273 0.008386 -0.003075 -0.002153 0.000659
# 4 -0.008761 0.002071 -0.003075 0.039967 -0.000430 0.002312
# 5 0.008208 0.004255 -0.002153 -0.000430 0.036235 -0.010626
# 6 -0.007549 -0.003566 0.000659 0.002312 -0.010626 0.035070
#
#
# Mechanical properties :
#
#
# Convention : Reuss Voigt Hill
#
# Bulk Modulus (GPa) = 37.60193 51.84602 44.72397
# Shear Modulus (GPa) = 28.48755 35.63138 32.05947
#
# Velocity S-wave (km/s) = 3.55412 3.97485 3.77036
# Velocity P-wave (km/s) = 5.78926 6.63741 6.22779
#
# Compressibility (1/GPa) = 0.02659438
#
# Stress axis : x y z
#
# Youngs Moduli (GPa) = 62.01888 60.69474 119.24206
#
# Poissons Ratio (x) = 0.24317 0.10933
# Poissons Ratio (y) = 0.24847 0.27100
# Poissons Ratio (z) = 0.05686 0.13794
#
# Static dielectric constant tensor:
#      x y z
#    x 1.863710 -0.067030 -0.007410 
#    y -0.067030 1.822950 0.005290 
#    z -0.007410 0.005290 1.917300 
# 
# From -- ./inp_files/217545.got.cif
#   From: 2010.05.17/outbox.cif.g08.bks.cpg/sg2_109_cif.got.tgz:217545.got - 2010.06.03 11:33:40.
