data_PCOD9018405
_publ_section_title
;
Structure prediction by ZEFSAII (Michael W. Deem and Ramdas Pophale) SiO2 
 PCOD9018405
Probable space group: P -1
;
_chemical_formula_sum "Si O2"
_cell_formula_units_Z 14
_cell_length_a 17.840081
_cell_length_b 10.156189
_cell_length_c 7.910391
_cell_angle_alpha 119.847637
_cell_angle_beta 130.834653
_cell_angle_gamma 35.323022
_cell_volume 624.883591
_symmetry_space_group_name_H-M "P -1"
_symmetry_group_IT_number 2
_symmetry_cell_setting 'triclinic'
loop_
_space_group_symop_operation_xyz
x,y,z
-x,-y,-z
loop_
_atom_site_type_symbol
_atom_site_label
_atom_site_fract_x
_atom_site_fract_y
_atom_site_fract_z
Si Si1 0.373280 0.538706 0.916057
Si Si2 0.057715 0.057984 0.365036
Si Si3 0.439301 0.122113 0.805688
Si Si4 0.707713 0.654645 0.797821
Si Si5 0.130023 0.464207 0.715409
Si Si6 0.102566 0.718080 0.409299
Si Si7 0.333060 0.640186 0.304896
O O1 0.451246 0.287896 0.907361
O O2 0.234996 0.660459 0.664573
O O3 0.500000 0.500000 0.000000
O O4 0.315544 0.664733 0.092339
O O5 0.937159 0.287724 0.225217
O O6 0.025816 0.170718 0.573691
O O7 0.038267 0.903529 0.288412
O O8 0.214265 0.879154 0.384594
O O9 0.262806 0.296208 0.668167
O O10 0.545438 0.912570 0.699848
O O11 0.500000 0.000000 0.000000
O O12 0.811288 0.517327 0.700868
O O13 0.682876 0.513797 0.747632
O O14 0.797306 0.645151 0.065357
O O15 0.000000 0.500000 0.500000
O O16 0.500000 0.500000 0.500000
#
# Coordination Sequence:
#
# PCOD9018405 Si02
#       7
#     2   2   2   2   2   2   2
#     4  12  23  41  64 104 136 171 228 278 340 396
#     4  10  22  41  64  91 137 170 222 279 334 398
#     4  10  21  43  70  93 139 177 226 277 333 406
#     4  10  22  42  68  98 133 180 228 272 338 408
#     4  11  23  41  67  97 129 182 235 274 333 405
#     4  10  22  40  65  95 135 173 212 286 346 387
#     4  11  23  40  69  98 129 178 232 271 341 405
#
# _framework density 22.404173
#
# number of rings (size 3 to 8) (size 9 to 14) (size 15 to 20)
#    0.000    1.429    4.286    1.714    2.000    9.143 
#    0.000    0.714    0.000    0.000    0.000    0.000 
#    0.000    0.000    0.000    0.000    0.000    0.000 
#
# Total GULP energy -78159.702557 kJ/mol
# GULP energy per Si atom -5582.835897 kJ/mol
# Density = 2.235318 g / cm^3
# Si number density = 22.404173 Si / 1000 Ang^3
#
#
#
# Elastic Constant Matrix: (Units=GPa)
#
#
# Indices 1 2 3 4 5 6 
#
# 1 113.4268 64.4449 40.6878 4.2221 0.7378 -23.0856
# 2 64.4449 198.6916 35.4791 -1.5479 -6.1089 -49.7291
# 3 40.6878 35.4791 98.1936 -5.3787 6.2375 -19.3482
# 4 4.2221 -1.5479 -5.3787 28.6898 -8.5598 -16.2527
# 5 0.7378 -6.1089 6.2375 -8.5598 33.7476 6.5106
# 6 -23.0856 -49.7291 -19.3482 -16.2527 6.5106 56.5259
#
#
#
# Elastic Compliance Matrix: (Units=1/GPa)
#
#
# Indices 1 2 3 4 5 6 
#
# 1 0.012244 -0.003324 -0.003994 -0.003028 -0.000888 -0.000059
# 2 -0.003324 0.007942 0.000092 0.005365 0.001498 0.007031
# 3 -0.003994 0.000092 0.013119 0.005101 -0.001920 0.004628
# 4 -0.003028 0.005365 0.005101 0.049744 0.009147 0.018478
# 5 -0.000888 0.001498 -0.001920 0.009147 0.032760 -0.000845
# 6 -0.000059 0.007031 0.004628 0.018478 -0.000845 0.030847
#
#
# Mechanical properties :
#
#
# Convention : Reuss Voigt Hill
#
# Bulk Modulus (GPa) = 53.03990 76.83729 64.93859
# Shear Modulus (GPa) = 29.87006 41.77268 35.82137
#
# Velocity S-wave (km/s) = 3.65531 4.32268 4.00293
# Velocity P-wave (km/s) = 6.44520 7.69964 7.10018
#
# Compressibility (1/GPa) = 0.01885373
#
# Stress axis : x y z
#
# Youngs Moduli (GPa) = 81.67456 125.90919 76.22625
#
# Poissons Ratio (x) = 0.41849 0.30441
# Poissons Ratio (y) = 0.27147 -0.00699
# Poissons Ratio (z) = 0.32617 -0.01155
#
# Static dielectric constant tensor:
#      x y z
#    x 1.927440 0.049690 -0.134210 
#    y 0.049690 1.916330 -0.070300 
#    z -0.134210 -0.070300 1.985590 
# 
# From -- ./inp_files/345637.got.cif
#   From: 2010.05.17/outbox.cif.g08.bks.cpg/sg2_173_cif.got.tgz:345637.got - 2010.06.03 11:33:40.
