data_PCOD9018542
_publ_section_title
;
Structure prediction by ZEFSAII (Michael W. Deem and Ramdas Pophale) SiO2 
 PCOD9018542
Probable space group: P -1
;
_chemical_formula_sum "Si O2"
_cell_formula_units_Z 12
_cell_length_a 14.883155
_cell_length_b 9.172899
_cell_length_c 15.121901
_cell_angle_alpha 75.236135
_cell_angle_beta 19.580109
_cell_angle_gamma 86.738734
_cell_volume 551.830282
_symmetry_space_group_name_H-M "P -1"
_symmetry_group_IT_number 2
_symmetry_cell_setting 'triclinic'
loop_
_space_group_symop_operation_xyz
x,y,z
-x,-y,-z
loop_
_atom_site_type_symbol
_atom_site_label
_atom_site_fract_x
_atom_site_fract_y
_atom_site_fract_z
Si Si1 0.558297 0.693966 0.932948
Si Si2 0.513918 0.678311 0.704403
Si Si3 0.260560 0.018125 0.154951
Si Si4 0.777003 0.562888 0.159842
Si Si5 0.865835 0.258140 0.807657
Si Si6 0.186169 0.978399 0.751284
O O1 0.635446 0.778746 0.947797
O O2 0.246311 0.676961 0.181589
O O3 0.500000 0.500000 0.000000
O O4 0.885562 0.861880 0.553906
O O5 0.348578 0.527817 0.804957
O O6 0.274776 0.698082 0.984970
O O7 0.721864 0.868028 0.429147
O O8 0.757591 0.653690 0.539155
O O9 0.500000 0.000000 0.000000
O O10 0.291527 0.955460 0.038656
O O11 0.500000 0.500000 0.500000
O O12 0.000000 0.500000 0.000000
O O13 0.973516 0.779241 0.937780
O O14 0.500000 0.000000 0.500000
O O15 0.000000 0.000000 0.000000
#
# Coordination Sequence:
#
# PCOD9018542 Si02
#       6
#     2   2   2   2   2   2
#     4  10  21  43  71  97 127 177 227 260 318 404
#     4  12  24  42  66  96 140 165 217 283 327 379
#     4   9  20  41  67  94 129 172 221 257 328 390
#     4  12  23  43  68  95 127 171 223 269 320 396
#     4  11  23  43  65  96 138 174 207 281 338 366
#     4  12  23  43  70  96 121 177 224 263 323 399
#
# _framework density 21.745816999999999
#
# number of rings (size 3 to 8) (size 9 to 14) (size 15 to 20)
#    0.000    1.000    5.000    2.000    0.000    2.667 
#    3.000    5.000    0.000    0.000    0.000    0.000 
#    0.000    0.000    0.000    0.000    0.000    0.000 
#
# Total GULP energy -67038.426727 kJ/mol
# GULP energy per Si atom -5586.535561 kJ/mol
# Density = 2.169632 g / cm^3
# Si number density = 21.745817 Si / 1000 Ang^3
#
#
#
# Elastic Constant Matrix: (Units=GPa)
#
#
# Indices 1 2 3 4 5 6 
#
# 1 98.8092 65.4972 33.5116 -0.6718 -27.2235 38.9931
# 2 65.4972 212.7307 53.5614 -15.8703 -12.9653 52.8297
# 3 33.5116 53.5614 82.6694 14.8570 -13.4640 9.4367
# 4 -0.6718 -15.8703 14.8570 55.9306 2.0252 -1.4191
# 5 -27.2235 -12.9653 -13.4640 2.0252 40.4031 5.0628
# 6 38.9931 52.8297 9.4367 -1.4191 5.0628 62.6453
#
#
#
# Elastic Compliance Matrix: (Units=1/GPa)
#
#
# Indices 1 2 3 4 5 6 
#
# 1 0.021314 -0.001643 -0.003855 -0.000013 0.014109 -0.012441
# 2 -0.001643 0.007753 -0.004317 0.003191 0.000387 -0.004824
# 3 -0.003855 -0.004317 0.017437 -0.005886 0.001729 0.003140
# 4 -0.000013 0.003191 -0.005886 0.020384 -0.001819 -0.001187
# 5 0.014109 0.000387 0.001729 -0.001819 0.036598 -0.012368
# 6 -0.012441 -0.004824 0.003140 -0.001187 -0.012368 0.028275
#
#
# Mechanical properties :
#
#
# Convention : Reuss Voigt Hill
#
# Bulk Modulus (GPa) = 37.21110 77.70552 57.45831
# Shear Modulus (GPa) = 31.18193 47.90507 39.54350
#
# Velocity S-wave (km/s) = 3.79083 4.69866 4.26895
# Velocity P-wave (km/s) = 6.02574 8.07760 7.12591
#
# Compressibility (1/GPa) = 0.02687371
#
# Stress axis : x y z
#
# Youngs Moduli (GPa) = 46.91807 128.97711 57.34908
#
# Poissons Ratio (x) = 0.21192 0.22109
# Poissons Ratio (y) = 0.07709 0.24757
# Poissons Ratio (z) = 0.18088 0.55679
#
# Static dielectric constant tensor:
#      x y z
#    x 1.809930 0.023210 0.026040 
#    y 0.023210 1.844070 0.016790 
#    z 0.026040 0.016790 1.819330 
# 
# From -- ./inp_files/55323.got.cif
#   From: 2010.05.17/outbox.cif.g08.bks.cpg/sg2_28_cif.got.tgz:55323.got - 2010.06.03 11:33:40.
