data_PCOD9018420
_publ_section_title
;
Structure prediction by ZEFSAII (Michael W. Deem and Ramdas Pophale) SiO2 
 PCOD9018420
Probable space group: P -1
;
_chemical_formula_sum "Si O2"
_cell_formula_units_Z 16
_cell_length_a 19.148523
_cell_length_b 5.999594
_cell_length_c 18.294618
_cell_angle_alpha 44.121077
_cell_angle_beta 27.874447
_cell_angle_gamma 48.265434
_cell_volume 680.962195
_symmetry_space_group_name_H-M "P -1"
_symmetry_group_IT_number 2
_symmetry_cell_setting 'triclinic'
loop_
_space_group_symop_operation_xyz
x,y,z
-x,-y,-z
loop_
_atom_site_type_symbol
_atom_site_label
_atom_site_fract_x
_atom_site_fract_y
_atom_site_fract_z
Si Si1 0.427186 0.156981 0.303161
Si Si2 0.130357 0.333475 0.587952
Si Si3 0.531064 0.841937 0.426925
Si Si4 0.131449 0.237129 0.324137
Si Si5 0.683369 0.154025 0.648096
Si Si6 0.203089 0.809072 0.900677
Si Si7 0.375976 0.366110 0.961464
Si Si8 0.918551 0.183930 0.138663
O O1 0.263676 0.351032 0.402152
O O2 0.568703 0.345231 0.106680
O O3 0.451861 0.086582 0.382521
O O4 0.399976 0.855666 0.349962
O O5 0.192406 0.587265 0.528151
O O6 0.966720 0.431020 0.683346
O O7 0.137678 0.978522 0.698586
O O8 0.500000 0.500000 0.500000
O O9 0.500000 0.000000 0.500000
O O10 0.707485 0.878303 0.245588
O O11 0.221006 0.163757 0.333468
O O12 0.258784 0.177847 0.158273
O O13 0.000000 0.000000 0.500000
O O14 0.537357 0.205219 0.824275
O O15 0.286967 0.525785 0.936920
O O16 0.200446 0.738280 0.833829
O O17 0.037317 0.899390 0.063706
O O18 0.000000 0.500000 0.000000
#
# Coordination Sequence:
#
# PCOD9018420 Si02
#       8
#     2   2   2   2   2   2   2   2
#     4  10  24  39  66  98 133 180 228 291 351 418
#     4  10  22  43  64  93 143 170 234 287 347 421
#     4  11  26  42  69 101 142 192 243 295 355 434
#     4  10  21  43  70  95 132 181 225 288 364 421
#     4  10  23  41  71  97 130 181 231 287 359 419
#     4  10  24  40  63  97 135 178 232 286 353 421
#     4  10  21  44  64  96 138 170 228 288 349 431
#     4  11  24  40  64  95 135 185 227 286 351 428
#
# _framework density 23.496165999999999
#
# number of rings (size 3 to 8) (size 9 to 14) (size 15 to 20)
#    0.000    1.750    1.250    1.125   10.500    3.000 
#    0.000    0.000    0.000    0.000    0.000    0.000 
#    0.000    0.000    0.000    0.000    0.000    0.000 
#
# Total GULP energy -89078.468272 kJ/mol
# GULP energy per Si atom -5567.404267 kJ/mol
# Density = 2.344269 g / cm^3
# Si number density = 23.496166 Si / 1000 Ang^3
#
#
#
# Elastic Constant Matrix: (Units=GPa)
#
#
# Indices 1 2 3 4 5 6 
#
# 1 155.5975 39.2893 46.0987 -13.0799 -9.7756 -3.1056
# 2 39.2893 37.2573 23.4414 -1.6644 -1.9321 -2.8595
# 3 46.0987 23.4414 122.1264 -4.1043 -7.1960 -4.0537
# 4 -13.0799 -1.6644 -4.1043 35.3277 -4.7159 -6.9346
# 5 -9.7756 -1.9321 -7.1960 -4.7159 28.0419 0.0400
# 6 -3.1056 -2.8595 -4.0537 -6.9346 0.0400 32.5399
#
#
#
# Elastic Compliance Matrix: (Units=1/GPa)
#
#
# Indices 1 2 3 4 5 6 
#
# 1 0.009609 -0.008744 -0.001638 0.003478 0.002911 0.000682
# 2 -0.008744 0.038679 -0.004235 -0.001820 -0.001778 0.001651
# 3 -0.001638 -0.004235 0.009776 0.000731 0.001768 0.000843
# 4 0.003478 -0.001820 0.000731 0.031860 0.006623 0.007045
# 5 0.002911 -0.001778 0.001768 0.006623 0.038118 0.001706
# 6 0.000682 0.001651 0.000843 0.007045 0.001706 0.032546
#
#
# Mechanical properties :
#
#
# Convention : Reuss Voigt Hill
#
# Bulk Modulus (GPa) = 34.68492 59.18222 46.93357
# Shear Modulus (GPa) = 25.07143 32.92535 28.99839
#
# Velocity S-wave (km/s) = 3.27011 3.74747 3.51689
# Velocity P-wave (km/s) = 5.39000 6.63079 6.04233
#
# Compressibility (1/GPa) = 0.02883098
#
# Stress axis : x y z
#
# Youngs Moduli (GPa) = 104.07213 25.85407 102.29181
#
# Poissons Ratio (x) = 0.22606 0.16752
# Poissons Ratio (y) = 0.90998 0.43319
# Poissons Ratio (z) = 0.17043 0.10949
#
# Static dielectric constant tensor:
#      x y z
#    x 1.971960 0.044840 0.038250 
#    y 0.044840 2.080650 0.001660 
#    z 0.038250 0.001660 1.930620 
# 
# From -- ./inp_files/574879.got.cif
#   From: 2010.05.17/outbox.cif.g08.bks.cpg/sg2_288_cif.got.tgz:574879.got - 2010.06.03 11:33:40.
