data_PCOD9018661
_publ_section_title
;
Structure prediction by ZEFSAII (Michael W. Deem and Ramdas Pophale) SiO2 
 PCOD9018661
Probable space group: P -1
;
_chemical_formula_sum "Si O2"
_cell_formula_units_Z 14
_cell_length_a 10.581896
_cell_length_b 9.957206
_cell_length_c 10.979829
_cell_angle_alpha 50.354598
_cell_angle_beta 55.779355
_cell_angle_gamma 92.583047
_cell_volume 569.433504
_symmetry_space_group_name_H-M "P -1"
_symmetry_group_IT_number 2
_symmetry_cell_setting 'triclinic'
loop_
_space_group_symop_operation_xyz
x,y,z
-x,-y,-z
loop_
_atom_site_type_symbol
_atom_site_label
_atom_site_fract_x
_atom_site_fract_y
_atom_site_fract_z
Si Si1 0.294403 0.864728 0.442104
Si Si2 0.913230 0.682366 0.910967
Si Si3 0.607640 0.327712 0.125804
Si Si4 0.892043 0.976857 0.194237
Si Si5 0.337155 0.149763 0.035510
Si Si6 0.296098 0.406311 0.308340
Si Si7 0.539633 0.732678 0.361550
O O1 0.101750 0.780444 0.668878
O O2 0.338438 0.694354 0.498447
O O3 0.489863 0.078069 0.283418
O O4 0.289541 0.956802 0.261068
O O5 0.746963 0.420563 0.114892
O O6 0.796381 0.780312 0.894704
O O7 0.003486 0.784845 0.935581
O O8 0.431281 0.340091 0.232508
O O9 0.743539 0.508649 0.839469
O O10 0.877510 0.806979 0.397189
O O11 0.669174 0.849645 0.344615
O O12 0.000000 0.000000 0.000000
O O13 0.561945 0.373205 0.813049
O O14 0.337231 0.116247 0.911152
O O15 0.500000 0.500000 0.500000
#
# Coordination Sequence:
#
# PCOD9018661 Si02
#       7
#     2   2   2   2   2   2   2
#     4  11  24  44  71 106 134 176 245 292 339 411
#     4  11  23  41  73 106 135 178 234 289 349 409
#     4   9  20  39  67 102 134 169 225 307 338 386
#     4  12  24  40  66  99 141 193 229 267 353 437
#     4  10  21  43  74 100 134 182 230 289 349 409
#     4   9  18  37  67  98 134 176 228 279 348 410
#     4  12  26  47  67  93 145 194 225 283 356 419
#
# _framework density 24.585840000000001
#
# number of rings (size 3 to 8) (size 9 to 14) (size 15 to 20)
#    0.000    1.429    4.286    1.714    2.000    0.571 
#    2.571    1.429    0.000    5.143    0.000    0.000 
#    0.000    0.000    0.000    0.000    0.000    0.000 
#
# Total GULP energy -78339.474551 kJ/mol
# GULP energy per Si atom -5595.676754 kJ/mol
# Density = 2.452988 g / cm^3
# Si number density = 24.585840 Si / 1000 Ang^3
#
#
#
# Elastic Constant Matrix: (Units=GPa)
#
#
# Indices 1 2 3 4 5 6 
#
# 1 84.7430 53.9312 36.0090 -4.6641 -5.2236 13.7569
# 2 53.9312 96.0052 47.9905 12.0959 3.8944 15.7476
# 3 36.0090 47.9905 119.7656 27.0004 -11.5241 -6.8237
# 4 -4.6641 12.0959 27.0004 40.4699 2.1069 -9.2497
# 5 -5.2236 3.8944 -11.5241 2.1069 23.6695 -2.4893
# 6 13.7569 15.7476 -6.8237 -9.2497 -2.4893 36.4829
#
#
#
# Elastic Compliance Matrix: (Units=1/GPa)
#
#
# Indices 1 2 3 4 5 6 
#
# 1 0.021164 -0.011055 -0.003295 0.007345 0.004054 -0.001686
# 2 -0.011055 0.021812 -0.005516 -0.005537 -0.009094 -0.008303
# 3 -0.003295 -0.005516 0.014354 -0.007612 0.008367 0.004949
# 4 0.007345 -0.005537 -0.007612 0.033974 -0.003507 0.006571
# 5 0.004054 -0.009094 0.008367 -0.003507 0.049705 0.006464
# 6 -0.001686 -0.008303 0.004949 0.006571 0.006464 0.034662
#
#
# Mechanical properties :
#
#
# Convention : Reuss Voigt Hill
#
# Bulk Modulus (GPa) = 56.82801 64.04168 60.43485
# Shear Modulus (GPa) = 22.59676 30.96334 26.78005
#
# Velocity S-wave (km/s) = 3.03495 3.55265 3.30395
# Velocity P-wave (km/s) = 5.95361 6.55234 6.26014
#
# Compressibility (1/GPa) = 0.01759695
#
# Stress axis : x y z
#
# Youngs Moduli (GPa) = 47.24991 45.84611 69.66724
#
# Poissons Ratio (x) = 0.50683 0.22958
# Poissons Ratio (y) = 0.52235 0.38429
# Poissons Ratio (z) = 0.15571 0.25289
#
# Static dielectric constant tensor:
#      x y z
#    x 1.976720 0.033110 0.002540 
#    y 0.033110 1.944000 0.015300 
#    z 0.002540 0.015300 1.985910 
# 
# From -- ./inp_files/250832.got.cif
#   From: 2010.05.17/outbox.cif.g08.bks.cpg/sg2_126_cif.got.tgz:250832.got - 2010.06.03 11:33:40.
