data_PCOD9018361
_publ_section_title
;
Structure prediction by ZEFSAII (Michael W. Deem and Ramdas Pophale) SiO2 
 PCOD9018361
Probable space group: P -1
;
_chemical_formula_sum "Si O2"
_cell_formula_units_Z 15
_cell_length_a 9.503992
_cell_length_b 11.710312
_cell_length_c 8.843114
_cell_angle_alpha 103.654355
_cell_angle_beta 133.680094
_cell_angle_gamma 70.958200
_cell_volume 672.743778
_symmetry_space_group_name_H-M "P -1"
_symmetry_group_IT_number 2
_symmetry_cell_setting 'triclinic'
loop_
_space_group_symop_operation_xyz
x,y,z
-x,-y,-z
loop_
_atom_site_type_symbol
_atom_site_label
_atom_site_fract_x
_atom_site_fract_y
_atom_site_fract_z
Si Si1 0.326947 0.040438 0.006321
Si Si2 0.408517 0.897568 0.320801
Si Si3 0.344217 0.464664 0.984161
Si Si4 0.106677 0.833593 0.319327
Si Si5 0.000000 0.500000 0.500000
Si Si6 0.292214 0.340359 0.439518
Si Si7 0.937765 0.380522 0.976324
Si Si8 0.500425 0.735351 0.725366
O O1 0.379622 0.159190 0.157015
O O2 0.339858 0.941938 0.116478
O O3 0.105910 0.076792 0.782702
O O4 0.500000 0.000000 0.000000
O O5 0.226138 0.880011 0.285426
O O6 0.580882 0.774363 0.411520
O O7 0.500000 0.000000 0.500000
O O8 0.274711 0.572247 0.087607
O O9 0.146335 0.459167 0.742139
O O10 0.500000 0.500000 0.000000
O O11 0.437655 0.343703 0.106142
O O12 0.266883 0.799668 0.561417
O O13 0.064081 0.709117 0.188920
O O14 0.803160 0.550917 0.485837
O O15 0.432996 0.347476 0.400576
O O16 0.093422 0.317409 0.200804
O O17 0.000000 0.500000 0.000000
#
# Coordination Sequence:
#
# PCOD9018361 Si02
#       8
#     2   2   2   2   1   2   2   2
#     4  12  26  45  71 104 144 183 240 309 359 429
#     4  11  22  46  73 102 139 187 246 297 353 438
#     4  11  26  42  64 106 141 182 239 290 350 420
#     4  11  24  44  77 102 133 197 237 292 373 421
#     4  10  26  42  68 102 146 184 222 308 360 406
#     4  10  21  43  70 101 139 185 241 288 356 428
#     4  11  21  43  71  99 141 188 240 285 351 440
#     4  11  24  46  70 101 145 188 247 290 362 444
#
# _framework density 22.296748999999998
#
# number of rings (size 3 to 8) (size 9 to 14) (size 15 to 20)
#    0.000    1.067    5.333    0.400    5.600    4.267 
#    2.400    0.000    0.000    0.000    0.000    0.000 
#    0.000    0.000    0.000    0.000    0.000    0.000 
#
# Total GULP energy -83583.633835 kJ/mol
# GULP energy per Si atom -5572.242256 kJ/mol
# Density = 2.224600 g / cm^3
# Si number density = 22.296749 Si / 1000 Ang^3
#
#
#
# Elastic Constant Matrix: (Units=GPa)
#
#
# Indices 1 2 3 4 5 6 
#
# 1 139.5929 51.2195 35.1162 -31.1308 13.5106 -21.4973
# 2 51.2195 72.1576 43.2026 -30.8123 5.8362 9.8644
# 3 35.1162 43.2026 150.4639 -55.5884 17.0855 0.4698
# 4 -31.1308 -30.8123 -55.5884 50.7048 -6.8619 1.7036
# 5 13.5106 5.8362 17.0855 -6.8619 42.9919 -7.4629
# 6 -21.4973 9.8644 0.4698 1.7036 -7.4629 32.1735
#
#
#
# Elastic Compliance Matrix: (Units=1/GPa)
#
#
# Indices 1 2 3 4 5 6 
#
# 1 0.013126 -0.010428 0.000716 0.002027 -0.000639 0.011702
# 2 -0.010428 0.028840 -0.002368 0.008928 -0.001138 -0.016512
# 3 0.000716 -0.002368 0.011713 0.011474 -0.002764 -0.000216
# 4 0.002027 0.008928 0.011474 0.038984 -0.000848 -0.003812
# 5 -0.000639 -0.001138 -0.002764 -0.000848 0.025611 0.005948
# 6 0.011702 -0.016512 -0.000216 -0.003812 0.005948 0.045547
#
#
# Mechanical properties :
#
#
# Convention : Reuss Voigt Hill
#
# Bulk Modulus (GPa) = 33.87766 69.03234 51.45500
# Shear Modulus (GPa) = 25.27527 40.68578 32.98052
#
# Velocity S-wave (km/s) = 3.37053 4.27633 3.85016
# Velocity P-wave (km/s) = 5.51128 7.44383 6.54923
#
# Compressibility (1/GPa) = 0.02951798
#
# Stress axis : x y z
#
# Youngs Moduli (GPa) = 76.18576 34.67390 85.37715
#
# Poissons Ratio (x) = 0.36158 -0.06110
# Poissons Ratio (y) = 0.79447 0.20216
# Poissons Ratio (z) = -0.05452 0.08210
#
# Static dielectric constant tensor:
#      x y z
#    x 1.833280 -0.011920 0.020310 
#    y -0.011920 1.827950 0.014810 
#    z 0.020310 0.014810 1.840160 
# 
# From -- ./inp_files/179580.got.cif
#   From: 2010.05.17/outbox.cif.g08.bks.cpg/sg2_90_cif.got.tgz:179580.got - 2010.06.03 11:33:40.
