data_PCOD9018177
_publ_section_title
;
Structure prediction by ZEFSAII (Michael W. Deem and Ramdas Pophale) SiO2 
 PCOD9018177
Probable space group: P -1
;
_chemical_formula_sum "Si O2"
_cell_formula_units_Z 14
_cell_length_a 9.569452
_cell_length_b 9.301184
_cell_length_c 7.188960
_cell_angle_alpha 84.985485
_cell_angle_beta 65.688769
_cell_angle_gamma 107.865810
_cell_volume 537.897563
_symmetry_space_group_name_H-M "P -1"
_symmetry_group_IT_number 2
_symmetry_cell_setting 'triclinic'
loop_
_space_group_symop_operation_xyz
x,y,z
-x,-y,-z
loop_
_atom_site_type_symbol
_atom_site_label
_atom_site_fract_x
_atom_site_fract_y
_atom_site_fract_z
Si Si1 0.519678 0.167295 0.566895
Si Si2 0.860081 0.210125 0.289312
Si Si3 0.832142 0.232621 0.855232
Si Si4 0.994610 0.974893 0.227784
Si Si5 0.362055 0.100483 0.059205
Si Si6 0.217601 0.456065 0.169111
Si Si7 0.520873 0.630589 0.751146
O O1 0.717649 0.243696 0.468568
O O2 0.419023 0.141183 0.813410
O O3 0.470287 0.288535 0.458922
O O4 0.500000 0.000000 0.500000
O O5 0.826148 0.907823 0.814588
O O6 0.958234 0.672782 0.772838
O O7 0.856556 0.037289 0.361728
O O8 0.825454 0.393186 0.782473
O O9 0.828834 0.222486 0.084321
O O10 0.992377 0.190570 0.718495
O O11 0.677154 0.083697 0.879886
O O12 0.000000 0.000000 0.000000
O O13 0.466777 0.228445 0.130443
O O14 0.329867 0.422536 0.270687
O O15 0.344851 0.497273 0.917244
#
# Coordination Sequence:
#
# PCOD9018177 Si02
#       7
#     2   2   2   2   2   2   2
#     4  12  23  42  70 102 133 170 226 280 332 387
#     4  11  19  38  69  98 130 177 222 269 338 395
#     4   9  18  34  69  94 126 177 222 264 333 392
#     4   8  16  35  63  99 119 168 229 263 322 388
#     4  10  21  43  68  98 133 166 227 279 326 381
#     4  11  21  40  63  99 136 179 218 269 331 412
#     4  11  25  41  70  97 136 178 222 270 338 394
#
# _framework density 26.027259000000001
#
# number of rings (size 3 to 8) (size 9 to 14) (size 15 to 20)
#    0.857    0.857    4.286    0.429    0.000    2.286 
#    0.000    4.286    3.143    1.714    0.000    0.000 
#    0.000    0.000    0.000    0.000    0.000    0.000 
#
# Total GULP energy -78346.333827 kJ/mol
# GULP energy per Si atom -5596.166702 kJ/mol
# Density = 2.596802 g / cm^3
# Si number density = 26.027259 Si / 1000 Ang^3
#
#
#
# Elastic Constant Matrix: (Units=GPa)
#
#
# Indices 1 2 3 4 5 6 
#
# 1 120.9951 58.4094 30.2172 -23.0593 -4.1806 -22.7371
# 2 58.4094 150.8364 23.8015 -14.0061 3.6484 -50.5214
# 3 30.2172 23.8015 85.8092 -16.0935 26.2654 -12.6218
# 4 -23.0593 -14.0061 -16.0935 31.1760 -1.3375 6.0223
# 5 -4.1806 3.6484 26.2654 -1.3375 28.5857 -10.5298
# 6 -22.7371 -50.5214 -12.6218 6.0223 -10.5298 56.4304
#
#
#
# Elastic Compliance Matrix: (Units=1/GPa)
#
#
# Indices 1 2 3 4 5 6 
#
# 1 0.012594 -0.003155 -0.004484 0.005506 0.007372 0.002035
# 2 -0.003155 0.010940 -0.001399 0.000297 0.002636 0.008671
# 3 -0.004484 -0.001399 0.020548 0.006358 -0.020127 -0.002898
# 4 0.005506 0.000297 0.006358 0.039601 -0.003586 -0.000988
# 5 0.007372 0.002636 -0.020127 -0.003586 0.058518 0.012130
# 6 0.002035 0.008671 -0.002898 -0.000988 0.012130 0.028024
#
#
# Mechanical properties :
#
#
# Convention : Reuss Voigt Hill
#
# Bulk Modulus (GPa) = 38.45350 64.72190 51.58770
# Shear Modulus (GPa) = 25.38435 39.58595 32.48515
#
# Velocity S-wave (km/s) = 3.12636 3.90416 3.53671
# Velocity P-wave (km/s) = 5.27623 6.72638 6.04495
#
# Compressibility (1/GPa) = 0.02600544
#
# Stress axis : x y z
#
# Youngs Moduli (GPa) = 79.40173 91.40678 48.66649
#
# Poissons Ratio (x) = 0.28836 0.21824
# Poissons Ratio (y) = 0.25049 0.06810
# Poissons Ratio (z) = 0.35607 0.12790
#
# Static dielectric constant tensor:
#      x y z
#    x 2.097250 -0.003070 -0.029070 
#    y -0.003070 2.078160 -0.003000 
#    z -0.029070 -0.003000 2.066360 
# 
# From -- ./inp_files/233760.got.cif
#   From: 2010.05.17/outbox.cif.g08.bks.cpg/sg2_117_cif.got.tgz:233760.got - 2010.06.03 11:33:40.
