data_PCOD9018234
_publ_section_title
;
Structure prediction by ZEFSAII (Michael W. Deem and Ramdas Pophale) SiO2 
 PCOD9018234
Probable space group: P -1
;
_chemical_formula_sum "Si O2"
_cell_formula_units_Z 16
_cell_length_a 10.954857
_cell_length_b 15.767359
_cell_length_c 8.269239
_cell_angle_alpha 129.459114
_cell_angle_beta 42.435013
_cell_angle_gamma 108.415194
_cell_volume 711.232773
_symmetry_space_group_name_H-M "P -1"
_symmetry_group_IT_number 2
_symmetry_cell_setting 'triclinic'
loop_
_space_group_symop_operation_xyz
x,y,z
-x,-y,-z
loop_
_atom_site_type_symbol
_atom_site_label
_atom_site_fract_x
_atom_site_fract_y
_atom_site_fract_z
Si Si1 0.265902 0.369526 0.598306
Si Si2 0.300360 0.749283 0.928282
Si Si3 0.111380 0.578913 0.774147
Si Si4 0.214839 0.175592 0.167051
Si Si5 0.203071 0.713062 0.349431
Si Si6 0.292060 0.485206 0.151833
Si Si7 0.468036 0.223474 0.702295
Si Si8 0.368239 0.953795 0.953214
O O1 0.478062 0.319922 0.395042
O O2 0.240416 0.482740 0.652113
O O3 0.227502 0.274493 0.400111
O O4 0.100451 0.396067 0.924039
O O5 0.177140 0.691750 0.868118
O O6 0.265134 0.880881 0.073855
O O7 0.255543 0.733944 0.140131
O O8 0.155989 0.531495 0.493650
O O9 0.012713 0.214867 0.326401
O O10 0.375497 0.168592 0.869021
O O11 0.243441 0.060314 0.101514
O O12 0.220334 0.578456 0.193604
O O13 0.344333 0.751713 0.377889
O O14 0.500000 0.500000 0.000000
O O15 0.329577 0.348870 0.942783
O O16 0.514353 0.138342 0.403330
O O17 0.500000 0.000000 0.000000
#
# Coordination Sequence:
#
# PCOD9018234 Si02
#       8
#     2   2   2   2   2   2   2   2
#     4  11  22  41  68 104 146 178 230 287 346 417
#     4  12  23  43  71 100 140 193 231 286 349 407
#     4  11  23  41  69 108 145 181 227 286 353 424
#     4  12  24  48  69 103 145 185 235 289 345 417
#     4  11  24  43  72 108 142 183 231 285 360 421
#     4  10  21  43  69 104 144 180 228 281 352 427
#     4  11  24  48  72 100 142 187 232 290 353 418
#     4  12  27  48  74 100 136 192 247 291 345 412
#
# _framework density 22.49615
#
# number of rings (size 3 to 8) (size 9 to 14) (size 15 to 20)
#    0.000    0.750    5.000    3.000    0.000    3.500 
#    0.000    0.000    0.000    0.000    0.000    0.000 
#    0.000    0.000    0.000    0.000    0.000    0.000 
#
# Total GULP energy -89648.067178 kJ/mol
# GULP energy per Si atom -5603.004199 kJ/mol
# Density = 2.244495 g / cm^3
# Si number density = 22.496150 Si / 1000 Ang^3
#
#
#
# Elastic Constant Matrix: (Units=GPa)
#
#
# Indices 1 2 3 4 5 6 
#
# 1 99.0032 41.4066 29.6386 5.0016 9.6524 8.3296
# 2 41.4066 135.9701 7.6723 12.3955 0.7172 -7.0738
# 3 29.6386 7.6723 55.5166 -10.6630 23.9068 11.7490
# 4 5.0016 12.3955 -10.6630 43.0007 -1.9198 1.7323
# 5 9.6524 0.7172 23.9068 -1.9198 47.7297 4.0953
# 6 8.3296 -7.0738 11.7490 1.7323 4.0953 36.0414
#
#
#
# Elastic Compliance Matrix: (Units=1/GPa)
#
#
# Indices 1 2 3 4 5 6 
#
# 1 0.014071 -0.003730 -0.007570 -0.002331 0.001039 -0.001523
# 2 -0.003730 0.008877 -0.000517 -0.002343 0.000543 0.002824
# 3 -0.007570 -0.000517 0.030874 0.008403 -0.012957 -0.007348
# 4 -0.002331 -0.002343 0.008403 0.026329 -0.002329 -0.003661
# 5 0.001039 0.000543 -0.012957 -0.002329 0.027032 0.001131
# 6 -0.001523 0.002824 -0.007348 -0.003661 0.001131 0.031095
#
#
# Mechanical properties :
#
#
# Convention : Reuss Voigt Hill
#
# Bulk Modulus (GPa) = 33.12443 49.76945 41.44694
# Shear Modulus (GPa) = 29.07391 39.47251 34.27321
#
# Velocity S-wave (km/s) = 3.59889 4.19338 3.90746
# Velocity P-wave (km/s) = 5.65913 6.75407 6.23070
#
# Compressibility (1/GPa) = 0.03018920
#
# Stress axis : x y z
#
# Youngs Moduli (GPa) = 71.06575 112.64669 32.38986
#
# Poissons Ratio (x) = 0.42020 0.24518
# Poissons Ratio (y) = 0.26509 0.01674
# Poissons Ratio (z) = 0.53793 0.05823
#
# Static dielectric constant tensor:
#      x y z
#    x 1.880190 0.011180 0.000110 
#    y 0.011180 1.843530 -0.025400 
#    z 0.000110 -0.025400 1.822700 
# 
# From -- ./inp_files/274222.got.cif
#   From: 2010.05.17/outbox.cif.g08.bks.cpg/sg2_138_cif.got.tgz:274222.got - 2010.06.03 11:33:40.
