data_PCOD9018940
_publ_section_title
;
Structure prediction by ZEFSAII (Michael W. Deem and Ramdas Pophale) SiO2 
 PCOD9018940
Probable space group: P -1
;
_chemical_formula_sum "Si O2"
_cell_formula_units_Z 15
_cell_length_a 10.126028
_cell_length_b 9.538432
_cell_length_c 13.409797
_cell_angle_alpha 45.831215
_cell_angle_beta 70.117207
_cell_angle_gamma 103.683097
_cell_volume 622.198482
_symmetry_space_group_name_H-M "P -1"
_symmetry_group_IT_number 2
_symmetry_cell_setting 'triclinic'
loop_
_space_group_symop_operation_xyz
x,y,z
-x,-y,-z
loop_
_atom_site_type_symbol
_atom_site_label
_atom_site_fract_x
_atom_site_fract_y
_atom_site_fract_z
Si Si1 0.124030 0.234036 0.130737
Si Si2 0.597200 0.933833 0.440138
Si Si3 0.276453 0.618882 0.091537
Si Si4 0.609723 0.399746 0.529145
Si Si5 0.286202 0.367201 0.407122
Si Si6 0.000000 0.500000 0.000000
Si Si7 0.268212 0.958762 0.229769
Si Si8 0.991927 0.572219 0.308774
O O1 0.202132 0.449668 0.093126
O O2 0.084722 0.365029 0.996347
O O3 0.274454 0.200387 0.100968
O O4 0.925303 0.918122 0.360793
O O5 0.517776 0.857758 0.384960
O O6 0.579228 0.694869 0.603021
O O7 0.500000 0.000000 0.500000
O O8 0.824419 0.209922 0.239454
O O9 0.258429 0.447896 0.271031
O O10 0.123840 0.642412 0.145830
O O11 0.506994 0.891093 0.895293
O O12 0.500000 0.500000 0.500000
O O13 0.636556 0.412109 0.635777
O O14 0.832447 0.590515 0.335108
O O15 0.150691 0.773817 0.254024
O O16 0.143531 0.742448 0.460743
#
# Coordination Sequence:
#
# PCOD9018940 Si02
#       8
#     2   2   2   2   2   1   2   2
#     4  11  23  45  67  96 141 180 221 285 337 390
#     4  10  24  42  71  97 130 176 228 274 334 401
#     4  12  25  40  70 103 133 180 234 272 338 410
#     4  10  22  43  71  96 131 182 220 269 347 402
#     4  10  21  44  66  95 138 177 219 280 336 396
#     4  10  26  44  64 100 142 168 224 284 334 402
#     4  11  24  43  66  98 137 183 222 281 343 395
#     4  11  23  43  68  94 140 173 222 289 333 398
#
# _framework density 24.108063000000001
#
# number of rings (size 3 to 8) (size 9 to 14) (size 15 to 20)
#    0.000    1.333    2.667    2.000    7.467    0.000 
#    0.000    0.000    0.000    6.400    0.000    0.000 
#    0.000    0.000    0.000    0.000    0.000    0.000 
#
# Total GULP energy -83556.394501 kJ/mol
# GULP energy per Si atom -5570.426300 kJ/mol
# Density = 2.405319 g / cm^3
# Si number density = 24.108063 Si / 1000 Ang^3
#
#
#
# Elastic Constant Matrix: (Units=GPa)
#
#
# Indices 1 2 3 4 5 6 
#
# 1 131.2708 38.7646 29.6819 2.1138 -40.0388 -30.7797
# 2 38.7646 92.9812 31.0835 -15.1702 -7.2376 -40.3490
# 3 29.6819 31.0835 70.0738 -9.8642 -29.6086 -11.1706
# 4 2.1138 -15.1702 -9.8642 21.7131 10.1589 -7.1874
# 5 -40.0388 -7.2376 -29.6086 10.1589 -12.2370 2.5889
# 6 -30.7797 -40.3490 -11.1706 -7.1874 2.5889 42.1425
#
#
#
# Elastic Compliance Matrix: (Units=1/GPa)
#
#
# Indices 1 2 3 4 5 6 
#
# 1 0.007564 0.001622 -0.005594 0.003676 -0.007705 0.006695
# 2 0.001622 0.030576 -0.000939 0.027830 0.009259 0.034389
# 3 -0.005594 -0.000939 0.015312 0.011314 -0.008474 0.001524
# 4 0.003676 0.027830 0.011314 0.076861 0.017331 0.044373
# 5 -0.007705 0.009259 -0.008474 0.017331 -0.025922 0.005539
# 6 0.006695 0.034389 0.001524 0.044373 0.005539 0.069176
#
#
# Mechanical properties :
#
#
# Convention : Reuss Voigt Hill
#
# Bulk Modulus (GPa) = 22.91961 54.82063 38.87012
# Shear Modulus (GPa) = 25.26117 23.31010 24.28564
#
# Velocity S-wave (km/s) = 3.24053 3.11288 3.17735
# Velocity P-wave (km/s) = 4.85068 5.97569 5.44233
#
# Compressibility (1/GPa) = 0.04363075
#
# Stress axis : x y z
#
# Youngs Moduli (GPa) = 132.19806 32.70490 65.30852
#
# Poissons Ratio (x) = -0.05305 0.36536
# Poissons Ratio (y) = -0.21443 0.06130
# Poissons Ratio (z) = 0.73957 0.03070
#
# Static dielectric constant tensor:
#      x y z
#    x 3.348810 0.452710 0.716190 
#    y 0.452710 2.199340 0.316630 
#    z 0.716190 0.316630 2.345650 
# 
# From -- ./inp_files/513990.got.cif
#   From: 2010.05.17/outbox.cif.g08.bks.cpg/sg2_257_cif.got.tgz:513990.got - 2010.06.03 11:33:40.
