data_PCOD9018895
_publ_section_title
;
Structure prediction by ZEFSAII (Michael W. Deem and Ramdas Pophale) SiO2 
 PCOD9018895
Probable space group: P -1
;
_chemical_formula_sum "Si O2"
_cell_formula_units_Z 16
_cell_length_a 14.608350
_cell_length_b 10.411505
_cell_length_c 8.111193
_cell_angle_alpha 71.333844
_cell_angle_beta 43.670516
_cell_angle_gamma 95.207922
_cell_volume 702.330670
_symmetry_space_group_name_H-M "P -1"
_symmetry_group_IT_number 2
_symmetry_cell_setting 'triclinic'
loop_
_space_group_symop_operation_xyz
x,y,z
-x,-y,-z
loop_
_atom_site_type_symbol
_atom_site_label
_atom_site_fract_x
_atom_site_fract_y
_atom_site_fract_z
Si Si1 0.992614 0.039658 0.269924
Si Si2 0.851386 0.364402 0.157296
Si Si3 0.383625 0.548806 0.449936
Si Si4 0.712298 0.066458 0.702907
Si Si5 0.415678 0.098140 0.547329
Si Si6 0.927787 0.152715 0.969405
Si Si7 0.574541 0.226363 0.971782
Si Si8 0.318307 0.260778 0.839773
O O1 0.844641 0.024286 0.555361
O O2 0.002941 0.130217 0.046720
O O3 0.140108 0.152350 0.137040
O O4 0.994156 0.884008 0.271832
O O5 0.722792 0.417049 0.297472
O O6 0.766474 0.205048 0.440342
O O7 0.911618 0.307310 0.945732
O O8 0.000000 0.500000 0.000000
O O9 0.332161 0.370862 0.622246
O O10 0.564677 0.634258 0.216646
O O11 0.362680 0.614361 0.276791
O O12 0.564621 0.909701 0.897864
O O13 0.686829 0.152697 0.856148
O O14 0.511631 0.226949 0.232665
O O15 0.394528 0.160476 0.721546
O O16 0.500000 0.000000 0.500000
O O17 0.245023 0.990398 0.749432
#
# Coordination Sequence:
#
# PCOD9018895 Si02
#       8
#     2   2   2   2   2   2   2   2
#     4   9  16  32  54  78 110 143 185 229 275 326
#     4  10  17  30  54  83 104 147 190 226 272 331
#     4  10  21  37  54  84 119 150 181 233 279 333
#     4   9  18  32  55  79 108 144 183 227 274 335
#     4  11  21  35  59  86 107 146 191 235 276 332
#     4   9  17  30  51  79 110 136 183 236 274 319
#     4  10  20  35  58  80 116 150 181 230 289 328
#     4  10  22  35  57  87 113 147 193 229 274 329
#
# _framework density 22.781293000000002
#
# number of rings (size 3 to 8) (size 9 to 14) (size 15 to 20)
#    0.000    2.250    2.500    2.250    3.500    0.500 
#    0.000    0.625    0.000    0.000    0.000   13.125 
#    0.000    0.000    0.000    0.000    0.000    0.000 
#
# Total GULP energy -89221.926649 kJ/mol
# GULP energy per Si atom -5576.370416 kJ/mol
# Density = 2.272944 g / cm^3
# Si number density = 22.781293 Si / 1000 Ang^3
#
#
#
# Elastic Constant Matrix: (Units=GPa)
#
#
# Indices 1 2 3 4 5 6 
#
# 1 55.4712 -3.0996 20.0211 -2.4371 -13.9773 -12.9359
# 2 -3.0996 45.0041 10.3228 10.3671 -11.8589 -21.0746
# 3 20.0211 10.3228 35.2559 21.0334 -20.0783 -12.6661
# 4 -2.4371 10.3671 21.0334 39.8723 -13.9814 -4.3143
# 5 -13.9773 -11.8589 -20.0783 -13.9814 42.1671 -6.0137
# 6 -12.9359 -21.0746 -12.6661 -4.3143 -6.0137 35.2722
#
#
#
# Elastic Compliance Matrix: (Units=1/GPa)
#
#
# Indices 1 2 3 4 5 6 
#
# 1 0.034720 0.017529 -0.015813 0.014179 0.016765 0.022121
# 2 0.017529 0.051005 0.010154 -0.001776 0.030904 0.045601
# 3 -0.015813 0.010154 0.082631 -0.033179 0.030388 0.031063
# 4 0.014179 -0.001776 -0.033179 0.044766 0.002989 -0.001791
# 5 0.016765 0.030904 0.030388 0.002989 0.060002 0.046121
# 6 0.022121 0.045601 0.031063 -0.001791 0.046121 0.082509
#
#
# Mechanical properties :
#
#
# Convention : Reuss Voigt Hill
#
# Bulk Modulus (GPa) = 5.20574 21.13553 13.17064
# Shear Modulus (GPa) = 12.62862 30.69478 21.66170
#
# Velocity S-wave (km/s) = 2.35700 3.67463 3.08694
# Velocity P-wave (km/s) = 3.11405 5.22510 4.30110
#
# Compressibility (1/GPa) = 0.19209553
#
# Stress axis : x y z
#
# Youngs Moduli (GPa) = 28.80180 19.60582 12.10194
#
# Poissons Ratio (x) = -0.34366 0.19137
# Poissons Ratio (y) = -0.50486 -0.12288
# Poissons Ratio (z) = 0.45545 -0.19908
#
# Static dielectric constant tensor:
#      x y z
#    x 1.869150 -0.000370 0.011770 
#    y -0.000370 1.905380 0.055870 
#    z 0.011770 0.055870 1.891710 
# 
# From -- ./inp_files/306892.got.cif
#   From: 2010.05.17/outbox.cif.g08.bks.cpg/sg2_154_cif.got.tgz:306892.got - 2010.06.03 11:33:40.
