data_PCOD9018459
_publ_section_title
;
Structure prediction by ZEFSAII (Michael W. Deem and Ramdas Pophale) SiO2 
 PCOD9018459
Probable space group: P -1
;
_chemical_formula_sum "Si O2"
_cell_formula_units_Z 14
_cell_length_a 7.913634
_cell_length_b 12.168429
_cell_length_c 10.416865
_cell_angle_alpha 115.307092
_cell_angle_beta 78.405914
_cell_angle_gamma 50.081218
_cell_volume 506.384190
_symmetry_space_group_name_H-M "P -1"
_symmetry_group_IT_number 2
_symmetry_cell_setting 'triclinic'
loop_
_space_group_symop_operation_xyz
x,y,z
-x,-y,-z
loop_
_atom_site_type_symbol
_atom_site_label
_atom_site_fract_x
_atom_site_fract_y
_atom_site_fract_z
Si Si1 0.747357 0.985701 0.144229
Si Si2 0.295247 0.852136 0.005080
Si Si3 0.997162 0.406531 0.070555
Si Si4 0.212599 0.040907 0.590408
Si Si5 0.952789 0.416594 0.679974
Si Si6 0.811748 0.310665 0.441529
Si Si7 0.379873 0.710887 0.278972
O O1 0.275518 0.520630 0.898946
O O2 0.570911 0.158302 0.147702
O O3 0.646806 0.059059 0.342298
O O4 0.069815 0.870632 0.020435
O O5 0.082094 0.078643 0.216210
O O6 0.610827 0.618586 0.896216
O O7 0.249886 0.161340 0.941889
O O8 0.000000 0.500000 0.000000
O O9 0.938016 0.512354 0.264281
O O10 0.868882 0.188539 0.730900
O O11 0.163993 0.202948 0.624460
O O12 0.358923 0.868543 0.376348
O O13 0.924602 0.371391 0.521327
O O14 0.500000 0.500000 0.500000
O O15 0.726022 0.282508 0.566140
#
# Coordination Sequence:
#
# PCOD9018459 Si02
#       7
#     2   2   2   2   2   2   2
#     4  11  22  44  68 104 129 178 234 283 341 403
#     4  11  24  44  75 101 134 180 232 293 338 398
#     4  12  26  43  65 103 146 184 219 281 353 420
#     4  10  21  43  70  99 130 178 239 294 333 393
#     4  11  26  43  67 105 142 180 227 277 354 413
#     4  11  22  46  72 103 135 177 238 290 336 401
#     4  10  23  41  67 100 135 174 239 291 334 399
#
# _framework density 27.646992000000001
#
# number of rings (size 3 to 8) (size 9 to 14) (size 15 to 20)
#    0.000    1.143    2.857    4.286    2.000    2.286 
#    2.571    2.857    0.000    0.000    0.000    0.000 
#    0.000    0.000    0.000    0.000    0.000    0.000 
#
# Total GULP energy -78280.404435 kJ/mol
# GULP energy per Si atom -5591.457460 kJ/mol
# Density = 2.758407 g / cm^3
# Si number density = 27.646992 Si / 1000 Ang^3
#
#
#
# Elastic Constant Matrix: (Units=GPa)
#
#
# Indices 1 2 3 4 5 6 
#
# 1 68.1012 18.5887 42.9284 -1.9338 16.7905 5.4711
# 2 18.5887 133.5660 48.5339 -9.3306 7.2460 7.4050
# 3 42.9284 48.5339 138.2745 4.5147 36.7321 2.7364
# 4 -1.9338 -9.3306 4.5147 42.8022 -4.4382 4.7643
# 5 16.7905 7.2460 36.7321 -4.4382 61.3481 4.0919
# 6 5.4711 7.4050 2.7364 4.7643 4.0919 48.0530
#
#
#
# Elastic Compliance Matrix: (Units=1/GPa)
#
#
# Indices 1 2 3 4 5 6 
#
# 1 0.018683 -0.000429 -0.005196 0.001313 -0.001740 -0.001747
# 2 -0.000429 0.008993 -0.003454 0.002621 0.001415 -0.001521
# 3 -0.005196 -0.003454 0.011558 -0.002900 -0.005381 0.001211
# 4 0.001313 0.002621 -0.002900 0.024967 0.003082 -0.003126
# 5 -0.001740 0.001415 -0.005381 0.003082 0.020170 -0.001737
# 6 -0.001747 -0.001521 0.001211 -0.003126 -0.001737 0.021632
#
#
# Mechanical properties :
#
#
# Convention : Reuss Voigt Hill
#
# Bulk Modulus (GPa) = 47.45045 62.22707 54.83876
# Shear Modulus (GPa) = 38.11372 45.76671 41.94021
#
# Velocity S-wave (km/s) = 3.71696 4.07307 3.89908
# Velocity P-wave (km/s) = 5.96836 6.68404 6.33631
#
# Compressibility (1/GPa) = 0.02107461
#
# Stress axis : x y z
#
# Youngs Moduli (GPa) = 53.52457 111.20294 86.52379
#
# Poissons Ratio (x) = 0.04774 0.44954
# Poissons Ratio (y) = 0.02298 0.29889
# Poissons Ratio (z) = 0.27809 0.38414
#
# Static dielectric constant tensor:
#      x y z
#    x 2.208540 -0.032150 -0.006470 
#    y -0.032150 2.203910 -0.015960 
#    z -0.006470 -0.015960 2.165800 
# 
# From -- ./inp_files/389591.got.cif
#   From: 2010.05.17/outbox.cif.g08.bks.cpg/sg2_195_cif.got.tgz:389591.got - 2010.06.03 11:33:40.
