data_PCOD9018635
_publ_section_title
;
Structure prediction by ZEFSAII (Michael W. Deem and Ramdas Pophale) SiO2 
 PCOD9018635
Probable space group: P -1
;
_chemical_formula_sum "Si O2"
_cell_formula_units_Z 12
_cell_length_a 9.455961
_cell_length_b 8.519099
_cell_length_c 8.664662
_cell_angle_alpha 74.848386
_cell_angle_beta 131.398269
_cell_angle_gamma 98.806115
_cell_volume 505.196874
_symmetry_space_group_name_H-M "P -1"
_symmetry_group_IT_number 2
_symmetry_cell_setting 'triclinic'
loop_
_space_group_symop_operation_xyz
x,y,z
-x,-y,-z
loop_
_atom_site_type_symbol
_atom_site_label
_atom_site_fract_x
_atom_site_fract_y
_atom_site_fract_z
Si Si1 0.403056 0.806633 0.097754
Si Si2 0.961640 0.312487 0.531947
Si Si3 0.798211 0.802488 0.553020
Si Si4 0.339523 0.457527 0.267619
Si Si5 0.950849 0.964770 0.146879
Si Si6 0.528372 0.322915 0.144355
O O1 0.583652 0.826719 0.333366
O O2 0.306730 0.633959 0.118500
O O3 0.480613 0.793776 0.981481
O O4 0.242072 0.943430 0.968123
O O5 0.046235 0.225849 0.765792
O O6 0.739641 0.298123 0.364318
O O7 0.000000 0.500000 0.500000
O O8 0.068968 0.228682 0.489035
O O9 0.807459 0.643674 0.712067
O O10 0.879851 0.957869 0.654400
O O11 0.500000 0.500000 0.500000
O O12 0.405111 0.335122 0.208087
O O13 0.000000 0.000000 0.000000
O O14 0.500000 0.500000 0.000000
#
# Coordination Sequence:
#
# PCOD9018635 Si02
#       6
#     2   2   2   2   2   2
#     4  10  23  46  72 106 152 190 246 300 367 436
#     4  12  26  48  74 107 148 192 251 299 365 447
#     4  11  25  47  76 106 145 197 242 306 366 431
#     4   9  20  40  74 110 145 190 243 294 360 437
#     4  12  30  48  71 111 152 191 247 311 364 432
#     4  10  21  43  73 107 148 190 241 301 359 438
#
# _framework density 23.753118000000001
#
# number of rings (size 3 to 8) (size 9 to 14) (size 15 to 20)
#    0.000    1.333    1.667    3.500    7.000    6.000 
#    3.000    0.000    0.000    0.000    0.000    0.000 
#    0.000    0.000    0.000    0.000    0.000    0.000 
#
# Total GULP energy -67151.006105 kJ/mol
# GULP energy per Si atom -5595.917175 kJ/mol
# Density = 2.369906 g / cm^3
# Si number density = 23.753118 Si / 1000 Ang^3
#
#
#
# Elastic Constant Matrix: (Units=GPa)
#
#
# Indices 1 2 3 4 5 6 
#
# 1 100.0886 26.9963 53.8018 -10.4973 -17.0249 -2.4686
# 2 26.9963 97.4405 54.0567 -18.2023 0.7654 -1.9584
# 3 53.8018 54.0567 109.7884 -15.3456 0.2673 -19.2970
# 4 -10.4973 -18.2023 -15.3456 48.7274 1.5019 -9.8646
# 5 -17.0249 0.7654 0.2673 1.5019 50.6680 -0.6875
# 6 -2.4686 -1.9584 -19.2970 -9.8646 -0.6875 30.9315
#
#
#
# Elastic Compliance Matrix: (Units=1/GPa)
#
#
# Indices 1 2 3 4 5 6 
#
# 1 0.015100 0.000230 -0.008231 -0.000192 0.005067 -0.003864
# 2 0.000230 0.014826 -0.007560 0.002621 -0.000224 -0.002929
# 3 -0.008231 -0.007560 0.019631 0.004175 -0.002711 0.012383
# 4 -0.000192 0.002621 0.004175 0.024964 -0.000721 0.010701
# 5 0.005067 -0.000224 -0.002711 -0.000721 0.021464 -0.001054
# 6 -0.003864 -0.002929 0.012383 0.010701 -0.001054 0.042950
#
#
# Mechanical properties :
#
#
# Convention : Reuss Voigt Hill
#
# Bulk Modulus (GPa) = 54.24883 64.11411 59.18147
# Shear Modulus (GPa) = 28.37636 37.56287 32.96962
#
# Velocity S-wave (km/s) = 3.46010 3.98098 3.72965
# Velocity P-wave (km/s) = 6.23308 6.94128 6.59669
#
# Compressibility (1/GPa) = 0.01843358
#
# Stress axis : x y z
#
# Youngs Moduli (GPa) = 66.22355 67.45068 50.93913
#
# Poissons Ratio (x) = -0.01548 0.41929
# Poissons Ratio (y) = -0.01520 0.38510
# Poissons Ratio (z) = 0.54510 0.50993
#
# Static dielectric constant tensor:
#      x y z
#    x 1.858410 0.041860 -0.010240 
#    y 0.041860 1.967000 -0.009800 
#    z -0.010240 -0.009800 1.907020 
# 
# From -- ./inp_files/147621.got.cif
#   From: 2010.05.17/outbox.cif.g08.bks.cpg/sg2_74_cif.got.tgz:147621.got - 2010.06.03 11:33:40.
