data_PCOD9018288
_publ_section_title
;
Structure prediction by ZEFSAII (Michael W. Deem and Ramdas Pophale) SiO2 
 PCOD9018288
Probable space group: P -1
;
_chemical_formula_sum "Si O2"
_cell_formula_units_Z 16
_cell_length_a 9.761966
_cell_length_b 18.440066
_cell_length_c 9.311098
_cell_angle_alpha 102.305582
_cell_angle_beta 125.242026
_cell_angle_gamma 39.233098
_cell_volume 772.017523
_symmetry_space_group_name_H-M "P -1"
_symmetry_group_IT_number 2
_symmetry_cell_setting 'triclinic'
loop_
_space_group_symop_operation_xyz
x,y,z
-x,-y,-z
loop_
_atom_site_type_symbol
_atom_site_label
_atom_site_fract_x
_atom_site_fract_y
_atom_site_fract_z
Si Si1 0.504496 0.840207 0.193801
Si Si2 0.917041 0.088510 0.835036
Si Si3 0.863846 0.130461 0.502556
Si Si4 0.938484 0.846232 0.807874
Si Si5 0.524292 0.565319 0.946020
Si Si6 0.648287 0.958234 0.384893
Si Si7 0.303171 0.420385 0.215465
Si Si8 0.933649 0.546227 0.315060
O O1 0.311572 0.887632 0.234564
O O2 0.634050 0.874724 0.314237
O O3 0.734472 0.692149 0.247387
O O4 0.248349 0.938421 0.960291
O O5 0.805848 0.157006 0.647062
O O6 0.936030 0.142685 0.995027
O O7 0.570691 0.264703 0.302936
O O8 0.127995 0.089369 0.609945
O O9 0.000000 0.000000 0.500000
O O10 0.766897 0.938258 0.604391
O O11 0.200945 0.711460 0.834412
O O12 0.685472 0.893544 0.759577
O O13 0.602920 0.543399 0.813587
O O14 0.500000 0.500000 0.000000
O O15 0.749532 0.542714 0.142011
O O16 0.211071 0.462463 0.344666
O O17 0.000000 0.500000 0.000000
O O18 0.000000 0.500000 0.500000
#
# Coordination Sequence:
#
# PCOD9018288 Si02
#       8
#     2   2   2   2   2   2   2   2
#     4  10  22  41  70  96 133 179 228 282 338 407
#     4  10  23  41  72  98 133 177 228 278 352 409
#     4  12  27  42  70 104 140 178 229 289 349 409
#     4  10  21  43  69  95 133 168 228 278 345 399
#     4  11  24  44  69  96 134 182 229 282 347 410
#     4  10  24  41  69  97 131 175 224 285 341 409
#     4  10  25  46  67  99 140 181 229 284 343 416
#     4  11  24  43  70  98 136 181 232 281 344 413
#
# _framework density 20.724919
#
# number of rings (size 3 to 8) (size 9 to 14) (size 15 to 20)
#    0.000    1.500    2.500    0.750   12.250    4.000 
#    2.250    1.250    0.000    0.000    0.000    0.000 
#    0.000    0.000    0.000    0.000    0.000    0.000 
#
# Total GULP energy -89122.485016 kJ/mol
# GULP energy per Si atom -5570.155314 kJ/mol
# Density = 2.067775 g / cm^3
# Si number density = 20.724919 Si / 1000 Ang^3
#
#
#
# Elastic Constant Matrix: (Units=GPa)
#
#
# Indices 1 2 3 4 5 6 
#
# 1 149.6722 54.8688 55.9135 -5.3878 6.3739 -1.0786
# 2 54.8688 94.6496 21.3655 -12.3271 6.0306 -7.5981
# 3 55.9135 21.3655 58.5126 -0.3147 -6.8307 1.6456
# 4 -5.3878 -12.3271 -0.3147 28.1927 -2.2263 5.4985
# 5 6.3739 6.0306 -6.8307 -2.2263 33.8230 2.3920
# 6 -1.0786 -7.5981 1.6456 5.4985 2.3920 23.6369
#
#
#
# Elastic Compliance Matrix: (Units=1/GPa)
#
#
# Indices 1 2 3 4 5 6 
#
# 1 0.012539 -0.004595 -0.010747 -0.000075 -0.003736 0.000239
# 2 -0.004595 0.014518 -0.001213 0.004589 -0.001925 0.003669
# 3 -0.010747 -0.001213 0.028861 -0.000925 0.008257 -0.003510
# 4 -0.000075 0.004589 -0.000925 0.039139 0.002136 -0.007785
# 5 -0.003736 -0.001925 0.008257 0.002136 0.032787 -0.005179
# 6 0.000239 0.003669 -0.003510 -0.007785 -0.005179 0.046076
#
#
# Mechanical properties :
#
#
# Convention : Reuss Voigt Hill
#
# Bulk Modulus (GPa) = 43.84758 63.01444 53.43101
# Shear Modulus (GPa) = 23.29553 28.50963 25.90258
#
# Velocity S-wave (km/s) = 3.35630 3.71296 3.53913
# Velocity P-wave (km/s) = 6.01852 6.98946 6.52208
#
# Compressibility (1/GPa) = 0.02280627
#
# Stress axis : x y z
#
# Youngs Moduli (GPa) = 79.75203 68.88067 34.64910
#
# Poissons Ratio (x) = 0.31653 0.37238
# Poissons Ratio (y) = 0.36649 0.04203
# Poissons Ratio (z) = 0.85711 0.08356
#
# Static dielectric constant tensor:
#      x y z
#    x 1.849090 -0.029170 -0.068510 
#    y -0.029170 1.828390 -0.012020 
#    z -0.068510 -0.012020 1.822380 
# 
# From -- ./inp_files/217923.got.cif
#   From: 2010.05.17/outbox.cif.g08.bks.cpg/sg2_109_cif.got.tgz:217923.got - 2010.06.03 11:33:40.
