data_PCOD9018787
_publ_section_title
;
Structure prediction by ZEFSAII (Michael W. Deem and Ramdas Pophale) SiO2 
 PCOD9018787
Probable space group: P -1
;
_chemical_formula_sum "Si O2"
_cell_formula_units_Z 14
_cell_length_a 17.586317
_cell_length_b 8.612503
_cell_length_c 9.037788
_cell_angle_alpha 66.668624
_cell_angle_beta 60.109301
_cell_angle_gamma 31.349575
_cell_volume 616.111976
_symmetry_space_group_name_H-M "P -1"
_symmetry_group_IT_number 2
_symmetry_cell_setting 'triclinic'
loop_
_space_group_symop_operation_xyz
x,y,z
-x,-y,-z
loop_
_atom_site_type_symbol
_atom_site_label
_atom_site_fract_x
_atom_site_fract_y
_atom_site_fract_z
Si Si1 0.703672 0.554620 0.371516
Si Si2 0.000793 0.252432 0.215647
Si Si3 0.341632 0.715063 0.988144
Si Si4 0.968089 0.248427 0.913531
Si Si5 0.648866 0.661313 0.033823
Si Si6 0.883487 0.706776 0.399784
Si Si7 0.397955 0.911746 0.622712
O O1 0.672034 0.599892 0.209988
O O2 0.583730 0.613120 0.537107
O O3 0.886468 0.270989 0.343963
O O4 0.645722 0.833034 0.372463
O O5 0.948768 0.478230 0.294703
O O6 0.964967 0.341794 0.042173
O O7 0.186775 0.946929 0.150671
O O8 0.351623 0.519895 0.971571
O O9 0.334454 0.876698 0.813924
O O10 0.500000 0.500000 0.000000
O O11 0.095429 0.134519 0.733975
O O12 0.802223 0.522578 0.892839
O O13 0.000000 0.000000 0.000000
O O14 0.500000 0.000000 0.000000
O O15 0.000000 0.500000 0.500000
O O16 0.699961 0.958975 0.482958
#
# Coordination Sequence:
#
# PCOD9018787 Si02
#       7
#     2   2   2   2   2   2   2
#     4   9  22  39  68  91 132 176 215 275 348 393
#     4  10  22  44  66  98 131 182 229 275 337 410
#     4  12  25  41  67  96 132 176 231 282 333 407
#     4  11  21  43  71  96 132 183 229 279 334 403
#     4  11  24  39  66  97 130 171 233 282 331 404
#     4  11  24  39  71 103 140 178 225 282 346 407
#     4  10  21  44  63  98 137 172 221 278 341 403
#
# _framework density 22.723140999999998
#
# number of rings (size 3 to 8) (size 9 to 14) (size 15 to 20)
#    0.000    1.429    2.857    1.286    8.000    0.571 
#    2.571    4.286    0.000    0.000    0.000    0.000 
#    0.000    0.000    0.000    0.000    0.000    0.000 
#
# Total GULP energy -78159.203199 kJ/mol
# GULP energy per Si atom -5582.800228 kJ/mol
# Density = 2.267142 g / cm^3
# Si number density = 22.723141 Si / 1000 Ang^3
#
#
#
# Elastic Constant Matrix: (Units=GPa)
#
#
# Indices 1 2 3 4 5 6 
#
# 1 151.8096 52.1298 35.9083 6.0489 0.5567 -33.5989
# 2 52.1298 100.3840 21.4292 8.3251 -15.3403 -43.8177
# 3 35.9083 21.4292 43.3825 8.6136 -8.8094 -9.0115
# 4 6.0489 8.3251 8.6136 29.3649 -16.4138 -10.8308
# 5 0.5567 -15.3403 -8.8094 -16.4138 29.0763 2.4842
# 6 -33.5989 -43.8177 -9.0115 -10.8308 2.4842 51.8926
#
#
#
# Elastic Compliance Matrix: (Units=1/GPa)
#
#
# Indices 1 2 3 4 5 6 
#
# 1 0.009938 -0.003191 -0.006896 -0.000725 -0.004596 0.002611
# 2 -0.003191 0.020742 -0.003290 0.009550 0.014015 0.016199
# 3 -0.006896 -0.003290 0.031868 -0.005064 0.005452 -0.003027
# 4 -0.000725 0.009550 -0.005064 0.059210 0.035458 0.017376
# 5 -0.004596 0.014015 0.005452 0.035458 0.062327 0.014222
# 6 0.002611 0.016199 -0.003027 0.017376 0.014222 0.037059
#
#
# Mechanical properties :
#
#
# Convention : Reuss Voigt Hill
#
# Bulk Modulus (GPa) = 27.93844 57.16783 42.55313
# Shear Modulus (GPa) = 19.24351 34.47404 26.85877
#
# Velocity S-wave (km/s) = 2.91326 3.89927 3.44175
# Velocity P-wave (km/s) = 4.86189 6.74429 5.87892
#
# Compressibility (1/GPa) = 0.03579298
#
# Stress axis : x y z
#
# Youngs Moduli (GPa) = 100.62604 48.21230 31.37991
#
# Poissons Ratio (x) = 0.15385 0.21640
# Poissons Ratio (y) = 0.32110 0.10323
# Poissons Ratio (z) = 0.69394 0.15860
#
# Static dielectric constant tensor:
#      x y z
#    x 1.850300 -0.065020 -0.024660 
#    y -0.065020 1.918020 0.050150 
#    z -0.024660 0.050150 1.891520 
# 
# From -- ./inp_files/328552.got.cif
#   From: 2010.05.17/outbox.cif.g08.bks.cpg/sg2_165_cif.got.tgz:328552.got - 2010.06.03 11:33:40.
