data_PCOD9018928
_publ_section_title
;
Structure prediction by ZEFSAII (Michael W. Deem and Ramdas Pophale) SiO2 
 PCOD9018928
Probable space group: P -1
;
_chemical_formula_sum "Si O2"
_cell_formula_units_Z 14
_cell_length_a 9.357449
_cell_length_b 21.703061
_cell_length_c 20.795527
_cell_angle_alpha 160.799587
_cell_angle_beta 29.620624
_cell_angle_gamma 150.581367
_cell_volume 653.068238
_symmetry_space_group_name_H-M "P -1"
_symmetry_group_IT_number 2
_symmetry_cell_setting 'triclinic'
loop_
_space_group_symop_operation_xyz
x,y,z
-x,-y,-z
loop_
_atom_site_type_symbol
_atom_site_label
_atom_site_fract_x
_atom_site_fract_y
_atom_site_fract_z
Si Si1 0.888526 0.050710 0.162030
Si Si2 0.749822 0.031484 0.334147
Si Si3 0.341306 0.609916 0.121377
Si Si4 0.129667 0.497537 0.518992
Si Si5 0.546140 0.398328 0.721698
Si Si6 0.824480 0.748859 0.505191
Si Si7 0.242296 0.108261 0.459294
O O1 0.857982 0.953517 0.148684
O O2 0.540316 0.040559 0.274735
O O3 0.105150 0.269377 0.309866
O O4 0.000000 0.000000 0.000000
O O5 0.592229 0.200767 0.542692
O O6 0.027358 0.140052 0.379082
O O7 0.525185 0.841883 0.270339
O O8 0.010319 0.598687 0.265670
O O9 0.500000 0.500000 0.000000
O O10 0.365079 0.504885 0.941477
O O11 0.464133 0.642081 0.541822
O O12 0.000000 0.500000 0.500000
O O13 0.883975 0.525635 0.693703
O O14 0.369589 0.329036 0.655565
O O15 0.882935 0.897173 0.568054
O O16 0.000000 0.000000 0.500000
#
# Coordination Sequence:
#
# PCOD9018928 Si02
#       7
#     2   2   2   2   2   2   2
#     4  10  23  43  68  95 137 177 215 284 329 395
#     4  10  24  44  67  97 138 172 220 280 341 385
#     4  12  26  42  69 100 134 175 227 279 327 401
#     4  10  21  44  66  93 134 174 218 274 340 394
#     4  10  23  45  66  93 140 172 215 287 330 390
#     4  12  22  42  72  95 131 183 220 276 340 394
#     4  10  22  39  65  96 132 177 221 271 336 395
#
# _framework density 21.437270000000002
#
# number of rings (size 3 to 8) (size 9 to 14) (size 15 to 20)
#    0.000    1.714    4.286    2.143    4.000    4.000 
#    0.000    1.429    0.000    0.000    0.000    0.000 
#    0.000    0.000    0.000    0.000    0.000    0.000 
#
# Total GULP energy -78081.774451 kJ/mol
# GULP energy per Si atom -5577.269604 kJ/mol
# Density = 2.138848 g / cm^3
# Si number density = 21.437270 Si / 1000 Ang^3
#
#
#
# Elastic Constant Matrix: (Units=GPa)
#
#
# Indices 1 2 3 4 5 6 
#
# 1 123.9588 17.4256 28.8203 -13.6204 5.4216 1.8972
# 2 17.4256 106.8159 31.2424 -15.7624 -4.5638 5.1348
# 3 28.8203 31.2424 83.3138 -19.9614 20.7732 -0.1658
# 4 -13.6204 -15.7624 -19.9614 39.1407 -14.7628 -0.5052
# 5 5.4216 -4.5638 20.7732 -14.7628 30.9414 0.4841
# 6 1.8972 5.1348 -0.1658 -0.5052 0.4841 30.7079
#
#
#
# Elastic Compliance Matrix: (Units=1/GPa)
#
#
# Indices 1 2 3 4 5 6 
#
# 1 0.008936 -0.000250 -0.002828 0.002042 0.001278 -0.000512
# 2 -0.000250 0.012089 -0.005173 0.005033 0.007734 -0.002073
# 3 -0.002828 -0.005173 0.018282 0.001872 -0.011669 0.001353
# 4 0.002042 0.005033 0.001872 0.035252 0.015957 -0.000629
# 5 0.001278 0.007734 -0.011669 0.015957 0.048714 -0.001941
# 6 -0.000512 -0.002073 0.001353 -0.000629 -0.001941 0.032971
#
#
# Mechanical properties :
#
#
# Convention : Reuss Voigt Hill
#
# Bulk Modulus (GPa) = 43.85150 52.11834 47.98492
# Shear Modulus (GPa) = 27.72437 35.93135 31.82786
#
# Velocity S-wave (km/s) = 3.60012 4.09848 3.85736
# Velocity P-wave (km/s) = 6.14665 6.83824 6.50165
#
# Compressibility (1/GPa) = 0.02280424
#
# Stress axis : x y z
#
# Youngs Moduli (GPa) = 111.90484 82.72245 54.69901
#
# Poissons Ratio (x) = 0.02069 0.15468
# Poissons Ratio (y) = 0.02799 0.28297
# Poissons Ratio (z) = 0.31645 0.42794
#
# Static dielectric constant tensor:
#      x y z
#    x 1.829540 -0.005160 0.021930 
#    y -0.005160 2.131020 0.120200 
#    z 0.021930 0.120200 1.879400 
# 
# From -- ./inp_files/281440.got.cif
#   From: 2010.05.17/outbox.cif.g08.bks.cpg/sg2_141_cif.got.tgz:281440.got - 2010.06.03 11:33:40.
