data_PCOD9018306
_publ_section_title
;
Structure prediction by ZEFSAII (Michael W. Deem and Ramdas Pophale) SiO2 
 PCOD9018306
Probable space group: P -1
;
_chemical_formula_sum "Si O2"
_cell_formula_units_Z 16
_cell_length_a 9.395568
_cell_length_b 8.970102
_cell_length_c 11.089492
_cell_angle_alpha 91.983236
_cell_angle_beta 48.510989
_cell_angle_gamma 97.525131
_cell_volume 692.359744
_symmetry_space_group_name_H-M "P -1"
_symmetry_group_IT_number 2
_symmetry_cell_setting 'triclinic'
loop_
_space_group_symop_operation_xyz
x,y,z
-x,-y,-z
loop_
_atom_site_type_symbol
_atom_site_label
_atom_site_fract_x
_atom_site_fract_y
_atom_site_fract_z
Si Si1 0.773149 0.338155 0.366528
Si Si2 0.474878 0.771015 0.715290
Si Si3 0.179401 0.629529 0.384312
Si Si4 0.105283 0.389967 0.848394
Si Si5 0.151965 0.222108 0.161904
Si Si6 0.854024 0.068254 0.993704
Si Si7 0.583563 0.547785 0.134849
Si Si8 0.904945 0.832791 0.529240
O O1 0.597602 0.287131 0.376697
O O2 0.749187 0.316056 0.520570
O O3 0.845633 0.512153 0.296580
O O4 0.941212 0.243071 0.233399
O O5 0.432070 0.628817 0.827932
O O6 0.701495 0.820558 0.579370
O O7 0.345022 0.894720 0.835319
O O8 0.370564 0.579687 0.225693
O O9 0.000000 0.500000 0.500000
O O10 0.075556 0.751684 0.377700
O O11 0.303101 0.374857 0.807846
O O12 0.972598 0.231902 0.897676
O O13 0.000000 0.500000 0.000000
O O14 0.145025 0.228613 0.309498
O O15 0.194958 0.061328 0.084108
O O16 0.287424 0.367516 0.039772
O O17 0.000000 0.000000 0.000000
O O18 0.000000 0.000000 0.500000
#
# Coordination Sequence:
#
# PCOD9018306 Si02
#       8
#     2   2   2   2   2   2   2   2
#     4  10  21  43  69  97 130 173 223 277 337 380
#     4  11  22  42  71  95 133 175 225 278 325 395
#     4  11  25  47  66  96 137 178 223 272 330 403
#     4  11  18  36  65 101 134 162 218 284 320 383
#     4  11  23  43  69  98 131 178 219 276 339 394
#     4  12  20  36  66 105 132 166 220 275 338 389
#     4  11  21  42  69  98 128 172 231 272 324 389
#     4  11  28  49  62  93 147 177 216 276 339 402
#
# _framework density 23.109373000000001
#
# number of rings (size 3 to 8) (size 9 to 14) (size 15 to 20)
#    0.000    1.000    7.500    0.000    1.750    4.000 
#    4.500    1.250    0.000    0.000    0.000    0.000 
#    0.000    0.000    0.000    0.000    0.000    0.000 
#
# Total GULP energy -89404.056363 kJ/mol
# GULP energy per Si atom -5587.753523 kJ/mol
# Density = 2.305678 g / cm^3
# Si number density = 23.109373 Si / 1000 Ang^3
#
#
#
# Elastic Constant Matrix: (Units=GPa)
#
#
# Indices 1 2 3 4 5 6 
#
# 1 139.8045 42.1390 44.3673 9.6937 -36.3557 -3.1367
# 2 42.1390 96.1061 13.4535 9.8117 -14.8689 4.3421
# 3 44.3673 13.4535 39.0778 1.7579 -12.3421 -1.1213
# 4 9.6937 9.8117 1.7579 26.7561 1.8359 -5.4390
# 5 -36.3557 -14.8689 -12.3421 1.8359 40.8824 6.0425
# 6 -3.1367 4.3421 -1.1213 -5.4390 6.0425 30.0413
#
#
#
# Elastic Compliance Matrix: (Units=1/GPa)
#
#
# Indices 1 2 3 4 5 6 
#
# 1 0.014445 -0.002805 -0.012641 -0.004147 0.008340 -0.000987
# 2 -0.002805 0.012719 -0.000208 -0.004542 0.002793 -0.003523
# 3 -0.012641 -0.000208 0.040136 0.002068 0.000639 0.000454
# 4 -0.004147 -0.004542 0.002068 0.042932 -0.008077 0.009698
# 5 0.008340 0.002793 0.000639 -0.008077 0.034622 -0.007935
# 6 -0.000987 -0.003523 0.000454 0.009698 -0.007935 0.037063
#
#
# Mechanical properties :
#
#
# Convention : Reuss Voigt Hill
#
# Bulk Modulus (GPa) = 27.78584 52.76756 40.27670
# Shear Modulus (GPa) = 22.20011 31.20455 26.70233
#
# Velocity S-wave (km/s) = 3.10280 3.67863 3.40292
# Velocity P-wave (km/s) = 4.98861 6.39738 5.73641
#
# Compressibility (1/GPa) = 0.03598956
#
# Stress axis : x y z
#
# Youngs Moduli (GPa) = 69.23019 78.61974 24.91514
#
# Poissons Ratio (x) = 0.22057 0.31496
# Poissons Ratio (y) = 0.19422 0.00519
# Poissons Ratio (z) = 0.87517 0.01639
#
# Static dielectric constant tensor:
#      x y z
#    x 1.918320 -0.006020 0.062130 
#    y -0.006020 1.998340 0.071350 
#    z 0.062130 0.071350 1.978750 
# 
# From -- ./inp_files/381888.got.cif
#   From: 2010.05.17/outbox.cif.g08.bks.cpg/sg2_191_cif.got.tgz:381888.got - 2010.06.03 11:33:40.
