data_PCOD9018193
_publ_section_title
;
Structure prediction by ZEFSAII (Michael W. Deem and Ramdas Pophale) SiO2 
 PCOD9018193
Probable space group: P -1
;
_chemical_formula_sum "Si O2"
_cell_formula_units_Z 16
_cell_length_a 14.857436
_cell_length_b 11.876823
_cell_length_c 8.554807
_cell_angle_alpha 31.986304
_cell_angle_beta 83.622867
_cell_angle_gamma 71.911393
_cell_volume 724.534688
_symmetry_space_group_name_H-M "P -1"
_symmetry_group_IT_number 2
_symmetry_cell_setting 'triclinic'
loop_
_space_group_symop_operation_xyz
x,y,z
-x,-y,-z
loop_
_atom_site_type_symbol
_atom_site_label
_atom_site_fract_x
_atom_site_fract_y
_atom_site_fract_z
Si Si1 0.088675 0.567046 0.340893
Si Si2 0.044560 0.041207 0.606200
Si Si3 0.413606 0.914062 0.656563
Si Si4 0.682721 0.827448 0.908738
Si Si5 0.784106 0.876183 0.374160
Si Si6 0.451576 0.439194 0.730439
Si Si7 0.141677 0.624597 0.610360
Si Si8 0.256373 0.894046 0.211771
O O1 0.155274 0.371891 0.431975
O O2 0.140297 0.586737 0.469797
O O3 0.000000 0.500000 0.500000
O O4 0.052993 0.820764 0.970128
O O5 0.149356 0.065361 0.577295
O O6 0.965737 0.288919 0.397055
O O7 0.000000 0.000000 0.500000
O O8 0.358538 0.950929 0.458388
O O9 0.324873 0.079157 0.592552
O O10 0.500000 0.000000 0.500000
O O11 0.469095 0.665323 0.022417
O O12 0.730037 0.888767 0.976967
O O13 0.594648 0.751496 0.062049
O O14 0.770636 0.607891 0.067867
O O15 0.762671 0.064317 0.016778
O O16 0.500000 0.500000 0.500000
O O17 0.355164 0.673385 0.497457
O O18 0.169899 0.844002 0.367356
#
# Coordination Sequence:
#
# PCOD9018193 Si02
#       8
#     2   2   2   2   2   2   2   2
#     4  12  24  44  72 100 135 189 234 289 345 416
#     4  12  29  44  67 108 147 182 230 292 354 422
#     4  10  24  47  67 102 145 181 232 293 353 414
#     4  10  24  41  70 100 135 185 230 292 357 411
#     4  12  24  44  74 101 142 186 240 286 348 424
#     4  10  21  43  68  99 138 176 234 296 345 418
#     4  11  23  43  68 100 143 179 237 283 348 417
#     4  11  22  41  70 103 131 184 236 289 346 422
#
# _framework density 22.083138999999999
#
# number of rings (size 3 to 8) (size 9 to 14) (size 15 to 20)
#    0.000    1.000    5.000    1.125    3.500    1.500 
#    0.000    0.000    0.000    0.000    0.000    0.000 
#    0.000    0.000    0.000    0.000    0.000    0.000 
#
# Total GULP energy -89231.309628 kJ/mol
# GULP energy per Si atom -5576.956852 kJ/mol
# Density = 2.203288 g / cm^3
# Si number density = 22.083139 Si / 1000 Ang^3
#
#
#
# Elastic Constant Matrix: (Units=GPa)
#
#
# Indices 1 2 3 4 5 6 
#
# 1 108.2458 32.1246 34.1689 -6.8300 8.3172 -15.5940
# 2 32.1246 60.1376 12.1991 0.7820 10.1421 12.3434
# 3 34.1689 12.1991 108.5455 18.9581 21.1543 6.4623
# 4 -6.8300 0.7820 18.9581 25.4319 6.3644 3.6168
# 5 8.3172 10.1421 21.1543 6.3644 36.4368 4.9162
# 6 -15.5940 12.3434 6.4623 3.6168 4.9162 39.6417
#
#
#
# Elastic Compliance Matrix: (Units=1/GPa)
#
#
# Indices 1 2 3 4 5 6 
#
# 1 0.015547 -0.009101 -0.005667 0.007434 -0.000269 0.009229
# 2 -0.009101 0.023976 0.001940 -0.002130 -0.003909 -0.010683
# 3 -0.005667 0.001940 0.013715 -0.010058 -0.004976 -0.003534
# 4 0.007434 -0.002130 -0.010058 0.049739 -0.004115 0.001200
# 5 -0.000269 -0.003909 -0.004976 -0.004115 0.032435 -0.001725
# 6 0.009229 -0.010683 -0.003534 0.001200 -0.001725 0.032863
#
#
# Mechanical properties :
#
#
# Convention : Reuss Voigt Hill
#
# Bulk Modulus (GPa) = 36.25314 48.21267 42.23291
# Shear Modulus (GPa) = 24.61535 33.53114 29.07325
#
# Velocity S-wave (km/s) = 3.34229 3.90090 3.63235
# Velocity P-wave (km/s) = 5.59882 6.49377 6.06283
#
# Compressibility (1/GPa) = 0.02758382
#
# Stress axis : x y z
#
# Youngs Moduli (GPa) = 64.32038 41.70789 72.91185
#
# Poissons Ratio (x) = 0.37958 0.41316
# Poissons Ratio (y) = 0.58538 -0.14146
# Poissons Ratio (z) = 0.36448 -0.08092
#
# Static dielectric constant tensor:
#      x y z
#    x 1.928100 0.014240 -0.004890 
#    y 0.014240 1.814990 -0.011880 
#    z -0.004890 -0.011880 1.837850 
# 
# From -- ./inp_files/306079.got.cif
#   From: 2010.05.17/outbox.cif.g08.bks.cpg/sg2_154_cif.got.tgz:306079.got - 2010.06.03 11:33:40.
