data_PCOD9018429
_publ_section_title
;
Structure prediction by ZEFSAII (Michael W. Deem and Ramdas Pophale) SiO2 
 PCOD9018429
Probable space group: P -1
;
_chemical_formula_sum "Si O2"
_cell_formula_units_Z 15
_cell_length_a 18.625783
_cell_length_b 12.258800
_cell_length_c 8.050168
_cell_angle_alpha 129.237370
_cell_angle_beta 134.353713
_cell_angle_gamma 27.546918
_cell_volume 607.384654
_symmetry_space_group_name_H-M "P -1"
_symmetry_group_IT_number 2
_symmetry_cell_setting 'triclinic'
loop_
_space_group_symop_operation_xyz
x,y,z
-x,-y,-z
loop_
_atom_site_type_symbol
_atom_site_label
_atom_site_fract_x
_atom_site_fract_y
_atom_site_fract_z
Si Si1 0.101530 0.938517 0.766179
Si Si2 0.202605 0.193471 0.830783
Si Si3 0.918146 0.333840 0.386118
Si Si4 0.401534 0.772814 0.946994
Si Si5 0.379877 0.919571 0.548962
Si Si6 0.603194 0.746242 0.468969
Si Si7 0.500000 0.500000 0.500000
Si Si8 0.016142 0.312163 0.167620
O O1 0.105787 0.806081 0.776160
O O2 0.281078 0.794507 0.858335
O O3 0.000000 0.000000 0.500000
O O4 0.009790 0.174194 0.926079
O O5 0.071178 0.467516 0.868046
O O6 0.102331 0.165973 0.585529
O O7 0.290858 0.039678 0.989192
O O8 0.339586 0.058111 0.777920
O O9 0.792029 0.545123 0.517683
O O10 0.913487 0.405171 0.263895
O O11 0.470647 0.632102 0.751363
O O12 0.538918 0.680700 0.203231
O O13 0.552221 0.775259 0.602975
O O14 0.409542 0.724857 0.458939
O O15 0.211519 0.120109 0.353326
O O16 0.500000 0.000000 0.500000
#
# Coordination Sequence:
#
# PCOD9018429 Si02
#       8
#     2   2   2   2   2   2   1   2
#     4  12  25  42  65 103 134 173 232 285 334 401
#     4  10  22  46  72  97 133 184 230 280 337 407
#     4  11  24  41  69 102 133 174 236 279 336 411
#     4  11  25  45  69  98 143 180 226 284 349 404
#     4  10  21  43  70  96 134 177 225 276 345 406
#     4  12  25  43  70 103 137 179 230 283 346 409
#     4  10  24  42  68  96 132 184 220 276 346 410
#     4  11  23  43  71  95 136 184 226 278 341 402
#
# _framework density 24.696047
#
# number of rings (size 3 to 8) (size 9 to 14) (size 15 to 20)
#    0.000    1.067    2.667    4.400    1.867    3.733 
#    0.000    6.000    0.000    0.000    0.000    0.000 
#    0.000    0.000    0.000    0.000    0.000    0.000 
#
# Total GULP energy -83695.405335 kJ/mol
# GULP energy per Si atom -5579.693689 kJ/mol
# Density = 2.463984 g / cm^3
# Si number density = 24.696047 Si / 1000 Ang^3
#
#
#
# Elastic Constant Matrix: (Units=GPa)
#
#
# Indices 1 2 3 4 5 6 
#
# 1 104.0115 38.4891 24.9588 1.9584 1.4941 -10.6034
# 2 38.4891 108.6431 -5.1416 29.2223 7.6637 24.3302
# 3 24.9588 -5.1416 61.0975 10.2007 9.0628 -9.6230
# 4 1.9584 29.2223 10.2007 33.7306 1.3310 2.5471
# 5 1.4941 7.6637 9.0628 1.3310 23.2427 10.5377
# 6 -10.6034 24.3302 -9.6230 2.5471 10.5377 50.9096
#
#
#
# Elastic Compliance Matrix: (Units=1/GPa)
#
#
# Indices 1 2 3 4 5 6 
#
# 1 0.015635 -0.009943 -0.008369 0.009729 0.002523 0.005417
# 2 -0.009943 0.020344 0.008233 -0.018730 -0.004403 -0.008389
# 3 -0.008369 0.008233 0.024949 -0.013882 -0.012126 0.002243
# 4 0.009729 -0.018730 -0.013882 0.048916 0.006052 0.004653
# 5 0.002523 -0.004403 -0.012126 0.006052 0.053721 -0.011085
# 6 0.005417 -0.008389 0.002243 0.004653 -0.011085 0.027266
#
#
# Mechanical properties :
#
#
# Convention : Reuss Voigt Hill
#
# Bulk Modulus (GPa) = 24.52868 43.37385 33.95126
# Shear Modulus (GPa) = 22.26400 35.93965 29.10182
#
# Velocity S-wave (km/s) = 3.00579 3.81895 3.43651
# Velocity P-wave (km/s) = 4.69043 6.08663 5.43356
#
# Compressibility (1/GPa) = 0.04076860
#
# Stress axis : x y z
#
# Youngs Moduli (GPa) = 63.96021 49.15554 40.08232
#
# Poissons Ratio (x) = 0.48875 0.33545
# Poissons Ratio (y) = 0.63595 -0.32999
# Poissons Ratio (z) = 0.53528 -0.40468
#
# Static dielectric constant tensor:
#      x y z
#    x 2.025030 -0.031490 -0.053210 
#    y -0.031490 1.988970 -0.004670 
#    z -0.053210 -0.004670 1.959510 
# 
# From -- ./inp_files/156899.got.cif
#   From: 2010.05.17/outbox.cif.g08.bks.cpg/sg2_79_cif.got.tgz:156899.got - 2010.06.03 11:33:40.
