data_PCOD9018419
_publ_section_title
;
Structure prediction by ZEFSAII (Michael W. Deem and Ramdas Pophale) SiO2 
 PCOD9018419
Probable space group: P -1
;
_chemical_formula_sum "Si O2"
_cell_formula_units_Z 16
_cell_length_a 12.533666
_cell_length_b 12.288249
_cell_length_c 12.245607
_cell_angle_alpha 132.385968
_cell_angle_beta 145.891976
_cell_angle_gamma 41.463221
_cell_volume 692.930301
_symmetry_space_group_name_H-M "P -1"
_symmetry_group_IT_number 2
_symmetry_cell_setting 'triclinic'
loop_
_space_group_symop_operation_xyz
x,y,z
-x,-y,-z
loop_
_atom_site_type_symbol
_atom_site_label
_atom_site_fract_x
_atom_site_fract_y
_atom_site_fract_z
Si Si1 0.948241 0.221239 0.092376
Si Si2 0.392301 0.115411 0.310582
Si Si3 0.054005 0.011816 0.678710
Si Si4 0.343285 0.162816 0.047955
Si Si5 0.222723 0.399205 0.740517
Si Si6 0.491202 0.681333 0.867587
Si Si7 0.478818 0.351473 0.701547
Si Si8 0.149727 0.120134 0.424185
O O1 0.160493 0.123973 0.134728
O O2 0.017248 0.144157 0.218735
O O3 0.903066 0.412757 0.196986
O O4 0.726696 0.236172 0.869348
O O5 0.416099 0.138917 0.218390
O O6 0.397376 0.259606 0.486114
O O7 0.593334 0.952587 0.418937
O O8 0.261164 0.839301 0.768028
O O9 0.876710 0.008409 0.605458
O O10 0.000000 0.000000 0.500000
O O11 0.116232 0.159892 0.847166
O O12 0.365173 0.310491 0.105679
O O13 0.500000 0.000000 0.000000
O O14 0.337907 0.400418 0.725572
O O15 0.083247 0.302085 0.540746
O O16 0.398580 0.303390 0.917254
O O17 0.473566 0.513379 0.750859
#
# Coordination Sequence:
#
# PCOD9018419 Si02
#       8
#     2   2   2   2   2   2   2   2
#     4  11  25  43  68 104 141 181 225 280 341 406
#     4  12  27  44  67 104 143 174 228 290 333 406
#     4  11  22  39  71 103 127 176 238 279 330 407
#     4  10  23  47  66  93 134 177 229 282 330 407
#     4  11  22  44  71 101 138 181 230 272 335 417
#     4  10  21  43  70  95 131 183 228 278 337 400
#     4  11  25  44  70 102 141 177 226 279 341 409
#     4  12  23  40  68  99 141 184 222 276 347 396
#
# _framework density 23.090344999999999
#
# number of rings (size 3 to 8) (size 9 to 14) (size 15 to 20)
#    0.000    1.000    1.250    7.500    3.500    1.000 
#    0.000    2.500    0.000    0.000    0.000    0.000 
#    0.000    0.000    0.000    0.000    0.000    0.000 
#
# Total GULP energy -89591.191872 kJ/mol
# GULP energy per Si atom -5599.449492 kJ/mol
# Density = 2.303779 g / cm^3
# Si number density = 23.090345 Si / 1000 Ang^3
#
#
#
# Elastic Constant Matrix: (Units=GPa)
#
#
# Indices 1 2 3 4 5 6 
#
# 1 93.6162 16.2151 39.0133 -10.4470 -9.1903 16.0263
# 2 16.2151 68.8664 22.0429 -8.8969 1.9318 13.4760
# 3 39.0133 22.0429 122.7070 -16.4271 -11.4637 2.0632
# 4 -10.4470 -8.8969 -16.4271 36.7101 9.3259 6.1304
# 5 -9.1903 1.9318 -11.4637 9.3259 48.6645 -4.3385
# 6 16.0263 13.4760 2.0632 6.1304 -4.3385 35.0103
#
#
#
# Elastic Compliance Matrix: (Units=1/GPa)
#
#
# Indices 1 2 3 4 5 6 
#
# 1 0.013811 -0.000420 -0.003742 0.003076 0.000583 -0.006407
# 2 -0.000420 0.017683 -0.002514 0.005106 -0.003042 -0.007737
# 3 -0.003742 -0.002514 0.010195 0.002180 0.001545 0.001889
# 4 0.003076 0.005106 0.002180 0.033676 -0.006471 -0.010201
# 5 0.000583 -0.003042 0.001545 -0.006471 0.022809 0.004773
# 6 -0.006407 -0.007737 0.001889 -0.010201 0.004773 0.036740
#
#
# Mechanical properties :
#
#
# Convention : Reuss Voigt Hill
#
# Bulk Modulus (GPa) = 35.28623 48.85914 42.07268
# Shear Modulus (GPa) = 31.70333 37.93822 34.82077
#
# Velocity S-wave (km/s) = 3.70944 4.05783 3.88754
# Velocity P-wave (km/s) = 5.80186 6.56967 6.19767
#
# Compressibility (1/GPa) = 0.02833967
#
# Stress axis : x y z
#
# Youngs Moduli (GPa) = 72.40530 56.55038 98.08589
#
# Poissons Ratio (x) = 0.02373 0.36701
# Poissons Ratio (y) = 0.03038 0.24656
# Poissons Ratio (z) = 0.27092 0.14215
#
# Static dielectric constant tensor:
#      x y z
#    x 1.942680 -0.024400 0.074460 
#    y -0.024400 1.900340 0.013340 
#    z 0.074460 0.013340 1.863370 
# 
# From -- ./inp_files/428811.got.cif
#   From: 2010.05.17/outbox.cif.g08.bks.cpg/sg2_215_cif.got.tgz:428811.got - 2010.06.03 11:33:40.
