data_PCOD9018551
_publ_section_title
;
Structure prediction by ZEFSAII (Michael W. Deem and Ramdas Pophale) SiO2 
 PCOD9018551
Probable space group: P -1
;
_chemical_formula_sum "Si O2"
_cell_formula_units_Z 16
_cell_length_a 15.174783
_cell_length_b 9.683050
_cell_length_c 8.948516
_cell_angle_alpha 117.222832
_cell_angle_beta 70.616872
_cell_angle_gamma 137.912889
_cell_volume 783.627321
_symmetry_space_group_name_H-M "P -1"
_symmetry_group_IT_number 2
_symmetry_cell_setting 'triclinic'
loop_
_space_group_symop_operation_xyz
x,y,z
-x,-y,-z
loop_
_atom_site_type_symbol
_atom_site_label
_atom_site_fract_x
_atom_site_fract_y
_atom_site_fract_z
Si Si1 0.135030 0.221213 0.467060
Si Si2 0.589540 0.473182 0.013008
Si Si3 0.954391 0.506606 0.693292
Si Si4 0.480412 0.004824 0.838972
Si Si5 0.369325 0.355729 0.599666
Si Si6 0.120297 0.218617 0.128492
Si Si7 0.790215 0.333936 0.327920
Si Si8 0.306262 0.927636 0.436864
O O1 0.254607 0.292184 0.530744
O O2 0.133944 0.178984 0.271800
O O3 0.150219 0.425006 0.568275
O O4 0.000000 0.000000 0.500000
O O5 0.598367 0.509870 0.203755
O O6 0.500000 0.500000 0.000000
O O7 0.526647 0.233665 0.891373
O O8 0.739605 0.650230 0.960358
O O9 0.910855 0.633601 0.779827
O O10 0.825275 0.255238 0.678203
O O11 0.000000 0.500000 0.500000
O O12 0.088019 0.633267 0.770973
O O13 0.569438 0.996143 0.682544
O O14 0.328288 0.803574 0.788435
O O15 0.500000 0.000000 0.000000
O O16 0.500000 0.500000 0.500000
O O17 0.326979 0.132296 0.559051
O O18 0.000000 0.000000 0.000000
O O19 0.723925 0.198428 0.454057
#
# Coordination Sequence:
#
# PCOD9018551 Si02
#       8
#     2   2   2   2   2   2   2   2
#     4  12  24  44  69 104 139 177 227 288 348 407
#     4  12  26  46  69 103 142 182 229 288 343 407
#     4  10  21  43  71  98 127 174 243 270 322 412
#     4  12  25  43  67 101 141 172 223 293 346 392
#     4  12  26  44  71 102 141 181 228 284 353 408
#     4  12  26  44  71 105 139 179 233 289 344 409
#     4  11  23  42  75  95 128 187 237 265 331 425
#     4  11  22  45  72  95 131 184 234 273 327 427
#
# _framework density 20.417871000000002
#
# number of rings (size 3 to 8) (size 9 to 14) (size 15 to 20)
#    0.000    0.500    3.750    5.625    7.000    0.000 
#    0.000    0.625    0.000    0.000    0.000    0.000 
#    0.000    0.000    0.000    0.000    0.000    0.000 
#
# Total GULP energy -89498.764080 kJ/mol
# GULP energy per Si atom -5593.672755 kJ/mol
# Density = 2.037140 g / cm^3
# Si number density = 20.417871 Si / 1000 Ang^3
#
#
#
# Elastic Constant Matrix: (Units=GPa)
#
#
# Indices 1 2 3 4 5 6 
#
# 1 136.3717 26.7869 32.2232 -6.3550 3.7293 28.7654
# 2 26.7869 95.5833 9.0555 2.3001 0.9246 11.5610
# 3 32.2232 9.0555 79.7895 -2.6443 8.3351 13.4235
# 4 -6.3550 2.3001 -2.6443 35.3372 0.3001 -1.8974
# 5 3.7293 0.9246 8.3351 0.3001 38.7885 7.3173
# 6 28.7654 11.5610 13.4235 -1.8974 7.3173 52.0228
#
#
#
# Elastic Compliance Matrix: (Units=1/GPa)
#
#
# Indices 1 2 3 4 5 6 
#
# 1 0.009271 -0.001881 -0.002868 0.001357 0.000512 -0.003991
# 2 -0.001881 0.011222 -0.000337 -0.001174 0.000268 -0.001447
# 3 -0.002868 -0.000337 0.014284 0.000507 -0.002477 -0.001658
# 4 0.001357 -0.001174 0.000507 0.028688 -0.000528 0.000501
# 5 0.000512 0.000268 -0.002477 -0.000528 0.026924 -0.003510
# 6 -0.003991 -0.001447 -0.001658 0.000501 -0.003510 0.022690
#
#
# Mechanical properties :
#
#
# Convention : Reuss Voigt Hill
#
# Bulk Modulus (GPa) = 40.64356 49.76397 45.20377
# Shear Modulus (GPa) = 38.03620 41.47495 39.75558
#
# Velocity S-wave (km/s) = 4.32080 4.51189 4.41738
# Velocity P-wave (km/s) = 6.69638 7.18112 6.94298
#
# Compressibility (1/GPa) = 0.02460414
#
# Stress axis : x y z
#
# Youngs Moduli (GPa) = 107.86221 89.11093 70.00885
#
# Poissons Ratio (x) = 0.16765 0.20077
# Poissons Ratio (y) = 0.20293 0.02361
# Poissons Ratio (z) = 0.30932 0.03005
#
# Static dielectric constant tensor:
#      x y z
#    x 1.753810 0.002060 0.025270 
#    y 0.002060 1.740740 0.001400 
#    z 0.025270 0.001400 1.730180 
# 
# From -- ./inp_files/299150.got.cif
#   From: 2010.05.17/outbox.cif.g08.bks.cpg/sg2_150_cif.got.tgz:299150.got - 2010.06.03 11:33:40.
