data_PCOD9018627
_publ_section_title
;
Structure prediction by ZEFSAII (Michael W. Deem and Ramdas Pophale) SiO2 
 PCOD9018627
Probable space group: P -1
;
_chemical_formula_sum "Si O2"
_cell_formula_units_Z 12
_cell_length_a 13.308259
_cell_length_b 8.478307
_cell_length_c 13.461367
_cell_angle_alpha 43.380795
_cell_angle_beta 146.269724
_cell_angle_gamma 144.168187
_cell_volume 487.241261
_symmetry_space_group_name_H-M "P -1"
_symmetry_group_IT_number 2
_symmetry_cell_setting 'triclinic'
loop_
_space_group_symop_operation_xyz
x,y,z
-x,-y,-z
loop_
_atom_site_type_symbol
_atom_site_label
_atom_site_fract_x
_atom_site_fract_y
_atom_site_fract_z
Si Si1 0.485138 0.479248 0.616008
Si Si2 0.227634 0.144699 0.833199
Si Si3 0.627036 0.117660 0.215752
Si Si4 0.901349 0.993003 0.814862
Si Si5 0.984011 0.734771 0.654007
Si Si6 0.226470 0.662556 0.555422
O O1 0.500000 0.500000 0.500000
O O2 0.443189 0.182181 0.740529
O O3 0.700683 0.698260 0.749996
O O4 0.204393 0.828307 0.372881
O O5 0.267707 0.419536 0.687701
O O6 0.085374 0.858419 0.788178
O O7 0.096337 0.101286 0.846216
O O8 0.459339 0.194884 0.013898
O O9 0.856050 0.308007 0.261435
O O10 0.632718 0.130659 0.334489
O O11 0.000000 0.000000 0.000000
O O12 0.730629 0.517219 0.546830
O O13 0.000000 0.000000 0.500000
O O14 0.000000 0.500000 0.500000
#
# Coordination Sequence:
#
# PCOD9018627 Si02
#       6
#     2   2   2   2   2   2
#     4  11  20  45  76 100 148 195 242 302 371 429
#     4  11  23  45  72 107 147 192 245 300 362 438
#     4  11  23  43  73 111 140 192 248 301 361 437
#     4  11  24  47  73 110 147 191 245 303 377 432
#     4  10  21  43  73 103 141 191 246 298 357 435
#     4  10  21  45  74  96 149 194 240 302 357 435
#
# _framework density 24.628457000000001
#
# number of rings (size 3 to 8) (size 9 to 14) (size 15 to 20)
#    0.000    1.333    3.333    4.000    0.000    0.667 
#   30.000    2.500    0.000    1.000    0.000    0.000 
#    0.000    0.000    0.000    0.000    0.000    0.000 
#
# Total GULP energy -67060.074154 kJ/mol
# GULP energy per Si atom -5588.339513 kJ/mol
# Density = 2.457240 g / cm^3
# Si number density = 24.628457 Si / 1000 Ang^3
#
#
#
# Elastic Constant Matrix: (Units=GPa)
#
#
# Indices 1 2 3 4 5 6 
#
# 1 158.3442 37.0960 98.1820 2.1002 7.2760 -7.6173
# 2 37.0960 128.2303 69.7114 13.1947 2.7542 -17.8735
# 3 98.1820 69.7114 212.2608 0.7591 4.8852 -12.1706
# 4 2.1002 13.1947 0.7591 40.1445 -8.2852 -0.3688
# 5 7.2760 2.7542 4.8852 -8.2852 63.7958 1.4562
# 6 -7.6173 -17.8735 -12.1706 -0.3688 1.4562 37.0575
#
#
#
# Elastic Compliance Matrix: (Units=1/GPa)
#
#
# Indices 1 2 3 4 5 6 
#
# 1 0.008916 -0.000293 -0.003985 -0.000449 -0.000767 0.000408
# 2 -0.000293 0.010467 -0.003045 -0.003481 -0.000728 0.003982
# 3 -0.003985 -0.003045 0.007559 0.001098 0.000145 0.000200
# 4 -0.000449 -0.003481 0.001098 0.026794 0.003627 -0.001287
# 5 -0.000767 -0.000728 0.000145 0.003627 0.016278 -0.001065
# 6 0.000408 0.003982 0.000200 -0.001287 -0.001065 0.029085
#
#
# Mechanical properties :
#
#
# Convention : Reuss Voigt Hill
#
# Bulk Modulus (GPa) = 81.32669 100.97935 91.15302
# Shear Modulus (GPa) = 42.42950 47.78928 45.10939
#
# Velocity S-wave (km/s) = 4.15515 4.40979 4.28436
# Velocity P-wave (km/s) = 7.49089 8.18648 7.84639
#
# Compressibility (1/GPa) = 0.01229609
#
# Stress axis : x y z
#
# Youngs Moduli (GPa) = 112.15975 95.53471 132.29944
#
# Poissons Ratio (x) = 0.02802 0.52723
# Poissons Ratio (y) = 0.03289 0.40279
# Poissons Ratio (z) = 0.44697 0.29086
#
# Static dielectric constant tensor:
#      x y z
#    x 2.063130 -0.093350 -0.085510 
#    y -0.093350 2.064380 0.080570 
#    z -0.085510 0.080570 2.002770 
# 
# From -- ./inp_files/412250.got.cif
#   From: 2010.05.17/outbox.cif.g08.bks.cpg/sg2_207_cif.got.tgz:412250.got - 2010.06.03 11:33:40.
