data_PCOD9018075
_publ_section_title
;
Structure prediction by ZEFSAII (Michael W. Deem and Ramdas Pophale) SiO2 
 PCOD9018075
Probable space group: P -1
;
_chemical_formula_sum "Si O2"
_cell_formula_units_Z 14
_cell_length_a 5.143159
_cell_length_b 9.584366
_cell_length_c 27.602365
_cell_angle_alpha 150.040163
_cell_angle_beta 62.269407
_cell_angle_gamma 114.769458
_cell_volume 601.059962
_symmetry_space_group_name_H-M "P -1"
_symmetry_group_IT_number 2
_symmetry_cell_setting 'triclinic'
loop_
_space_group_symop_operation_xyz
x,y,z
-x,-y,-z
loop_
_atom_site_type_symbol
_atom_site_label
_atom_site_fract_x
_atom_site_fract_y
_atom_site_fract_z
Si Si1 0.134960 0.796519 0.334495
Si Si2 0.980770 0.572886 0.467982
Si Si3 0.334432 0.105349 0.998431
Si Si4 0.219318 0.749952 0.204061
Si Si5 0.572158 0.676286 0.397554
Si Si6 0.835520 0.071014 0.259942
Si Si7 0.661313 0.700084 0.783187
O O1 0.054126 0.776588 0.278556
O O2 0.344879 0.536833 0.244978
O O3 0.921816 0.709471 0.372138
O O4 0.173755 0.130615 0.438538
O O5 0.327636 0.577946 0.426737
O O6 0.000000 0.500000 0.500000
O O7 0.829511 0.338571 0.376656
O O8 0.481457 0.956880 0.895473
O O9 0.329069 0.438437 0.094980
O O10 0.500000 0.000000 0.000000
O O11 0.000000 0.000000 0.000000
O O12 0.510252 0.953828 0.241251
O O13 0.008419 0.843468 0.207533
O O14 0.494990 0.474488 0.298663
O O15 0.500000 0.000000 0.500000
O O16 0.032555 0.166144 0.225106
#
# Coordination Sequence:
#
# PCOD9018075 Si02
#       7
#     2   2   2   2   2   2   2
#     4  11  23  41  72  98 143 188 245 298 356 426
#     4  10  21  43  68 105 144 196 238 299 361 433
#     4  12  26  47  79 111 140 188 247 302 362 426
#     4  12  26  47  72 107 145 188 243 301 358 432
#     4   9  22  40  65 101 141 180 242 288 359 420
#     4  11  28  46  70 107 149 188 239 297 370 427
#     4  11  26  44  71 105 142 193 240 305 359 432
#
# _framework density 23.292185
#
# number of rings (size 3 to 8) (size 9 to 14) (size 15 to 20)
#    0.000    1.143    2.857    1.714    6.000    6.857 
#    2.571    0.000    0.000    0.000    0.000    0.000 
#    0.000    0.000    0.000    0.000    0.000    0.000 
#
# Total GULP energy -78140.782117 kJ/mol
# GULP energy per Si atom -5581.484437 kJ/mol
# Density = 2.323917 g / cm^3
# Si number density = 23.292185 Si / 1000 Ang^3
#
#
#
# Elastic Constant Matrix: (Units=GPa)
#
#
# Indices 1 2 3 4 5 6 
#
# 1 64.5074 20.3240 1.3038 11.7731 -2.5522 2.8905
# 2 20.3240 104.9409 46.0373 3.8900 -1.0147 1.1637
# 3 1.3038 46.0373 166.7699 15.6600 -12.5056 -0.4140
# 4 11.7731 3.8900 15.6600 48.0020 -7.0876 -7.0553
# 5 -2.5522 -1.0147 -12.5056 -7.0876 25.5713 16.0598
# 6 2.8905 1.1637 -0.4140 -7.0553 16.0598 39.2884
#
#
#
# Elastic Compliance Matrix: (Units=1/GPa)
#
#
# Indices 1 2 3 4 5 6 
#
# 1 0.017817 -0.003917 0.001606 -0.004589 0.003221 -0.003318
# 2 -0.003917 0.011732 -0.003438 0.000980 -0.001864 0.000842
# 3 0.001606 -0.003438 0.007465 -0.002215 0.004402 -0.002135
# 4 -0.004589 0.000980 -0.002215 0.023521 0.002940 0.003307
# 5 0.003221 -0.001864 0.004402 0.002940 0.056607 -0.022747
# 6 -0.003318 0.000842 -0.002135 0.003307 -0.022747 0.035541
#
#
# Mechanical properties :
#
#
# Convention : Reuss Voigt Hill
#
# Bulk Modulus (GPa) = 39.18896 52.39424 45.79160
# Shear Modulus (GPa) = 28.95384 40.47589 34.71486
#
# Velocity S-wave (km/s) = 3.52955 4.17315 3.86477
# Velocity P-wave (km/s) = 5.78548 6.76487 6.29425
#
# Compressibility (1/GPa) = 0.02551739
#
# Stress axis : x y z
#
# Youngs Moduli (GPa) = 56.12481 85.23463 133.94964
#
# Poissons Ratio (x) = 0.33389 -0.21516
# Poissons Ratio (y) = 0.21986 0.46050
# Poissons Ratio (z) = -0.09015 0.29302
#
# Static dielectric constant tensor:
#      x y z
#    x 1.940630 -0.022670 -0.048020 
#    y -0.022670 1.864110 0.043960 
#    z -0.048020 0.043960 1.838570 
# 
# From -- ./inp_files/45979.got.cif
#   From: 2010.05.17/outbox.cif.g08.bks.cpg/sg2_23_cif.got.tgz:45979.got - 2010.06.03 11:33:40.
