data_PCOD9018704
_publ_section_title
;
Structure prediction by ZEFSAII (Michael W. Deem and Ramdas Pophale) SiO2 
 PCOD9018704
Probable space group: P -1
;
_chemical_formula_sum "Si O2"
_cell_formula_units_Z 10
_cell_length_a 8.108013
_cell_length_b 10.978647
_cell_length_c 11.987796
_cell_angle_alpha 32.005824
_cell_angle_beta 135.615149
_cell_angle_gamma 116.730034
_cell_volume 358.751170
_symmetry_space_group_name_H-M "P -1"
_symmetry_group_IT_number 2
_symmetry_cell_setting 'triclinic'
loop_
_space_group_symop_operation_xyz
x,y,z
-x,-y,-z
loop_
_atom_site_type_symbol
_atom_site_label
_atom_site_fract_x
_atom_site_fract_y
_atom_site_fract_z
Si Si1 0.054086 0.675182 0.481363
Si Si2 0.687660 0.156733 0.349699
Si Si3 0.236002 0.714376 0.966071
Si Si4 0.608676 0.127302 0.636026
Si Si5 0.538595 0.748576 0.292930
O O1 0.283964 0.644334 0.705338
O O2 0.132212 0.854514 0.295641
O O3 0.000000 0.500000 0.500000
O O4 0.831368 0.695340 0.447491
O O5 0.731339 0.219012 0.196267
O O6 0.442358 0.088826 0.284286
O O7 0.934242 0.888551 0.707962
O O8 0.370192 0.409638 0.282916
O O9 0.387040 0.813010 0.052237
O O10 0.586190 0.079205 0.793845
O O11 0.500000 0.500000 0.500000
#
# Coordination Sequence:
#
# PCOD9018704 Si02
#       5
#     2   2   2   2   2
#     4  12  24  46  69 103 141 180 233 285 339 416
#     4  11  25  42  71 105 139 180 233 281 344 410
#     4  10  22  45  74 101 140 182 230 282 345 408
#     4  11  24  48  74 101 138 184 227 288 345 404
#     4  10  21  43  75  98 136 180 228 278 347 399
#
# _framework density 27.874475
#
# number of rings (size 3 to 8) (size 9 to 14) (size 15 to 20)
#    0.000    1.200    4.000    3.600    0.000    5.600 
#    0.000    8.000    0.000    0.000    0.000    0.000 
#    0.000    0.000    0.000    0.000    0.000    0.000 
#
# Total GULP energy -55833.907879 kJ/mol
# GULP energy per Si atom -5583.390788 kJ/mol
# Density = 2.781103 g / cm^3
# Si number density = 27.874475 Si / 1000 Ang^3
#
#
#
# Elastic Constant Matrix: (Units=GPa)
#
#
# Indices 1 2 3 4 5 6 
#
# 1 242.5818 75.4261 48.1077 30.5078 -16.1007 14.7479
# 2 75.4261 218.9576 44.9108 53.3584 -9.1951 16.4744
# 3 48.1077 44.9108 111.8169 8.2685 -8.3919 -4.7659
# 4 30.5078 53.3584 8.2685 67.0458 -16.1310 -10.3602
# 5 -16.1007 -9.1951 -8.3919 -16.1310 53.7003 20.8564
# 6 14.7479 16.4744 -4.7659 -10.3602 20.8564 59.2914
#
#
#
# Elastic Compliance Matrix: (Units=1/GPa)
#
#
# Indices 1 2 3 4 5 6 
#
# 1 0.005121 -0.000870 -0.001725 -0.001373 0.001450 -0.001921
# 2 -0.000870 0.006751 -0.002068 -0.005123 0.000104 -0.002757
# 3 -0.001725 -0.002068 0.010521 0.001551 0.000481 0.001951
# 4 -0.001373 -0.005123 0.001551 0.020950 0.003580 0.004291
# 5 0.001450 0.000104 0.000481 0.003580 0.023302 -0.007922
# 6 -0.001921 -0.002757 0.001951 0.004291 -0.007922 0.021803
#
#
# Mechanical properties :
#
#
# Convention : Reuss Voigt Hill
#
# Bulk Modulus (GPa) = 76.53605 101.13840 88.83723
# Shear Modulus (GPa) = 48.95725 63.00162 55.97943
#
# Velocity S-wave (km/s) = 4.19543 4.75930 4.48623
# Velocity P-wave (km/s) = 7.14043 8.15865 7.66647
#
# Compressibility (1/GPa) = 0.01306574
#
# Stress axis : x y z
#
# Youngs Moduli (GPa) = 195.28768 148.11805 95.05137
#
# Poissons Ratio (x) = 0.12890 0.16397
# Poissons Ratio (y) = 0.16994 0.19658
# Poissons Ratio (z) = 0.33689 0.30633
#
# Static dielectric constant tensor:
#      x y z
#    x 2.144280 -0.041740 0.033630 
#    y -0.041740 2.240600 -0.076190 
#    z 0.033630 -0.076190 2.391350 
# 
# From -- ./inp_files/386607.got.cif
#   From: 2010.05.17/outbox.cif.g08.bks.cpg/sg2_194_cif.got.tgz:386607.got - 2010.06.03 11:33:40.
