data_PCOD9018380
_publ_section_title
;
Structure prediction by ZEFSAII (Michael W. Deem and Ramdas Pophale) SiO2 
 PCOD9018380
Probable space group: P -1
;
_chemical_formula_sum "Si O2"
_cell_formula_units_Z 14
_cell_length_a 9.265445
_cell_length_b 18.129043
_cell_length_c 6.464525
_cell_angle_alpha 78.769067
_cell_angle_beta 96.633256
_cell_angle_gamma 36.454605
_cell_volume 559.606459
_symmetry_space_group_name_H-M "P -1"
_symmetry_group_IT_number 2
_symmetry_cell_setting 'triclinic'
loop_
_space_group_symop_operation_xyz
x,y,z
-x,-y,-z
loop_
_atom_site_type_symbol
_atom_site_label
_atom_site_fract_x
_atom_site_fract_y
_atom_site_fract_z
Si Si1 0.156120 0.858947 0.503071
Si Si2 0.665473 0.965517 0.358363
Si Si3 0.617922 0.588136 0.955780
Si Si4 0.753959 0.414153 0.723790
Si Si5 0.122322 0.806810 0.076472
Si Si6 0.051889 0.397564 0.471519
Si Si7 0.509887 0.103442 0.848663
O O1 0.959220 0.872200 0.521029
O O2 0.530728 0.285195 0.284501
O O3 0.000000 0.000000 0.500000
O O4 0.174709 0.833774 0.275410
O O5 0.500000 0.000000 0.500000
O O6 0.662824 0.893665 0.250957
O O7 0.535737 0.085999 0.114308
O O8 0.645240 0.502847 0.862732
O O9 0.391018 0.691731 0.042913
O O10 0.910375 0.461613 0.188649
O O11 0.500000 0.500000 0.500000
O O12 0.913244 0.267554 0.872425
O O13 0.908909 0.403771 0.607372
O O14 0.817123 0.967492 0.883796
O O15 0.000000 0.500000 0.500000
O O16 0.364057 0.236326 0.640096
#
# Coordination Sequence:
#
# PCOD9018380 Si02
#       7
#     2   2   2   2   2   2   2
#     4  11  25  43  70 110 152 194 252 313 377 454
#     4  10  21  43  70 107 138 188 250 311 372 427
#     4  12  26  47  79 109 151 206 256 312 398 448
#     4  12  24  49  79 112 151 188 266 325 371 461
#     4  11  24  48  79 114 146 199 260 322 376 456
#     4  12  29  48  71 111 160 208 249 311 393 463
#     4  10  24  45  73 108 155 189 257 320 368 458
#
# _framework density 25.017579000000001
#
# number of rings (size 3 to 8) (size 9 to 14) (size 15 to 20)
#    0.000    0.857    2.857    3.857    4.000    3.429 
#    7.714    0.000    0.000    0.000    0.000    0.000 
#    0.000    0.000    0.000    0.000    0.000    0.000 
#
# Total GULP energy -78126.550569 kJ/mol
# GULP energy per Si atom -5580.467898 kJ/mol
# Density = 2.496064 g / cm^3
# Si number density = 25.017579 Si / 1000 Ang^3
#
#
#
# Elastic Constant Matrix: (Units=GPa)
#
#
# Indices 1 2 3 4 5 6 
#
# 1 63.7556 18.2221 25.4520 -2.6887 3.2236 -3.4381
# 2 18.2221 203.7163 97.0295 -15.9788 30.8932 -3.8304
# 3 25.4520 97.0295 146.7446 -0.6549 19.9520 -10.4416
# 4 -2.6887 -15.9788 -0.6549 67.4567 -6.3864 4.0288
# 5 3.2236 30.8932 19.9520 -6.3864 20.1053 3.0904
# 6 -3.4381 -3.8304 -10.4416 4.0288 3.0904 43.6667
#
#
#
# Elastic Compliance Matrix: (Units=1/GPa)
#
#
# Indices 1 2 3 4 5 6 
#
# 1 0.016900 -0.000174 -0.002841 0.000619 0.000490 0.000544
# 2 -0.000174 0.008318 -0.004355 0.001147 -0.008089 0.000141
# 3 -0.002841 -0.004355 0.010992 -0.001629 -0.004663 0.002503
# 4 0.000619 0.001147 -0.001629 0.015706 0.005059 -0.002047
# 5 0.000490 -0.008089 -0.004663 0.005059 0.069425 -0.007166
# 6 0.000544 0.000141 0.002503 -0.002047 -0.007166 0.024251
#
#
# Mechanical properties :
#
#
# Convention : Reuss Voigt Hill
#
# Bulk Modulus (GPa) = 46.57855 77.29154 61.93504
# Shear Modulus (GPa) = 29.85321 44.47993 37.16657
#
# Velocity S-wave (km/s) = 3.45815 4.22115 3.85855
# Velocity P-wave (km/s) = 5.88250 7.39726 6.68293
#
# Compressibility (1/GPa) = 0.02146911
#
# Stress axis : x y z
#
# Youngs Moduli (GPa) = 59.17326 120.22514 90.97879
#
# Poissons Ratio (x) = 0.02091 0.25850
# Poissons Ratio (y) = 0.01029 0.39618
# Poissons Ratio (z) = 0.16813 0.52354
#
# Static dielectric constant tensor:
#      x y z
#    x 2.692090 -0.252140 -0.287930 
#    y -0.252140 2.011030 0.040000 
#    z -0.287930 0.040000 2.191230 
# 
# From -- ./inp_files/74843.got.cif
#   From: 2010.05.17/outbox.cif.g08.bks.cpg/sg2_38_cif.got.tgz:74843.got - 2010.06.03 11:33:40.
