data_PCOD9018630
_publ_section_title
;
Structure prediction by ZEFSAII (Michael W. Deem and Ramdas Pophale) SiO2 
 PCOD9018630
Probable space group: P -1
;
_chemical_formula_sum "Si O2"
_cell_formula_units_Z 16
_cell_length_a 15.377200
_cell_length_b 5.234883
_cell_length_c 9.930272
_cell_angle_alpha 108.817356
_cell_angle_beta 69.772038
_cell_angle_gamma 126.665219
_cell_volume 594.455765
_symmetry_space_group_name_H-M "P -1"
_symmetry_group_IT_number 2
_symmetry_cell_setting 'triclinic'
loop_
_space_group_symop_operation_xyz
x,y,z
-x,-y,-z
loop_
_atom_site_type_symbol
_atom_site_label
_atom_site_fract_x
_atom_site_fract_y
_atom_site_fract_z
Si Si1 0.765563 0.495083 0.391090
Si Si2 0.931893 0.678400 0.565955
Si Si3 0.607719 0.443816 0.282067
Si Si4 0.899428 0.336685 0.131204
Si Si5 0.935718 0.727985 0.870664
Si Si6 0.717228 0.109765 0.016461
Si Si7 0.620322 0.061957 0.580769
Si Si8 0.406555 0.353384 0.238232
O O1 0.819006 0.524358 0.514149
O O2 0.708760 0.652141 0.369574
O O3 0.857014 0.551006 0.245048
O O4 0.666410 0.127704 0.414822
O O5 0.909198 0.771621 0.741346
O O6 0.000000 0.500000 0.500000
O O7 0.000000 0.000000 0.500000
O O8 0.649720 0.241642 0.146834
O O9 0.537105 0.498805 0.218087
O O10 0.507408 0.231061 0.403180
O O11 0.788590 0.040028 0.073292
O O12 0.960566 0.306146 0.218508
O O13 0.000000 0.500000 0.000000
O O14 0.822855 0.418035 0.935681
O O15 0.000000 0.000000 0.000000
O O16 0.640278 0.822164 0.908821
O O17 0.616701 0.370770 0.679186
O O18 0.658474 0.934965 0.664573
#
# Coordination Sequence:
#
# PCOD9018630 Si02
#       8
#     2   2   2   2   2   2   2   2
#     4  11  22  47  71 106 143 204 243 311 385 452
#     4  12  29  50  77 112 153 197 256 318 378 458
#     4   9  23  44  71 104 147 191 253 307 374 453
#     4   9  21  41  69  96 147 189 257 301 376 442
#     4  11  25  45  74 113 155 200 258 317 380 462
#     4  10  21  43  73 103 147 200 249 307 387 444
#     4  10  24  44  69 105 143 194 244 311 372 445
#     4  10  23  45  69 105 149 187 253 308 374 447
#
# _framework density 26.915372999999999
#
# number of rings (size 3 to 8) (size 9 to 14) (size 15 to 20)
#    0.750    1.000    1.250    1.500    5.250    5.000 
#    6.750    0.000    0.000    0.000    0.000    0.000 
#    0.000    0.000    0.000    0.000    0.000    0.000 
#
# Total GULP energy -89076.445041 kJ/mol
# GULP energy per Si atom -5567.277815 kJ/mol
# Density = 2.685411 g / cm^3
# Si number density = 26.915373 Si / 1000 Ang^3
#
#
#
# Elastic Constant Matrix: (Units=GPa)
#
#
# Indices 1 2 3 4 5 6 
#
# 1 161.8686 36.2862 65.1359 22.3809 17.4728 14.1498
# 2 36.2862 72.1764 32.1465 8.9576 -3.8055 -18.3931
# 3 65.1359 32.1465 161.4530 9.0589 22.0596 8.4809
# 4 22.3809 8.9576 9.0589 39.2753 10.8503 -0.6104
# 5 17.4728 -3.8055 22.0596 10.8503 53.4651 3.6114
# 6 14.1498 -18.3931 8.4809 -0.6104 3.6114 45.9150
#
#
#
# Elastic Compliance Matrix: (Units=1/GPa)
#
#
# Indices 1 2 3 4 5 6 
#
# 1 0.008957 -0.004199 -0.002194 -0.003322 -0.001378 -0.003973
# 2 -0.004199 0.020436 -0.003299 -0.002470 0.004031 0.009740
# 3 -0.002194 -0.003299 0.008189 0.000899 -0.002950 -0.001914
# 4 -0.003322 -0.002470 0.000899 0.029223 -0.005438 0.000684
# 5 -0.001378 0.004031 -0.002950 -0.005438 0.021707 0.000805
# 6 -0.003973 0.009740 -0.001914 0.000684 0.000805 0.027205
#
#
# Mechanical properties :
#
#
# Convention : Reuss Voigt Hill
#
# Bulk Modulus (GPa) = 54.94947 73.62613 64.28780
# Shear Modulus (GPa) = 35.41874 45.19304 40.30589
#
# Velocity S-wave (km/s) = 3.63151 4.10210 3.87396
# Velocity P-wave (km/s) = 6.16796 7.06048 6.62926
#
# Compressibility (1/GPa) = 0.01819854
#
# Stress axis : x y z
#
# Youngs Moduli (GPa) = 111.63888 48.93250 122.11551
#
# Poissons Ratio (x) = 0.20546 0.26796
# Poissons Ratio (y) = 0.46875 0.40285
# Poissons Ratio (z) = 0.24497 0.16142
#
# Static dielectric constant tensor:
#      x y z
#    x 9.371090 8.122630 -1.417080 
#    y 8.122630 12.411270 -1.512210 
#    z -1.417080 -1.512210 2.461310 
# 
# From -- ./inp_files/442161.got.cif
#   From: 2010.05.17/outbox.cif.g08.bks.cpg/sg2_222_cif.got.tgz:442161.got - 2010.06.03 11:33:40.
