data_PCOD9018192
_publ_section_title
;
Structure prediction by ZEFSAII (Michael W. Deem and Ramdas Pophale) SiO2 
 PCOD9018192
Probable space group: P -1
;
_chemical_formula_sum "Si O2"
_cell_formula_units_Z 16
_cell_length_a 6.420560
_cell_length_b 25.040503
_cell_length_c 15.756419
_cell_angle_alpha 16.666133
_cell_angle_beta 84.363579
_cell_angle_gamma 85.734223
_cell_volume 721.275943
_symmetry_space_group_name_H-M "P -1"
_symmetry_group_IT_number 2
_symmetry_cell_setting 'triclinic'
loop_
_space_group_symop_operation_xyz
x,y,z
-x,-y,-z
loop_
_atom_site_type_symbol
_atom_site_label
_atom_site_fract_x
_atom_site_fract_y
_atom_site_fract_z
Si Si1 0.107281 0.822019 0.884104
Si Si2 0.391570 0.831286 0.204225
Si Si3 0.542854 0.284232 0.329366
Si Si4 0.367180 0.530781 0.236623
Si Si5 0.107365 0.605051 0.973543
Si Si6 0.769100 0.819000 0.765348
Si Si7 0.820593 0.013874 0.187048
Si Si8 0.856662 0.238822 0.522382
O O1 0.880834 0.832436 0.832514
O O2 0.248002 0.979857 0.583854
O O3 0.110211 0.868345 0.912463
O O4 0.205157 0.625252 0.161602
O O5 0.546555 0.665104 0.443539
O O6 0.189119 0.761867 0.374872
O O7 0.500000 0.000000 0.000000
O O8 0.310579 0.885982 0.031961
O O9 0.336324 0.156264 0.513142
O O10 0.631996 0.237030 0.489231
O O11 0.500000 0.500000 0.000000
O O12 0.737782 0.264984 0.288033
O O13 0.251227 0.514750 0.175571
O O14 0.563910 0.681622 0.987202
O O15 0.984297 0.430724 0.199076
O O16 0.938377 0.723284 0.845675
O O17 0.013881 0.928318 0.261491
#
# Coordination Sequence:
#
# PCOD9018192 Si02
#       8
#     2   2   2   2   2   2   2   2
#     4  10  24  41  66 100 135 174 222 274 342 398
#     4  12  25  48  69  96 133 182 231 275 329 392
#     4  12  24  38  64 103 141 170 215 279 344 402
#     4  11  23  43  71  93 136 179 222 278 328 400
#     4  11  22  37  70 103 130 175 218 276 343 396
#     4  10  21  43  68  99 136 171 225 276 338 403
#     4  12  26  43  66  99 138 180 225 274 329 399
#     4  12  24  43  68  97 136 176 221 274 337 399
#
# _framework density 22.18291
#
# number of rings (size 3 to 8) (size 9 to 14) (size 15 to 20)
#    0.000    0.750    3.750    4.125    1.750    3.500 
#    0.000    0.625    0.000    0.000    0.000    0.000 
#    0.000    0.000    0.000    0.000    0.000    0.000 
#
# Total GULP energy -89550.934098 kJ/mol
# GULP energy per Si atom -5596.933381 kJ/mol
# Density = 2.213242 g / cm^3
# Si number density = 22.182910 Si / 1000 Ang^3
#
#
#
# Elastic Constant Matrix: (Units=GPa)
#
#
# Indices 1 2 3 4 5 6 
#
# 1 57.9974 22.4089 20.4070 -2.9269 10.1540 4.3771
# 2 22.4089 120.4551 36.4060 4.8390 24.6079 5.8500
# 3 20.4070 36.4060 92.2792 -3.7264 35.4930 0.5339
# 4 -2.9269 4.8390 -3.7264 32.7850 -5.0421 0.8109
# 5 10.1540 24.6079 35.4930 -5.0421 41.2542 -0.8413
# 6 4.3771 5.8500 0.5339 0.8109 -0.8413 31.6911
#
#
#
# Elastic Compliance Matrix: (Units=1/GPa)
#
#
# Indices 1 2 3 4 5 6 
#
# 1 0.019664 -0.002598 -0.003048 0.001771 -0.000497 -0.002244
# 2 -0.002598 0.010435 -0.002026 -0.002608 -0.004193 -0.001578
# 3 -0.003048 -0.002026 0.017269 0.000003 -0.012895 0.000162
# 4 0.001771 -0.002608 0.000003 0.031825 0.004998 -0.000445
# 5 -0.000497 -0.004193 -0.012895 0.004998 0.038609 0.001957
# 6 -0.002244 -0.001578 0.000162 -0.000445 0.001957 0.032216
#
#
# Mechanical properties :
#
#
# Convention : Reuss Voigt Hill
#
# Bulk Modulus (GPa) = 31.22501 47.68616 39.45558
# Shear Modulus (GPa) = 28.40321 33.91338 31.15829
#
# Velocity S-wave (km/s) = 3.58216 3.91424 3.75188
# Velocity P-wave (km/s) = 5.58712 6.47857 6.04929
#
# Compressibility (1/GPa) = 0.03202561
#
# Stress axis : x y z
#
# Youngs Moduli (GPa) = 50.85418 95.82697 57.90760
#
# Poissons Ratio (x) = 0.24892 0.17650
# Poissons Ratio (y) = 0.13210 0.11731
# Poissons Ratio (z) = 0.15500 0.19413
#
# Static dielectric constant tensor:
#      x y z
#    x 1.819730 -0.013610 -0.025180 
#    y -0.013610 1.824680 0.019620 
#    z -0.025180 0.019620 1.856870 
# 
# From -- ./inp_files/72297.got.cif
#   From: 2010.05.17/outbox.cif.g08.bks.cpg/sg2_37_cif.got.tgz:72297.got - 2010.06.03 11:33:40.
