data_PCOD9018078
_publ_section_title
;
Structure prediction by ZEFSAII (Michael W. Deem and Ramdas Pophale) SiO2 
 PCOD9018078
Probable space group: P -1
;
_chemical_formula_sum "Si O2"
_cell_formula_units_Z 16
_cell_length_a 19.257020
_cell_length_b 5.140095
_cell_length_c 17.422013
_cell_angle_alpha 57.830536
_cell_angle_beta 152.857609
_cell_angle_gamma 111.936046
_cell_volume 643.117813
_symmetry_space_group_name_H-M "P -1"
_symmetry_group_IT_number 2
_symmetry_cell_setting 'triclinic'
loop_
_space_group_symop_operation_xyz
x,y,z
-x,-y,-z
loop_
_atom_site_type_symbol
_atom_site_label
_atom_site_fract_x
_atom_site_fract_y
_atom_site_fract_z
Si Si1 0.359639 0.220745 0.916321
Si Si2 0.638961 0.429859 0.924775
Si Si3 0.096490 0.205620 0.290254
Si Si4 0.943679 0.373657 0.385972
Si Si5 0.657568 0.853071 0.592897
Si Si6 0.456883 0.526350 0.342735
Si Si7 0.364543 0.714664 0.722297
Si Si8 0.935945 0.697775 0.172986
O O1 0.244272 0.478580 0.816452
O O2 0.344445 0.389298 0.792423
O O3 0.304442 0.901533 0.921574
O O4 0.535365 0.161161 0.132805
O O5 0.764602 0.635531 0.007261
O O6 0.601732 0.328112 0.819130
O O7 0.479075 0.623447 0.776720
O O8 0.211323 0.970554 0.501393
O O9 0.957182 0.043819 0.156475
O O10 0.195912 0.209581 0.310354
O O11 0.033153 0.536979 0.219726
O O12 0.002410 0.501793 0.346262
O O13 0.000000 0.500000 0.500000
O O14 0.000000 0.000000 0.500000
O O15 0.519275 0.764925 0.420289
O O16 0.669312 0.614627 0.713522
O O17 0.598673 0.211364 0.510904
#
# Coordination Sequence:
#
# PCOD9018078 Si02
#       8
#     2   2   2   2   2   2   2   2
#     4  11  24  41  65  98 131 176 230 288 324 395
#     4  12  24  44  67  97 136 180 224 282 336 404
#     4  12  25  45  67 100 136 179 222 280 338 397
#     4  12  24  44  64  90 134 182 227 274 333 396
#     4  10  21  43  68 107 134 167 223 283 329 410
#     4  10  22  40  75 102 132 173 221 276 346 391
#     4  11  24  41  68  94 133 174 231 282 336 387
#     4  12  27  42  65  96 138 180 224 273 340 409
#
# _framework density 24.878799000000001
#
# number of rings (size 3 to 8) (size 9 to 14) (size 15 to 20)
#    0.000    0.750    2.500    5.625    1.750    0.000 
#    0.000    1.250    0.000    0.000    0.000    0.000 
#    0.000    0.000    0.000    0.000    0.000    0.000 
#
# Total GULP energy -89662.729692 kJ/mol
# GULP energy per Si atom -5603.920606 kJ/mol
# Density = 2.482217 g / cm^3
# Si number density = 24.878799 Si / 1000 Ang^3
#
#
#
# Elastic Constant Matrix: (Units=GPa)
#
#
# Indices 1 2 3 4 5 6 
#
# 1 134.4950 13.7331 1.2595 -3.7284 4.3203 0.8201
# 2 13.7331 92.5053 22.4289 -1.7560 0.5454 -16.9440
# 3 1.2595 22.4289 54.1831 0.2977 9.5614 -6.2536
# 4 -3.7284 -1.7560 0.2977 24.4462 -3.3947 2.2503
# 5 4.3203 0.5454 9.5614 -3.3947 30.1689 1.7895
# 6 0.8201 -16.9440 -6.2536 2.2503 1.7895 49.8460
#
#
#
# Elastic Compliance Matrix: (Units=1/GPa)
#
#
# Indices 1 2 3 4 5 6 
#
# 1 0.007630 -0.001324 0.000498 0.000959 -0.001088 -0.000517
# 2 -0.001324 0.012937 -0.005157 0.000651 0.001444 0.003691
# 3 0.000498 -0.005157 0.022018 -0.001689 -0.007225 0.001337
# 4 0.000959 0.000651 -0.001689 0.042040 0.005241 -0.002092
# 5 -0.001088 0.001444 -0.007225 0.005241 0.036271 -0.001936
# 6 -0.000517 0.003691 0.001337 -0.002092 -0.001936 0.021657
#
#
# Mechanical properties :
#
#
# Convention : Reuss Voigt Hill
#
# Bulk Modulus (GPa) = 32.65927 39.55849 36.10888
# Shear Modulus (GPa) = 30.35362 37.14301 33.74832
#
# Velocity S-wave (km/s) = 3.49672 3.86807 3.68708
# Velocity P-wave (km/s) = 5.42758 5.99035 5.71590
#
# Compressibility (1/GPa) = 0.03061918
#
# Stress axis : x y z
#
# Youngs Moduli (GPa) = 131.05483 77.29781 45.41811
#
# Poissons Ratio (x) = 0.10231 -0.02260
# Poissons Ratio (y) = 0.17346 0.23422
# Poissons Ratio (z) = -0.06520 0.39862
#
# Static dielectric constant tensor:
#      x y z
#    x 1.967550 0.027430 -0.002800 
#    y 0.027430 1.959180 0.054280 
#    z -0.002800 0.054280 2.041970 
# 
# From -- ./inp_files/574772.got.cif
#   From: 2010.05.17/outbox.cif.g08.bks.cpg/sg2_288_cif.got.tgz:574772.got - 2010.06.03 11:33:40.
