data_PCOD9018651
_publ_section_title
;
Structure prediction by ZEFSAII (Michael W. Deem and Ramdas Pophale) SiO2 
 PCOD9018651
Probable space group: P -1
;
_chemical_formula_sum "Si O2"
_cell_formula_units_Z 10
_cell_length_a 5.211268
_cell_length_b 12.068135
_cell_length_c 8.837718
_cell_angle_alpha 138.899297
_cell_angle_beta 82.245698
_cell_angle_gamma 99.637713
_cell_volume 360.188754
_symmetry_space_group_name_H-M "P -1"
_symmetry_group_IT_number 2
_symmetry_cell_setting 'triclinic'
loop_
_space_group_symop_operation_xyz
x,y,z
-x,-y,-z
loop_
_atom_site_type_symbol
_atom_site_label
_atom_site_fract_x
_atom_site_fract_y
_atom_site_fract_z
Si Si1 0.873904 0.609866 0.535322
Si Si2 0.260955 0.442449 0.848543
Si Si3 0.650689 0.852744 0.274900
Si Si4 0.076118 0.023007 0.190098
Si Si5 0.366946 0.704881 0.857644
O O1 0.739911 0.508952 0.282038
O O2 0.961528 0.776269 0.595889
O O3 0.629258 0.665671 0.707359
O O4 0.876076 0.385324 0.349628
O O5 0.255567 0.243334 0.684742
O O6 0.500000 0.500000 0.000000
O O7 0.000000 0.500000 0.000000
O O8 0.109544 0.076238 0.774445
O O9 0.460857 0.735353 0.060161
O O10 0.500000 0.000000 0.500000
O O11 0.681910 0.092892 0.946921
O O12 0.000000 0.000000 0.000000
#
# Coordination Sequence:
#
# PCOD9018651 Si02
#       5
#     2   2   2   2   2
#     4  10  22  42  68  99 135 188 227 283 351 418
#     4  10  21  43  73  97 141 187 234 286 353 417
#     4  12  26  43  72 111 140 180 241 299 349 415
#     4  12  24  46  71  99 146 188 232 288 356 421
#     4  10  24  44  70 101 142 183 237 288 352 417
#
# _framework density 27.763221999999999
#
# number of rings (size 3 to 8) (size 9 to 14) (size 15 to 20)
#    1.200    0.000    4.000    1.800    2.800    2.400 
#    3.600    1.000    0.000    0.000    0.000    0.000 
#    0.000    0.000    0.000    0.000    0.000    0.000 
#
# Total GULP energy -55749.069171 kJ/mol
# GULP energy per Si atom -5574.906917 kJ/mol
# Density = 2.770003 g / cm^3
# Si number density = 27.763222 Si / 1000 Ang^3
#
#
#
# Elastic Constant Matrix: (Units=GPa)
#
#
# Indices 1 2 3 4 5 6 
#
# 1 190.3535 78.4678 62.4963 -21.3500 -10.7134 -50.3726
# 2 78.4678 226.6178 57.1564 -38.9528 36.0054 -100.8730
# 3 62.4963 57.1564 173.9162 -13.1993 19.0390 -23.7245
# 4 -21.3500 -38.9528 -13.1993 79.4401 3.8693 11.1944
# 5 -10.7134 36.0054 19.0390 3.8693 72.3982 4.4725
# 6 -50.3726 -100.8730 -23.7245 11.1944 4.4725 78.6072
#
#
#
# Elastic Compliance Matrix: (Units=1/GPa)
#
#
# Indices 1 2 3 4 5 6 
#
# 1 0.007201 -0.001173 -0.002066 0.000596 0.002019 0.002285
# 2 -0.001173 0.016011 -0.000780 0.005135 -0.009402 0.019362
# 3 -0.002066 -0.000780 0.006941 0.000326 -0.001750 -0.000177
# 4 0.000596 0.005135 0.000326 0.014769 -0.003660 0.005175
# 5 0.002019 -0.009402 -0.001750 -0.003660 0.020179 -0.011926
# 6 0.002285 0.019362 -0.000177 0.005175 -0.011926 0.038921
#
#
# Mechanical properties :
#
#
# Convention : Reuss Voigt Hill
#
# Bulk Modulus (GPa) = 45.22129 109.68097 77.45113
# Shear Modulus (GPa) = 41.86516 72.27357 57.06936
#
# Velocity S-wave (km/s) = 3.88743 5.10770 4.53876
# Velocity P-wave (km/s) = 6.03929 8.62418 7.44478
#
# Compressibility (1/GPa) = 0.02211348
#
# Stress axis : x y z
#
# Youngs Moduli (GPa) = 138.87718 62.45850 144.07657
#
# Poissons Ratio (x) = 0.07328 0.29766
# Poissons Ratio (y) = 0.16294 0.11238
# Poissons Ratio (z) = 0.28692 0.04872
#
# Static dielectric constant tensor:
#      x y z
#    x 1.457050 -0.268300 0.344250 
#    y -0.268300 1.582050 0.055260 
#    z 0.344250 0.055260 2.081790 
# 
# From -- ./inp_files/136429.got.cif
#   From: 2010.05.17/outbox.cif.g08.bks.cpg/sg2_69_cif.got.tgz:136429.got - 2010.06.03 11:33:40.
