data_PCOD9018619
_publ_section_title
;
Structure prediction by ZEFSAII (Michael W. Deem and Ramdas Pophale) SiO2 
 PCOD9018619
Probable space group: P -1
;
_chemical_formula_sum "Si O2"
_cell_formula_units_Z 16
_cell_length_a 11.501433
_cell_length_b 17.812615
_cell_length_c 8.923988
_cell_angle_alpha 62.212032
_cell_angle_beta 148.398472
_cell_angle_gamma 134.016279
_cell_volume 649.547875
_symmetry_space_group_name_H-M "P -1"
_symmetry_group_IT_number 2
_symmetry_cell_setting 'triclinic'
loop_
_space_group_symop_operation_xyz
x,y,z
-x,-y,-z
loop_
_atom_site_type_symbol
_atom_site_label
_atom_site_fract_x
_atom_site_fract_y
_atom_site_fract_z
Si Si1 0.357067 0.511706 0.693812
Si Si2 0.793363 0.100553 0.456688
Si Si3 0.249490 0.674734 0.443625
Si Si4 0.250552 0.384539 0.251125
Si Si5 0.926335 0.890078 0.956594
Si Si6 0.321818 0.248526 0.670128
Si Si7 0.202675 0.072966 0.514933
Si Si8 0.804922 0.291448 0.311935
O O1 0.218004 0.566676 0.533509
O O2 0.589838 0.595630 0.748287
O O3 0.114056 0.385766 0.488301
O O4 0.500000 0.500000 0.000000
O O5 0.079260 0.169986 0.601483
O O6 0.672133 0.165938 0.245465
O O7 0.883849 0.119129 0.713780
O O8 0.660239 0.977523 0.366739
O O9 0.587765 0.783187 0.695031
O O10 0.156726 0.694543 0.480034
O O11 0.051346 0.650586 0.105894
O O12 0.500000 0.500000 0.500000
O O13 0.213789 0.295900 0.400951
O O14 0.986571 0.920162 0.820173
O O15 0.000000 0.000000 0.000000
O O16 0.405273 0.193569 0.697001
O O17 0.607865 0.322046 0.015816
O O18 0.000000 0.000000 0.500000
#
# Coordination Sequence:
#
# PCOD9018619 Si02
#       8
#     2   2   2   2   2   2   2   2
#     4  12  26  44  72 101 143 187 236 291 351 428
#     4  10  22  43  68 100 140 184 237 291 354 424
#     4  12  26  45  74 106 141 190 242 286 359 425
#     4  12  28  45  70 106 147 186 235 300 357 418
#     4  10  21  43  73 100 138 182 236 291 346 425
#     4  11  24  43  68 100 145 182 235 300 357 413
#     4   9  21  41  67  99 139 182 222 293 359 404
#     4  12  25  41  74 103 136 191 242 288 355 428
#
# _framework density 24.632518999999998
#
# number of rings (size 3 to 8) (size 9 to 14) (size 15 to 20)
#    0.000    1.000    2.500    3.375    3.500    5.500 
#    0.000    8.750    0.000    0.000    0.000    0.000 
#    0.000    0.000    0.000    0.000    0.000    0.000 
#
# Total GULP energy -89284.182424 kJ/mol
# GULP energy per Si atom -5580.261402 kJ/mol
# Density = 2.457645 g / cm^3
# Si number density = 24.632519 Si / 1000 Ang^3
#
#
#
# Elastic Constant Matrix: (Units=GPa)
#
#
# Indices 1 2 3 4 5 6 
#
# 1 79.4041 14.0276 11.3530 -14.4554 -25.1404 0.3626
# 2 14.0276 100.0058 36.3566 -13.0478 -5.6112 -17.2995
# 3 11.3530 36.3566 143.5463 -34.3058 -34.5699 -9.3742
# 4 -14.4554 -13.0478 -34.3058 43.9167 7.3458 -3.5528
# 5 -25.1404 -5.6112 -34.5699 7.3458 34.3508 -5.5577
# 6 0.3626 -17.2995 -9.3742 -3.5528 -5.5577 47.2877
#
#
#
# Elastic Compliance Matrix: (Units=1/GPa)
#
#
# Indices 1 2 3 4 5 6 
#
# 1 0.019116 -0.002191 0.005149 0.006907 0.017771 0.002680
# 2 -0.002191 0.012027 -0.002850 0.001290 -0.002186 0.003692
# 3 0.005149 -0.002850 0.013477 0.009101 0.015583 0.004105
# 4 0.006907 0.001290 0.009101 0.031554 0.008584 0.005603
# 5 0.017771 -0.002186 0.015583 0.008584 0.057147 0.009515
# 6 0.002680 0.003692 0.004105 0.005603 0.009515 0.024830
#
#
# Mechanical properties :
#
#
# Convention : Reuss Voigt Hill
#
# Bulk Modulus (GPa) = 22.30368 49.60342 35.95355
# Shear Modulus (GPa) = 28.92147 42.52564 35.72356
#
# Velocity S-wave (km/s) = 3.43026 4.15951 3.81236
# Velocity P-wave (km/s) = 4.97625 6.57646 5.83150
#
# Compressibility (1/GPa) = 0.04483564
#
# Stress axis : x y z
#
# Youngs Moduli (GPa) = 52.31090 83.14528 74.20041
#
# Poissons Ratio (x) = 0.18219 -0.38202
# Poissons Ratio (y) = 0.11463 0.21146
# Poissons Ratio (z) = -0.26933 0.23695
#
# Static dielectric constant tensor:
#      x y z
#    x 2.001320 -0.022410 -0.030770 
#    y -0.022410 2.055140 -0.010520 
#    z -0.030770 -0.010520 1.990000 
# 
# From -- ./inp_files/279258.got.cif
#   From: 2010.05.17/outbox.cif.g08.bks.cpg/sg2_140_cif.got.tgz:279258.got - 2010.06.03 11:33:40.
