data_PCOD9018215
_publ_section_title
;
Structure prediction by ZEFSAII (Michael W. Deem and Ramdas Pophale) SiO2 
 PCOD9018215
Probable space group: P -1
;
_chemical_formula_sum "Si O2"
_cell_formula_units_Z 14
_cell_length_a 8.462890
_cell_length_b 11.494994
_cell_length_c 10.137802
_cell_angle_alpha 122.173094
_cell_angle_beta 50.642886
_cell_angle_gamma 133.365142
_cell_volume 546.044148
_symmetry_space_group_name_H-M "P -1"
_symmetry_group_IT_number 2
_symmetry_cell_setting 'triclinic'
loop_
_space_group_symop_operation_xyz
x,y,z
-x,-y,-z
loop_
_atom_site_type_symbol
_atom_site_label
_atom_site_fract_x
_atom_site_fract_y
_atom_site_fract_z
Si Si1 0.082907 0.295210 0.825355
Si Si2 0.686559 0.329933 0.673931
Si Si3 0.391345 0.871493 0.175553
Si Si4 0.619010 0.852133 0.522139
Si Si5 0.073645 0.875911 0.932488
Si Si6 0.875524 0.664270 0.662036
Si Si7 0.463989 0.616362 0.686821
O O1 0.179472 0.193248 0.635125
O O2 0.240826 0.483486 0.812275
O O3 0.807380 0.220518 0.884634
O O4 0.089585 0.255786 0.950851
O O5 0.591344 0.258591 0.823768
O O6 0.523312 0.199218 0.570891
O O7 0.700326 0.492109 0.721650
O O8 0.958450 0.365508 0.542452
O O9 0.302457 0.966574 0.373196
O O10 0.660333 0.009411 0.079016
O O11 0.455723 0.739155 0.663487
O O12 0.050025 0.784850 0.754101
O O13 0.000000 0.000000 0.000000
O O14 0.705646 0.711028 0.705202
O O15 0.500000 0.500000 0.500000
#
# Coordination Sequence:
#
# PCOD9018215 Si02
#       7
#     2   2   2   2   2   2   2
#     4  11  25  45  66 101 141 181 228 276 346 410
#     4  11  22  42  73 104 132 175 236 285 335 396
#     4  12  26  44  71 100 141 179 232 282 340 399
#     4  11  22  43  73 105 134 173 235 289 338 393
#     4  12  29  47  66 100 145 186 224 274 348 416
#     4  11  24  43  72  98 140 176 231 282 340 399
#     4  10  21  43  69 102 131 173 230 284 336 397
#
# _framework density 25.638953999999998
#
# number of rings (size 3 to 8) (size 9 to 14) (size 15 to 20)
#    0.000    0.857    4.286    3.857    6.000    0.571 
#    0.000    1.429    0.000    0.000    0.000    0.000 
#    0.000    0.000    0.000    0.000    0.000    0.000 
#
# Total GULP energy -78416.874642 kJ/mol
# GULP energy per Si atom -5601.205332 kJ/mol
# Density = 2.558060 g / cm^3
# Si number density = 25.638954 Si / 1000 Ang^3
#
#
#
# Elastic Constant Matrix: (Units=GPa)
#
#
# Indices 1 2 3 4 5 6 
#
# 1 112.9168 11.7465 17.1396 -15.1986 21.3317 17.4653
# 2 11.7465 43.3782 15.1241 -16.5914 7.6390 -4.4320
# 3 17.1396 15.1241 54.3706 -16.5656 6.2907 -4.4432
# 4 -15.1986 -16.5914 -16.5656 46.2951 -9.2435 1.3783
# 5 21.3317 7.6390 6.2907 -9.2435 31.6837 -9.5224
# 6 17.4653 -4.4320 -4.4432 1.3783 -9.5224 42.1866
#
#
#
# Elastic Compliance Matrix: (Units=1/GPa)
#
#
# Indices 1 2 3 4 5 6 
#
# 1 0.012592 -0.001119 -0.002872 0.001001 -0.009707 -0.007857
# 2 -0.001119 0.028585 -0.004831 0.007625 -0.002297 0.002190
# 3 -0.002872 -0.004831 0.022435 0.005498 0.001190 0.003134
# 4 0.001001 0.007625 0.005498 0.027549 0.004777 0.001144
# 5 -0.009707 -0.002297 0.001190 0.004777 0.043914 0.013659
# 6 -0.007857 0.002190 0.003134 0.001144 0.013659 0.030563
#
#
# Mechanical properties :
#
#
# Convention : Reuss Voigt Hill
#
# Bulk Modulus (GPa) = 21.75426 33.18735 27.47080
# Shear Modulus (GPa) = 25.17559 35.14343 30.15951
#
# Velocity S-wave (km/s) = 3.13697 3.70632 3.43347
# Velocity P-wave (km/s) = 4.65017 5.59356 5.14354
#
# Compressibility (1/GPa) = 0.04596801
#
# Stress axis : x y z
#
# Youngs Moduli (GPa) = 79.41301 34.98357 44.57318
#
# Poissons Ratio (x) = 0.03914 0.12803
# Poissons Ratio (y) = 0.08886 0.21533
# Poissons Ratio (z) = 0.22810 0.16900
#
# Static dielectric constant tensor:
#      x y z
#    x 2.016910 0.017240 -0.043110 
#    y 0.017240 1.969540 -0.006780 
#    z -0.043110 -0.006780 2.063830 
# 
# From -- ./inp_files/189078.got.cif
#   From: 2010.05.17/outbox.cif.g08.bks.cpg/sg2_95_cif.got.tgz:189078.got - 2010.06.03 11:33:40.
