data_PCOD9018677
_publ_section_title
;
Structure prediction by ZEFSAII (Michael W. Deem and Ramdas Pophale) SiO2 
 PCOD9018677
Probable space group: P -1
;
_chemical_formula_sum "Si O2"
_cell_formula_units_Z 14
_cell_length_a 15.062575
_cell_length_b 9.182984
_cell_length_c 9.073505
_cell_angle_alpha 45.315408
_cell_angle_beta 72.301149
_cell_angle_gamma 41.629967
_cell_volume 523.494178
_symmetry_space_group_name_H-M "P -1"
_symmetry_group_IT_number 2
_symmetry_cell_setting 'triclinic'
loop_
_space_group_symop_operation_xyz
x,y,z
-x,-y,-z
loop_
_atom_site_type_symbol
_atom_site_label
_atom_site_fract_x
_atom_site_fract_y
_atom_site_fract_z
Si Si1 0.548643 0.219538 0.378406
Si Si2 0.031557 0.429915 0.705473
Si Si3 0.407342 0.391163 0.012866
Si Si4 0.761314 0.895223 0.917090
Si Si5 0.170484 0.502884 0.099708
Si Si6 0.873449 0.043847 0.544674
Si Si7 0.448814 0.271759 0.695146
O O1 0.485857 0.251716 0.232698
O O2 0.697757 0.843824 0.627581
O O3 0.433301 0.375707 0.459193
O O4 0.581332 0.401533 0.203962
O O5 0.978431 0.296908 0.879765
O O6 0.000000 0.500000 0.500000
O O7 0.924572 0.783537 0.587131
O O8 0.194000 0.192852 0.870540
O O9 0.234210 0.618819 0.965006
O O10 0.492947 0.062178 0.114506
O O11 0.834063 0.591542 0.992987
O O12 0.840386 0.959443 0.764748
O O13 0.412866 0.833096 0.234692
O O14 0.707251 0.436459 0.346361
O O15 0.000000 0.000000 0.500000
#
# Coordination Sequence:
#
# PCOD9018677 Si02
#       7
#     2   2   2   2   2   2   2
#     4   9  18  36  65 113 153 200 253 308 377 453
#     4  11  25  50  76 103 150 203 253 319 391 451
#     4   9  18  36  66 112 157 200 251 312 379 447
#     4   9  21  49  74 102 148 200 251 309 377 458
#     4   9  18  38  71 101 152 191 251 313 375 441
#     4  11  24  46  76 115 154 196 252 314 378 453
#     4  10  21  43  74 109 156 200 257 312 375 448
#
# _framework density 26.743372000000001
#
# number of rings (size 3 to 8) (size 9 to 14) (size 15 to 20)
#    0.000    2.571    0.000    3.857    0.000    2.286 
#   33.429    2.143    0.000    0.857    0.000    0.000 
#    0.000    0.000    0.000    0.000    0.000    0.000 
#
# Total GULP energy -78377.512841 kJ/mol
# GULP energy per Si atom -5598.393774 kJ/mol
# Density = 2.668250 g / cm^3
# Si number density = 26.743372 Si / 1000 Ang^3
#
#
#
# Elastic Constant Matrix: (Units=GPa)
#
#
# Indices 1 2 3 4 5 6 
#
# 1 191.6144 57.3758 61.6042 6.7726 -3.2218 -18.5952
# 2 57.3758 100.6129 47.1625 6.8375 17.5852 -18.8012
# 3 61.6042 47.1625 172.6327 22.8334 3.5126 0.1632
# 4 6.7726 6.8375 22.8334 52.7468 4.4572 3.0601
# 5 -3.2218 17.5852 3.5126 4.4572 57.6430 2.1406
# 6 -18.5952 -18.8012 0.1632 3.0601 2.1406 42.7842
#
#
#
# Elastic Compliance Matrix: (Units=1/GPa)
#
#
# Indices 1 2 3 4 5 6 
#
# 1 0.006840 -0.003086 -0.001630 0.000022 0.001364 0.001553
# 2 -0.003086 0.014898 -0.002849 -0.000219 -0.004730 0.005469
# 3 -0.001630 -0.002849 0.007487 -0.002606 0.000591 -0.001832
# 4 0.000022 -0.000219 -0.002606 0.020306 -0.001289 -0.001465
# 5 0.001364 -0.004730 0.000591 -0.001289 0.019018 -0.002347
# 6 0.001553 0.005469 -0.001832 -0.001465 -0.002347 0.026680
#
#
# Mechanical properties :
#
#
# Convention : Reuss Voigt Hill
#
# Bulk Modulus (GPa) = 70.94560 88.57166 79.75863
# Shear Modulus (GPa) = 43.45688 50.54931 47.00309
#
# Velocity S-wave (km/s) = 4.03545 4.35232 4.19687
# Velocity P-wave (km/s) = 6.94975 7.64512 7.30571
#
# Compressibility (1/GPa) = 0.01409531
#
# Stress axis : x y z
#
# Youngs Moduli (GPa) = 146.20433 67.12404 133.56718
#
# Poissons Ratio (x) = 0.20715 0.21769
# Poissons Ratio (y) = 0.45121 0.38048
# Poissons Ratio (z) = 0.23828 0.19121
#
# Static dielectric constant tensor:
#      x y z
#    x 2.107900 -0.022940 -0.013380 
#    y -0.022940 2.142370 -0.041490 
#    z -0.013380 -0.041490 2.237180 
# 
# From -- ./inp_files/294483.got.cif
#   From: 2010.05.17/outbox.cif.g08.bks.cpg/sg2_148_cif.got.tgz:294483.got - 2010.06.03 11:33:40.
