data_PCOD9018433
_publ_section_title
;
Structure prediction by ZEFSAII (Michael W. Deem and Ramdas Pophale) SiO2 
 PCOD9018433
Probable space group: P -1
;
_chemical_formula_sum "Si O2"
_cell_formula_units_Z 10
_cell_length_a 10.135370
_cell_length_b 10.655287
_cell_length_c 7.557990
_cell_angle_alpha 47.589494
_cell_angle_beta 132.942512
_cell_angle_gamma 141.937806
_cell_volume 350.717457
_symmetry_space_group_name_H-M "P -1"
_symmetry_group_IT_number 2
_symmetry_cell_setting 'triclinic'
loop_
_space_group_symop_operation_xyz
x,y,z
-x,-y,-z
loop_
_atom_site_type_symbol
_atom_site_label
_atom_site_fract_x
_atom_site_fract_y
_atom_site_fract_z
Si Si1 0.797028 0.156351 0.994105
Si Si2 0.489768 0.160862 0.463398
Si Si3 0.022990 0.868347 0.495997
Si Si4 0.165494 0.455064 0.796122
Si Si5 0.543412 0.659705 0.230612
O O1 0.643661 0.218959 0.720621
O O2 0.969925 0.221346 0.924695
O O3 0.911742 0.248967 0.202460
O O4 0.626345 0.900935 0.102413
O O5 0.601895 0.383542 0.258344
O O6 0.500000 0.000000 0.500000
O O7 0.232168 0.029709 0.410190
O O8 0.787065 0.726036 0.313747
O O9 0.000000 0.000000 0.500000
O O10 0.000000 0.500000 0.500000
O O11 0.308921 0.546614 0.023152
O O12 0.500000 0.500000 0.500000
#
# Coordination Sequence:
#
# PCOD9018433 Si02
#       5
#     2   2   2   2   2
#     4  10  21  43  70  96 138 187 233 276 349 430
#     4  11  22  43  70 102 139 183 234 288 345 417
#     4  10  23  42  69 100 140 184 230 287 350 417
#     4  10  22  40  70 101 137 179 234 288 351 410
#     4  11  21  41  69 101 138 180 235 290 345 411
#
# _framework density 28.512976999999999
#
# number of rings (size 3 to 8) (size 9 to 14) (size 15 to 20)
#    0.000    1.600    4.000    0.600    0.000    0.800 
#    0.000   20.000    0.000    0.000    0.000    0.000 
#    0.000    0.000    0.000    0.000    0.000    0.000 
#
# Total GULP energy -55721.765061 kJ/mol
# GULP energy per Si atom -5572.176506 kJ/mol
# Density = 2.844808 g / cm^3
# Si number density = 28.512977 Si / 1000 Ang^3
#
#
#
# Elastic Constant Matrix: (Units=GPa)
#
#
# Indices 1 2 3 4 5 6 
#
# 1 119.4530 79.9837 28.6161 -25.4618 -3.7500 41.8476
# 2 79.9837 178.6934 47.1001 -15.9186 -21.0168 45.9635
# 3 28.6161 47.1001 179.0683 6.6335 -8.2308 3.7185
# 4 -25.4618 -15.9186 6.6335 82.8075 16.5435 -16.0772
# 5 -3.7500 -21.0168 -8.2308 16.5435 33.3933 -9.5728
# 6 41.8476 45.9635 3.7185 -16.0772 -9.5728 73.0564
#
#
#
# Elastic Compliance Matrix: (Units=1/GPa)
#
#
# Indices 1 2 3 4 5 6 
#
# 1 0.014429 -0.005178 -0.001213 0.003625 -0.005115 -0.004818
# 2 -0.005178 0.009367 -0.001320 -0.001133 0.004840 -0.002475
# 3 -0.001213 -0.001320 0.006215 -0.001200 0.001486 0.001140
# 4 0.003625 -0.001133 -0.001200 0.014782 -0.007654 0.000948
# 5 -0.005115 0.004840 0.001486 -0.007654 0.037445 0.003031
# 6 -0.004818 -0.002475 0.001140 0.000948 0.003031 0.018553
#
#
# Mechanical properties :
#
#
# Convention : Reuss Voigt Hill
#
# Bulk Modulus (GPa) = 68.55191 87.62383 78.08787
# Shear Modulus (GPa) = 41.29602 59.28577 50.29089
#
# Velocity S-wave (km/s) = 3.80981 4.56483 4.20431
# Velocity P-wave (km/s) = 6.59147 7.65386 7.14244
#
# Compressibility (1/GPa) = 0.01458748
#
# Stress axis : x y z
#
# Youngs Moduli (GPa) = 69.30315 106.75871 160.90784
#
# Poissons Ratio (x) = 0.55281 0.19522
# Poissons Ratio (y) = 0.35886 0.21246
# Poissons Ratio (z) = 0.08408 0.14097
#
# Static dielectric constant tensor:
#      x y z
#    x 2.617370 -0.069160 0.124180 
#    y -0.069160 2.149350 0.076820 
#    z 0.124180 0.076820 2.335590 
# 
# From -- ./inp_files/264051.got.cif
#   From: 2010.05.17/outbox.cif.g08.bks.cpg/sg2_133_cif.got.tgz:264051.got - 2010.06.03 11:33:40.
