data_PCOD9018541
_publ_section_title
;
Structure prediction by ZEFSAII (Michael W. Deem and Ramdas Pophale) SiO2 
 PCOD9018541
Probable space group: P -1
;
_chemical_formula_sum "Si O2"
_cell_formula_units_Z 16
_cell_length_a 12.137312
_cell_length_b 9.306192
_cell_length_c 14.387908
_cell_angle_alpha 94.370498
_cell_angle_beta 28.055840
_cell_angle_gamma 85.787035
_cell_volume 727.017439
_symmetry_space_group_name_H-M "P -1"
_symmetry_group_IT_number 2
_symmetry_cell_setting 'triclinic'
loop_
_space_group_symop_operation_xyz
x,y,z
-x,-y,-z
loop_
_atom_site_type_symbol
_atom_site_label
_atom_site_fract_x
_atom_site_fract_y
_atom_site_fract_z
Si Si1 0.460567 0.318510 0.279698
Si Si2 0.781638 0.136006 0.626243
Si Si3 0.255109 0.523393 0.274644
Si Si4 0.667944 0.961593 0.098461
Si Si5 0.971030 0.497499 0.739907
Si Si6 0.913807 0.402411 0.983201
Si Si7 0.380817 0.142261 0.660325
Si Si8 0.154046 0.788733 0.628197
O O1 0.436011 0.407173 0.204209
O O2 0.567576 0.141309 0.176009
O O3 0.198237 0.357812 0.528060
O O4 0.655096 0.375829 0.196401
O O5 0.760776 0.301950 0.689735
O O6 0.839487 0.140684 0.474206
O O7 0.518654 0.104772 0.824705
O O8 0.000000 0.000000 0.500000
O O9 0.000000 0.500000 0.500000
O O10 0.250292 0.484320 0.167325
O O11 0.662779 0.910339 0.206375
O O12 0.941727 0.897844 0.853309
O O13 0.900496 0.480064 0.896853
O O14 0.080614 0.637311 0.660389
O O15 0.125766 0.243656 0.814142
O O16 0.000000 0.500000 0.000000
O O17 0.579356 0.234369 0.526953
O O18 0.500000 0.000000 0.500000
#
# Coordination Sequence:
#
# PCOD9018541 Si02
#       8
#     2   2   2   2   2   2   2   2
#     4  11  24  45  69 102 138 177 231 281 340 416
#     4  11  23  43  69 100 140 180 222 278 339 411
#     4  10  21  43  71  96 139 178 220 276 338 411
#     4  11  26  42  70 101 138 179 231 281 345 405
#     4  11  24  44  70  97 138 184 220 280 354 397
#     4  12  27  42  70 103 133 177 241 284 337 405
#     4  11  25  45  66  95 139 183 229 287 341 401
#     4  11  24  43  67  99 138 175 229 282 344 407
#
# _framework density 22.007725000000001
#
# number of rings (size 3 to 8) (size 9 to 14) (size 15 to 20)
#    0.000    1.000    2.500    4.500    3.500   10.000 
#    0.000    0.000    0.000    0.000    0.000    0.000 
#    0.000    0.000    0.000    0.000    0.000    0.000 
#
# Total GULP energy -89567.463476 kJ/mol
# GULP energy per Si atom -5597.966467 kJ/mol
# Density = 2.195763 g / cm^3
# Si number density = 22.007725 Si / 1000 Ang^3
#
#
#
# Elastic Constant Matrix: (Units=GPa)
#
#
# Indices 1 2 3 4 5 6 
#
# 1 87.1260 6.5584 3.3242 -24.4885 -2.9552 15.1810
# 2 6.5584 84.5857 -2.0379 -8.5192 -5.0151 14.8628
# 3 3.3242 -2.0379 72.2228 -5.4207 -0.7412 2.7250
# 4 -24.4885 -8.5192 -5.4207 25.3664 7.6018 1.9489
# 5 -2.9552 -5.0151 -0.7412 7.6018 40.9355 0.3362
# 6 15.1810 14.8628 2.7250 1.9489 0.3362 34.0708
#
#
#
# Elastic Compliance Matrix: (Units=1/GPa)
#
#
# Indices 1 2 3 4 5 6 
#
# 1 0.018873 0.002411 0.001137 0.020720 -0.002081 -0.010717
# 2 0.002411 0.013804 0.001145 0.007635 0.000531 -0.007629
# 3 0.001137 0.001145 0.014276 0.004839 -0.000398 -0.002421
# 4 0.020720 0.007635 0.004839 0.067253 -0.009833 -0.016700
# 5 -0.002081 0.000531 -0.000398 -0.009833 0.026154 0.001032
# 6 -0.010717 -0.007629 -0.002421 -0.016700 0.001032 0.038593
#
#
# Mechanical properties :
#
#
# Convention : Reuss Voigt Hill
#
# Bulk Modulus (GPa) = 17.74956 28.84712 23.29834
# Shear Modulus (GPa) = 26.54675 35.81385 31.18030
#
# Velocity S-wave (km/s) = 3.47687 4.03840 3.76811
# Velocity P-wave (km/s) = 4.91944 5.90602 5.43516
#
# Compressibility (1/GPa) = 0.05633942
#
# Stress axis : x y z
#
# Youngs Moduli (GPa) = 52.98527 72.44262 70.04560
#
# Poissons Ratio (x) = -0.17463 -0.07967
# Poissons Ratio (y) = -0.12772 -0.08020
# Poissons Ratio (z) = -0.06027 -0.08294
#
# Static dielectric constant tensor:
#      x y z
#    x 1.827970 0.015310 0.003970 
#    y 0.015310 1.795440 0.014220 
#    z 0.003970 0.014220 1.869450 
# 
# From -- ./inp_files/381986.got.cif
#   From: 2010.05.17/outbox.cif.g08.bks.cpg/sg2_191_cif.got.tgz:381986.got - 2010.06.03 11:33:40.
