data_PCOD9018135
_publ_section_title
;
Structure prediction by ZEFSAII (Michael W. Deem and Ramdas Pophale) SiO2 
 PCOD9018135
Probable space group: P -1
;
_chemical_formula_sum "Si O2"
_cell_formula_units_Z 16
_cell_length_a 8.874108
_cell_length_b 14.372222
_cell_length_c 20.376266
_cell_angle_alpha 159.489274
_cell_angle_beta 64.159274
_cell_angle_gamma 105.701332
_cell_volume 737.372174
_symmetry_space_group_name_H-M "P -1"
_symmetry_group_IT_number 2
_symmetry_cell_setting 'triclinic'
loop_
_space_group_symop_operation_xyz
x,y,z
-x,-y,-z
loop_
_atom_site_type_symbol
_atom_site_label
_atom_site_fract_x
_atom_site_fract_y
_atom_site_fract_z
Si Si1 0.202290 0.236579 0.283172
Si Si2 0.451330 0.569447 0.478320
Si Si3 0.346069 0.419154 0.940124
Si Si4 0.201436 0.916744 0.938082
Si Si5 0.275311 0.183235 0.972818
Si Si6 0.574104 0.825804 0.438493
Si Si7 0.620446 0.291075 0.004471
Si Si8 0.997523 0.315760 0.721245
O O1 0.344646 0.385218 0.350332
O O2 0.000000 0.500000 0.500000
O O3 0.200226 0.053160 0.098603
O O4 0.251887 0.025338 0.197824
O O5 0.500000 0.500000 0.500000
O O6 0.656234 0.431032 0.315940
O O7 0.319027 0.916454 0.736982
O O8 0.156711 0.527225 0.089047
O O9 0.500000 0.500000 0.000000
O O10 0.297810 0.589029 0.991053
O O11 0.450911 0.066262 0.674081
O O12 0.281687 0.066657 0.968101
O O13 0.000000 0.000000 0.000000
O O14 0.439498 0.280499 0.001117
O O15 0.083779 0.459994 0.175885
O O16 0.557690 0.523564 0.230192
O O17 0.792085 0.740772 0.344939
O O18 0.500000 0.000000 0.500000
O O19 0.000000 0.000000 0.500000
#
# Coordination Sequence:
#
# PCOD9018135 Si02
#       8
#     2   2   2   2   2   2   2   2
#     4  12  25  43  66 100 141 178 233 288 338 419
#     4  10  21  43  68  95 136 178 225 286 340 410
#     4  11  22  47  72 103 136 183 231 288 357 418
#     4  11  25  44  69  99 139 184 234 282 351 415
#     4  11  24  45  70  99 136 184 234 284 354 413
#     4  10  24  44  69 102 143 177 232 296 347 423
#     4  11  24  43  70  98 143 180 227 291 356 407
#     4  12  24  44  74 102 139 182 235 290 351 428
#
# _framework density 21.698675000000001
#
# number of rings (size 3 to 8) (size 9 to 14) (size 15 to 20)
#    0.000    1.000    5.000    2.625    3.500    4.000 
#    0.000    0.000    0.000    0.000    0.000    0.000 
#    0.000    0.000    0.000    0.000    0.000    0.000 
#
# Total GULP energy -89373.273927 kJ/mol
# GULP energy per Si atom -5585.829620 kJ/mol
# Density = 2.164929 g / cm^3
# Si number density = 21.698675 Si / 1000 Ang^3
#
#
#
# Elastic Constant Matrix: (Units=GPa)
#
#
# Indices 1 2 3 4 5 6 
#
# 1 111.4522 6.3966 42.4082 5.0999 -14.6408 -12.4032
# 2 6.3966 61.3259 14.1952 -5.8671 -10.0750 -9.0807
# 3 42.4082 14.1952 147.8111 2.2149 -11.8531 -8.6529
# 4 5.0999 -5.8671 2.2149 42.1613 -4.4355 -4.1112
# 5 -14.6408 -10.0750 -11.8531 -4.4355 48.4423 1.7151
# 6 -12.4032 -9.0807 -8.6529 -4.1112 1.7151 29.9717
#
#
#
# Elastic Compliance Matrix: (Units=1/GPa)
#
#
# Indices 1 2 3 4 5 6 
#
# 1 0.010723 0.000397 -0.002699 -0.000490 0.002492 0.003569
# 2 0.000397 0.018348 -0.001300 0.003515 0.003741 0.005616
# 3 -0.002699 -0.001300 0.007768 -0.000115 0.000780 0.000672
# 4 -0.000490 0.003515 -0.000115 0.024956 0.002695 0.004098
# 5 0.002492 0.003741 0.000780 0.002695 0.022560 0.001469
# 6 0.003569 0.005616 0.000672 0.004098 0.001469 0.037215
#
#
# Mechanical properties :
#
#
# Convention : Reuss Voigt Hill
#
# Bulk Modulus (GPa) = 33.74165 49.62103 41.68134
# Shear Modulus (GPa) = 36.06124 41.28770 38.67447
#
# Velocity S-wave (km/s) = 4.08108 4.36681 4.22636
# Velocity P-wave (km/s) = 6.14742 6.95293 6.56255
#
# Compressibility (1/GPa) = 0.02963696
#
# Stress axis : x y z
#
# Youngs Moduli (GPa) = 93.25314 54.50113 128.73114
#
# Poissons Ratio (x) = -0.02165 0.34740
# Poissons Ratio (y) = -0.03704 0.16734
# Poissons Ratio (z) = 0.25166 0.07085
#
# Static dielectric constant tensor:
#      x y z
#    x 1.789220 0.026210 0.025810 
#    y 0.026210 1.882190 0.021140 
#    z 0.025810 0.021140 1.858950 
# 
# From -- ./inp_files/222978.got.cif
#   From: 2010.05.17/outbox.cif.g08.bks.cpg/sg2_112_cif.got.tgz:222978.got - 2010.06.03 11:33:40.
