data_PCOD9018953
_publ_section_title
;
Structure prediction by ZEFSAII (Michael W. Deem and Ramdas Pophale) SiO2 
 PCOD9018953
Probable space group: P -1
;
_chemical_formula_sum "Si O2"
_cell_formula_units_Z 14
_cell_length_a 7.134472
_cell_length_b 11.200263
_cell_length_c 9.322026
_cell_angle_alpha 74.456733
_cell_angle_beta 64.412225
_cell_angle_gamma 76.866814
_cell_volume 641.927598
_symmetry_space_group_name_H-M "P -1"
_symmetry_group_IT_number 2
_symmetry_cell_setting 'triclinic'
loop_
_space_group_symop_operation_xyz
x,y,z
-x,-y,-z
loop_
_atom_site_type_symbol
_atom_site_label
_atom_site_fract_x
_atom_site_fract_y
_atom_site_fract_z
Si Si1 0.999458 0.445326 0.231120
Si Si2 0.660224 0.662026 0.307599
Si Si3 0.226173 0.919715 0.965852
Si Si4 0.182950 0.273689 0.464384
Si Si5 0.251134 0.820192 0.303549
Si Si6 0.047940 0.688840 0.990565
Si Si7 0.592746 0.976820 0.635093
O O1 0.765696 0.517767 0.311188
O O2 0.117055 0.551639 0.081118
O O3 0.112846 0.395027 0.353120
O O4 0.987243 0.335290 0.156885
O O5 0.675451 0.703110 0.453978
O O6 0.432836 0.705711 0.307119
O O7 0.827183 0.726677 0.133915
O O8 0.401685 0.983924 0.806627
O O9 0.279617 0.889783 0.122599
O O10 0.202768 0.787848 0.939423
O O11 0.000000 0.000000 0.000000
O O12 0.287223 0.162401 0.365359
O O13 0.971486 0.229441 0.610923
O O14 0.265829 0.919402 0.394505
O O15 0.500000 0.000000 0.500000
#
# Coordination Sequence:
#
# PCOD9018953 Si02
#       7
#     2   2   2   2   2   2   2
#     4   9  22  40  73  97 142 179 218 289 330 400
#     4  10  21  44  66  97 141 170 232 267 338 404
#     4  12  26  44  74  99 133 185 230 275 341 407
#     4  12  24  43  70 101 140 179 221 282 344 398
#     4  12  25  45  69  98 138 184 221 281 340 403
#     4   9  21  44  65 101 137 172 229 277 332 399
#     4  12  27  44  65 104 138 173 230 287 334 402
#
# _framework density 21.809311999999998
#
# number of rings (size 3 to 8) (size 9 to 14) (size 15 to 20)
#    0.857    0.286    2.857    3.000    6.000    0.571 
#    0.000    4.286    0.000    0.000    0.000    0.000 
#    0.000    0.000    0.000    0.000    0.000    0.000 
#
# Total GULP energy -78253.061112 kJ/mol
# GULP energy per Si atom -5589.504365 kJ/mol
# Density = 2.175967 g / cm^3
# Si number density = 21.809312 Si / 1000 Ang^3
#
#
#
# Elastic Constant Matrix: (Units=GPa)
#
#
# Indices 1 2 3 4 5 6 
#
# 1 66.4666 14.0297 25.5532 -8.2235 17.3667 -20.0023
# 2 14.0297 62.5153 1.5978 5.6853 19.6084 -12.5015
# 3 25.5532 1.5978 67.2714 -14.5623 22.2741 -14.4660
# 4 -8.2235 5.6853 -14.5623 21.8793 0.9795 1.7697
# 5 17.3667 19.6084 22.2741 0.9795 35.6357 1.1479
# 6 -20.0023 -12.5015 -14.4660 1.7697 1.1479 47.2005
#
#
#
# Elastic Compliance Matrix: (Units=1/GPa)
#
#
# Indices 1 2 3 4 5 6 
#
# 1 0.021792 -0.000799 -0.001780 0.006957 -0.009531 0.008449
# 2 -0.000799 0.023059 0.006684 -0.001767 -0.016695 0.008290
# 3 -0.001780 0.006684 0.027916 0.016349 -0.021013 0.009469
# 4 0.006957 -0.001767 0.016349 0.059855 -0.014462 0.005598
# 5 -0.009531 -0.016695 -0.021013 -0.014462 0.055931 -0.015719
# 6 0.008449 0.008290 0.009469 0.005598 -0.015719 0.030037
#
#
# Mechanical properties :
#
#
# Convention : Reuss Voigt Hill
#
# Bulk Modulus (GPa) = 12.34921 30.95719 21.65320
# Shear Modulus (GPa) = 21.06400 31.28128 26.17264
#
# Velocity S-wave (km/s) = 3.11115 3.79134 3.46796
# Velocity P-wave (km/s) = 4.31049 5.77849 5.09761
#
# Compressibility (1/GPa) = 0.08097683
#
# Stress axis : x y z
#
# Youngs Moduli (GPa) = 45.88919 43.36608 35.82233
#
# Poissons Ratio (x) = 0.03463 0.06377
# Poissons Ratio (y) = 0.03665 -0.23943
# Poissons Ratio (z) = 0.08169 -0.28985
#
# Static dielectric constant tensor:
#      x y z
#    x 1.764930 -0.007960 -0.011870 
#    y -0.007960 1.831800 0.007550 
#    z -0.011870 0.007550 1.780830 
# 
# From -- ./inp_files/131416.got.cif
#   From: 2010.05.17/outbox.cif.g08.bks.cpg/sg2_66_cif.got.tgz:131416.got - 2010.06.03 11:33:40.
