data_PCOD9018150
_publ_section_title
;
Structure prediction by ZEFSAII (Michael W. Deem and Ramdas Pophale) SiO2 
 PCOD9018150
Probable space group: P -1
;
_chemical_formula_sum "Si O2"
_cell_formula_units_Z 16
_cell_length_a 18.068772
_cell_length_b 8.580174
_cell_length_c 6.886296
_cell_angle_alpha 104.300834
_cell_angle_beta 137.532307
_cell_angle_gamma 75.293156
_cell_volume 694.279930
_symmetry_space_group_name_H-M "P -1"
_symmetry_group_IT_number 2
_symmetry_cell_setting 'triclinic'
loop_
_space_group_symop_operation_xyz
x,y,z
-x,-y,-z
loop_
_atom_site_type_symbol
_atom_site_label
_atom_site_fract_x
_atom_site_fract_y
_atom_site_fract_z
Si Si1 0.885340 0.193395 0.247982
Si Si2 0.691017 0.627149 0.586806
Si Si3 0.974347 0.680867 0.759222
Si Si4 0.824830 0.898899 0.816529
Si Si5 0.648746 0.363326 0.722831
Si Si6 0.148633 0.597046 0.405348
Si Si7 0.542708 0.335949 0.918988
Si Si8 0.605559 0.095685 0.272452
O O1 0.870921 0.238317 0.459468
O O2 0.984989 0.268426 0.355532
O O3 0.772012 0.280285 0.965595
O O4 0.881921 0.010994 0.112058
O O5 0.785140 0.746036 0.807034
O O6 0.664276 0.528130 0.693939
O O7 0.734058 0.491193 0.466645
O O8 0.575845 0.733169 0.354073
O O9 0.907816 0.830562 0.788199
O O10 0.899375 0.534067 0.585866
O O11 0.078889 0.623449 0.081188
O O12 0.716230 0.990157 0.528505
O O13 0.591206 0.381832 0.823270
O O14 0.584211 0.241017 0.432877
O O15 0.500000 0.500000 0.000000
O O16 0.621086 0.197975 0.138048
O O17 0.500000 0.000000 0.000000
#
# Coordination Sequence:
#
# PCOD9018150 Si02
#       8
#     2   2   2   2   2   2   2   2
#     4  11  22  41  66 101 135 173 223 275 339 389
#     4  11  21  44  66  97 136 174 229 271 330 397
#     4  10  21  43  68  96 136 171 223 274 334 398
#     4  10  24  42  69 102 137 178 217 281 338 399
#     4  11  25  42  70  99 133 180 228 277 326 402
#     4  10  22  40  71  96 130 178 221 279 327 397
#     4  12  24  42  70  96 129 179 231 274 333 396
#     4  11  24  46  67  97 139 177 220 282 342 391
#
# _framework density 23.045459000000001
#
# number of rings (size 3 to 8) (size 9 to 14) (size 15 to 20)
#    0.000    1.250    3.750    1.875    0.000    1.000 
#    0.000    2.500    5.500    0.000    0.000    0.000 
#    0.000    0.000    0.000    0.000    0.000    0.000 
#
# Total GULP energy -89405.286498 kJ/mol
# GULP energy per Si atom -5587.830406 kJ/mol
# Density = 2.299301 g / cm^3
# Si number density = 23.045459 Si / 1000 Ang^3
#
#
#
# Elastic Constant Matrix: (Units=GPa)
#
#
# Indices 1 2 3 4 5 6 
#
# 1 167.9946 52.5054 27.1538 3.2055 -20.9786 7.0094
# 2 52.5054 85.2942 16.9879 -6.7750 -10.0930 -3.8130
# 3 27.1538 16.9879 42.0846 -3.3132 -10.6001 3.3621
# 4 3.2055 -6.7750 -3.3132 20.0098 -3.7974 -0.1963
# 5 -20.9786 -10.0930 -10.6001 -3.7974 32.2393 -1.0601
# 6 7.0094 -3.8130 3.3621 -0.1963 -1.0601 33.0177
#
#
#
# Elastic Compliance Matrix: (Units=1/GPa)
#
#
# Indices 1 2 3 4 5 6 
#
# 1 0.008306 -0.004531 -0.002944 -0.002875 0.002617 -0.001920
# 2 -0.004531 0.015922 -0.002794 0.006053 0.001935 0.003183
# 3 -0.002944 -0.002794 0.029311 0.005769 0.007447 -0.002409
# 4 -0.002875 0.006053 0.005769 0.055057 0.008450 0.001320
# 5 0.002617 0.001935 0.007447 0.008450 0.036775 0.000141
# 6 -0.001920 0.003183 -0.002409 0.001320 0.000141 0.031320
#
#
# Mechanical properties :
#
#
# Convention : Reuss Voigt Hill
#
# Bulk Modulus (GPa) = 30.30188 54.29638 42.29913
# Shear Modulus (GPa) = 24.01184 30.30180 27.15682
#
# Velocity S-wave (km/s) = 3.23140 3.63005 3.43651
# Velocity P-wave (km/s) = 5.20576 6.41727 5.84300
#
# Compressibility (1/GPa) = 0.03300125
#
# Stress axis : x y z
#
# Youngs Moduli (GPa) = 120.38855 62.80603 34.11643
#
# Poissons Ratio (x) = 0.28460 0.10044
# Poissons Ratio (y) = 0.54553 0.09531
# Poissons Ratio (z) = 0.35444 0.17546
#
# Static dielectric constant tensor:
#      x y z
#    x 1.828570 0.000040 0.055710 
#    y 0.000040 1.871530 0.024060 
#    z 0.055710 0.024060 1.951260 
# 
# From -- ./inp_files/107291.got.cif
#   From: 2010.05.17/outbox.cif.g08.bks.cpg/sg2_54_cif.got.tgz:107291.got - 2010.06.03 11:33:40.
