data_PCOD9018675
_publ_section_title
;
Structure prediction by ZEFSAII (Michael W. Deem and Ramdas Pophale) SiO2 
 PCOD9018675
Probable space group: P -1
;
_chemical_formula_sum "Si O2"
_cell_formula_units_Z 14
_cell_length_a 12.672322
_cell_length_b 9.413139
_cell_length_c 8.149953
_cell_angle_alpha 57.950624
_cell_angle_beta 132.871934
_cell_angle_gamma 122.685037
_cell_volume 578.284658
_symmetry_space_group_name_H-M "P -1"
_symmetry_group_IT_number 2
_symmetry_cell_setting 'triclinic'
loop_
_space_group_symop_operation_xyz
x,y,z
-x,-y,-z
loop_
_atom_site_type_symbol
_atom_site_label
_atom_site_fract_x
_atom_site_fract_y
_atom_site_fract_z
Si Si1 0.821824 0.484838 0.659511
Si Si2 0.411792 0.594813 0.971571
Si Si3 0.614719 0.885537 0.191286
Si Si4 0.851232 0.981954 0.685550
Si Si5 0.357322 0.843283 0.488259
Si Si6 0.121998 0.395379 0.982571
Si Si7 0.115161 0.134419 0.661026
O O1 0.679952 0.320533 0.573066
O O2 0.833545 0.512637 0.848997
O O3 0.831026 0.670506 0.473286
O O4 0.964065 0.434222 0.762296
O O5 0.378546 0.752284 0.737643
O O6 0.500000 0.500000 0.000000
O O7 0.515417 0.686090 0.178138
O O8 0.253877 0.472870 0.944555
O O9 0.722595 0.926252 0.439803
O O10 0.734195 0.926444 0.140541
O O11 0.500000 0.000000 0.000000
O O12 0.889637 0.805992 0.878817
O O13 0.776350 0.068710 0.691461
O O14 0.006126 0.119897 0.707237
O O15 0.500000 0.000000 0.500000
O O16 0.000000 0.000000 0.500000
#
# Coordination Sequence:
#
# PCOD9018675 Si02
#       7
#     2   2   2   2   2   2   2
#     4  11  25  47  76 110 145 192 242 310 363 437
#     4  12  27  44  69 105 147 192 246 300 370 428
#     4  11  23  41  71 106 139 192 239 301 356 432
#     4  11  24  46  72 109 146 198 242 300 366 439
#     4  12  28  48  70 108 151 192 247 303 369 434
#     4  11  26  45  76 109 144 192 251 298 370 437
#     4  10  21  43  74 105 144 186 247 293 361 433
#
# _framework density 24.209529
#
# number of rings (size 3 to 8) (size 9 to 14) (size 15 to 20)
#    0.000    0.857    4.286    2.571    4.000    5.714 
#    0.000    0.000    0.000    0.000    0.000    0.000 
#    0.000    0.000    0.000    0.000    0.000    0.000 
#
# Total GULP energy -78377.221050 kJ/mol
# GULP energy per Si atom -5598.372932 kJ/mol
# Density = 2.415443 g / cm^3
# Si number density = 24.209529 Si / 1000 Ang^3
#
#
#
# Elastic Constant Matrix: (Units=GPa)
#
#
# Indices 1 2 3 4 5 6 
#
# 1 140.9071 30.9917 25.0581 -21.0763 32.7305 12.3464
# 2 30.9917 152.8337 31.8150 -2.3345 6.8854 3.7574
# 3 25.0581 31.8150 86.8178 -6.5156 22.6050 -0.0779
# 4 -21.0763 -2.3345 -6.5156 42.6034 -10.6197 0.0888
# 5 32.7305 6.8854 22.6050 -10.6197 42.9403 -3.7094
# 6 12.3464 3.7574 -0.0779 0.0888 -3.7094 51.5347
#
#
#
# Elastic Compliance Matrix: (Units=1/GPa)
#
#
# Indices 1 2 3 4 5 6 
#
# 1 0.009669 -0.001487 -0.000346 0.003053 -0.006426 -0.002676
# 2 -0.001487 0.007328 -0.002605 -0.000429 0.001215 -0.000094
# 3 -0.000346 -0.002605 0.014371 0.000175 -0.006858 -0.000199
# 4 0.003053 -0.000429 0.000175 0.025994 0.004039 -0.000454
# 5 -0.006426 0.001215 -0.006858 0.004039 0.032929 0.003804
# 6 -0.002676 -0.000094 -0.000199 -0.000454 0.003804 0.020327
#
#
# Mechanical properties :
#
#
# Convention : Reuss Voigt Hill
#
# Bulk Modulus (GPa) = 44.45881 61.80979 53.13430
# Shear Modulus (GPa) = 39.37291 46.92862 43.15077
#
# Velocity S-wave (km/s) = 4.03716 4.40754 4.22641
# Velocity P-wave (km/s) = 6.33527 7.17555 6.76846
#
# Compressibility (1/GPa) = 0.02249273
#
# Stress axis : x y z
#
# Youngs Moduli (GPa) = 103.42146 136.46651 69.58233
#
# Poissons Ratio (x) = 0.20289 0.02409
# Poissons Ratio (y) = 0.15376 0.18126
# Poissons Ratio (z) = 0.03580 0.35549
#
# Static dielectric constant tensor:
#      x y z
#    x 1.989760 -0.094520 -0.085630 
#    y -0.094520 1.983150 0.122140 
#    z -0.085630 0.122140 2.139870 
# 
# From -- ./inp_files/242788.got.cif
#   From: 2010.05.17/outbox.cif.g08.bks.cpg/sg2_122_cif.got.tgz:242788.got - 2010.06.03 11:33:40.
