data_PCOD9018325
_publ_section_title
;
Structure prediction by ZEFSAII (Michael W. Deem and Ramdas Pophale) SiO2 
 PCOD9018325
Probable space group: P -1
;
_chemical_formula_sum "Si O2"
_cell_formula_units_Z 14
_cell_length_a 14.548077
_cell_length_b 19.813980
_cell_length_c 11.560813
_cell_angle_alpha 156.398387
_cell_angle_beta 148.092725
_cell_angle_gamma 30.113036
_cell_volume 642.637158
_symmetry_space_group_name_H-M "P -1"
_symmetry_group_IT_number 2
_symmetry_cell_setting 'triclinic'
loop_
_space_group_symop_operation_xyz
x,y,z
-x,-y,-z
loop_
_atom_site_type_symbol
_atom_site_label
_atom_site_fract_x
_atom_site_fract_y
_atom_site_fract_z
Si Si1 0.935242 0.461731 0.496634
Si Si2 0.502602 0.340901 0.667023
Si Si3 0.248987 0.067986 0.622892
Si Si4 0.951091 0.965206 0.022625
Si Si5 0.496413 0.555503 0.419355
Si Si6 0.097763 0.452029 0.156634
Si Si7 0.528565 0.199586 0.007739
O O1 0.719042 0.613565 0.513371
O O2 0.018985 0.478278 0.739427
O O3 0.000000 0.500000 0.500000
O O4 0.955054 0.251675 0.187666
O O5 0.620014 0.136192 0.515485
O O6 0.577400 0.369926 0.668203
O O7 0.500000 0.500000 0.000000
O O8 0.053083 0.066707 0.367425
O O9 0.197699 0.229172 0.915276
O O10 0.369958 0.122100 0.740764
O O11 0.725092 0.047985 0.931480
O O12 0.000000 0.000000 0.000000
O O13 0.728696 0.481902 0.553763
O O14 0.453096 0.382109 0.135041
O O15 0.428354 0.718122 0.696622
O O16 0.000000 0.500000 0.000000
#
# Coordination Sequence:
#
# PCOD9018325 Si02
#       7
#     2   2   2   2   2   2   2
#     4  11  24  43  65  97 138 173 214 283 339 390
#     4  11  22  44  63  89 138 174 212 268 340 397
#     4  11  24  42  70  98 124 182 226 266 335 396
#     4  12  24  43  64  97 138 172 219 283 332 391
#     4   9  21  42  66  92 135 174 213 286 324 383
#     4  10  21  43  69  98 134 176 226 274 336 400
#     4  10  22  42  67  97 127 168 234 267 326 390
#
# _framework density 21.785232000000001
#
# number of rings (size 3 to 8) (size 9 to 14) (size 15 to 20)
#    0.000    1.429    1.429    4.286    0.000    6.857 
#   12.857    1.429    0.000    0.000    0.000    0.000 
#    0.000    0.000    0.000    0.000    0.000    0.000 
#
# Total GULP energy -78215.865663 kJ/mol
# GULP energy per Si atom -5586.847547 kJ/mol
# Density = 2.173565 g / cm^3
# Si number density = 21.785232 Si / 1000 Ang^3
#
#
#
# Elastic Constant Matrix: (Units=GPa)
#
#
# Indices 1 2 3 4 5 6 
#
# 1 143.4845 19.1168 38.4315 7.8179 -2.5802 21.4463
# 2 19.1168 43.2503 29.5816 9.5651 -2.9308 10.6063
# 3 38.4315 29.5816 88.8668 15.9219 12.9290 13.1695
# 4 7.8179 9.5651 15.9219 35.9486 2.0096 6.3437
# 5 -2.5802 -2.9308 12.9290 2.0096 25.7086 9.5050
# 6 21.4463 10.6063 13.1695 6.3437 9.5050 40.1396
#
#
#
# Elastic Compliance Matrix: (Units=1/GPa)
#
#
# Indices 1 2 3 4 5 6 
#
# 1 0.008727 0.000123 -0.003852 0.000327 0.004482 -0.004544
# 2 0.000123 0.034651 -0.011702 -0.003393 0.013047 -0.007936
# 3 -0.003852 -0.011702 0.018927 -0.004195 -0.011798 0.002397
# 4 0.000327 -0.003393 -0.004195 0.030996 0.000404 -0.002896
# 5 0.004482 0.013047 -0.011798 0.000404 0.052045 -0.014359
# 6 -0.004544 -0.007936 0.002397 -0.002896 -0.014359 0.032509
#
#
# Mechanical properties :
#
#
# Convention : Reuss Voigt Hill
#
# Bulk Modulus (GPa) = 31.80394 49.98461 40.89427
# Shear Modulus (GPa) = 22.81041 32.92412 27.86727
#
# Velocity S-wave (km/s) = 3.23934 3.89177 3.58044
# Velocity P-wave (km/s) = 5.34992 6.57180 5.99209
#
# Compressibility (1/GPa) = 0.03144265
#
# Stress axis : x y z
#
# Youngs Moduli (GPa) = 114.58986 28.85906 52.83496
#
# Poissons Ratio (x) = -0.00356 0.20353
# Poissons Ratio (y) = -0.01413 0.61828
# Poissons Ratio (z) = 0.44143 0.33771
#
# Static dielectric constant tensor:
#      x y z
#    x 1.852370 -0.014060 -0.003970 
#    y -0.014060 1.843460 -0.071050 
#    z -0.003970 -0.071050 1.823340 
# 
# From -- ./inp_files/299253.got.cif
#   From: 2010.05.17/outbox.cif.g08.bks.cpg/sg2_150_cif.got.tgz:299253.got - 2010.06.03 11:33:40.
