data_PCOD9018212
_publ_section_title
;
Structure prediction by ZEFSAII (Michael W. Deem and Ramdas Pophale) SiO2 
 PCOD9018212
Probable space group: P -1
;
_chemical_formula_sum "Si O2"
_cell_formula_units_Z 15
_cell_length_a 17.641692
_cell_length_b 7.086216
_cell_length_c 11.654735
_cell_angle_alpha 120.483591
_cell_angle_beta 137.141235
_cell_angle_gamma 41.819213
_cell_volume 658.357504
_symmetry_space_group_name_H-M "P -1"
_symmetry_group_IT_number 2
_symmetry_cell_setting 'triclinic'
loop_
_space_group_symop_operation_xyz
x,y,z
-x,-y,-z
loop_
_atom_site_type_symbol
_atom_site_label
_atom_site_fract_x
_atom_site_fract_y
_atom_site_fract_z
Si Si1 0.630636 0.600744 0.624305
Si Si2 0.840003 0.580171 0.670651
Si Si3 0.413425 0.636595 0.705003
Si Si4 0.500000 0.000000 0.000000
Si Si5 0.166765 0.012787 0.911429
Si Si6 0.171635 0.761334 0.614233
Si Si7 0.156147 0.912347 0.128514
Si Si8 0.438024 0.932834 0.165382
O O1 0.728880 0.622086 0.652836
O O2 0.566584 0.491516 0.438489
O O3 0.730266 0.366266 0.758398
O O4 0.526793 0.901574 0.665460
O O5 0.800982 0.518444 0.486036
O O6 0.999955 0.291854 0.794811
O O7 0.842339 0.837394 0.752296
O O8 0.468121 0.809911 0.835807
O O9 0.246520 0.822065 0.620378
O O10 0.491335 0.369075 0.793892
O O11 0.525072 0.092632 0.933363
O O12 0.216373 0.781909 0.796341
O O13 0.265762 0.103088 0.036439
O O14 0.187757 0.880953 0.018306
O O15 0.000000 0.000000 0.500000
O O16 0.000000 0.000000 0.000000
#
# Coordination Sequence:
#
# PCOD9018212 Si02
#       8
#     2   2   2   1   2   2   2   2
#     4  11  25  45  71 103 140 188 239 293 350 421
#     4  10  21  43  69 101 143 179 228 305 351 414
#     4  11  26  49  70 102 146 185 238 293 352 418
#     4  12  28  46  72 102 144 180 244 292 336 432
#     4  11  21  42  70 100 144 183 231 286 357 418
#     4   9  21  42  74  96 132 185 228 284 364 412
#     4  12  23  39  69 107 141 182 235 291 352 415
#     4  12  26  45  71 101 140 196 231 285 356 418
#
# _framework density 22.783971000000001
#
# number of rings (size 3 to 8) (size 9 to 14) (size 15 to 20)
#    0.000    1.067    4.000    2.000    1.867    2.667 
#    0.000    0.667    0.000    0.000    0.000    0.000 
#    0.000    0.000    0.000    0.000    0.000    0.000 
#
# Total GULP energy -83735.548816 kJ/mol
# GULP energy per Si atom -5582.369921 kJ/mol
# Density = 2.273211 g / cm^3
# Si number density = 22.783971 Si / 1000 Ang^3
#
#
#
# Elastic Constant Matrix: (Units=GPa)
#
#
# Indices 1 2 3 4 5 6 
#
# 1 61.7239 44.7580 39.0685 7.9147 -21.2903 5.3277
# 2 44.7580 80.5805 44.4701 16.4508 8.3940 12.0851
# 3 39.0685 44.4701 145.0678 46.0041 -19.0554 10.0288
# 4 7.9147 16.4508 46.0041 48.5111 0.1431 1.5166
# 5 -21.2903 8.3940 -19.0554 0.1431 46.2574 3.3961
# 6 5.3277 12.0851 10.0288 1.5166 3.3961 35.7684
#
#
#
# Elastic Compliance Matrix: (Units=1/GPa)
#
#
# Indices 1 2 3 4 5 6 
#
# 1 0.045792 -0.028030 -0.001489 0.003355 0.025502 0.000504
# 2 -0.028030 0.033638 -0.004405 -0.002475 -0.020526 -0.003902
# 3 -0.001489 -0.004405 0.012793 -0.010350 0.005560 -0.001966
# 4 0.003355 -0.002475 -0.010350 0.030660 -0.002525 0.002178
# 5 0.025502 -0.020526 0.005560 -0.002525 0.039530 -0.002069
# 6 0.000504 -0.003902 -0.001966 0.002178 -0.002069 0.029856
#
#
# Mechanical properties :
#
#
# Convention : Reuss Voigt Hill
#
# Bulk Modulus (GPa) = 41.02353 60.44062 50.73208
# Shear Modulus (GPa) = 18.63986 36.71239 27.67613
#
# Velocity S-wave (km/s) = 2.86337 4.01849 3.48906
# Velocity P-wave (km/s) = 5.38297 6.93659 6.20857
#
# Compressibility (1/GPa) = 0.02437625
#
# Stress axis : x y z
#
# Youngs Moduli (GPa) = 21.83808 29.72797 78.16705
#
# Poissons Ratio (x) = 0.83328 0.11637
# Poissons Ratio (y) = 0.61212 0.34429
# Poissons Ratio (z) = 0.03251 0.13094
#
# Static dielectric constant tensor:
#      x y z
#    x 1.840810 -0.073420 0.032840 
#    y -0.073420 1.848110 -0.008730 
#    z 0.032840 -0.008730 1.892500 
# 
# From -- ./inp_files/459623.got.cif
#   From: 2010.05.17/outbox.cif.g08.bks.cpg/sg2_230_cif.got.tgz:459623.got - 2010.06.03 11:33:40.
