data_PCOD9018173
_publ_section_title
;
Structure prediction by ZEFSAII (Michael W. Deem and Ramdas Pophale) SiO2 
 PCOD9018173
Probable space group: P -1
;
_chemical_formula_sum "Si O2"
_cell_formula_units_Z 12
_cell_length_a 9.655615
_cell_length_b 7.554696
_cell_length_c 11.359582
_cell_angle_alpha 141.947278
_cell_angle_beta 117.200049
_cell_angle_gamma 65.779162
_cell_volume 452.356009
_symmetry_space_group_name_H-M "P -1"
_symmetry_group_IT_number 2
_symmetry_cell_setting 'triclinic'
loop_
_space_group_symop_operation_xyz
x,y,z
-x,-y,-z
loop_
_atom_site_type_symbol
_atom_site_label
_atom_site_fract_x
_atom_site_fract_y
_atom_site_fract_z
Si Si1 0.751789 0.060578 0.080733
Si Si2 0.470564 0.391906 0.241456
Si Si3 0.100271 0.336938 0.762079
Si Si4 0.239424 0.903557 0.162896
Si Si5 0.572228 0.043667 0.340080
Si Si6 0.963549 0.865072 0.603631
O O1 0.610898 0.315927 0.165252
O O2 0.802205 0.992755 0.931518
O O3 0.885243 0.150244 0.263784
O O4 0.675924 0.773416 0.943427
O O5 0.530591 0.222558 0.296658
O O6 0.427202 0.717556 0.432061
O O7 0.978466 0.162737 0.694037
O O8 0.262961 0.136590 0.704463
O O9 0.037497 0.372844 0.622894
O O10 0.144946 0.624540 0.990840
O O11 0.182702 0.117361 0.357037
O O12 0.426835 0.858484 0.212440
#
# Coordination Sequence:
#
# PCOD9018173 Si02
#       6
#     2   2   2   2   2   2
#     4  10  21  43  70  97 129 170 222 273 317 384
#     4   9  20  40  72  97 124 173 222 267 323 380
#     4  11  25  45  66  96 136 177 209 267 335 389
#     4  11  25  42  67 103 129 170 219 274 324 376
#     4  10  21  43  68  98 129 169 223 269 318 388
#     4  11  25  45  64  97 133 179 214 261 333 391
#
# _framework density 26.527781000000001
#
# number of rings (size 3 to 8) (size 9 to 14) (size 15 to 20)
#    0.000    1.667    1.667    1.500    2.333    5.333 
#    3.000    0.000    0.000    0.000    0.000    0.000 
#    0.000    0.000    0.000    0.000    0.000    0.000 
#
# Total GULP energy -67303.779739 kJ/mol
# GULP energy per Si atom -5608.648312 kJ/mol
# Density = 2.646740 g / cm^3
# Si number density = 26.527781 Si / 1000 Ang^3
#
#
#
# Elastic Constant Matrix: (Units=GPa)
#
#
# Indices 1 2 3 4 5 6 
#
# 1 113.0679 17.9611 21.3680 -21.2206 -9.6619 8.1587
# 2 17.9611 59.8794 29.2053 -26.9097 -1.7105 6.8671
# 3 21.3680 29.2053 118.9651 0.7868 -12.4730 2.0370
# 4 -21.2206 -26.9097 0.7868 30.9771 1.8620 -1.6490
# 5 -9.6619 -1.7105 -12.4730 1.8620 53.4154 -12.1701
# 6 8.1587 6.8671 2.0370 -1.6490 -12.1701 29.1457
#
#
#
# Elastic Compliance Matrix: (Units=1/GPa)
#
#
# Indices 1 2 3 4 5 6 
#
# 1 0.010978 0.002680 -0.002595 0.009738 0.000496 -0.002765
# 2 0.002680 0.036862 -0.010006 0.033892 -0.003764 -0.008390
# 3 -0.002595 -0.010006 0.011661 -0.010790 0.002970 0.002898
# 4 0.009738 0.033892 -0.010790 0.068489 -0.003808 -0.007672
# 5 0.000496 -0.003764 0.002970 -0.003808 0.021650 0.009365
# 6 -0.002765 -0.008390 0.002898 -0.007672 0.009365 0.040335
#
#
# Mechanical properties :
#
#
# Convention : Reuss Voigt Hill
#
# Bulk Modulus (GPa) = 25.21415 47.66457 36.43936
# Shear Modulus (GPa) = 22.41764 37.59949 30.00857
#
# Velocity S-wave (km/s) = 2.91015 3.76887 3.36700
# Velocity P-wave (km/s) = 4.56261 6.07832 5.37417
#
# Compressibility (1/GPa) = 0.03966027
#
# Stress axis : x y z
#
# Youngs Moduli (GPa) = 91.08798 27.12799 85.75290
#
# Poissons Ratio (x) = -0.07270 0.22251
# Poissons Ratio (y) = -0.24411 0.85804
# Poissons Ratio (z) = 0.23636 0.27144
#
# Static dielectric constant tensor:
#      x y z
#    x 2.017050 0.027110 0.001650 
#    y 0.027110 2.131030 -0.016700 
#    z 0.001650 -0.016700 2.022410 
# 
# From -- ./inp_files/238344.got.cif
#   From: 2010.05.17/outbox.cif.g08.bks.cpg/sg2_120_cif.got.tgz:238344.got - 2010.06.03 11:33:40.
