data_PCOD9018702
_publ_section_title
;
Structure prediction by ZEFSAII (Michael W. Deem and Ramdas Pophale) SiO2 
 PCOD9018702
Probable space group: P -1
;
_chemical_formula_sum "Si O2"
_cell_formula_units_Z 14
_cell_length_a 9.776244
_cell_length_b 11.805867
_cell_length_c 14.148398
_cell_angle_alpha 30.535925
_cell_angle_beta 140.220169
_cell_angle_gamma 130.462324
_cell_volume 530.435488
_symmetry_space_group_name_H-M "P -1"
_symmetry_group_IT_number 2
_symmetry_cell_setting 'triclinic'
loop_
_space_group_symop_operation_xyz
x,y,z
-x,-y,-z
loop_
_atom_site_type_symbol
_atom_site_label
_atom_site_fract_x
_atom_site_fract_y
_atom_site_fract_z
Si Si1 0.836678 0.013552 0.489942
Si Si2 0.154674 0.512307 0.793766
Si Si3 0.749584 0.544694 0.815242
Si Si4 0.218787 0.935850 0.890912
Si Si5 0.336683 0.385146 0.566745
Si Si6 0.929567 0.972356 0.874763
Si Si7 0.672682 0.414260 0.370248
O O1 0.737161 0.263556 0.270420
O O2 0.705486 0.789359 0.570715
O O3 0.000000 0.000000 0.500000
O O4 0.984855 0.966463 0.694192
O O5 0.207268 0.495535 0.721932
O O6 0.902343 0.569857 0.634490
O O7 0.177378 0.265242 0.024598
O O8 0.581603 0.553799 0.804848
O O9 0.702840 0.318406 0.897455
O O10 0.000000 0.500000 0.000000
O O11 0.151945 0.985170 0.926316
O O12 0.357777 0.116126 0.781899
O O13 0.500000 0.500000 0.500000
O O14 0.304252 0.478695 0.589884
O O15 0.765979 0.165038 0.614048
O O16 0.000000 0.000000 0.000000
#
# Coordination Sequence:
#
# PCOD9018702 Si02
#       7
#     2   2   2   2   2   2   2
#     4  10  21  43  75  97 144 195 245 308 363 424
#     4  11  24  46  70 108 155 188 245 308 373 436
#     4  10  25  47  72 101 144 194 251 306 363 426
#     4  10  23  45  71 106 150 190 244 309 366 441
#     4  11  24  41  72 109 151 192 237 301 371 448
#     4  12  23  43  75 106 151 197 235 298 379 446
#     4  12  25  45  74 108 151 194 246 303 375 440
#
# _framework density 26.393408000000001
#
# number of rings (size 3 to 8) (size 9 to 14) (size 15 to 20)
#    0.000    1.143    4.286    2.143    6.000    2.286 
#    2.571    0.714    0.000    0.000    0.000    0.000 
#    0.000    0.000    0.000    0.000    0.000    0.000 
#
# Total GULP energy -78308.295059 kJ/mol
# GULP energy per Si atom -5593.449647 kJ/mol
# Density = 2.633334 g / cm^3
# Si number density = 26.393408 Si / 1000 Ang^3
#
#
#
# Elastic Constant Matrix: (Units=GPa)
#
#
# Indices 1 2 3 4 5 6 
#
# 1 209.3074 43.8581 52.5465 -18.4743 -4.4534 11.3868
# 2 43.8581 110.2685 36.5659 -38.2256 -8.2836 1.5665
# 3 52.5465 36.5659 143.2291 -42.8166 -11.3452 11.3530
# 4 -18.4743 -38.2256 -42.8166 54.6419 9.2328 -3.8694
# 5 -4.4534 -8.2836 -11.3452 9.2328 48.4934 -0.5814
# 6 11.3868 1.5665 11.3530 -3.8694 -0.5814 45.7147
#
#
#
# Elastic Compliance Matrix: (Units=1/GPa)
#
#
# Indices 1 2 3 4 5 6 
#
# 1 0.005598 -0.001949 -0.001755 -0.000903 -0.000069 -0.000969
# 2 -0.001949 0.012724 -0.000133 0.008121 0.000427 0.000775
# 3 -0.001755 -0.000133 0.009873 0.006812 0.000812 -0.001423
# 4 -0.000903 0.008121 0.006812 0.029524 -0.002715 0.000719
# 5 -0.000069 0.000427 0.000812 -0.002715 0.021393 -0.000157
# 6 -0.000969 0.000775 -0.001423 0.000719 -0.000157 0.022502
#
#
# Mechanical properties :
#
#
# Convention : Reuss Voigt Hill
#
# Bulk Modulus (GPa) = 48.73031 80.97180 64.85105
# Shear Modulus (GPa) = 43.05536 51.75896 47.40716
#
# Velocity S-wave (km/s) = 4.04331 4.43319 4.24273
# Velocity P-wave (km/s) = 6.34830 7.54649 6.97318
#
# Compressibility (1/GPa) = 0.02052111
#
# Stress axis : x y z
#
# Youngs Moduli (GPa) = 178.62979 78.58875 101.28552
#
# Poissons Ratio (x) = 0.15318 0.17773
# Poissons Ratio (y) = 0.34817 0.01352
# Poissons Ratio (z) = 0.31344 0.01049
#
# Static dielectric constant tensor:
#      x y z
#    x 2.051200 0.044690 0.002140 
#    y 0.044690 2.255700 0.049380 
#    z 0.002140 0.049380 2.111190 
# 
# From -- ./inp_files/499807.got.cif
#   From: 2010.05.17/outbox.cif.g08.bks.cpg/sg2_250_cif.got.tgz:499807.got - 2010.06.03 11:33:40.
