data_PCOD9018022
_publ_section_title
;
Structure prediction by ZEFSAII (Michael W. Deem and Ramdas Pophale) SiO2 
 PCOD9018022
Probable space group: P -1
;
_chemical_formula_sum "Si O2"
_cell_formula_units_Z 13
_cell_length_a 7.535996
_cell_length_b 23.398881
_cell_length_c 14.080363
_cell_angle_alpha 157.095155
_cell_angle_beta 139.382767
_cell_angle_gamma 31.942667
_cell_volume 508.168457
_symmetry_space_group_name_H-M "P -1"
_symmetry_group_IT_number 2
_symmetry_cell_setting 'triclinic'
loop_
_space_group_symop_operation_xyz
x,y,z
-x,-y,-z
loop_
_atom_site_type_symbol
_atom_site_label
_atom_site_fract_x
_atom_site_fract_y
_atom_site_fract_z
Si Si1 0.010827 0.023571 0.351643
Si Si2 0.020354 0.462906 0.839416
Si Si3 0.500000 0.000000 0.000000
Si Si4 0.601000 0.640545 0.570354
Si Si5 0.498418 0.438118 0.782963
Si Si6 0.423028 0.066424 0.421144
Si Si7 0.707987 0.682426 0.876342
O O1 0.216506 0.047346 0.390491
O O2 0.839659 0.932813 0.101526
O O3 0.704506 0.226408 0.570625
O O4 0.281114 0.931942 0.406610
O O5 0.168245 0.257583 0.559792
O O6 0.711843 0.610800 0.873466
O O7 0.322422 0.483815 0.975228
O O8 0.000000 0.500000 0.000000
O O9 0.513172 0.162439 0.209939
O O10 0.451693 0.574566 0.332233
O O11 0.528562 0.654530 0.674483
O O12 0.000000 0.500000 0.500000
O O13 0.100954 0.557346 0.817242
O O14 0.572279 0.890680 0.148093
#
# Coordination Sequence:
#
# PCOD9018022 Si02
#       7
#     2   2   1   2   2   2   2
#     4  10  21  43  67  99 133 182 226 280 337 413
#     4  12  23  41  71  96 139 187 218 281 354 400
#     4  10  22  42  70  88 132 186 226 260 346 404
#     4   9  22  42  66  93 134 175 224 280 333 398
#     4  10  21  44  68  92 139 179 228 281 336 406
#     4  11  23  39  69 101 137 171 229 283 344 394
#     4  11  24  43  65 107 137 170 236 295 320 410
#
# _framework density 25.582068
#
# number of rings (size 3 to 8) (size 9 to 14) (size 15 to 20)
#    0.000    1.538    3.077    1.385    4.308    4.308 
#    0.000    3.846    6.769    0.000    0.000    0.000 
#    0.000    0.000    0.000    0.000    0.000    0.000 
#
# Total GULP energy -72454.481883 kJ/mol
# GULP energy per Si atom -5573.421683 kJ/mol
# Density = 2.552384 g / cm^3
# Si number density = 25.582068 Si / 1000 Ang^3
#
#
#
# Elastic Constant Matrix: (Units=GPa)
#
#
# Indices 1 2 3 4 5 6 
#
# 1 58.1996 11.8767 21.6921 -4.1827 -10.0470 11.9197
# 2 11.8767 120.8208 69.9769 -17.3972 -3.8244 9.1167
# 3 21.6921 69.9769 108.7358 -19.6126 4.0589 5.6188
# 4 -4.1827 -17.3972 -19.6126 63.3869 -3.5268 1.8100
# 5 -10.0470 -3.8244 4.0589 -3.5268 34.5495 -2.7342
# 6 11.9197 9.1167 5.6188 1.8100 -2.7342 52.8850
#
#
#
# Elastic Compliance Matrix: (Units=1/GPa)
#
#
# Indices 1 2 3 4 5 6 
#
# 1 0.020759 0.001467 -0.004990 0.000709 0.006534 -0.004088
# 2 0.001467 0.013691 -0.008893 0.001316 0.002992 -0.001636
# 3 -0.004990 -0.008893 0.016407 0.002060 -0.004103 0.000632
# 4 0.000709 0.001316 0.002060 0.016950 0.001753 -0.001095
# 5 0.006534 0.002992 -0.004103 0.001753 0.031839 0.000034
# 6 -0.004088 -0.001636 0.000632 -0.001095 0.000034 0.020084
#
#
# Mechanical properties :
#
#
# Convention : Reuss Voigt Hill
#
# Bulk Modulus (GPa) = 38.42538 54.98305 46.70422
# Shear Modulus (GPa) = 32.62880 42.44497 37.53688
#
# Velocity S-wave (km/s) = 3.57523 4.07771 3.83471
# Velocity P-wave (km/s) = 5.66534 6.61133 6.15653
#
# Compressibility (1/GPa) = 0.02602447
#
# Stress axis : x y z
#
# Youngs Moduli (GPa) = 48.17189 73.04096 60.94795
#
# Poissons Ratio (x) = -0.10715 0.30414
# Poissons Ratio (y) = -0.07067 0.54202
# Poissons Ratio (z) = 0.24039 0.64957
#
# Static dielectric constant tensor:
#      x y z
#    x 2.161920 0.073090 -0.057930 
#    y 0.073090 2.028520 -0.031870 
#    z -0.057930 -0.031870 1.969840 
# 
# From -- ./inp_files/508946.got.cif
#   From: 2010.05.17/outbox.cif.g08.bks.cpg/sg2_255_cif.got.tgz:508946.got - 2010.06.03 11:33:40.
