data_PCOD9018955
_publ_section_title
;
Structure prediction by ZEFSAII (Michael W. Deem and Ramdas Pophale) SiO2 
 PCOD9018955
Probable space group: P -1
;
_chemical_formula_sum "Si O2"
_cell_formula_units_Z 16
_cell_length_a 15.416419
_cell_length_b 12.463676
_cell_length_c 21.311860
_cell_angle_alpha 148.714976
_cell_angle_beta 24.589660
_cell_angle_gamma 153.363091
_cell_volume 744.540983
_symmetry_space_group_name_H-M "P -1"
_symmetry_group_IT_number 2
_symmetry_cell_setting 'triclinic'
loop_
_space_group_symop_operation_xyz
x,y,z
-x,-y,-z
loop_
_atom_site_type_symbol
_atom_site_label
_atom_site_fract_x
_atom_site_fract_y
_atom_site_fract_z
Si Si1 0.256789 0.431212 0.267339
Si Si2 0.996876 0.303750 0.495898
Si Si3 0.649979 0.927967 0.321189
Si Si4 0.167991 0.617198 0.650403
Si Si5 0.713932 0.596780 0.976377
Si Si6 0.838533 0.875544 0.480928
Si Si7 0.719188 0.390077 0.285290
Si Si8 0.902691 0.045678 0.989417
O O1 0.127480 0.545103 0.368894
O O2 0.456572 0.653951 0.291509
O O3 0.444153 0.404997 0.086406
O O4 0.077687 0.249941 0.348996
O O5 0.202672 0.484695 0.502638
O O6 0.851265 0.062677 0.513934
O O7 0.920090 0.983612 0.190601
O O8 0.500000 0.000000 0.500000
O O9 0.722331 0.104593 0.302064
O O10 0.281720 0.627039 0.646782
O O11 0.870662 0.491348 0.791979
O O12 0.895131 0.768533 0.999020
O O13 0.722242 0.792784 0.019791
O O14 0.890355 0.686162 0.315696
O O15 0.555376 0.712565 0.608505
O O16 0.000000 0.000000 0.500000
O O17 0.794344 0.205048 0.117804
#
# Coordination Sequence:
#
# PCOD9018955 Si02
#       8
#     2   2   2   2   2   2   2   2
#     4  10  20  33  50  78 122 153 173 238 300 341
#     4  11  21  33  51  83 121 144 193 240 284 348
#     4  10  17  30  54  84 113 155 189 224 290 360
#     4  10  18  32  55  85 113 148 190 236 285 352
#     4   8  15  29  51  79 111 150 184 223 292 354
#     4  11  22  37  59  87 111 151 208 247 277 342
#     4  10  20  37  60  81 112 156 190 250 295 314
#     4   8  15  29  53  80 112 146 191 232 284 347
#
# _framework density 21.489751999999999
#
# number of rings (size 3 to 8) (size 9 to 14) (size 15 to 20)
#    0.000    2.250    2.500    3.750    0.000    0.500 
#    0.000    0.000    0.000    6.750    0.000   15.750 
#    0.000    0.000    0.000    0.000    0.000    0.000 
#
# Total GULP energy -89084.136213 kJ/mol
# GULP energy per Si atom -5567.758513 kJ/mol
# Density = 2.144084 g / cm^3
# Si number density = 21.489752 Si / 1000 Ang^3
#
#
#
# Elastic Constant Matrix: (Units=GPa)
#
#
# Indices 1 2 3 4 5 6 
#
# 1 75.3915 16.2578 32.1389 -10.8749 6.7025 -0.8910
# 2 16.2578 43.8550 10.3867 -1.5626 -4.1157 -11.7311
# 3 32.1389 10.3867 105.9555 -9.1965 -2.1723 -9.0672
# 4 -10.8749 -1.5626 -9.1965 30.5581 -5.9144 -5.0509
# 5 6.7025 -4.1157 -2.1723 -5.9144 33.1948 2.5123
# 6 -0.8910 -11.7311 -9.0672 -5.0509 2.5123 25.9141
#
#
#
# Elastic Compliance Matrix: (Units=1/GPa)
#
#
# Indices 1 2 3 4 5 6 
#
# 1 0.017415 -0.006368 -0.004706 0.003232 -0.003816 -0.002931
# 2 -0.006368 0.029056 0.000506 0.002388 0.004351 0.013155
# 3 -0.004706 0.000506 0.011492 0.002925 0.001948 0.004469
# 4 0.003232 0.002388 0.002925 0.037487 0.005836 0.008957
# 5 -0.003816 0.004351 0.001948 0.005836 0.032565 0.000501
# 6 -0.002931 0.013155 0.004469 0.008957 0.000501 0.047705
#
#
# Mechanical properties :
#
#
# Convention : Reuss Voigt Hill
#
# Bulk Modulus (GPa) = 27.15584 38.08542 32.62063
# Shear Modulus (GPa) = 23.90830 29.02797 26.46813
#
# Velocity S-wave (km/s) = 3.33910 3.67929 3.51331
# Velocity P-wave (km/s) = 5.24692 5.98420 5.62765
#
# Compressibility (1/GPa) = 0.03682449
#
# Stress axis : x y z
#
# Youngs Moduli (GPa) = 57.42314 34.41644 87.01500
#
# Poissons Ratio (x) = 0.21917 0.40954
# Poissons Ratio (y) = 0.36568 -0.04399
# Poissons Ratio (z) = 0.27026 -0.01740
#
# Static dielectric constant tensor:
#      x y z
#    x 1.797480 0.023240 0.029650 
#    y 0.023240 1.897300 0.000610 
#    z 0.029650 0.000610 1.980170 
# 
# From -- ./inp_files/598035.got.cif
#   From: 2010.05.17/outbox.cif.g08.bks.cpg/sg2_300_cif.got.tgz:598035.got - 2010.06.03 11:33:40.
