data_PCOD9018438
_publ_section_title
;
Structure prediction by ZEFSAII (Michael W. Deem and Ramdas Pophale) SiO2 
 PCOD9018438
Probable space group: P -1
;
_chemical_formula_sum "Si O2"
_cell_formula_units_Z 16
_cell_length_a 12.001490
_cell_length_b 12.008502
_cell_length_c 10.404273
_cell_angle_alpha 68.343218
_cell_angle_beta 118.604247
_cell_angle_gamma 147.375217
_cell_volume 707.892224
_symmetry_space_group_name_H-M "P -1"
_symmetry_group_IT_number 2
_symmetry_cell_setting 'triclinic'
loop_
_space_group_symop_operation_xyz
x,y,z
-x,-y,-z
loop_
_atom_site_type_symbol
_atom_site_label
_atom_site_fract_x
_atom_site_fract_y
_atom_site_fract_z
Si Si1 0.393106 0.953951 0.594918
Si Si2 0.039421 0.170701 0.122156
Si Si3 0.747868 0.638846 0.569752
Si Si4 0.998249 0.806122 0.382484
Si Si5 0.746852 0.362247 0.768547
Si Si6 0.297367 0.619215 0.724791
Si Si7 0.231527 0.110587 0.147586
Si Si8 0.160972 0.520776 0.966341
O O1 0.263678 0.735041 0.654713
O O2 0.230141 0.940009 0.507734
O O3 0.500000 0.000000 0.500000
O O4 0.594703 0.146869 0.711766
O O5 0.098785 0.199307 0.294066
O O6 0.240683 0.258219 0.123075
O O7 0.031400 0.306479 0.040226
O O8 0.843399 0.972524 0.004724
O O9 0.500000 0.500000 0.500000
O O10 0.857308 0.752446 0.443928
O O11 0.736547 0.484525 0.644551
O O12 0.873443 0.590537 0.358539
O O13 0.056070 0.926078 0.235183
O O14 0.991952 0.496823 0.851600
O O15 0.678513 0.321661 0.897002
O O16 0.278894 0.569377 0.883639
O O17 0.540935 0.777511 0.746015
#
# Coordination Sequence:
#
# PCOD9018438 Si02
#       8
#     2   2   2   2   2   2   2   2
#     4  12  23  39  66  99 138 177 221 277 335 403
#     4  10  23  46  65  99 137 177 224 282 330 395
#     4  11  25  46  71  99 141 177 221 281 342 399
#     4  12  25  43  69 102 138 178 225 280 335 406
#     4  10  23  43  69  99 136 178 228 274 340 404
#     4  12  23  41  70  99 134 178 227 277 342 392
#     4  11  24  44  69 100 134 177 232 276 328 413
#     4  10  21  43  70  97 136 179 224 283 333 398
#
# _framework density 22.602309000000002
#
# number of rings (size 3 to 8) (size 9 to 14) (size 15 to 20)
#    0.000    1.000    2.500    4.125    1.750    2.500 
#    9.000    0.000    0.000    0.000    0.000    0.000 
#    0.000    0.000    0.000    0.000    0.000    0.000 
#
# Total GULP energy -89311.528262 kJ/mol
# GULP energy per Si atom -5581.970516 kJ/mol
# Density = 2.255087 g / cm^3
# Si number density = 22.602309 Si / 1000 Ang^3
#
#
#
# Elastic Constant Matrix: (Units=GPa)
#
#
# Indices 1 2 3 4 5 6 
#
# 1 80.2693 15.8896 22.1091 -1.6990 -2.8570 2.0675
# 2 15.8896 51.2376 38.3687 -1.6154 -13.5632 -1.6322
# 3 22.1091 38.3687 88.9917 -0.1945 -9.5904 2.2348
# 4 -1.6990 -1.6154 -0.1945 20.3255 -16.3169 -5.4530
# 5 -2.8570 -13.5632 -9.5904 -16.3169 60.8803 1.4227
# 6 2.0675 -1.6322 2.2348 -5.4530 1.4227 42.6484
#
#
#
# Elastic Compliance Matrix: (Units=1/GPa)
#
#
# Indices 1 2 3 4 5 6 
#
# 1 0.013614 -0.002527 -0.002287 0.000702 -0.000083 -0.000544
# 2 -0.002527 0.031890 -0.012383 0.008876 0.007347 0.002882
# 3 -0.002287 -0.012383 0.017106 -0.001936 -0.000655 -0.001485
# 4 0.000702 0.008876 -0.001936 0.068068 0.019751 0.008451
# 5 -0.000083 0.007347 -0.000655 0.019751 0.023200 0.002071
# 6 -0.000544 0.002882 -0.001485 0.008451 0.002071 0.024674
#
#
# Mechanical properties :
#
#
# Convention : Reuss Voigt Hill
#
# Bulk Modulus (GPa) = 35.43878 41.47039 38.45458
# Shear Modulus (GPa) = 22.48707 34.37958 28.43332
#
# Velocity S-wave (km/s) = 3.15763 3.90431 3.55065
# Velocity P-wave (km/s) = 5.38586 6.22194 5.81894
#
# Compressibility (1/GPa) = 0.02821768
#
# Stress axis : x y z
#
# Youngs Moduli (GPa) = 73.45384 31.35824 58.45810
#
# Poissons Ratio (x) = 0.07924 0.13367
# Poissons Ratio (y) = 0.18561 0.72386
# Poissons Ratio (z) = 0.16796 0.38830
#
# Static dielectric constant tensor:
#      x y z
#    x 1.853830 -0.022780 0.000750 
#    y -0.022780 1.882740 -0.069640 
#    z 0.000750 -0.069640 1.896530 
# 
# From -- ./inp_files/428019.got.cif
#   From: 2010.05.17/outbox.cif.g08.bks.cpg/sg2_215_cif.got.tgz:428019.got - 2010.06.03 11:33:40.
