data_PCOD9018033
_publ_section_title
;
Structure prediction by ZEFSAII (Michael W. Deem and Ramdas Pophale) SiO2 
 PCOD9018033
Probable space group: P -1
;
_chemical_formula_sum "Si O2"
_cell_formula_units_Z 16
_cell_length_a 7.879470
_cell_length_b 11.883524
_cell_length_c 9.187659
_cell_angle_alpha 110.642034
_cell_angle_beta 129.070228
_cell_angle_gamma 98.860907
_cell_volume 534.701181
_symmetry_space_group_name_H-M "P -1"
_symmetry_group_IT_number 2
_symmetry_cell_setting 'triclinic'
loop_
_space_group_symop_operation_xyz
x,y,z
-x,-y,-z
loop_
_atom_site_type_symbol
_atom_site_label
_atom_site_fract_x
_atom_site_fract_y
_atom_site_fract_z
Si Si1 0.745647 0.896518 0.015044
Si Si2 0.892788 0.358900 0.984941
Si Si3 0.404547 0.254791 0.837061
Si Si4 0.483799 0.529969 0.335863
Si Si5 0.138639 0.418114 0.663479
Si Si6 0.312963 0.749512 0.492061
Si Si7 0.267353 0.978531 0.462071
Si Si8 0.994185 0.222760 0.247545
O O1 0.600082 0.816166 0.045458
O O2 0.828330 0.058532 0.112591
O O3 0.016375 0.909715 0.195923
O O4 0.578624 0.809845 0.747287
O O5 0.937599 0.261990 0.078080
O O6 0.180351 0.462435 0.121581
O O7 0.952430 0.314946 0.385455
O O8 0.685293 0.372414 0.982155
O O9 0.245644 0.332415 0.770836
O O10 0.296683 0.117407 0.612945
O O11 0.500000 0.500000 0.500000
O O12 0.615037 0.480483 0.262180
O O13 0.096565 0.599712 0.373904
O O14 0.303160 0.302449 0.475308
O O15 0.253901 0.875224 0.534933
O O16 0.500000 0.000000 0.500000
O O17 0.265639 0.720729 0.281394
#
# Coordination Sequence:
#
# PCOD9018033 Si02
#       8
#     2   2   2   2   2   2   2   2
#     4  12  25  43  71 101 145 177 227 274 340 431
#     4  11  23  43  66  97 142 175 235 286 334 405
#     4  12  23  42  68 100 134 182 223 284 340 403
#     4   8  19  41  68  98 124 181 237 286 329 391
#     4  10  21  43  68 100 130 176 238 271 346 399
#     4  12  26  42  63 105 142 182 216 279 354 402
#     4  12  24  45  63 101 142 176 223 278 343 405
#     4   9  20  42  68  99 127 182 233 278 336 401
#
# _framework density 29.923255000000001
#
# number of rings (size 3 to 8) (size 9 to 14) (size 15 to 20)
#    0.750    0.500    3.750    2.625    0.000    3.000 
#    2.250    0.000    0.000    0.750    0.000    0.000 
#    0.000    0.000    0.000    0.000    0.000    0.000 
#
# Total GULP energy -89446.779215 kJ/mol
# GULP energy per Si atom -5590.423701 kJ/mol
# Density = 2.985515 g / cm^3
# Si number density = 29.923255 Si / 1000 Ang^3
#
#
#
# Elastic Constant Matrix: (Units=GPa)
#
#
# Indices 1 2 3 4 5 6 
#
# 1 830.7709 351.3633 740.8059 126.1626 -360.7423 -56.6517
# 2 351.3633 298.2506 336.5193 66.3803 -161.1575 -6.0826
# 3 740.8059 336.5193 912.2073 116.5033 -327.0996 -69.8264
# 4 126.1626 66.3803 116.5033 77.7064 -56.1364 -10.2293
# 5 -360.7423 -161.1575 -327.0996 -56.1364 259.8209 45.5581
# 6 -56.6517 -6.0826 -69.8264 -10.2293 45.5581 69.7312
#
#
#
# Elastic Compliance Matrix: (Units=1/GPa)
#
#
# Indices 1 2 3 4 5 6 
#
# 1 0.006911 -0.001826 -0.003318 -0.001889 0.004013 -0.000765
# 2 -0.001826 0.007326 -0.000827 -0.001620 0.001076 -0.002613
# 3 -0.003318 -0.000827 0.004163 -0.000063 -0.000154 0.001492
# 4 -0.001889 -0.001620 -0.000063 0.017467 -0.000088 0.000881
# 5 0.004013 0.001076 -0.000154 -0.000088 0.010521 -0.003687
# 6 -0.000765 -0.002613 0.001492 0.000881 -0.003687 0.017523
#
#
# Mechanical properties :
#
#
# Convention : Reuss Voigt Hill
#
# Bulk Modulus (GPa) = 154.82794 544.28953 349.55874
# Shear Modulus (GPa) = 64.09783 122.28772 93.19278
#
# Velocity S-wave (km/s) = 4.63328 6.39967 5.58673
# Velocity P-wave (km/s) = 8.97090 15.39149 12.59712
#
# Compressibility (1/GPa) = 0.00645878
#
# Stress axis : x y z
#
# Youngs Moduli (GPa) = 144.68665 136.50792 240.23095
#
# Poissons Ratio (x) = 0.24922 0.79700
# Poissons Ratio (y) = 0.26415 0.19871
# Poissons Ratio (z) = 0.48002 0.11291
#
# Static dielectric constant tensor:
#      x y z
#    x 2.812500 -0.183200 -0.196790 
#    y -0.183200 2.524190 0.146570 
#    z -0.196790 0.146570 2.401380 
# 
# From -- ./inp_files/431442.got.cif
#   From: 2010.05.17/outbox.cif.g08.bks.cpg/sg2_216_cif.got.tgz:431442.got - 2010.06.03 11:33:40.
