data_PCOD9018762
_publ_section_title
;
Structure prediction by ZEFSAII (Michael W. Deem and Ramdas Pophale) SiO2 
 PCOD9018762
Probable space group: P -1
;
_chemical_formula_sum "Si O2"
_cell_formula_units_Z 16
_cell_length_a 11.861521
_cell_length_b 13.389114
_cell_length_c 5.311413
_cell_angle_alpha 94.055245
_cell_angle_beta 90.576915
_cell_angle_gamma 128.645007
_cell_volume 655.581402
_symmetry_space_group_name_H-M "P -1"
_symmetry_group_IT_number 2
_symmetry_cell_setting 'triclinic'
loop_
_space_group_symop_operation_xyz
x,y,z
-x,-y,-z
loop_
_atom_site_type_symbol
_atom_site_label
_atom_site_fract_x
_atom_site_fract_y
_atom_site_fract_z
Si Si1 0.484486 0.118315 0.170816
Si Si2 0.005086 0.672397 0.014354
Si Si3 0.560659 0.268624 0.664191
Si Si4 0.873958 0.420186 0.678873
Si Si5 0.109863 0.009266 0.700717
Si Si6 0.265777 0.903909 0.788501
Si Si7 0.855042 0.778967 0.994940
Si Si8 0.582373 0.515742 0.754637
O O1 0.462714 0.183574 0.409705
O O2 0.599379 0.096418 0.264928
O O3 0.538191 0.196799 0.916435
O O4 0.330491 0.985757 0.065021
O O5 0.108315 0.676634 0.212088
O O6 0.115526 0.763436 0.811300
O O7 0.897130 0.524628 0.893781
O O8 0.919186 0.718596 0.133242
O O9 0.716608 0.335719 0.553043
O O10 0.574419 0.392276 0.742428
O O11 0.000000 0.500000 0.500000
O O12 0.215485 0.974163 0.641897
O O13 0.198588 0.153795 0.841648
O O14 0.000000 0.000000 0.500000
O O15 0.995385 0.898499 0.875200
O O16 0.735507 0.659506 0.796591
O O17 0.500000 0.500000 0.500000
O O18 0.500000 0.500000 0.000000
#
# Coordination Sequence:
#
# PCOD9018762 Si02
#       8
#     2   2   2   2   2   2   2   2
#     4  11  26  48  73 109 148 190 240 307 365 443
#     4  10  21  44  63 100 139 175 234 290 360 423
#     4  12  26  48  73 108 146 188 247 295 369 436
#     4  11  23  38  71 101 140 183 227 298 358 429
#     4  10  24  45  72 101 140 189 247 306 359 434
#     4  10  23  45  71 105 142 192 243 297 372 431
#     4  10  24  45  67 102 136 186 242 298 360 428
#     4  12  29  48  75 105 146 199 242 301 367 439
#
# _framework density 24.405819000000001
#
# number of rings (size 3 to 8) (size 9 to 14) (size 15 to 20)
#    0.000    1.250    2.500    1.500    7.000    6.000 
#    9.000    0.000    0.000    0.000    0.000    0.000 
#    0.000    0.000    0.000    0.000    0.000    0.000 
#
# Total GULP energy -89297.954649 kJ/mol
# GULP energy per Si atom -5581.122166 kJ/mol
# Density = 2.435027 g / cm^3
# Si number density = 24.405819 Si / 1000 Ang^3
#
#
#
# Elastic Constant Matrix: (Units=GPa)
#
#
# Indices 1 2 3 4 5 6 
#
# 1 71.5986 48.9732 23.5255 4.2236 19.8504 -20.8421
# 2 48.9732 133.1456 38.8314 21.0997 0.9405 -19.5140
# 3 23.5255 38.8314 81.2207 13.7993 -9.1614 -12.5735
# 4 4.2236 21.0997 13.7993 41.0328 6.3824 3.7514
# 5 19.8504 0.9405 -9.1614 6.3824 23.0635 -1.6416
# 6 -20.8421 -19.5140 -12.5735 3.7514 -1.6416 53.8185
#
#
#
# Elastic Compliance Matrix: (Units=1/GPa)
#
#
# Indices 1 2 3 4 5 6 
#
# 1 0.036289 -0.010878 -0.010459 0.010678 -0.037488 0.005778
# 2 -0.010878 0.012853 -0.000386 -0.007139 0.010745 0.001183
# 3 -0.010459 -0.000386 0.019327 -0.008333 0.019106 0.001489
# 4 0.010678 -0.007139 -0.008333 0.033431 -0.021702 -0.003392
# 5 -0.037488 0.010745 0.019106 -0.021702 0.088643 -0.001942
# 6 0.005778 0.001183 0.001489 -0.003392 -0.001942 0.021773
#
#
# Mechanical properties :
#
#
# Convention : Reuss Voigt Hill
#
# Bulk Modulus (GPa) = 39.96176 56.51391 48.23783
# Shear Modulus (GPa) = 18.93201 35.22528 27.07864
#
# Velocity S-wave (km/s) = 2.78819 3.80322 3.33455
# Velocity P-wave (km/s) = 5.17443 6.51860 5.88502
#
# Compressibility (1/GPa) = 0.02502393
#
# Stress axis : x y z
#
# Youngs Moduli (GPa) = 27.55638 77.80171 51.73996
#
# Poissons Ratio (x) = 0.84634 0.54113
# Poissons Ratio (y) = 0.29976 0.01998
# Poissons Ratio (z) = 0.28820 0.03005
#
# Static dielectric constant tensor:
#      x y z
#    x 1.790750 -0.150450 0.209780 
#    y -0.150450 1.978110 0.189800 
#    z 0.209780 0.189800 1.778850 
# 
# From -- ./inp_files/71299.got.cif
#   From: 2010.05.17/outbox.cif.g08.bks.cpg/sg2_36_cif.got.tgz:71299.got - 2010.06.03 11:33:40.
