data_PCOD9018583
_publ_section_title
;
Structure prediction by ZEFSAII (Michael W. Deem and Ramdas Pophale) SiO2 
 PCOD9018583
Probable space group: P -1
;
_chemical_formula_sum "Si O2"
_cell_formula_units_Z 10
_cell_length_a 4.802765
_cell_length_b 7.694324
_cell_length_c 12.541489
_cell_angle_alpha 112.220758
_cell_angle_beta 104.712067
_cell_angle_gamma 104.986665
_cell_volume 381.036034
_symmetry_space_group_name_H-M "P -1"
_symmetry_group_IT_number 2
_symmetry_cell_setting 'triclinic'
loop_
_space_group_symop_operation_xyz
x,y,z
-x,-y,-z
loop_
_atom_site_type_symbol
_atom_site_label
_atom_site_fract_x
_atom_site_fract_y
_atom_site_fract_z
Si Si1 0.776727 0.339441 0.179165
Si Si2 0.677740 0.712716 0.183624
Si Si3 0.197188 0.295711 0.400782
Si Si4 0.609306 0.056448 0.403306
Si Si5 0.839239 0.717335 0.970455
O O1 0.855896 0.580725 0.222911
O O2 0.401510 0.241352 0.124078
O O3 0.977684 0.315641 0.290065
O O4 0.856603 0.245099 0.058240
O O5 0.338397 0.529276 0.086682
O O6 0.630332 0.872551 0.294291
O O7 0.831951 0.802613 0.106236
O O8 0.500000 0.500000 0.500000
O O9 0.352550 0.135699 0.353678
O O10 0.962435 0.227251 0.463214
O O11 0.500000 0.000000 0.500000
#
# Coordination Sequence:
#
# PCOD9018583 Si02
#       5
#     2   2   2   2   2
#     4  10  21  43  72 103 138 194 233 290 360 435
#     4   9  23  42  75 106 143 184 246 287 353 436
#     4  12  29  50  70 102 151 198 240 297 374 426
#     4  12  29  48  73 108 143 191 251 308 348 427
#     4   9  20  39  78 102 144 184 237 282 369 431
#
# _framework density 26.244236000000001
#
# number of rings (size 3 to 8) (size 9 to 14) (size 15 to 20)
#    1.200    0.400    0.000    3.000    5.600    1.600 
#    0.000    6.000    0.000    0.000    0.000    0.000 
#    0.000    0.000    0.000    0.000    0.000    0.000 
#
# Total GULP energy -56007.896808 kJ/mol
# GULP energy per Si atom -5600.789681 kJ/mol
# Density = 2.618450 g / cm^3
# Si number density = 26.244236 Si / 1000 Ang^3
#
#
#
# Elastic Constant Matrix: (Units=GPa)
#
#
# Indices 1 2 3 4 5 6 
#
# 1 172.5710 69.5473 57.2615 -8.2069 -26.8767 -17.0289
# 2 69.5473 111.2484 84.4028 -13.3469 -2.9414 -15.9508
# 3 57.2615 84.4028 164.8995 -2.4282 -35.2809 -17.7863
# 4 -8.2069 -13.3469 -2.4282 31.6252 7.3464 0.7645
# 5 -26.8767 -2.9414 -35.2809 7.3464 49.9222 -5.9041
# 6 -17.0289 -15.9508 -17.7863 0.7645 -5.9041 63.5680
#
#
#
# Elastic Compliance Matrix: (Units=1/GPa)
#
#
# Indices 1 2 3 4 5 6 
#
# 1 0.009002 -0.006879 0.001910 -0.001926 0.006290 0.001827
# 2 -0.006879 0.023235 -0.012088 0.009996 -0.012427 -0.000669
# 3 0.001910 -0.012088 0.014268 -0.006276 0.011634 0.002627
# 4 -0.001926 0.009996 -0.006276 0.037329 -0.010517 -0.001190
# 5 0.006290 -0.012427 0.011634 -0.010517 0.033048 0.005018
# 6 0.001827 -0.000669 0.002627 -0.001190 0.005018 0.017268
#
#
# Mechanical properties :
#
#
# Convention : Reuss Voigt Hill
#
# Bulk Modulus (GPa) = 80.70709 96.79357 88.75033
# Shear Modulus (GPa) = 29.00331 44.85689 36.93010
#
# Velocity S-wave (km/s) = 3.32796 4.13874 3.75530
# Velocity P-wave (km/s) = 6.75175 7.73310 7.25903
#
# Compressibility (1/GPa) = 0.01239049
#
# Stress axis : x y z
#
# Youngs Moduli (GPa) = 111.09018 43.03895 70.08630
#
# Poissons Ratio (x) = 0.29607 -0.13384
# Poissons Ratio (y) = 0.76419 0.84718
# Poissons Ratio (z) = -0.21214 0.52024
#
# Static dielectric constant tensor:
#      x y z
#    x 2.004580 0.010060 0.042090 
#    y 0.010060 2.171230 0.021480 
#    z 0.042090 0.021480 2.030710 
# 
# From -- ./inp_files/359963.got.cif
#   From: 2010.05.17/outbox.cif.g08.bks.cpg/sg2_180_cif.got.tgz:359963.got - 2010.06.03 11:33:40.
