data_PCOD9018822
_publ_section_title
;
Structure prediction by ZEFSAII (Michael W. Deem and Ramdas Pophale) SiO2 
 PCOD9018822
Probable space group: P -1
;
_chemical_formula_sum "Si O2"
_cell_formula_units_Z 14
_cell_length_a 11.545551
_cell_length_b 8.276701
_cell_length_c 10.187625
_cell_angle_alpha 94.667743
_cell_angle_beta 91.202961
_cell_angle_gamma 42.359687
_cell_volume 652.654132
_symmetry_space_group_name_H-M "P -1"
_symmetry_group_IT_number 2
_symmetry_cell_setting 'triclinic'
loop_
_space_group_symop_operation_xyz
x,y,z
-x,-y,-z
loop_
_atom_site_type_symbol
_atom_site_label
_atom_site_fract_x
_atom_site_fract_y
_atom_site_fract_z
Si Si1 0.684335 0.204737 0.096468
Si Si2 0.048657 0.385169 0.346849
Si Si3 0.956548 0.860319 0.485726
Si Si4 0.669980 0.549762 0.996696
Si Si5 0.723036 0.601496 0.705374
Si Si6 0.156667 0.313069 0.890792
Si Si7 0.415769 0.718016 0.609862
O O1 0.757395 0.296205 0.042131
O O2 0.615525 0.322086 0.248079
O O3 0.790458 0.929287 0.106631
O O4 0.529530 0.297068 0.007367
O O5 0.041317 0.205048 0.368951
O O6 0.235106 0.251156 0.292504
O O7 0.000000 0.500000 0.500000
O O8 0.913501 0.579563 0.248766
O O9 0.108875 0.636106 0.382093
O O10 0.765660 0.034799 0.435335
O O11 0.000000 0.000000 0.500000
O O12 0.706269 0.684497 0.076882
O O13 0.722973 0.531705 0.846626
O O14 0.551195 0.722707 0.637398
O O15 0.000000 0.500000 0.000000
O O16 0.500000 0.500000 0.500000
#
# Coordination Sequence:
#
# PCOD9018822 Si02
#       7
#     2   2   2   2   2   2   2
#     4  10  24  44  68 102 142 176 236 298 336 418
#     4  10  23  42  63  98 135 174 226 282 340 405
#     4  11  23  40  67  96 136 174 226 290 337 412
#     4  10  23  44  70  99 138 185 230 286 356 414
#     4  10  21  44  64  96 141 169 231 286 337 419
#     4  12  24  43  70 101 137 184 232 277 356 420
#     4  11  23  42  68 101 134 186 232 281 358 414
#
# _framework density 21.450872
#
# number of rings (size 3 to 8) (size 9 to 14) (size 15 to 20)
#    0.000    1.429    2.857    2.143    2.000    2.286 
#    2.571    1.429    0.000    0.000    0.000    0.000 
#    0.000    0.000    0.000    0.000    0.000    0.000 
#
# Total GULP energy -78039.759208 kJ/mol
# GULP energy per Si atom -5574.268515 kJ/mol
# Density = 2.140205 g / cm^3
# Si number density = 21.450872 Si / 1000 Ang^3
#
#
#
# Elastic Constant Matrix: (Units=GPa)
#
#
# Indices 1 2 3 4 5 6 
#
# 1 105.4621 34.1451 45.5339 -17.5775 -22.6253 14.9853
# 2 34.1451 71.8361 37.5097 -19.8589 -4.0009 -0.1181
# 3 45.5339 37.5097 103.6338 -17.9792 -6.4025 11.3328
# 4 -17.5775 -19.8589 -17.9792 36.1798 4.2497 -3.7910
# 5 -22.6253 -4.0009 -6.4025 4.2497 37.5662 -12.5521
# 6 14.9853 -0.1181 11.3328 -3.7910 -12.5521 41.2497
#
#
#
# Elastic Compliance Matrix: (Units=1/GPa)
#
#
# Indices 1 2 3 4 5 6 
#
# 1 0.014529 -0.003910 -0.004003 0.001923 0.006783 -0.001949
# 2 -0.003910 0.020228 -0.004740 0.007274 -0.000755 0.003219
# 3 -0.004003 -0.004740 0.013685 0.002178 -0.001712 -0.002640
# 4 0.001923 0.007274 0.002178 0.033930 -0.001023 0.001531
# 5 0.006783 -0.000755 -0.001712 -0.001023 0.033117 0.007987
# 6 -0.001949 0.003219 -0.002640 0.001531 0.007987 0.028256
#
#
# Mechanical properties :
#
#
# Convention : Reuss Voigt Hill
#
# Bulk Modulus (GPa) = 43.22290 57.25661 50.23975
# Shear Modulus (GPa) = 28.28658 33.91536 31.10097
#
# Velocity S-wave (km/s) = 3.63529 3.98058 3.81185
# Velocity P-wave (km/s) = 6.14930 6.91929 6.54563
#
# Compressibility (1/GPa) = 0.02313588
#
# Stress axis : x y z
#
# Youngs Moduli (GPa) = 68.82975 49.43573 73.07447
#
# Poissons Ratio (x) = 0.19328 0.29250
# Poissons Ratio (y) = 0.26910 0.34641
# Poissons Ratio (z) = 0.27551 0.23435
#
# Static dielectric constant tensor:
#      x y z
#    x -1.003640 -2.704630 0.167000 
#    y -2.704630 -0.795490 0.124270 
#    z 0.167000 0.124270 1.758410 
# 
# From -- ./inp_files/243464.got.cif
#   From: 2010.05.17/outbox.cif.g08.bks.cpg/sg2_122_cif.got.tgz:243464.got - 2010.06.03 11:33:40.
