data_PCOD9018576
_publ_section_title
;
Structure prediction by ZEFSAII (Michael W. Deem and Ramdas Pophale) SiO2 
 PCOD9018576
Probable space group: P -1
;
_chemical_formula_sum "Si O2"
_cell_formula_units_Z 16
_cell_length_a 16.708322
_cell_length_b 9.365503
_cell_length_c 5.354254
_cell_angle_alpha 92.203223
_cell_angle_beta 55.092852
_cell_angle_gamma 87.711381
_cell_volume 684.627552
_symmetry_space_group_name_H-M "P -1"
_symmetry_group_IT_number 2
_symmetry_cell_setting 'triclinic'
loop_
_space_group_symop_operation_xyz
x,y,z
-x,-y,-z
loop_
_atom_site_type_symbol
_atom_site_label
_atom_site_fract_x
_atom_site_fract_y
_atom_site_fract_z
Si Si1 0.205505 0.642043 0.623959
Si Si2 0.395350 0.969322 0.806019
Si Si3 0.952643 0.370299 0.448419
Si Si4 0.606994 0.202958 0.682151
Si Si5 0.894095 0.832611 0.084778
Si Si6 0.384492 0.286769 0.956828
Si Si7 0.059525 0.874467 0.146579
Si Si8 0.278049 0.363568 0.657173
O O1 0.149313 0.578345 0.489942
O O2 0.313285 0.687603 0.389675
O O3 0.213543 0.514340 0.800320
O O4 0.137277 0.785087 0.821391
O O5 0.351466 0.887195 0.643478
O O6 0.500000 0.000000 0.500000
O O7 0.349861 0.125130 0.977410
O O8 0.406762 0.884103 0.041435
O O9 0.937548 0.231805 0.633725
O O10 0.000000 0.500000 0.500000
O O11 0.033824 0.307874 0.104778
O O12 0.501180 0.272819 0.792166
O O13 0.788640 0.771723 0.251559
O O14 0.947838 0.887956 0.240637
O O15 0.905072 0.966418 0.888609
O O16 0.351451 0.355614 0.758137
O O17 0.335062 0.359407 0.292496
#
# Coordination Sequence:
#
# PCOD9018576 Si02
#       8
#     2   2   2   2   2   2   2   2
#     4  11  28  42  66 104 136 186 235 279 359 416
#     4  10  21  43  72 101 136 182 236 289 351 399
#     4  11  23  44  73  98 139 183 227 290 354 426
#     4  11  24  44  71 102 145 184 230 296 340 416
#     4  10  24  43  69 101 134 177 232 296 345 418
#     4  11  25  43  69 101 142 185 238 281 350 407
#     4  10  23  45  68  99 137 172 237 288 357 407
#     4  12  27  44  69 103 141 189 235 282 349 421
#
# _framework density 23.370369
#
# number of rings (size 3 to 8) (size 9 to 14) (size 15 to 20)
#    0.000    1.250    0.000    5.625   10.500    3.000 
#    0.000    0.000    0.000    0.000    0.000    0.000 
#    0.000    0.000    0.000    0.000    0.000    0.000 
#
# Total GULP energy -89336.640385 kJ/mol
# GULP energy per Si atom -5583.540024 kJ/mol
# Density = 2.331718 g / cm^3
# Si number density = 23.370369 Si / 1000 Ang^3
#
#
#
# Elastic Constant Matrix: (Units=GPa)
#
#
# Indices 1 2 3 4 5 6 
#
# 1 161.6572 55.5184 57.9457 -9.7775 10.2887 -3.4081
# 2 55.5184 108.6512 23.0302 0.3930 0.5184 -4.3272
# 3 57.9457 23.0302 71.6602 4.3747 18.6964 5.1950
# 4 -9.7775 0.3930 4.3747 28.7692 0.3282 7.7189
# 5 10.2887 0.5184 18.6964 0.3282 36.0783 -12.0074
# 6 -3.4081 -4.3272 5.1950 7.7189 -12.0074 35.4272
#
#
#
# Elastic Compliance Matrix: (Units=1/GPa)
#
#
# Indices 1 2 3 4 5 6 
#
# 1 0.010561 -0.003630 -0.008191 0.004498 0.001700 0.001370
# 2 -0.003630 0.011464 -0.001465 -0.001871 0.002484 0.002515
# 3 -0.008191 -0.001465 0.025460 -0.004231 -0.013589 -0.008384
# 4 0.004498 -0.001871 -0.004231 0.039261 -0.002246 -0.008491
# 5 0.001700 0.002484 -0.013589 -0.002246 0.039722 0.016412
# 6 0.001370 0.002515 -0.008384 -0.008491 0.016412 0.037308
#
#
# Mechanical properties :
#
#
# Convention : Reuss Voigt Hill
#
# Bulk Modulus (GPa) = 47.81555 68.32856 58.07205
# Shear Modulus (GPa) = 25.33949 33.75322 29.54636
#
# Velocity S-wave (km/s) = 3.29638 3.80448 3.55951
# Velocity P-wave (km/s) = 5.91544 6.97134 6.46498
#
# Compressibility (1/GPa) = 0.02091370
#
# Stress axis : x y z
#
# Youngs Moduli (GPa) = 94.68451 87.22633 39.27665
#
# Poissons Ratio (x) = 0.31666 0.32171
# Poissons Ratio (y) = 0.34373 0.05755
# Poissons Ratio (z) = 0.77554 0.12780
#
# Static dielectric constant tensor:
#      x y z
#    x 1.897410 0.015550 0.030120 
#    y 0.015550 1.917520 0.050170 
#    z 0.030120 0.050170 1.946650 
# 
# From -- ./inp_files/106849.got.cif
#   From: 2010.05.17/outbox.cif.g08.bks.cpg/sg2_54_cif.got.tgz:106849.got - 2010.06.03 11:33:40.
