data_PCOD9018717
_publ_section_title
;
Structure prediction by ZEFSAII (Michael W. Deem and Ramdas Pophale) SiO2 
 PCOD9018717
Probable space group: P -1
;
_chemical_formula_sum "Si O2"
_cell_formula_units_Z 16
_cell_length_a 6.660500
_cell_length_b 14.552184
_cell_length_c 7.203277
_cell_angle_alpha 91.423404
_cell_angle_beta 115.651723
_cell_angle_gamma 68.373883
_cell_volume 577.455259
_symmetry_space_group_name_H-M "P -1"
_symmetry_group_IT_number 2
_symmetry_cell_setting 'triclinic'
loop_
_space_group_symop_operation_xyz
x,y,z
-x,-y,-z
loop_
_atom_site_type_symbol
_atom_site_label
_atom_site_fract_x
_atom_site_fract_y
_atom_site_fract_z
Si Si1 0.721813 0.526528 0.863004
Si Si2 0.939540 0.113518 0.540169
Si Si3 0.653358 0.358056 0.981734
Si Si4 0.216662 0.023878 0.004921
Si Si5 0.624506 0.884412 0.598594
Si Si6 0.032550 0.266433 0.453976
Si Si7 0.503476 0.733351 0.632361
Si Si8 0.557348 0.789668 0.085606
O O1 0.593916 0.573705 0.009686
O O2 0.612295 0.611064 0.667631
O O3 0.691436 0.421917 0.833038
O O4 0.000000 0.500000 0.000000
O O5 0.641598 0.136201 0.478549
O O6 0.798032 0.244991 0.474709
O O7 0.000000 0.000000 0.500000
O O8 0.107880 0.089757 0.785734
O O9 0.849870 0.336990 0.225791
O O10 0.630835 0.255828 0.906410
O O11 0.427897 0.911249 0.059694
O O12 0.278934 0.098595 0.163311
O O13 0.000000 0.000000 0.000000
O O14 0.883630 0.858815 0.558790
O O15 0.714363 0.755963 0.590313
O O16 0.500000 0.000000 0.500000
O O17 0.192549 0.266463 0.703833
O O18 0.560235 0.756508 0.871853
#
# Coordination Sequence:
#
# PCOD9018717 Si02
#       8
#     2   2   2   2   2   2   2   2
#     4  10  21  43  76  97 131 185 226 294 360 407
#     4  12  22  38  65  92 141 181 223 274 334 409
#     4  10  22  45  69 100 137 173 234 295 349 412
#     4  12  24  38  59  97 138 183 227 274 333 408
#     4  12  24  38  62  98 137 177 230 275 332 410
#     4  12  23  42  68  99 135 184 227 282 350 411
#     4  11  23  43  64  98 134 177 226 278 342 409
#     4  11  23  41  69  97 137 186 229 274 349 416
#
# _framework density 27.707778000000001
#
# number of rings (size 3 to 8) (size 9 to 14) (size 15 to 20)
#    0.000    0.750    5.000    4.500    0.000    1.000 
#    0.000    5.625    0.000    4.500    0.000    0.000 
#    0.000    0.000    0.000    0.000    0.000    0.000 
#
# Total GULP energy -89295.001681 kJ/mol
# GULP energy per Si atom -5580.937605 kJ/mol
# Density = 2.764471 g / cm^3
# Si number density = 27.707778 Si / 1000 Ang^3
#
#
#
# Elastic Constant Matrix: (Units=GPa)
#
#
# Indices 1 2 3 4 5 6 
#
# 1 231.6107 54.4059 68.6586 -34.5411 29.4964 20.6362
# 2 54.4059 114.1204 68.1047 -53.2454 -5.2639 45.4168
# 3 68.6586 68.1047 214.8801 -5.1230 26.7032 8.1429
# 4 -34.5411 -53.2454 -5.1230 67.0668 -4.6263 -8.2442
# 5 29.4964 -5.2639 26.7032 -4.6263 55.8172 -24.9953
# 6 20.6362 45.4168 8.1429 -8.2442 -24.9953 81.9682
#
#
#
# Elastic Compliance Matrix: (Units=1/GPa)
#
#
# Indices 1 2 3 4 5 6 
#
# 1 0.005621 -0.000549 -0.001123 0.001944 -0.003108 -0.001752
# 2 -0.000549 0.028161 -0.008249 0.020255 0.003388 -0.011575
# 3 -0.001123 -0.008249 0.007802 -0.006470 -0.003380 0.002397
# 4 0.001944 0.020255 -0.006470 0.030886 0.003442 -0.006913
# 5 -0.003108 0.003388 -0.003380 0.003442 0.025011 0.007214
# 6 -0.001752 -0.011575 0.002397 -0.006913 0.007214 0.020321
#
#
# Mechanical properties :
#
#
# Convention : Reuss Voigt Hill
#
# Bulk Modulus (GPa) = 45.99513 104.77217 75.38365
# Shear Modulus (GPa) = 34.50839 65.59992 50.05416
#
# Velocity S-wave (km/s) = 3.53291 4.87104 4.25491
# Velocity P-wave (km/s) = 5.76871 8.33855 7.16971
#
# Compressibility (1/GPa) = 0.02174143
#
# Stress axis : x y z
#
# Youngs Moduli (GPa) = 177.89448 35.51007 128.16981
#
# Poissons Ratio (x) = 0.01949 0.14395
# Poissons Ratio (y) = 0.09765 1.05733
# Poissons Ratio (z) = 0.19980 0.29294
#
# Static dielectric constant tensor:
#      x y z
#    x 2.476000 0.098500 -0.042870 
#    y 0.098500 2.244980 -0.134960 
#    z -0.042870 -0.134960 1.819080 
# 
# From -- ./inp_files/202264.got.cif
#   From: 2010.05.17/outbox.cif.g08.bks.cpg/sg2_102_cif.got.tgz:202264.got - 2010.06.03 11:33:40.
