data_PCOD9018993
_publ_section_title
;
Structure prediction by ZEFSAII (Michael W. Deem and Ramdas Pophale) SiO2 
 PCOD9018993
Probable space group: P -1
;
_chemical_formula_sum "Si O2"
_cell_formula_units_Z 16
_cell_length_a 30.458488
_cell_length_b 9.763885
_cell_length_c 4.931196
_cell_angle_alpha 98.259984
_cell_angle_beta 88.049760
_cell_angle_gamma 151.957673
_cell_volume 668.585643
_symmetry_space_group_name_H-M "P -1"
_symmetry_group_IT_number 2
_symmetry_cell_setting 'triclinic'
loop_
_space_group_symop_operation_xyz
x,y,z
-x,-y,-z
loop_
_atom_site_type_symbol
_atom_site_label
_atom_site_fract_x
_atom_site_fract_y
_atom_site_fract_z
Si Si1 0.946569 0.728615 0.581739
Si Si2 0.158339 0.884427 0.054147
Si Si3 0.667635 0.167734 0.052810
Si Si4 0.181593 0.650612 0.001062
Si Si5 0.414560 0.662993 0.323000
Si Si6 0.967100 0.289781 0.646323
Si Si7 0.536567 0.751700 0.470939
Si Si8 0.295356 0.411217 0.772558
O O1 0.905062 0.632534 0.860899
O O2 0.022918 0.819447 0.561480
O O3 0.854565 0.442567 0.328577
O O4 0.000000 0.000000 0.500000
O O5 0.052185 0.525154 0.916084
O O6 0.207986 0.084691 0.834277
O O7 0.210905 0.890632 0.139358
O O8 0.130966 0.938880 0.262568
O O9 0.614254 0.966277 0.276263
O O10 0.713836 0.447928 0.172911
O O11 0.588444 0.964512 0.778793
O O12 0.740026 0.250020 0.969139
O O13 0.451952 0.612431 0.340997
O O14 0.326906 0.452230 0.480354
O O15 0.500000 0.000000 0.500000
O O16 0.381909 0.608214 0.012125
O O17 0.000000 0.500000 0.500000
O O18 0.500000 0.500000 0.500000
#
# Coordination Sequence:
#
# PCOD9018993 Si02
#       8
#     2   2   2   2   2   2   2   2
#     4  11  24  42  66  94 128 178 217 263 333 388
#     4  10  25  41  66 100 128 178 220 274 336 384
#     4  12  25  46  66 101 136 168 221 279 324 396
#     4  11  25  43  63  95 137 167 214 278 322 391
#     4  12  24  47  69  96 137 171 223 277 327 392
#     4  10  21  44  67  91 135 168 225 275 319 398
#     4  12  27  45  71  97 131 180 219 264 339 394
#     4  12  26  42  72 101 131 177 223 278 333 388
#
# _framework density 23.931115999999999
#
# number of rings (size 3 to 8) (size 9 to 14) (size 15 to 20)
#    0.000    0.750    3.750    2.625    7.000    1.000 
#    0.000    0.000    0.000    0.000    0.000    0.000 
#    0.000    0.000    0.000    0.000    0.000    0.000 
#
# Total GULP energy -89532.271725 kJ/mol
# GULP energy per Si atom -5595.766983 kJ/mol
# Density = 2.387665 g / cm^3
# Si number density = 23.931116 Si / 1000 Ang^3
#
#
#
# Elastic Constant Matrix: (Units=GPa)
#
#
# Indices 1 2 3 4 5 6 
#
# 1 201.6399 54.2792 3.1798 -26.2188 -4.6542 -15.2766
# 2 54.2792 111.9855 8.1926 -33.6935 -11.6053 -3.2724
# 3 3.1798 8.1926 71.7514 -24.1943 0.2990 -1.1213
# 4 -26.2188 -33.6935 -24.1943 51.3084 8.3361 7.8424
# 5 -4.6542 -11.6053 0.2990 8.3361 32.2468 -1.0408
# 6 -15.2766 -3.2724 -1.1213 7.8424 -1.0408 33.3454
#
#
#
# Elastic Compliance Matrix: (Units=1/GPa)
#
#
# Indices 1 2 3 4 5 6 
#
# 1 0.005955 -0.002479 0.000520 0.001382 -0.000325 0.002167
# 2 -0.002479 0.012427 0.001121 0.007304 0.002167 -0.001529
# 3 0.000520 0.001121 0.017009 0.009595 -0.002205 -0.001405
# 4 0.001382 0.007304 0.009595 0.031315 -0.005545 -0.005865
# 5 -0.000325 0.002167 -0.002205 -0.005545 0.033273 0.002332
# 6 0.002167 -0.001529 -0.001405 -0.005865 0.002332 0.032237
#
#
# Mechanical properties :
#
#
# Convention : Reuss Voigt Hill
#
# Bulk Modulus (GPa) = 29.66043 57.40889 43.53466
# Shear Modulus (GPa) = 34.45223 44.69512 39.57368
#
# Velocity S-wave (km/s) = 3.79838 4.32633 4.07092
# Velocity P-wave (km/s) = 5.62653 6.99982 6.35041
#
# Compressibility (1/GPa) = 0.03371495
#
# Stress axis : x y z
#
# Youngs Moduli (GPa) = 167.93156 80.47226 58.79326
#
# Poissons Ratio (x) = 0.19948 -0.03059
# Poissons Ratio (y) = 0.41628 -0.06590
# Poissons Ratio (z) = -0.08739 -0.09020
#
# Static dielectric constant tensor:
#      x y z
#    x 1.942850 0.018290 -0.011390 
#    y 0.018290 1.978190 0.114430 
#    z -0.011390 0.114430 1.940990 
# 
# From -- ./inp_files/122925.got.cif
#   From: 2010.05.17/outbox.cif.g08.bks.cpg/sg2_62_cif.got.tgz:122925.got - 2010.06.03 11:33:40.
