data_PCOD9018943
_publ_section_title
;
Structure prediction by ZEFSAII (Michael W. Deem and Ramdas Pophale) SiO2 
 PCOD9018943
Probable space group: P -1
;
_chemical_formula_sum "Si O2"
_cell_formula_units_Z 16
_cell_length_a 21.136210
_cell_length_b 11.664298
_cell_length_c 9.312858
_cell_angle_alpha 51.215299
_cell_angle_beta 30.049724
_cell_angle_gamma 39.301725
_cell_volume 721.380436
_symmetry_space_group_name_H-M "P -1"
_symmetry_group_IT_number 2
_symmetry_cell_setting 'triclinic'
loop_
_space_group_symop_operation_xyz
x,y,z
-x,-y,-z
loop_
_atom_site_type_symbol
_atom_site_label
_atom_site_fract_x
_atom_site_fract_y
_atom_site_fract_z
Si Si1 0.769770 0.352366 0.416670
Si Si2 0.927956 0.663979 0.125316
Si Si3 0.465434 0.616778 0.618237
Si Si4 0.262545 0.957412 0.335986
Si Si5 0.514486 0.818979 0.158770
Si Si6 0.844084 0.913361 0.850207
Si Si7 0.846890 0.672251 0.593356
Si Si8 0.195914 0.721644 0.272017
O O1 0.618787 0.509195 0.502332
O O2 0.811120 0.153555 0.452192
O O3 0.734717 0.385699 0.630113
O O4 0.926738 0.338501 0.100154
O O5 0.848696 0.659563 0.427461
O O6 0.817290 0.833302 0.104305
O O7 0.000000 0.500000 0.000000
O O8 0.500000 0.500000 0.500000
O O9 0.434499 0.802026 0.469013
O O10 0.319469 0.641663 0.964791
O O11 0.429651 0.807216 0.197272
O O12 0.267838 0.025673 0.114231
O O13 0.177911 0.139153 0.458168
O O14 0.698972 0.678185 0.930192
O O15 0.500000 0.000000 0.000000
O O16 0.024144 0.768039 0.553384
O O17 0.834497 0.085826 0.787856
O O18 0.000000 0.500000 0.500000
#
# Coordination Sequence:
#
# PCOD9018943 Si02
#       8
#     2   2   2   2   2   2   2   2
#     4  10  22  43  66 100 137 169 224 293 338 403
#     4  11  24  41  64  95 133 177 229 273 337 408
#     4  12  23  38  68  99 135 176 229 277 342 408
#     4  10  21  44  66  96 135 170 222 283 344 394
#     4  10  24  43  62  94 140 174 219 275 334 407
#     4   9  20  40  64  91 127 171 220 278 335 400
#     4  11  24  43  70  94 136 186 224 277 337 405
#     4   9  21  39  63  95 134 167 216 283 340 397
#
# _framework density 22.179697999999998
#
# number of rings (size 3 to 8) (size 9 to 14) (size 15 to 20)
#    0.000    1.750    1.250    2.625    3.500    5.500 
#    4.500    0.625    0.000    0.000    0.000    0.000 
#    0.000    0.000    0.000    0.000    0.000    0.000 
#
# Total GULP energy -89269.819305 kJ/mol
# GULP energy per Si atom -5579.363707 kJ/mol
# Density = 2.212922 g / cm^3
# Si number density = 22.179698 Si / 1000 Ang^3
#
#
#
# Elastic Constant Matrix: (Units=GPa)
#
#
# Indices 1 2 3 4 5 6 
#
# 1 84.3608 24.0328 13.3632 8.9661 6.2988 -19.6306
# 2 24.0328 65.8688 8.0116 -2.1722 5.7817 -13.6697
# 3 13.3632 8.0116 79.5687 7.4129 17.8536 -1.7657
# 4 8.9661 -2.1722 7.4129 31.3969 -2.9713 4.4849
# 5 6.2988 5.7817 17.8536 -2.9713 41.0528 -6.0105
# 6 -19.6306 -13.6697 -1.7657 4.4849 -6.0105 53.9118
#
#
#
# Elastic Compliance Matrix: (Units=1/GPa)
#
#
# Indices 1 2 3 4 5 6 
#
# 1 0.014997 -0.004448 -0.001325 -0.005012 -0.000785 0.004619
# 2 -0.004448 0.017598 -0.000996 0.002284 -0.000828 0.002528
# 3 -0.001325 -0.000996 0.014651 -0.003659 -0.006390 -0.000663
# 4 -0.005012 0.002284 -0.003659 0.035234 0.004026 -0.003848
# 5 -0.000785 -0.000828 -0.006390 0.004026 0.027970 0.002079
# 6 0.004619 0.002528 -0.000663 -0.003848 0.002079 0.021402
#
#
# Mechanical properties :
#
#
# Convention : Reuss Voigt Hill
#
# Bulk Modulus (GPa) = 29.66758 35.62370 32.64564
# Shear Modulus (GPa) = 31.92297 37.56502 34.74399
#
# Velocity S-wave (km/s) = 3.79791 4.11988 3.96217
# Velocity P-wave (km/s) = 5.71290 6.22314 5.97347
#
# Compressibility (1/GPa) = 0.03370683
#
# Stress axis : x y z
#
# Youngs Moduli (GPa) = 66.67943 56.82350 68.25678
#
# Poissons Ratio (x) = 0.25278 0.09046
# Poissons Ratio (y) = 0.29662 0.06797
# Poissons Ratio (z) = 0.08837 0.05659
#
# Static dielectric constant tensor:
#      x y z
#    x 1.814000 0.013710 -0.012880 
#    y 0.013710 1.921030 -0.026100 
#    z -0.012880 -0.026100 1.839430 
# 
# From -- ./inp_files/345918.got.cif
#   From: 2010.05.17/outbox.cif.g08.bks.cpg/sg2_173_cif.got.tgz:345918.got - 2010.06.03 11:33:40.
