data_PCOD9018505
_publ_section_title
;
Structure prediction by ZEFSAII (Michael W. Deem and Ramdas Pophale) SiO2 
 PCOD9018505
Probable space group: P -1
;
_chemical_formula_sum "Si O2"
_cell_formula_units_Z 16
_cell_length_a 11.202347
_cell_length_b 11.259675
_cell_length_c 11.364885
_cell_angle_alpha 150.029791
_cell_angle_beta 114.739070
_cell_angle_gamma 70.753205
_cell_volume 648.674567
_symmetry_space_group_name_H-M "P -1"
_symmetry_group_IT_number 2
_symmetry_cell_setting 'triclinic'
loop_
_space_group_symop_operation_xyz
x,y,z
-x,-y,-z
loop_
_atom_site_type_symbol
_atom_site_label
_atom_site_fract_x
_atom_site_fract_y
_atom_site_fract_z
Si Si1 0.306177 0.953948 0.013008
Si Si2 0.917470 0.134532 0.985194
Si Si3 0.176634 0.376840 0.236203
Si Si4 0.097553 0.679457 0.268967
Si Si5 0.481868 0.156827 0.455312
Si Si6 0.394911 0.273473 0.769693
Si Si7 0.875897 0.887440 0.507549
Si Si8 0.421843 0.522201 0.607343
O O1 0.414842 0.800884 0.874818
O O2 0.213060 0.812609 0.950872
O O3 0.224141 0.107284 0.021130
O O4 0.384974 0.150069 0.296929
O O5 0.888457 0.963486 0.714194
O O6 0.019519 0.350468 0.173327
O O7 0.000000 0.000000 0.000000
O O8 0.193314 0.527384 0.254140
O O9 0.262117 0.493594 0.478025
O O10 0.011854 0.818824 0.447670
O O11 0.160722 0.873572 0.371447
O O12 0.000000 0.500000 0.000000
O O13 0.405571 0.147227 0.537912
O O14 0.515057 0.433221 0.678541
O O15 0.565403 0.929614 0.297493
O O16 0.240547 0.313514 0.744774
O O17 0.500000 0.500000 0.000000
O O18 0.500000 0.500000 0.500000
#
# Coordination Sequence:
#
# PCOD9018505 Si02
#       8
#     2   2   2   2   2   2   2   2
#     4  10  22  45  70  98 145 178 235 302 357 427
#     4  10  21  43  71 106 140 181 231 303 360 421
#     4  10  24  41  69 105 138 183 243 280 360 435
#     4  11  25  45  67 106 145 190 238 288 365 438
#     4  10  23  44  67 104 133 178 238 287 356 424
#     4  11  24  44  71 102 139 187 237 296 357 417
#     4  11  25  45  72 103 148 187 240 301 356 439
#     4  11  26  45  68 101 143 189 235 294 357 433
#
# _framework density 24.665680999999999
#
# number of rings (size 3 to 8) (size 9 to 14) (size 15 to 20)
#    0.000    1.500    2.500    0.750    5.250    6.500 
#    2.250    0.000    0.000    0.000    0.000    0.000 
#    0.000    0.000    0.000    0.000    0.000    0.000 
#
# Total GULP energy -89151.370562 kJ/mol
# GULP energy per Si atom -5571.960660 kJ/mol
# Density = 2.460954 g / cm^3
# Si number density = 24.665681 Si / 1000 Ang^3
#
#
#
# Elastic Constant Matrix: (Units=GPa)
#
#
# Indices 1 2 3 4 5 6 
#
# 1 80.6935 13.9278 8.2952 -6.2984 2.6513 -2.0707
# 2 13.9278 179.8810 20.6708 5.8757 -6.7724 13.2684
# 3 8.2952 20.6708 38.6071 -16.5248 1.7535 -1.0879
# 4 -6.2984 5.8757 -16.5248 34.4441 0.0669 2.4639
# 5 2.6513 -6.7724 1.7535 0.0669 48.9090 -5.7041
# 6 -2.0707 13.2684 -1.0879 2.4639 -5.7041 22.0606
#
#
#
# Elastic Compliance Matrix: (Units=1/GPa)
#
#
# Indices 1 2 3 4 5 6 
#
# 1 0.012907 -0.001023 -0.001403 0.001763 -0.000630 0.001397
# 2 -0.001023 0.006619 -0.004922 -0.003411 0.000715 -0.003754
# 3 -0.001403 -0.004922 0.036697 0.018036 -0.001691 0.002187
# 4 0.001763 -0.003411 0.018036 0.038706 -0.001453 -0.001593
# 5 -0.000630 0.000715 -0.001691 -0.001453 0.021234 0.005080
# 6 0.001397 -0.003754 0.002187 -0.001593 0.005080 0.049318
#
#
# Mechanical properties :
#
#
# Convention : Reuss Voigt Hill
#
# Bulk Modulus (GPa) = 24.08063 42.77437 33.42750
# Shear Modulus (GPa) = 25.77034 38.16859 31.96946
#
# Velocity S-wave (km/s) = 3.23582 3.93802 3.60406
# Velocity P-wave (km/s) = 4.87285 6.16900 5.55884
#
# Compressibility (1/GPa) = 0.04152715
#
# Stress axis : x y z
#
# Youngs Moduli (GPa) = 77.47441 151.07331 27.25009
#
# Poissons Ratio (x) = 0.15448 0.03824
# Poissons Ratio (y) = 0.07922 0.13414
# Poissons Ratio (z) = 0.10873 0.74365
#
# Static dielectric constant tensor:
#      x y z
#    x 2.063000 0.085590 0.186840 
#    y 0.085590 2.209730 0.382750 
#    z 0.186840 0.382750 2.610400 
# 
# From -- ./inp_files/429277.got.cif
#   From: 2010.05.17/outbox.cif.g08.bks.cpg/sg2_215_cif.got.tgz:429277.got - 2010.06.03 11:33:40.
