data_PCOD9018920
_publ_section_title
;
Structure prediction by ZEFSAII (Michael W. Deem and Ramdas Pophale) SiO2 
 PCOD9018920
Probable space group: P -1
;
_chemical_formula_sum "Si O2"
_cell_formula_units_Z 14
_cell_length_a 9.863580
_cell_length_b 9.474357
_cell_length_c 18.627386
_cell_angle_alpha 61.104130
_cell_angle_beta 150.565795
_cell_angle_gamma 133.464359
_cell_volume 587.197149
_symmetry_space_group_name_H-M "P -1"
_symmetry_group_IT_number 2
_symmetry_cell_setting 'triclinic'
loop_
_space_group_symop_operation_xyz
x,y,z
-x,-y,-z
loop_
_atom_site_type_symbol
_atom_site_label
_atom_site_fract_x
_atom_site_fract_y
_atom_site_fract_z
Si Si1 0.735646 0.841607 0.543814
Si Si2 0.387663 0.309426 0.753154
Si Si3 0.549313 0.834547 0.046860
Si Si4 0.751234 0.394891 0.328375
Si Si5 0.537933 0.538792 0.396667
Si Si6 0.737392 0.022613 0.717117
Si Si7 0.389585 0.291839 0.034803
O O1 0.632042 0.715030 0.452709
O O2 0.706239 0.685694 0.625395
O O3 0.448049 0.879170 0.414739
O O4 0.105933 0.069866 0.659114
O O5 0.597772 0.321292 0.916272
O O6 0.590592 0.433636 0.744215
O O7 0.204601 0.407580 0.672400
O O8 0.961120 0.926883 0.210694
O O9 0.439151 0.766382 0.930345
O O10 0.500000 0.000000 0.000000
O O11 0.527243 0.322688 0.169730
O O12 0.101084 0.425185 0.463015
O O13 0.534871 0.215382 0.331477
O O14 0.970254 0.130734 0.870525
O O15 0.500000 0.500000 0.000000
#
# Coordination Sequence:
#
# PCOD9018920 Si02
#       7
#     2   2   2   2   2   2   2
#     4  11  25  46  69 105 137 181 224 277 346 399
#     4  12  25  44  71  99 146 172 228 286 333 409
#     4  10  25  44  69  97 131 183 219 287 333 393
#     4  12  23  43  70 103 133 186 225 275 344 403
#     4  11  26  43  71 104 137 182 224 276 341 410
#     4  10  24  42  70  97 137 179 227 278 337 403
#     4  10  21  44  66  92 135 179 227 270 337 397
#
# _framework density 23.842075999999999
#
# number of rings (size 3 to 8) (size 9 to 14) (size 15 to 20)
#    0.857    0.286    2.857    3.000    4.000    1.143 
#    0.000    0.714    0.000    0.000    0.000    0.000 
#    0.000    0.000    0.000    0.000    0.000    0.000 
#
# Total GULP energy -78295.027596 kJ/mol
# GULP energy per Si atom -5592.501971 kJ/mol
# Density = 2.378781 g / cm^3
# Si number density = 23.842076 Si / 1000 Ang^3
#
#
#
# Elastic Constant Matrix: (Units=GPa)
#
#
# Indices 1 2 3 4 5 6 
#
# 1 109.1719 56.1461 23.1706 -17.6886 -21.8237 -1.4746
# 2 56.1461 154.1514 30.9649 -14.9946 4.3871 -8.7860
# 3 23.1706 30.9649 86.1886 1.6623 -3.8496 10.1005
# 4 -17.6886 -14.9946 1.6623 29.5105 -4.4436 -5.6131
# 5 -21.8237 4.3871 -3.8496 -4.4436 41.2873 -8.1778
# 6 -1.4746 -8.7860 10.1005 -5.6131 -8.1778 47.7746
#
#
#
# Elastic Compliance Matrix: (Units=1/GPa)
#
#
# Indices 1 2 3 4 5 6 
#
# 1 0.015510 -0.004303 -0.002717 0.009357 0.010018 0.003076
# 2 -0.004303 0.008916 -0.002420 0.001987 -0.002885 0.001758
# 3 -0.002717 -0.002420 0.013727 -0.004611 -0.001224 -0.004182
# 4 0.009357 0.001987 -0.004611 0.044028 0.010755 0.008643
# 5 0.010018 -0.002885 -0.001224 0.010755 0.032216 0.006816
# 6 0.003076 0.001758 -0.004182 0.008643 0.006816 0.024416
#
#
# Mechanical properties :
#
#
# Convention : Reuss Voigt Hill
#
# Bulk Modulus (GPa) = 51.88629 63.34168 57.61399
# Shear Modulus (GPa) = 30.46609 39.66314 35.06462
#
# Velocity S-wave (km/s) = 3.57855 4.08312 3.83914
# Velocity P-wave (km/s) = 6.23574 6.98957 6.62339
#
# Compressibility (1/GPa) = 0.01927291
#
# Stress axis : x y z
#
# Youngs Moduli (GPa) = 64.47515 112.15713 72.85095
#
# Poissons Ratio (x) = 0.48260 0.19795
# Poissons Ratio (y) = 0.27743 0.17628
# Poissons Ratio (z) = 0.17519 0.27139
#
# Static dielectric constant tensor:
#      x y z
#    x 1.840150 0.021980 0.005300 
#    y 0.021980 1.892640 0.032590 
#    z 0.005300 0.032590 1.897550 
# 
# From -- ./inp_files/609554.got.cif
#   From: 2010.05.17/outbox.cif.g08.bks.cpg/sg2_305_cif.got.tgz:609554.got - 2010.06.03 11:33:40.
