data_PCOD9018338
_publ_section_title
;
Structure prediction by ZEFSAII (Michael W. Deem and Ramdas Pophale) SiO2 
 PCOD9018338
Probable space group: P -1
;
_chemical_formula_sum "Si O2"
_cell_formula_units_Z 16
_cell_length_a 8.700087
_cell_length_b 5.223975
_cell_length_c 21.596655
_cell_angle_alpha 115.226777
_cell_angle_beta 53.826621
_cell_angle_gamma 115.686098
_cell_volume 694.183121
_symmetry_space_group_name_H-M "P -1"
_symmetry_group_IT_number 2
_symmetry_cell_setting 'triclinic'
loop_
_space_group_symop_operation_xyz
x,y,z
-x,-y,-z
loop_
_atom_site_type_symbol
_atom_site_label
_atom_site_fract_x
_atom_site_fract_y
_atom_site_fract_z
Si Si1 0.267749 0.336863 0.028139
Si Si2 0.075474 0.225008 0.932813
Si Si3 0.088496 0.695703 0.335928
Si Si4 0.037362 0.629680 0.204669
Si Si5 0.202694 0.996639 0.762368
Si Si6 0.320638 0.257067 0.543640
Si Si7 0.155481 0.379421 0.409066
Si Si8 0.483866 0.855908 0.396047
O O1 0.160827 0.565910 0.109819
O O2 0.500000 0.500000 0.000000
O O3 0.221281 0.228522 0.957021
O O4 0.124785 0.033641 0.059071
O O5 0.203799 0.222406 0.841375
O O6 0.000000 0.500000 0.000000
O O7 0.151604 0.672476 0.247536
O O8 0.160887 0.511478 0.352036
O O9 0.851961 0.592201 0.385715
O O10 0.116483 0.034392 0.380970
O O11 0.949023 0.905439 0.239051
O O12 0.869554 0.328658 0.226193
O O13 0.406303 0.051741 0.683927
O O14 0.500000 0.500000 0.500000
O O15 0.361034 0.094738 0.579679
O O16 0.311204 0.014754 0.468132
O O17 0.376010 0.517818 0.393327
O O18 0.000000 0.500000 0.500000
#
# Coordination Sequence:
#
# PCOD9018338 Si02
#       8
#     2   2   2   2   2   2   2   2
#     4  10  23  43  71 103 138 182 229 280 347 418
#     4  10  21  43  69  99 139 179 225 283 344 412
#     4  12  25  43  66  90 134 172 216 266 339 392
#     4  11  23  44  68  99 135 174 219 279 336 394
#     4  11  23  42  69  98 134 175 222 279 335 395
#     4  11  23  39  67  91 120 171 228 266 317 402
#     4  12  26  44  62  93 135 173 213 280 336 388
#     4  11  25  40  63  96 125 172 224 271 329 395
#
# _framework density 23.048673999999998
#
# number of rings (size 3 to 8) (size 9 to 14) (size 15 to 20)
#    0.000    1.000    3.750    2.625    3.500    1.500 
#    2.250    0.000    0.000    0.000    0.000    0.000 
#    0.000    0.000    0.000    0.000    0.000    0.000 
#
# Total GULP energy -89164.182565 kJ/mol
# GULP energy per Si atom -5572.761410 kJ/mol
# Density = 2.299621 g / cm^3
# Si number density = 23.048674 Si / 1000 Ang^3
#
#
#
# Elastic Constant Matrix: (Units=GPa)
#
#
# Indices 1 2 3 4 5 6 
#
# 1 56.1840 15.6517 22.4807 -11.1625 11.9043 -4.1297
# 2 15.6517 89.7211 9.4151 -6.5104 -2.4299 13.9344
# 3 22.4807 9.4151 133.2529 -9.9389 17.9742 11.2389
# 4 -11.1625 -6.5104 -9.9389 31.8544 -0.6363 -0.4610
# 5 11.9043 -2.4299 17.9742 -0.6363 38.9709 -10.8111
# 6 -4.1297 13.9344 11.2389 -0.4610 -10.8111 36.5207
#
#
#
# Elastic Compliance Matrix: (Units=1/GPa)
#
#
# Indices 1 2 3 4 5 6 
#
# 1 0.022456 -0.003858 -0.002705 0.006192 -0.004778 0.003508
# 2 -0.003858 0.012706 0.000226 0.001249 0.000443 -0.005207
# 3 -0.002705 0.000226 0.009074 0.001773 -0.004568 -0.004514
# 4 0.006192 0.001249 0.001773 0.034319 -0.002222 -0.000547
# 5 -0.004778 0.000443 -0.004568 -0.002222 0.032034 0.010152
# 6 0.003508 -0.005207 -0.004514 -0.000547 0.010152 0.034153
#
#
# Mechanical properties :
#
#
# Convention : Reuss Voigt Hill
#
# Bulk Modulus (GPa) = 31.68487 41.58366 36.63426
# Shear Modulus (GPa) = 29.77272 36.90992 33.34132
#
# Velocity S-wave (km/s) = 3.59797 4.00608 3.80749
# Velocity P-wave (km/s) = 5.57111 6.28324 5.93786
#
# Compressibility (1/GPa) = 0.03156080
#
# Stress axis : x y z
#
# Youngs Moduli (GPa) = 44.53059 78.70071 110.20285
#
# Poissons Ratio (x) = 0.30366 0.29814
# Poissons Ratio (y) = 0.17182 -0.02488
# Poissons Ratio (z) = 0.12047 -0.01777
#
# Static dielectric constant tensor:
#      x y z
#    x 2.017420 -0.012370 0.055330 
#    y -0.012370 1.987050 0.013140 
#    z 0.055330 0.013140 1.885970 
# 
# From -- ./inp_files/107584.got.cif
#   From: 2010.05.17/outbox.cif.g08.bks.cpg/sg2_54_cif.got.tgz:107584.got - 2010.06.03 11:33:40.
