data_PCOD9018706
_publ_section_title
;
Structure prediction by ZEFSAII (Michael W. Deem and Ramdas Pophale) SiO2 
 PCOD9018706
Probable space group: P -1
;
_chemical_formula_sum "Si O2"
_cell_formula_units_Z 15
_cell_length_a 9.165952
_cell_length_b 8.616375
_cell_length_c 12.058100
_cell_angle_alpha 65.257755
_cell_angle_beta 50.801340
_cell_angle_gamma 82.263150
_cell_volume 658.742838
_symmetry_space_group_name_H-M "P -1"
_symmetry_group_IT_number 2
_symmetry_cell_setting 'triclinic'
loop_
_space_group_symop_operation_xyz
x,y,z
-x,-y,-z
loop_
_atom_site_type_symbol
_atom_site_label
_atom_site_fract_x
_atom_site_fract_y
_atom_site_fract_z
Si Si1 0.301792 0.374733 0.450784
Si Si2 0.514789 0.743421 0.262484
Si Si3 0.303933 0.430158 0.180560
Si Si4 0.104970 0.766456 0.206737
Si Si5 0.430465 0.846348 0.495069
Si Si6 0.500000 0.000000 0.000000
Si Si7 0.003121 0.698363 0.801106
Si Si8 0.061016 0.301825 0.920233
O O1 0.340050 0.580305 0.397500
O O2 0.337582 0.354855 0.308084
O O3 0.458333 0.301476 0.469870
O O4 0.090077 0.280356 0.615181
O O5 0.487970 0.879793 0.329938
O O6 0.712288 0.678885 0.209108
O O7 0.527609 0.834219 0.111871
O O8 0.196183 0.591199 0.207793
O O9 0.169487 0.298148 0.202349
O O10 0.500000 0.500000 0.000000
O O11 0.046913 0.806330 0.096765
O O12 0.267519 0.917098 0.127867
O O13 0.204021 0.788484 0.628024
O O14 0.500000 0.000000 0.500000
O O15 0.008219 0.493292 0.877037
O O16 0.987781 0.767726 0.912111
#
# Coordination Sequence:
#
# PCOD9018706 Si02
#       8
#     2   2   2   2   2   1   2   2
#     4  12  24  49  80 104 138 201 249 294 360 450
#     4  12  24  49  75 106 142 196 248 292 365 442
#     4  11  24  42  72 108 145 187 240 299 362 434
#     4  11  25  45  71 106 141 192 243 301 355 437
#     4  12  28  46  72 109 145 183 242 315 365 425
#     4  12  30  40  72 108 150 178 240 310 356 418
#     4  10  23  41  70 109 140 182 239 302 355 429
#     4  10  21  43  75  99 139 189 245 288 356 441
#
# _framework density 22.770645999999999
#
# number of rings (size 3 to 8) (size 9 to 14) (size 15 to 20)
#    0.000    0.800    4.000    3.200    7.467    1.600 
#    0.000    0.667    0.000    0.000    0.000    0.000 
#    0.000    0.000    0.000    0.000    0.000    0.000 
#
# Total GULP energy -83680.284294 kJ/mol
# GULP energy per Si atom -5578.685620 kJ/mol
# Density = 2.271882 g / cm^3
# Si number density = 22.770646 Si / 1000 Ang^3
#
#
#
# Elastic Constant Matrix: (Units=GPa)
#
#
# Indices 1 2 3 4 5 6 
#
# 1 99.3421 -15.6279 15.4425 4.6671 -23.0623 2.4397
# 2 -15.6279 27.5457 -1.8817 -0.8178 1.4471 3.9546
# 3 15.4425 -1.8817 73.8256 18.3965 -34.1595 -0.7664
# 4 4.6671 -0.8178 18.3965 36.2365 6.0420 1.0750
# 5 -23.0623 1.4471 -34.1595 6.0420 41.2652 -3.7816
# 6 2.4397 3.9546 -0.7664 1.0750 -3.7816 13.7898
#
#
#
# Elastic Compliance Matrix: (Units=1/GPa)
#
#
# Indices 1 2 3 4 5 6 
#
# 1 0.013484 0.007274 0.003900 -0.005403 0.011232 -0.000754
# 2 0.007274 0.042235 0.000018 0.000164 0.001381 -0.013032
# 3 0.003900 0.000018 0.036690 -0.025800 0.037581 0.013661
# 4 -0.005403 0.000164 -0.025800 0.047201 -0.032496 -0.013116
# 5 0.011232 0.001381 0.037581 -0.032496 0.068250 0.020955
# 6 -0.000754 -0.013032 0.013661 -0.013116 0.020955 0.083917
#
#
# Mechanical properties :
#
#
# Convention : Reuss Voigt Hill
#
# Bulk Modulus (GPa) = 8.71131 21.84214 15.27672
# Shear Modulus (GPa) = 16.25190 31.77699 24.01445
#
# Velocity S-wave (km/s) = 2.67446 3.73972 3.25102
# Velocity P-wave (km/s) = 3.65663 5.31606 4.56242
#
# Compressibility (1/GPa) = 0.11479335
#
# Stress axis : x y z
#
# Youngs Moduli (GPa) = 74.16171 23.67708 27.25568
#
# Poissons Ratio (x) = -0.17223 -0.10631
# Poissons Ratio (y) = -0.53948 -0.00048
# Poissons Ratio (z) = -0.28926 -0.00042
#
# Static dielectric constant tensor:
#      x y z
#    x 1.833890 0.009490 0.030490 
#    y 0.009490 1.906070 0.033420 
#    z 0.030490 0.033420 1.806590 
# 
# From -- ./inp_files/174589.got.cif
#   From: 2010.05.17/outbox.cif.g08.bks.cpg/sg2_88_cif.got.tgz:174589.got - 2010.06.03 11:33:40.
