data_PCOD9018579
_publ_section_title
;
Structure prediction by ZEFSAII (Michael W. Deem and Ramdas Pophale) SiO2 
 PCOD9018579
Probable space group: P -1
;
_chemical_formula_sum "Si O2"
_cell_formula_units_Z 13
_cell_length_a 8.602156
_cell_length_b 12.280805
_cell_length_c 8.988957
_cell_angle_alpha 56.028314
_cell_angle_beta 52.655691
_cell_angle_gamma 87.577494
_cell_volume 559.108715
_symmetry_space_group_name_H-M "P -1"
_symmetry_group_IT_number 2
_symmetry_cell_setting 'triclinic'
loop_
_space_group_symop_operation_xyz
x,y,z
-x,-y,-z
loop_
_atom_site_type_symbol
_atom_site_label
_atom_site_fract_x
_atom_site_fract_y
_atom_site_fract_z
Si Si1 0.503532 0.341024 0.981404
Si Si2 0.335013 0.404757 0.544032
Si Si3 0.500000 0.000000 0.500000
Si Si4 0.985381 0.762096 0.552854
Si Si5 0.587697 0.974046 0.810700
Si Si6 0.822145 0.879737 0.297828
Si Si7 0.043868 0.534241 0.272579
O O1 0.595727 0.488986 0.719793
O O2 0.695004 0.371628 0.968260
O O3 0.264554 0.306930 0.198003
O O4 0.467525 0.196843 0.022166
O O5 0.500000 0.500000 0.500000
O O6 0.336428 0.254806 0.611470
O O7 0.094009 0.379909 0.755688
O O8 0.488865 0.994513 0.696091
O O9 0.311056 0.061723 0.563446
O O10 0.960957 0.814522 0.362396
O O11 0.045036 0.626181 0.626304
O O12 0.158148 0.903798 0.430632
O O13 0.500000 0.000000 0.000000
O O14 0.000000 0.000000 0.000000
O O15 0.000000 0.500000 0.500000
#
# Coordination Sequence:
#
# PCOD9018579 Si02
#       7
#     2   2   1   2   2   2   2
#     4  11  24  46  72 106 148 200 258 321 387 466
#     4  11  27  46  72 111 150 201 262 320 392 465
#     4  12  30  48  74 118 160 198 266 318 398 460
#     4  12  24  46  74 109 143 204 260 315 392 469
#     4  12  27  47  79 109 157 208 262 320 390 468
#     4  12  28  47  75 110 159 204 262 330 391 471
#     4  10  21  43  72 101 141 195 252 309 389 457
#
# _framework density 23.251290999999998
#
# number of rings (size 3 to 8) (size 9 to 14) (size 15 to 20)
#    0.000    0.615    4.615    3.692    8.615    0.000 
#    0.000    0.769    0.000    0.000    0.000    0.000 
#    0.000    0.000    0.000    0.000    0.000    0.000 
#
# Total GULP energy -72427.658312 kJ/mol
# GULP energy per Si atom -5571.358332 kJ/mol
# Density = 2.319837 g / cm^3
# Si number density = 23.251291 Si / 1000 Ang^3
#
#
#
# Elastic Constant Matrix: (Units=GPa)
#
#
# Indices 1 2 3 4 5 6 
#
# 1 59.2041 15.6819 19.9022 11.3965 -14.1099 9.9616
# 2 15.6819 153.9038 36.0725 -13.3972 -2.0785 -6.2404
# 3 19.9022 36.0725 109.6999 -7.9887 -12.1603 0.5489
# 4 11.3965 -13.3972 -7.9887 36.3828 10.7589 -7.6888
# 5 -14.1099 -2.0785 -12.1603 10.7589 32.0819 3.1597
# 6 9.9616 -6.2404 0.5489 -7.6888 3.1597 35.7903
#
#
#
# Elastic Compliance Matrix: (Units=1/GPa)
#
#
# Indices 1 2 3 4 5 6 
#
# 1 0.031108 -0.004656 -0.003290 -0.021762 0.021002 -0.015949
# 2 -0.004656 0.008097 -0.001911 0.006413 -0.004846 0.004543
# 3 -0.003290 -0.001911 0.010688 0.002363 0.001611 0.000784
# 4 -0.021762 0.006413 0.002363 0.049354 -0.026792 0.020107
# 5 0.021002 -0.004846 0.001611 -0.026792 0.051363 -0.017005
# 6 -0.015949 0.004543 0.000784 0.020107 -0.017005 0.038980
#
#
# Mechanical properties :
#
#
# Convention : Reuss Voigt Hill
#
# Bulk Modulus (GPa) = 33.13498 51.79124 42.46311
# Shear Modulus (GPa) = 22.79336 37.59441 30.19389
#
# Velocity S-wave (km/s) = 3.13438 4.02540 3.60750
# Velocity P-wave (km/s) = 5.23267 6.62782 5.97113
#
# Compressibility (1/GPa) = 0.03017959
#
# Stress axis : x y z
#
# Youngs Moduli (GPa) = 32.14650 123.50516 93.56695
#
# Poissons Ratio (x) = 0.57505 0.30779
# Poissons Ratio (y) = 0.14968 0.17877
# Poissons Ratio (z) = 0.10575 0.23597
#
# Static dielectric constant tensor:
#      x y z
#    x 1.991830 -0.040870 0.053850 
#    y -0.040870 1.886240 -0.033140 
#    z 0.053850 -0.033140 2.000590 
# 
# From -- ./inp_files/157039.got.cif
#   From: 2010.05.17/outbox.cif.g08.bks.cpg/sg2_79_cif.got.tgz:157039.got - 2010.06.03 11:33:40.
