data_PCOD9018151
_publ_section_title
;
Structure prediction by ZEFSAII (Michael W. Deem and Ramdas Pophale) SiO2 
 PCOD9018151
Probable space group: P -1
;
_chemical_formula_sum "Si O2"
_cell_formula_units_Z 16
_cell_length_a 9.161340
_cell_length_b 8.054383
_cell_length_c 12.091094
_cell_angle_alpha 94.835597
_cell_angle_beta 128.391810
_cell_angle_gamma 95.910525
_cell_volume 682.873179
_symmetry_space_group_name_H-M "P -1"
_symmetry_group_IT_number 2
_symmetry_cell_setting 'triclinic'
loop_
_space_group_symop_operation_xyz
x,y,z
-x,-y,-z
loop_
_atom_site_type_symbol
_atom_site_label
_atom_site_fract_x
_atom_site_fract_y
_atom_site_fract_z
Si Si1 0.676353 0.910419 0.051297
Si Si2 0.342307 0.429372 0.262359
Si Si3 0.973398 0.826571 0.810280
Si Si4 0.894724 0.379149 0.324931
Si Si5 0.266257 0.623563 0.459586
Si Si6 0.492610 0.545361 0.872143
Si Si7 0.201797 0.997854 0.648228
Si Si8 0.302140 0.002391 0.466198
O O1 0.819939 0.202050 0.343803
O O2 0.755091 0.896256 0.212850
O O3 0.589406 0.744460 0.933200
O O4 0.500000 0.000000 0.000000
O O5 0.161667 0.274609 0.166662
O O6 0.300924 0.544762 0.351836
O O7 0.532772 0.361168 0.382438
O O8 0.392812 0.524476 0.175300
O O9 0.079809 0.694073 0.790350
O O10 0.146040 0.980283 0.924853
O O11 0.829455 0.891489 0.657430
O O12 0.729403 0.483228 0.259060
O O13 0.101616 0.498031 0.442504
O O14 0.207646 0.803139 0.421222
O O15 0.500000 0.500000 0.000000
O O16 0.339651 0.061818 0.614314
O O17 0.000000 0.000000 0.500000
O O18 0.500000 0.000000 0.500000
#
# Coordination Sequence:
#
# PCOD9018151 Si02
#       8
#     2   2   2   2   2   2   2   2
#     4  11  23  44  71  96 137 182 226 276 350 401
#     4  10  23  46  65  95 137 177 223 284 342 405
#     4  10  21  43  68  96 136 172 225 288 338 405
#     4  10  22  43  66  95 139 173 228 284 337 405
#     4  10  23  41  70  97 136 178 220 282 358 386
#     4  12  27  44  66  99 136 185 235 273 335 423
#     4  11  22  41  71 102 133 174 229 289 335 400
#     4  12  23  37  66 108 135 165 229 284 339 408
#
# _framework density 23.430413999999999
#
# number of rings (size 3 to 8) (size 9 to 14) (size 15 to 20)
#    0.000    1.250    6.250    0.750    1.750    4.500 
#    0.000    2.500    0.000    0.000    0.000    0.000 
#    0.000    0.000    0.000    0.000    0.000    0.000 
#
# Total GULP energy -89349.459355 kJ/mol
# GULP energy per Si atom -5584.341210 kJ/mol
# Density = 2.337709 g / cm^3
# Si number density = 23.430414 Si / 1000 Ang^3
#
#
#
# Elastic Constant Matrix: (Units=GPa)
#
#
# Indices 1 2 3 4 5 6 
#
# 1 159.8184 14.5598 42.3348 -6.8682 -13.1437 34.2680
# 2 14.5598 38.3604 2.7194 3.9260 -2.0161 12.7326
# 3 42.3348 2.7194 80.6357 -0.2963 -2.3131 10.3393
# 4 -6.8682 3.9260 -0.2963 34.9487 11.7976 0.2547
# 5 -13.1437 -2.0161 -2.3131 11.7976 39.9246 2.4031
# 6 34.2680 12.7326 10.3393 0.2547 2.4031 31.3628
#
#
#
# Elastic Compliance Matrix: (Units=1/GPa)
#
#
# Indices 1 2 3 4 5 6 
#
# 1 0.009584 -0.000156 -0.003720 0.000841 0.003251 -0.009438
# 2 -0.000156 0.031040 0.000784 -0.004673 0.003721 -0.012936
# 3 -0.003720 0.000784 0.014452 -0.000658 -0.000093 -0.001005
# 4 0.000841 -0.004673 -0.000658 0.032567 -0.009722 0.001676
# 5 0.003251 0.003721 -0.000093 -0.009722 0.029608 -0.007222
# 6 -0.009438 -0.012936 -0.001005 0.001676 -0.007222 0.048320
#
#
# Mechanical properties :
#
#
# Convention : Reuss Voigt Hill
#
# Bulk Modulus (GPa) = 20.45404 44.22695 32.34049
# Shear Modulus (GPa) = 26.58827 35.86060 31.22443
#
# Velocity S-wave (km/s) = 3.37230 3.91642 3.65450
# Velocity P-wave (km/s) = 4.88997 6.27439 5.62494
#
# Compressibility (1/GPa) = 0.04889010
#
# Stress axis : x y z
#
# Youngs Moduli (GPa) = 104.34178 32.21664 69.19521
#
# Poissons Ratio (x) = 0.00504 0.25740
# Poissons Ratio (y) = 0.01632 -0.05422
# Poissons Ratio (z) = 0.38814 -0.02524
#
# Static dielectric constant tensor:
#      x y z
#    x 1.935460 0.047630 -0.073740 
#    y 0.047630 1.940490 -0.007450 
#    z -0.073740 -0.007450 1.964370 
# 
# From -- ./inp_files/382706.got.cif
#   From: 2010.05.17/outbox.cif.g08.bks.cpg/sg2_192_cif.got.tgz:382706.got - 2010.06.03 11:33:40.
