data_PCOD9018277
_publ_section_title
;
Structure prediction by ZEFSAII (Michael W. Deem and Ramdas Pophale) SiO2 
 PCOD9018277
Probable space group: P -1
;
_chemical_formula_sum "Si O2"
_cell_formula_units_Z 16
_cell_length_a 7.854236
_cell_length_b 14.204112
_cell_length_c 10.385315
_cell_angle_alpha 123.065096
_cell_angle_beta 132.399240
_cell_angle_gamma 66.574649
_cell_volume 716.206486
_symmetry_space_group_name_H-M "P -1"
_symmetry_group_IT_number 2
_symmetry_cell_setting 'triclinic'
loop_
_space_group_symop_operation_xyz
x,y,z
-x,-y,-z
loop_
_atom_site_type_symbol
_atom_site_label
_atom_site_fract_x
_atom_site_fract_y
_atom_site_fract_z
Si Si1 0.227649 0.670056 0.050767
Si Si2 0.415931 0.181148 0.771255
Si Si3 0.539740 0.365727 0.436554
Si Si4 0.791101 0.737188 0.019919
Si Si5 0.315060 0.019294 0.808161
Si Si6 0.075044 0.797181 0.574089
Si Si7 0.881865 0.351952 0.307819
Si Si8 0.372667 0.428424 0.663233
O O1 0.358630 0.781954 0.159672
O O2 0.440757 0.588117 0.142560
O O3 0.036283 0.675964 0.068916
O O4 0.101075 0.640098 0.831008
O O5 0.336237 0.269829 0.911871
O O6 0.426419 0.063100 0.765268
O O7 0.196794 0.186918 0.570421
O O8 0.500000 0.500000 0.500000
O O9 0.797626 0.311601 0.509569
O O10 0.464835 0.351630 0.535397
O O11 0.378692 0.298484 0.207085
O O12 0.836390 0.870437 0.141534
O O13 0.179995 0.906722 0.647713
O O14 0.500000 0.000000 0.000000
O O15 0.145013 0.771789 0.739797
O O16 0.673669 0.441171 0.300073
O O17 0.112566 0.391463 0.524440
#
# Coordination Sequence:
#
# PCOD9018277 Si02
#       8
#     2   2   2   2   2   2   2   2
#     4  12  22  45  67  99 143 173 227 284 333 409
#     4  10  24  41  69 101 132 180 224 280 345 398
#     4  12  23  42  68  98 138 178 226 279 334 408
#     4  10  24  44  67 103 133 175 233 271 341 403
#     4  10  21  43  69  94 132 179 228 282 334 406
#     4  12  21  44  70  96 135 179 226 280 345 400
#     4  11  23  41  65  94 136 180 226 271 339 404
#     4  11  24  41  63  98 136 181 220 280 335 399
#
# _framework density 22.339926999999999
#
# number of rings (size 3 to 8) (size 9 to 14) (size 15 to 20)
#    0.750    0.250    5.000    3.000    0.000    0.000 
#    2.250    5.625    0.000    0.000    0.000    0.000 
#    0.000    0.000    0.000    0.000    0.000    0.000 
#
# Total GULP energy -89204.943186 kJ/mol
# GULP energy per Si atom -5575.308949 kJ/mol
# Density = 2.228908 g / cm^3
# Si number density = 22.339927 Si / 1000 Ang^3
#
#
#
# Elastic Constant Matrix: (Units=GPa)
#
#
# Indices 1 2 3 4 5 6 
#
# 1 53.7109 -12.2060 0.9039 0.7467 2.9551 0.5157
# 2 -12.2060 75.3415 13.2850 -4.2806 2.6356 14.8116
# 3 0.9039 13.2850 58.6474 -14.1270 5.9294 6.9060
# 4 0.7467 -4.2806 -14.1270 39.1549 0.9379 -0.1187
# 5 2.9551 2.6356 5.9294 0.9379 31.6062 -2.6290
# 6 0.5157 14.8116 6.9060 -0.1187 -2.6290 29.1499
#
#
#
# Elastic Compliance Matrix: (Units=1/GPa)
#
#
# Indices 1 2 3 4 5 6 
#
# 1 0.019648 0.003834 -0.000714 -0.000167 -0.002211 -0.002327
# 2 0.003834 0.015956 -0.002360 0.000842 -0.001919 -0.007786
# 3 -0.000714 -0.002360 0.020183 0.007123 -0.004059 -0.003907
# 4 -0.000167 0.000842 0.007123 0.028256 -0.002414 -0.002215
# 5 -0.002211 -0.001919 -0.004059 -0.002414 0.033252 0.004965
# 6 -0.002327 -0.007786 -0.003907 -0.002215 0.004965 0.039667
#
#
# Mechanical properties :
#
#
# Convention : Reuss Voigt Hill
#
# Bulk Modulus (GPa) = 17.44970 21.29617 19.37293
# Shear Modulus (GPa) = 28.64617 32.36333 30.50475
#
# Velocity S-wave (km/s) = 3.58479 3.81028 3.69925
# Velocity P-wave (km/s) = 4.99622 5.37690 5.19005
#
# Compressibility (1/GPa) = 0.05730758
#
# Stress axis : x y z
#
# Youngs Moduli (GPa) = 50.89593 62.67299 49.54711
#
# Poissons Ratio (x) = -0.24031 0.03538
# Poissons Ratio (y) = -0.19515 0.11692
# Poissons Ratio (z) = 0.03635 0.14789
#
# Static dielectric constant tensor:
#      x y z
#    x 1.918730 0.068230 -0.017690 
#    y 0.068230 1.882720 0.024360 
#    z -0.017690 0.024360 1.868270 
# 
# From -- ./inp_files/399483.got.cif
#   From: 2010.05.17/outbox.cif.g08.bks.cpg/sg2_200_cif.got.tgz:399483.got - 2010.06.03 11:33:40.
