data_PCOD9018998
_publ_section_title
;
Structure prediction by ZEFSAII (Michael W. Deem and Ramdas Pophale) SiO2 
 PCOD9018998
Probable space group: P -1
;
_chemical_formula_sum "Si O2"
_cell_formula_units_Z 16
_cell_length_a 12.036220
_cell_length_b 11.373492
_cell_length_c 8.141024
_cell_angle_alpha 56.381535
_cell_angle_beta 63.913418
_cell_angle_gamma 52.792905
_cell_volume 729.845033
_symmetry_space_group_name_H-M "P -1"
_symmetry_group_IT_number 2
_symmetry_cell_setting 'triclinic'
loop_
_space_group_symop_operation_xyz
x,y,z
-x,-y,-z
loop_
_atom_site_type_symbol
_atom_site_label
_atom_site_fract_x
_atom_site_fract_y
_atom_site_fract_z
Si Si1 0.297743 0.364239 0.039121
Si Si2 0.468023 0.543964 0.296469
Si Si3 0.216989 0.823647 0.388000
Si Si4 0.062226 0.065769 0.045382
Si Si5 0.579647 0.724074 0.643025
Si Si6 0.770086 0.894739 0.675746
Si Si7 0.071344 0.679267 0.815933
Si Si8 0.316452 0.043080 0.693531
O O1 0.419280 0.406734 0.880188
O O2 0.158370 0.488636 0.934997
O O3 0.295395 0.375369 0.230734
O O4 0.322881 0.184182 0.135778
O O5 0.500000 0.500000 0.500000
O O6 0.315919 0.702023 0.279444
O O7 0.463825 0.397286 0.319963
O O8 0.176939 0.730073 0.619491
O O9 0.082018 0.957624 0.276759
O O10 0.277111 0.929893 0.354604
O O11 0.965466 0.244237 0.037381
O O12 0.208416 0.049725 0.895724
O O13 0.000000 0.000000 0.000000
O O14 0.627764 0.827579 0.415706
O O15 0.447750 0.864468 0.720189
O O16 0.758020 0.911536 0.473689
O O17 0.928171 0.767252 0.733489
#
# Coordination Sequence:
#
# PCOD9018998 Si02
#       8
#     2   2   2   2   2   2   2   2
#     4  11  24  42  64  94 128 168 206 261 325 364
#     4  12  24  39  64  95 125 164 208 262 312 374
#     4  11  23  41  63  92 127 167 213 253 311 374
#     4  11  23  36  66  94 122 170 212 256 308 375
#     4  10  24  42  67  93 129 164 207 269 314 374
#     4  10  22  43  66  89 128 169 209 258 312 378
#     4  11  23  42  63  93 131 167 209 258 314 374
#     4  10  21  44  67  93 124 167 215 260 316 367
#
# _framework density 21.922460999999998
#
# number of rings (size 3 to 8) (size 9 to 14) (size 15 to 20)
#    0.000    1.250    1.250    5.250    3.500    2.500 
#    2.250    1.250    0.000    0.000    0.000    0.000 
#    0.000    0.000    0.000    0.000    0.000    0.000 
#
# Total GULP energy -89353.516984 kJ/mol
# GULP energy per Si atom -5584.594812 kJ/mol
# Density = 2.187256 g / cm^3
# Si number density = 21.922461 Si / 1000 Ang^3
#
#
#
# Elastic Constant Matrix: (Units=GPa)
#
#
# Indices 1 2 3 4 5 6 
#
# 1 77.2708 15.7518 22.0345 -12.7340 -12.5090 10.6054
# 2 15.7518 71.3361 32.3391 -13.1717 -20.6894 -1.2867
# 3 22.0345 32.3391 107.6457 -15.5009 -17.9154 9.3166
# 4 -12.7340 -13.1717 -15.5009 31.3583 -3.4809 -4.1491
# 5 -12.5090 -20.6894 -17.9154 -3.4809 46.7694 -7.9224
# 6 10.6054 -1.2867 9.3166 -4.1491 -7.9224 31.1646
#
#
#
# Elastic Compliance Matrix: (Units=1/GPa)
#
#
# Indices 1 2 3 4 5 6 
#
# 1 0.015299 -0.001092 -0.001307 0.004971 0.002892 -0.003464
# 2 -0.001092 0.019989 -0.003694 0.007821 0.008656 0.005543
# 3 -0.001307 -0.003694 0.011798 0.003742 0.002456 -0.002112
# 4 0.004971 0.007821 0.003742 0.040911 0.010208 0.005554
# 5 0.002892 0.008656 0.002456 0.010208 0.028930 0.007353
# 6 -0.003464 0.005543 -0.002112 0.005554 0.007353 0.036735
#
#
# Mechanical properties :
#
#
# Convention : Reuss Voigt Hill
#
# Bulk Modulus (GPa) = 28.65383 44.05592 36.35488
# Shear Modulus (GPa) = 28.17193 34.26693 31.21943
#
# Velocity S-wave (km/s) = 3.58868 3.95789 3.77780
# Velocity P-wave (km/s) = 5.50185 6.40519 5.97063
#
# Compressibility (1/GPa) = 0.03489935
#
# Stress axis : x y z
#
# Youngs Moduli (GPa) = 65.36177 50.02859 84.76296
#
# Poissons Ratio (x) = 0.05462 0.11077
# Poissons Ratio (y) = 0.07137 0.31315
# Poissons Ratio (z) = 0.08542 0.18483
#
# Static dielectric constant tensor:
#      x y z
#    x 1.867090 -0.028530 0.011840 
#    y -0.028530 1.855350 -0.032610 
#    z 0.011840 -0.032610 1.782380 
# 
# From -- ./inp_files/243564.got.cif
#   From: 2010.05.17/outbox.cif.g08.bks.cpg/sg2_122_cif.got.tgz:243564.got - 2010.06.03 11:33:40.
