data_PCOD9018110
_publ_section_title
;
Structure prediction by ZEFSAII (Michael W. Deem and Ramdas Pophale) SiO2 
 PCOD9018110
Probable space group: P -1
;
_chemical_formula_sum "Si O2"
_cell_formula_units_Z 14
_cell_length_a 7.898104
_cell_length_b 22.281647
_cell_length_c 9.105298
_cell_angle_alpha 153.360991
_cell_angle_beta 132.098671
_cell_angle_gamma 51.155915
_cell_volume 531.200533
_symmetry_space_group_name_H-M "P -1"
_symmetry_group_IT_number 2
_symmetry_cell_setting 'triclinic'
loop_
_space_group_symop_operation_xyz
x,y,z
-x,-y,-z
loop_
_atom_site_type_symbol
_atom_site_label
_atom_site_fract_x
_atom_site_fract_y
_atom_site_fract_z
Si Si1 0.618240 0.198913 0.929016
Si Si2 0.223539 0.717636 0.213928
Si Si3 0.900244 0.154037 0.273128
Si Si4 0.228385 0.464761 0.842413
Si Si5 0.414388 0.952187 0.685852
Si Si6 0.767619 0.610710 0.001256
Si Si7 0.905646 0.782944 0.924668
O O1 0.507921 0.082338 0.513566
O O2 0.445680 0.330113 0.089130
O O3 0.685413 0.176132 0.087232
O O4 0.873700 0.205522 0.024923
O O5 0.180130 0.810600 0.532819
O O6 0.374241 0.799065 0.371916
O O7 0.305479 0.574008 0.011529
O O8 0.990834 0.717289 0.984264
O O9 0.086245 0.262759 0.588093
O O10 0.000000 0.000000 0.000000
O O11 0.304104 0.461574 0.049406
O O12 0.251398 0.318028 0.465507
O O13 0.954150 0.513508 0.809477
O O14 0.500000 0.000000 0.000000
O O15 0.214227 0.069545 0.800345
#
# Coordination Sequence:
#
# PCOD9018110 Si02
#       7
#     2   2   2   2   2   2   2
#     4  11  23  41  71  97 130 178 218 269 332 398
#     4  10  23  41  62  99 129 169 222 274 323 384
#     4  11  22  41  67  96 137 167 220 281 320 388
#     4  10  21  43  68  93 139 172 218 278 318 396
#     4  11  24  43  69  96 132 174 220 274 337 391
#     4  10  23  42  65 100 130 179 218 265 338 384
#     4  11  21  43  68  93 131 178 217 268 338 387
#
# _framework density 26.355395999999999
#
# number of rings (size 3 to 8) (size 9 to 14) (size 15 to 20)
#    0.000    1.429    1.429    4.714    2.000    1.143 
#    5.143    6.429    0.000    0.000    0.000    0.000 
#    0.000    0.000    0.000    0.000    0.000    0.000 
#
# Total GULP energy -78247.549068 kJ/mol
# GULP energy per Si atom -5589.110648 kJ/mol
# Density = 2.629541 g / cm^3
# Si number density = 26.355396 Si / 1000 Ang^3
#
#
#
# Elastic Constant Matrix: (Units=GPa)
#
#
# Indices 1 2 3 4 5 6 
#
# 1 45.7587 -0.2743 0.8459 9.0845 11.9205 12.3900
# 2 -0.2743 162.2925 16.1493 9.0127 4.5850 -8.9482
# 3 0.8459 16.1493 83.9965 5.1517 -4.5144 0.6711
# 4 9.0845 9.0127 5.1517 64.8462 8.2951 -13.2460
# 5 11.9205 4.5850 -4.5144 8.2951 37.5574 8.8989
# 6 12.3900 -8.9482 0.6711 -13.2460 8.8989 46.5361
#
#
#
# Elastic Compliance Matrix: (Units=1/GPa)
#
#
# Indices 1 2 3 4 5 6 
#
# 1 0.026130 0.000082 -0.000260 -0.004373 -0.005688 -0.007094
# 2 0.000082 0.006419 -0.001288 -0.000370 -0.001204 0.001356
# 3 -0.000260 -0.001288 0.012367 -0.001298 0.002289 -0.001164
# 4 -0.004373 -0.000370 -0.001298 0.018216 -0.004439 0.007146
# 5 -0.005688 -0.001204 0.002289 -0.004439 0.031253 -0.005990
# 6 -0.007094 0.001356 -0.001164 0.007146 -0.005990 0.026834
#
#
# Mechanical properties :
#
#
# Convention : Reuss Voigt Hill
#
# Bulk Modulus (GPa) = 23.81738 36.16550 29.99144
# Shear Modulus (GPa) = 36.19366 48.14306 42.16836
#
# Velocity S-wave (km/s) = 3.70982 4.27861 4.00433
# Velocity P-wave (km/s) = 5.23516 6.17744 5.72572
#
# Compressibility (1/GPa) = 0.04198615
#
# Stress axis : x y z
#
# Youngs Moduli (GPa) = 38.27028 155.77912 80.85795
#
# Poissons Ratio (x) = -0.01284 0.02101
# Poissons Ratio (y) = -0.00315 0.10413
# Poissons Ratio (z) = 0.00994 0.20062
#
# Static dielectric constant tensor:
#      x y z
#    x 2.667080 -0.562030 0.398570 
#    y -0.562030 2.576630 -0.355980 
#    z 0.398570 -0.355980 2.263130 
# 
# From -- ./inp_files/224415.got.cif
#   From: 2010.05.17/outbox.cif.g08.bks.cpg/sg2_113_cif.got.tgz:224415.got - 2010.06.03 11:33:40.
