data_PCOD9018921
_publ_section_title
;
Structure prediction by ZEFSAII (Michael W. Deem and Ramdas Pophale) SiO2 
 PCOD9018921
Probable space group: P -1
;
_chemical_formula_sum "Si O2"
_cell_formula_units_Z 15
_cell_length_a 25.765968
_cell_length_b 7.015854
_cell_length_c 15.988302
_cell_angle_alpha 126.141854
_cell_angle_beta 162.366158
_cell_angle_gamma 54.348239
_cell_volume 704.493668
_symmetry_space_group_name_H-M "P -1"
_symmetry_group_IT_number 2
_symmetry_cell_setting 'triclinic'
loop_
_space_group_symop_operation_xyz
x,y,z
-x,-y,-z
loop_
_atom_site_type_symbol
_atom_site_label
_atom_site_fract_x
_atom_site_fract_y
_atom_site_fract_z
Si Si1 0.462916 0.653727 0.285459
Si Si2 0.699230 0.029252 0.742993
Si Si3 0.774854 0.215896 0.186872
Si Si4 0.923122 0.896310 0.628402
Si Si5 0.000000 0.500000 0.500000
Si Si6 0.526294 0.823906 0.718804
Si Si7 0.641918 0.819787 0.315215
Si Si8 0.731065 0.301030 0.334030
O O1 0.347428 0.864018 0.209637
O O2 0.444016 0.424931 0.253180
O O3 0.646408 0.759761 0.588563
O O4 0.377968 0.628721 0.058231
O O5 0.573934 0.174518 0.522212
O O6 0.895326 0.067931 0.040404
O O7 0.939552 0.265551 0.398529
O O8 0.785785 0.293961 0.319052
O O9 0.700601 0.956168 0.008197
O O10 0.944784 0.671042 0.541018
O O11 0.780147 0.873864 0.473218
O O12 0.860998 0.129180 0.540748
O O13 0.403433 0.985005 0.633894
O O14 0.707683 0.572644 0.395559
O O15 0.459891 0.788537 0.982465
#
# Coordination Sequence:
#
# PCOD9018921 Si02
#       8
#     2   2   2   2   1   2   2   2
#     4  10  21  44  66  93 127 173 210 266 313 373
#     4  10  23  42  62  97 131 161 221 260 311 386
#     4  10  22  40  62  97 129 159 213 256 314 386
#     4  12  25  41  65  96 133 169 201 269 324 370
#     4  12  24  42  60 102 138 156 206 272 314 394
#     4  10  23  42  72  89 122 178 216 260 315 371
#     4  10  23  42  62  93 126 167 224 257 304 390
#     4  10  23  42  64  92 130 172 207 258 321 381
#
# _framework density 21.291886999999999
#
# number of rings (size 3 to 8) (size 9 to 14) (size 15 to 20)
#    0.000    1.600    2.667    0.800    3.733    6.400 
#    2.400    1.333    0.000    0.000    0.000    0.000 
#    0.000    0.000    0.000    0.000    0.000    0.000 
#
# Total GULP energy -83542.854870 kJ/mol
# GULP energy per Si atom -5569.523658 kJ/mol
# Density = 2.124343 g / cm^3
# Si number density = 21.291887 Si / 1000 Ang^3
#
#
#
# Elastic Constant Matrix: (Units=GPa)
#
#
# Indices 1 2 3 4 5 6 
#
# 1 82.3970 -4.2025 18.4382 14.4728 17.4972 14.8715
# 2 -4.2025 86.9514 13.0306 2.1980 -14.0427 19.2283
# 3 18.4382 13.0306 42.3640 5.0927 9.3418 13.1614
# 4 14.4728 2.1980 5.0927 21.1285 10.8103 5.0770
# 5 17.4972 -14.0427 9.3418 10.8103 29.1131 8.9117
# 6 14.8715 19.2283 13.1614 5.0770 8.9117 33.6210
#
#
#
# Elastic Compliance Matrix: (Units=1/GPa)
#
#
# Indices 1 2 3 4 5 6 
#
# 1 0.016072 0.002243 -0.004705 -0.007534 -0.002844 -0.004659
# 2 0.002243 0.017652 -0.005163 -0.006959 0.015084 -0.012014
# 3 -0.004705 -0.005163 0.030428 0.002046 -0.008692 -0.004883
# 4 -0.007534 -0.006959 0.002046 0.064425 -0.024403 0.003251
# 5 -0.002844 0.015084 -0.008692 -0.024403 0.060151 -0.016225
# 6 -0.004659 -0.012014 -0.004883 0.003251 -0.016225 0.044396
#
#
# Mechanical properties :
#
#
# Convention : Reuss Voigt Hill
#
# Bulk Modulus (GPa) = 20.44900 29.58278 25.01589
# Shear Modulus (GPa) = 18.89117 29.06893 23.98005
#
# Velocity S-wave (km/s) = 2.98190 3.69895 3.35961
# Velocity P-wave (km/s) = 4.63472 5.67160 5.17917
#
# Compressibility (1/GPa) = 0.04890215
#
# Stress axis : x y z
#
# Youngs Moduli (GPa) = 62.22159 56.65217 32.86412
#
# Poissons Ratio (x) = -0.12708 0.15462
# Poissons Ratio (y) = -0.13957 0.16968
# Poissons Ratio (z) = 0.29274 0.29250
#
# Static dielectric constant tensor:
#      x y z
#    x 1.757540 0.000050 0.027370 
#    y 0.000050 1.790210 0.036960 
#    z 0.027370 0.036960 1.745720 
# 
# From -- ./inp_files/511048.got.cif
#   From: 2010.05.17/outbox.cif.g08.bks.cpg/sg2_256_cif.got.tgz:511048.got - 2010.06.03 11:33:40.
