data_PCOD9018924
_publ_section_title
;
Structure prediction by ZEFSAII (Michael W. Deem and Ramdas Pophale) SiO2 
 PCOD9018924
Probable space group: P -1
;
_chemical_formula_sum "Si O2"
_cell_formula_units_Z 14
_cell_length_a 13.253658
_cell_length_b 7.963365
_cell_length_c 14.970745
_cell_angle_alpha 97.240841
_cell_angle_beta 142.166429
_cell_angle_gamma 55.135022
_cell_volume 606.567382
_symmetry_space_group_name_H-M "P -1"
_symmetry_group_IT_number 2
_symmetry_cell_setting 'triclinic'
loop_
_space_group_symop_operation_xyz
x,y,z
-x,-y,-z
loop_
_atom_site_type_symbol
_atom_site_label
_atom_site_fract_x
_atom_site_fract_y
_atom_site_fract_z
Si Si1 0.235648 0.770692 0.877061
Si Si2 0.158543 0.506888 0.907045
Si Si3 0.177067 0.035102 0.025116
Si Si4 0.135057 0.794794 0.498259
Si Si5 0.588816 0.947586 0.237851
Si Si6 0.976019 0.503987 0.612586
Si Si7 0.722884 0.376009 0.834945
O O1 0.110364 0.697860 0.817955
O O2 0.272083 0.850215 0.995797
O O3 0.500000 0.500000 0.000000
O O4 0.058634 0.017827 0.705238
O O5 0.003022 0.491226 0.738607
O O6 0.122125 0.626983 0.985690
O O7 0.456568 0.204063 0.105995
O O8 0.866361 0.304704 0.837688
O O9 0.336347 0.077382 0.123146
O O10 0.246467 0.850922 0.141598
O O11 0.416893 0.643123 0.657228
O O12 0.143012 0.585455 0.503684
O O13 0.000000 0.000000 0.500000
O O14 0.739640 0.720947 0.251162
O O15 0.801843 0.780373 0.455349
#
# Coordination Sequence:
#
# PCOD9018924 Si02
#       7
#     2   2   2   2   2   2   2
#     4  11  23  39  69 100 132 173 224 277 329 395
#     4  11  24  41  62  98 132 174 218 271 335 394
#     4  10  21  44  66  93 133 180 220 269 336 396
#     4  12  24  42  69 101 132 171 230 278 326 397
#     4  11  22  39  67  93 135 173 214 278 337 395
#     4  11  24  39  65 101 131 169 221 279 338 392
#     4  10  23  42  68  93 131 180 223 273 328 394
#
# _framework density 23.080701000000001
#
# number of rings (size 3 to 8) (size 9 to 14) (size 15 to 20)
#    0.000    1.143    1.429    5.571    6.000    1.143 
#    0.000    0.714    0.000    0.000    0.000    0.000 
#    0.000    0.000    0.000    0.000    0.000    0.000 
#
# Total GULP energy -77963.617350 kJ/mol
# GULP energy per Si atom -5568.829811 kJ/mol
# Density = 2.302817 g / cm^3
# Si number density = 23.080701 Si / 1000 Ang^3
#
#
#
# Elastic Constant Matrix: (Units=GPa)
#
#
# Indices 1 2 3 4 5 6 
#
# 1 85.5062 10.3605 14.9734 -4.2547 25.5226 -17.1592
# 2 10.3605 81.7885 21.5925 4.1181 4.4752 -13.8315
# 3 14.9734 21.5925 60.8360 -5.9547 -0.9126 -4.3163
# 4 -4.2547 4.1181 -5.9547 32.4267 2.7873 0.8398
# 5 25.5226 4.4752 -0.9126 2.7873 39.6145 -16.0702
# 6 -17.1592 -13.8315 -4.3163 0.8398 -16.0702 36.1037
#
#
#
# Elastic Compliance Matrix: (Units=1/GPa)
#
#
# Indices 1 2 3 4 5 6 
#
# 1 0.015767 -0.000186 -0.003539 0.002161 -0.009216 0.002847
# 2 -0.000186 0.014586 -0.005040 -0.003000 0.000710 0.005283
# 3 -0.003539 -0.005040 0.019484 0.003492 0.003050 -0.000007
# 4 0.002161 -0.003000 0.003492 0.032567 -0.004213 -0.002337
# 5 -0.009216 0.000710 0.003050 -0.004213 0.036597 0.012644
# 6 0.002847 0.005283 -0.000007 -0.002337 0.012644 0.036757
#
#
# Mechanical properties :
#
#
# Convention : Reuss Voigt Hill
#
# Bulk Modulus (GPa) = 30.95201 35.77594 33.36397
# Shear Modulus (GPa) = 27.16540 33.70927 30.43733
#
# Velocity S-wave (km/s) = 3.43443 3.82579 3.63538
# Velocity P-wave (km/s) = 5.40060 5.92027 5.66640
#
# Compressibility (1/GPa) = 0.03230808
#
# Stress axis : x y z
#
# Youngs Moduli (GPa) = 63.42309 68.55740 51.32288
#
# Poissons Ratio (x) = 0.01275 0.18166
# Poissons Ratio (y) = 0.01179 0.25864
# Poissons Ratio (z) = 0.22448 0.34550
#
# Static dielectric constant tensor:
#      x y z
#    x 1.916630 0.022350 0.029360 
#    y 0.022350 2.059710 0.095330 
#    z 0.029360 0.095330 1.925520 
# 
# From -- ./inp_files/529911.got.cif
#   From: 2010.05.17/outbox.cif.g08.bks.cpg/sg2_265_cif.got.tgz:529911.got - 2010.06.03 11:33:40.
