data_PCOD9018495
_publ_section_title
;
Structure prediction by ZEFSAII (Michael W. Deem and Ramdas Pophale) SiO2 
 PCOD9018495
Probable space group: P -1
;
_chemical_formula_sum "Si O2"
_cell_formula_units_Z 12
_cell_length_a 9.261686
_cell_length_b 15.226795
_cell_length_c 8.222238
_cell_angle_alpha 124.501363
_cell_angle_beta 145.262735
_cell_angle_gamma 42.684975
_cell_volume 445.817913
_symmetry_space_group_name_H-M "P -1"
_symmetry_group_IT_number 2
_symmetry_cell_setting 'triclinic'
loop_
_space_group_symop_operation_xyz
x,y,z
-x,-y,-z
loop_
_atom_site_type_symbol
_atom_site_label
_atom_site_fract_x
_atom_site_fract_y
_atom_site_fract_z
Si Si1 0.628264 0.584920 0.732262
Si Si2 0.295164 0.313211 0.408624
Si Si3 0.846079 0.792830 0.357150
Si Si4 0.263787 0.391063 0.798732
Si Si5 0.203949 0.127575 0.947380
Si Si6 0.102609 0.958578 0.869147
O O1 0.500000 0.500000 0.500000
O O2 0.554966 0.673188 0.599957
O O3 0.534934 0.643533 0.888449
O O4 0.000000 0.500000 0.000000
O O5 0.436434 0.319581 0.716727
O O6 0.952677 0.452156 0.251500
O O7 0.273787 0.192595 0.227391
O O8 0.945267 0.663539 0.412362
O O9 0.920044 0.770249 0.209237
O O10 0.958338 0.881870 0.603328
O O11 0.474605 0.876874 0.124396
O O12 0.006346 0.077363 0.782358
O O13 0.500000 0.000000 0.000000
O O14 0.000000 0.000000 0.000000
#
# Coordination Sequence:
#
# PCOD9018495 Si02
#       6
#     2   2   2   2   2   2
#     4  10  22  42  66  97 137 178 221 280 347 411
#     4  10  21  43  71 103 143 184 235 293 352 425
#     4  11  23  43  69  99 141 182 235 294 348 425
#     4  10  22  42  71 107 138 183 236 292 360 418
#     4  10  22  43  69 103 141 190 239 287 353 425
#     4  11  24  43  69 100 139 187 238 290 349 416
#
# _framework density 26.916817999999999
#
# number of rings (size 3 to 8) (size 9 to 14) (size 15 to 20)
#    0.000    1.667    1.667    2.000    0.000    4.667 
#    0.000   11.667    0.000    0.000    0.000    0.000 
#    0.000    0.000    0.000    0.000    0.000    0.000 
#
# Total GULP energy -67204.951443 kJ/mol
# GULP energy per Si atom -5600.412620 kJ/mol
# Density = 2.685555 g / cm^3
# Si number density = 26.916818 Si / 1000 Ang^3
#
#
#
# Elastic Constant Matrix: (Units=GPa)
#
#
# Indices 1 2 3 4 5 6 
#
# 1 145.6973 37.7598 93.2431 8.9186 -21.5199 11.5117
# 2 37.7598 140.6029 54.6915 23.2806 9.2552 7.1443
# 3 93.2431 54.6915 193.4232 58.6897 -3.4304 -6.3768
# 4 8.9186 23.2806 58.6897 48.3692 -0.7411 4.2314
# 5 -21.5199 9.2552 -3.4304 -0.7411 75.3562 5.5221
# 6 11.5117 7.1443 -6.3768 4.2314 5.5221 46.7494
#
#
#
# Elastic Compliance Matrix: (Units=1/GPa)
#
#
# Indices 1 2 3 4 5 6 
#
# 1 0.013775 -0.001732 -0.009377 0.010247 0.004248 -0.005836
# 2 -0.001732 0.008465 -0.000746 -0.002828 -0.001557 -0.000529
# 3 -0.009377 -0.000746 0.015212 -0.016962 -0.002525 0.006331
# 4 0.010247 -0.002828 -0.016962 0.041532 0.003539 -0.008582
# 5 0.004248 -0.001557 -0.002525 0.003539 0.014831 -0.003225
# 6 -0.005836 -0.000529 0.006331 -0.008582 -0.003225 0.024930
#
#
# Mechanical properties :
#
#
# Convention : Reuss Voigt Hill
#
# Bulk Modulus (GPa) = 72.76507 94.56801 83.66654
# Shear Modulus (GPa) = 34.00573 53.69690 43.85131
#
# Velocity S-wave (km/s) = 3.55824 4.47130 4.04064
# Velocity P-wave (km/s) = 6.63125 7.86552 7.27461
#
# Compressibility (1/GPa) = 0.01374286
#
# Stress axis : x y z
#
# Youngs Moduli (GPa) = 72.59762 118.13420 65.73771
#
# Poissons Ratio (x) = 0.20456 0.61641
# Poissons Ratio (y) = 0.12571 0.04903
# Poissons Ratio (z) = 0.68074 0.08811
#
# Static dielectric constant tensor:
#      x y z
#    x 2.095710 0.001090 -0.058070 
#    y 0.001090 2.302890 -0.127050 
#    z -0.058070 -0.127050 2.181760 
# 
# From -- ./inp_files/123834.got.cif
#   From: 2010.05.17/outbox.cif.g08.bks.cpg/sg2_62_cif.got.tgz:123834.got - 2010.06.03 11:33:40.
