data_PCOD9018739
_publ_section_title
;
Structure prediction by ZEFSAII (Michael W. Deem and Ramdas Pophale) SiO2 
 PCOD9018739
Probable space group: P -1
;
_chemical_formula_sum "Si O2"
_cell_formula_units_Z 16
_cell_length_a 24.543391
_cell_length_b 5.218940
_cell_length_c 5.925838
_cell_angle_alpha 97.133140
_cell_angle_beta 68.650872
_cell_angle_gamma 68.821878
_cell_volume 629.992389
_symmetry_space_group_name_H-M "P -1"
_symmetry_group_IT_number 2
_symmetry_cell_setting 'triclinic'
loop_
_space_group_symop_operation_xyz
x,y,z
-x,-y,-z
loop_
_atom_site_type_symbol
_atom_site_label
_atom_site_fract_x
_atom_site_fract_y
_atom_site_fract_z
Si Si1 0.929841 0.938712 0.729368
Si Si2 0.628535 0.858290 0.280553
Si Si3 0.284114 0.644758 0.193386
Si Si4 0.048991 0.506966 0.735953
Si Si5 0.604512 0.295710 0.714155
Si Si6 0.249364 0.189805 0.100711
Si Si7 0.485820 0.801869 0.819964
Si Si8 0.863137 0.588176 0.027820
O O1 0.933804 0.767648 0.476364
O O2 0.887669 0.823552 0.937267
O O3 0.003467 0.796543 0.701801
O O4 0.899400 0.280636 0.813217
O O5 0.674066 0.975743 0.090977
O O6 0.624808 0.979621 0.548308
O O7 0.557562 0.999245 0.292772
O O8 0.671300 0.529575 0.109029
O O9 0.333939 0.652936 0.305041
O O10 0.245855 0.456339 0.281677
O O11 0.234292 0.962674 0.233639
O O12 0.112861 0.489652 0.760928
O O13 0.000000 0.500000 0.000000
O O14 0.555577 0.534198 0.639389
O O15 0.559581 0.321956 0.000892
O O16 0.210009 0.289727 0.939241
O O17 0.500000 0.000000 0.000000
#
# Coordination Sequence:
#
# PCOD9018739 Si02
#       8
#     2   2   2   2   2   2   2   2
#     4  10  22  39  66  95 124 168 204 250 318 359
#     4  10  23  40  61  89 120 161 202 250 313 366
#     4  10  21  44  60  87 122 160 209 251 306 364
#     4   9  21  40  66  95 130 163 206 258 306 365
#     4  11  22  39  64  87 120 161 200 258 317 367
#     4  10  22  43  62  85 129 163 205 262 294 366
#     4  11  21  39  60  92 121 152 203 259 310 376
#     4  11  22  41  61  93 129 163 209 257 301 364
#
# _framework density 25.397131999999999
#
# number of rings (size 3 to 8) (size 9 to 14) (size 15 to 20)
#    0.750    1.000    2.500    1.500    0.000    8.000 
#    4.500    0.000    0.000    0.000    0.000    0.000 
#    0.000    0.000    0.000    0.000    0.000    0.000 
#
# Total GULP energy -89405.282920 kJ/mol
# GULP energy per Si atom -5587.830182 kJ/mol
# Density = 2.533933 g / cm^3
# Si number density = 25.397132 Si / 1000 Ang^3
#
#
#
# Elastic Constant Matrix: (Units=GPa)
#
#
# Indices 1 2 3 4 5 6 
#
# 1 129.5121 41.4260 17.1821 -4.0414 36.2346 -24.3394
# 2 41.4260 116.9592 -7.1301 9.4227 10.6560 0.6358
# 3 17.1821 -7.1301 34.5037 9.9112 14.7871 -7.9927
# 4 -4.0414 9.4227 9.9112 19.0208 1.8031 6.7349
# 5 36.2346 10.6560 14.7871 1.8031 41.6404 -9.1271
# 6 -24.3394 0.6358 -7.9927 6.7349 -9.1271 40.0002
#
#
#
# Elastic Compliance Matrix: (Units=1/GPa)
#
#
# Indices 1 2 3 4 5 6 
#
# 1 0.013147 -0.004906 -0.005463 0.007387 -0.007691 0.003987
# 2 -0.004906 0.011872 0.008820 -0.011464 -0.001359 0.000209
# 3 -0.005463 0.008820 0.050725 -0.034278 -0.011900 0.009727
# 4 0.007387 -0.011464 -0.034278 0.083125 0.001616 -0.015799
# 5 -0.007691 -0.001359 -0.011900 0.001616 0.035379 0.000765
# 6 0.003987 0.000209 0.009727 -0.015799 0.000765 0.032201
#
#
# Mechanical properties :
#
#
# Convention : Reuss Voigt Hill
#
# Bulk Modulus (GPa) = 13.76528 42.65902 28.21215
# Shear Modulus (GPa) = 19.70358 35.43207 27.56782
#
# Velocity S-wave (km/s) = 2.78837 3.73918 3.29822
# Velocity P-wave (km/s) = 3.97473 5.95611 5.06329
#
# Compressibility (1/GPa) = 0.07264655
#
# Stress axis : x y z
#
# Youngs Moduli (GPa) = 76.06489 84.23512 19.71405
#
# Poissons Ratio (x) = 0.41323 0.10770
# Poissons Ratio (y) = 0.37315 -0.17388
# Poissons Ratio (z) = 0.41554 -0.74297
#
# Static dielectric constant tensor:
#      x y z
#    x 2.007330 0.030860 -0.021330 
#    y 0.030860 2.044670 -0.075720 
#    z -0.021330 -0.075720 2.067820 
# 
# From -- ./inp_files/125620.got.cif
#   From: 2010.05.17/outbox.cif.g08.bks.cpg/sg2_63_cif.got.tgz:125620.got - 2010.06.03 11:33:40.
