data_PCOD9018688
_publ_section_title
;
Structure prediction by ZEFSAII (Michael W. Deem and Ramdas Pophale) SiO2 
 PCOD9018688
Probable space group: P -1
;
_chemical_formula_sum "Si O2"
_cell_formula_units_Z 16
_cell_length_a 9.081086
_cell_length_b 9.735743
_cell_length_c 10.942189
_cell_angle_alpha 87.293332
_cell_angle_beta 133.632445
_cell_angle_gamma 94.403509
_cell_volume 698.104897
_symmetry_space_group_name_H-M "P -1"
_symmetry_group_IT_number 2
_symmetry_cell_setting 'triclinic'
loop_
_space_group_symop_operation_xyz
x,y,z
-x,-y,-z
loop_
_atom_site_type_symbol
_atom_site_label
_atom_site_fract_x
_atom_site_fract_y
_atom_site_fract_z
Si Si1 0.711284 0.528413 0.545878
Si Si2 0.261867 0.710768 0.601220
Si Si3 0.061485 0.614945 0.930426
Si Si4 0.691238 0.111453 0.960177
Si Si5 0.713251 0.839799 0.131099
Si Si6 0.858247 0.772127 0.480355
Si Si7 0.613877 0.576492 0.953883
Si Si8 0.601597 0.987485 0.426354
O O1 0.500000 0.500000 0.500000
O O2 0.793066 0.390970 0.538891
O O3 0.705867 0.639616 0.428179
O O4 0.881306 0.598002 0.729686
O O5 0.460261 0.645215 0.772266
O O6 0.086127 0.720524 0.602652
O O7 0.320612 0.862461 0.581055
O O8 0.129210 0.775805 0.976710
O O9 0.269856 0.549168 0.021842
O O10 0.000000 0.500000 0.000000
O O11 0.525588 0.162315 0.962964
O O12 0.562286 0.071814 0.765742
O O13 0.762842 0.973958 0.072123
O O14 0.827824 0.834564 0.325556
O O15 0.751836 0.704268 0.081717
O O16 0.789547 0.887431 0.530014
O O17 0.500000 0.500000 0.000000
O O18 0.500000 0.000000 0.500000
#
# Coordination Sequence:
#
# PCOD9018688 Si02
#       8
#     2   2   2   2   2   2   2   2
#     4  12  27  47  72 106 152 193 246 302 371 443
#     4  12  25  44  71 111 146 187 248 299 366 440
#     4  12  28  45  72 102 146 194 241 296 363 441
#     4  10  23  45  72 107 140 188 247 298 362 438
#     4  10  21  43  75 104 142 184 241 301 360 427
#     4  11  25  44  74 108 145 193 246 305 366 437
#     4  12  22  42  74 104 141 187 236 297 359 428
#     4  11  25  45  75 105 151 195 238 305 376 439
#
# _framework density 22.919193
#
# number of rings (size 3 to 8) (size 9 to 14) (size 15 to 20)
#    0.000    0.750    2.500    4.500    7.000    1.000 
#    0.000    0.625    0.000    0.000    0.000    0.000 
#    0.000    0.000    0.000    0.000    0.000    0.000 
#
# Total GULP energy -89401.055879 kJ/mol
# GULP energy per Si atom -5587.565992 kJ/mol
# Density = 2.286703 g / cm^3
# Si number density = 22.919193 Si / 1000 Ang^3
#
#
#
# Elastic Constant Matrix: (Units=GPa)
#
#
# Indices 1 2 3 4 5 6 
#
# 1 90.4773 49.1131 30.7016 -2.3053 -3.3986 33.6441
# 2 49.1131 180.3822 31.4644 8.5694 -2.5518 22.0786
# 3 30.7016 31.4644 77.7522 5.2100 -0.6172 2.3387
# 4 -2.3053 8.5694 5.2100 32.3171 -4.2131 2.5531
# 5 -3.3986 -2.5518 -0.6172 -4.2131 25.5922 -4.7603
# 6 33.6441 22.0786 2.3387 2.5531 -4.7603 40.2671
#
#
#
# Elastic Compliance Matrix: (Units=1/GPa)
#
#
# Indices 1 2 3 4 5 6 
#
# 1 0.020937 -0.002760 -0.006982 0.004623 0.000150 -0.015850
# 2 -0.002760 0.006788 -0.001508 -0.001686 -0.000236 -0.001249
# 3 -0.006982 -0.001508 0.016265 -0.003202 -0.000114 0.005906
# 4 0.004623 -0.001686 -0.003202 0.033231 0.005046 -0.004263
# 5 0.000150 -0.000236 -0.000114 0.005046 0.040737 0.004507
# 6 -0.015850 -0.001249 0.005906 -0.004263 0.004507 0.039222
#
#
# Mechanical properties :
#
#
# Convention : Reuss Voigt Hill
#
# Bulk Modulus (GPa) = 46.53641 63.46330 54.99985
# Shear Modulus (GPa) = 26.76010 35.45744 31.10877
#
# Velocity S-wave (km/s) = 3.42070 3.93754 3.68818
# Velocity P-wave (km/s) = 5.99585 6.95862 6.49510
#
# Compressibility (1/GPa) = 0.02148855
#
# Stress axis : x y z
#
# Youngs Moduli (GPa) = 47.76136 147.31751 61.48232
#
# Poissons Ratio (x) = 0.40663 0.42929
# Poissons Ratio (y) = 0.13183 0.09274
# Poissons Ratio (z) = 0.33348 0.22221
#
# Static dielectric constant tensor:
#      x y z
#    x 1.763410 -0.064950 0.053920 
#    y -0.064950 1.816490 0.048860 
#    z 0.053920 0.048860 1.879480 
# 
# From -- ./inp_files/382126.got.cif
#   From: 2010.05.17/outbox.cif.g08.bks.cpg/sg2_192_cif.got.tgz:382126.got - 2010.06.03 11:33:40.
