data_PCOD9018818
_publ_section_title
;
Structure prediction by ZEFSAII (Michael W. Deem and Ramdas Pophale) SiO2 
 PCOD9018818
Probable space group: P -1
;
_chemical_formula_sum "Si O2"
_cell_formula_units_Z 16
_cell_length_a 23.989500
_cell_length_b 9.120364
_cell_length_c 5.653111
_cell_angle_alpha 122.704870
_cell_angle_beta 52.083151
_cell_angle_gamma 132.651041
_cell_volume 701.100138
_symmetry_space_group_name_H-M "P -1"
_symmetry_group_IT_number 2
_symmetry_cell_setting 'triclinic'
loop_
_space_group_symop_operation_xyz
x,y,z
-x,-y,-z
loop_
_atom_site_type_symbol
_atom_site_label
_atom_site_fract_x
_atom_site_fract_y
_atom_site_fract_z
Si Si1 0.848890 0.328433 0.445039
Si Si2 0.125317 0.062123 0.233988
Si Si3 0.459151 0.252837 0.381066
Si Si4 0.564964 0.090651 0.201317
Si Si5 0.275461 0.034830 0.866811
Si Si6 0.103761 0.379250 0.789445
Si Si7 0.745775 0.326306 0.080460
Si Si8 0.057765 0.830625 0.703878
O O1 0.904135 0.452220 0.186579
O O2 0.907182 0.317617 0.477987
O O3 0.773467 0.117454 0.356067
O O4 0.797707 0.411668 0.780526
O O5 0.082034 0.918215 0.453823
O O6 0.094893 0.217908 0.481477
O O7 0.100610 0.972077 0.953567
O O8 0.222548 0.145203 0.108718
O O9 0.500000 0.500000 0.500000
O O10 0.529173 0.204180 0.238965
O O11 0.373496 0.162851 0.675313
O O12 0.429489 0.096192 0.094238
O O13 0.652912 0.259046 0.221052
O O14 0.500000 0.000000 0.500000
O O15 0.257999 0.879608 0.994626
O O16 0.198676 0.498704 0.728200
O O17 0.038262 0.271743 0.073371
#
# Coordination Sequence:
#
# PCOD9018818 Si02
#       8
#     2   2   2   2   2   2   2   2
#     4  10  22  41  66  93 129 183 224 280 346 410
#     4  11  25  43  69  99 141 186 231 295 356 417
#     4  11  25  44  72 104 139 182 236 294 366 435
#     4  11  24  45  72  98 140 179 230 300 355 432
#     4  10  21  44  64  95 134 175 222 287 348 425
#     4  11  26  39  67 100 134 175 236 290 346 427
#     4  11  22  42  67  92 133 177 226 280 356 415
#     4  11  24  45  66  98 140 187 233 291 354 415
#
# _framework density 22.821278
#
# number of rings (size 3 to 8) (size 9 to 14) (size 15 to 20)
#    0.000    1.250    3.750    1.125    3.500    3.000 
#    4.500    0.000    0.000    0.000    0.000    0.000 
#    0.000    0.000    0.000    0.000    0.000    0.000 
#
# Total GULP energy -89112.468466 kJ/mol
# GULP energy per Si atom -5569.529279 kJ/mol
# Density = 2.276934 g / cm^3
# Si number density = 22.821278 Si / 1000 Ang^3
#
#
#
# Elastic Constant Matrix: (Units=GPa)
#
#
# Indices 1 2 3 4 5 6 
#
# 1 104.3322 24.0023 7.7857 -6.5520 -10.8242 21.8807
# 2 24.0023 64.8391 26.3391 -2.8766 -8.2078 -0.2564
# 3 7.7857 26.3391 87.2281 -12.0582 -11.5720 1.4689
# 4 -6.5520 -2.8766 -12.0582 28.5127 4.4998 0.8442
# 5 -10.8242 -8.2078 -11.5720 4.4998 37.8481 -12.7549
# 6 21.8807 -0.2564 1.4689 0.8442 -12.7549 21.8249
#
#
#
# Elastic Compliance Matrix: (Units=1/GPa)
#
#
# Indices 1 2 3 4 5 6 
#
# 1 0.014231 -0.005907 0.000962 0.004013 -0.002864 -0.016230
# 2 -0.005907 0.020345 -0.005544 -0.002626 0.004453 0.009239
# 3 0.000962 -0.005544 0.014127 0.005258 0.002529 -0.000705
# 4 0.004013 -0.002626 0.005258 0.039100 -0.005551 -0.009165
# 5 -0.002864 0.004453 0.002529 -0.005551 0.036114 0.024074
# 6 -0.016230 0.009239 -0.000705 -0.009165 0.024074 0.076671
#
#
# Mechanical properties :
#
#
# Convention : Reuss Voigt Hill
#
# Bulk Modulus (GPa) = 36.07012 41.40594 38.73803
# Shear Modulus (GPa) = 21.66293 30.85530 26.25912
#
# Velocity S-wave (km/s) = 3.08432 3.68100 3.39579
# Velocity P-wave (km/s) = 5.34077 6.02074 5.69092
#
# Compressibility (1/GPa) = 0.02772378
#
# Stress axis : x y z
#
# Youngs Moduli (GPa) = 70.27023 49.15117 70.78845
#
# Poissons Ratio (x) = 0.29035 -0.06808
# Poissons Ratio (y) = 0.41511 0.39245
# Poissons Ratio (z) = -0.06758 0.27249
#
# Static dielectric constant tensor:
#      x y z
#    x 1.837610 -0.113320 -0.068460 
#    y -0.113320 1.823890 -0.043890 
#    z -0.068460 -0.043890 1.800950 
# 
# From -- ./inp_files/112382.got.cif
#   From: 2010.05.17/outbox.cif.g08.bks.cpg/sg2_57_cif.got.tgz:112382.got - 2010.06.03 11:33:40.
