data_PCOD9018621
_publ_section_title
;
Structure prediction by ZEFSAII (Michael W. Deem and Ramdas Pophale) SiO2 
 PCOD9018621
Probable space group: P -1
;
_chemical_formula_sum "Si O2"
_cell_formula_units_Z 16
_cell_length_a 11.669433
_cell_length_b 8.869650
_cell_length_c 21.142043
_cell_angle_alpha 27.821035
_cell_angle_beta 38.269445
_cell_angle_gamma 46.300208
_cell_volume 632.504497
_symmetry_space_group_name_H-M "P -1"
_symmetry_group_IT_number 2
_symmetry_cell_setting 'triclinic'
loop_
_space_group_symop_operation_xyz
x,y,z
-x,-y,-z
loop_
_atom_site_type_symbol
_atom_site_label
_atom_site_fract_x
_atom_site_fract_y
_atom_site_fract_z
Si Si1 0.506985 0.621991 0.150571
Si Si2 0.409577 0.428211 0.134037
Si Si3 0.847386 0.185889 0.040492
Si Si4 0.974602 0.239756 0.796727
Si Si5 0.945596 0.291385 0.303413
Si Si6 0.081601 0.439694 0.419660
Si Si7 0.589741 0.349565 0.345224
Si Si8 0.522814 0.250320 0.641686
O O1 0.545886 0.475538 0.118484
O O2 0.302081 0.489987 0.305085
O O3 0.621617 0.525354 0.198731
O O4 0.500000 0.000000 0.000000
O O5 0.240888 0.679297 0.124401
O O6 0.339586 0.055150 0.309552
O O7 0.500000 0.500000 0.000000
O O8 0.663881 0.973367 0.188483
O O9 0.937253 0.103755 0.099173
O O10 0.878561 0.548310 0.868336
O O11 0.000000 0.000000 0.000000
O O12 0.000819 0.313041 0.685713
O O13 0.078133 0.506119 0.697046
O O14 0.773909 0.319150 0.319164
O O15 0.965061 0.920400 0.447243
O O16 0.000000 0.500000 0.500000
O O17 0.458821 0.555236 0.372958
O O18 0.500000 0.000000 0.500000
O O19 0.500000 0.500000 0.500000
#
# Coordination Sequence:
#
# PCOD9018621 Si02
#       8
#     2   2   2   2   2   2   2   2
#     4  11  26  45  71 101 146 193 231 293 375 428
#     4  11  24  44  72 109 139 183 246 301 355 427
#     4  10  21  43  73 101 133 183 240 288 352 418
#     4  10  23  44  75 100 141 186 238 297 358 419
#     4  11  23  44  75 101 135 189 245 288 356 429
#     4  11  26  46  68 104 144 189 238 293 361 432
#     4  12  24  46  71  99 147 191 234 295 368 433
#     4  12  26  42  73 109 143 183 246 299 353 432
#
# _framework density 25.296261999999999
#
# number of rings (size 3 to 8) (size 9 to 14) (size 15 to 20)
#    0.000    1.000    3.750    3.375    5.250    5.000 
#    2.250    0.625    0.000    0.000    0.000    0.000 
#    0.000    0.000    0.000    0.000    0.000    0.000 
#
# Total GULP energy -89472.022521 kJ/mol
# GULP energy per Si atom -5592.001408 kJ/mol
# Density = 2.523869 g / cm^3
# Si number density = 25.296262 Si / 1000 Ang^3
#
#
#
# Elastic Constant Matrix: (Units=GPa)
#
#
# Indices 1 2 3 4 5 6 
#
# 1 120.0204 -0.8655 6.1305 19.1445 14.6569 20.1018
# 2 -0.8655 64.6031 14.0957 5.2101 -4.1717 34.2464
# 3 6.1305 14.0957 123.3009 7.3758 5.7751 4.0910
# 4 19.1445 5.2101 7.3758 47.5786 5.0806 5.5555
# 5 14.6569 -4.1717 5.7751 5.0806 61.1135 9.5296
# 6 20.1018 34.2464 4.0910 5.5555 9.5296 49.2179
#
#
#
# Elastic Compliance Matrix: (Units=1/GPa)
#
#
# Indices 1 2 3 4 5 6 
#
# 1 0.010077 0.003685 -0.000466 -0.003584 -0.000877 -0.006067
# 2 0.003685 0.027975 -0.002768 -0.002128 0.004806 -0.021431
# 3 -0.000466 -0.002768 0.008498 -0.000913 -0.001073 0.001721
# 4 -0.003584 -0.002128 -0.000913 0.022885 -0.001206 0.000671
# 5 -0.000877 0.004806 -0.001073 -0.001206 0.018079 -0.006261
# 6 -0.006067 -0.021431 0.001721 0.000671 -0.006261 0.038701
#
#
# Mechanical properties :
#
#
# Convention : Reuss Voigt Hill
#
# Bulk Modulus (GPa) = 21.07371 38.51621 29.79496
# Shear Modulus (GPa) = 35.42836 50.81956 43.12396
#
# Velocity S-wave (km/s) = 3.74644 4.48702 4.13335
# Velocity P-wave (km/s) = 5.20223 6.48873 5.88077
#
# Compressibility (1/GPa) = 0.04745250
#
# Stress axis : x y z
#
# Youngs Moduli (GPa) = 99.23385 35.74632 117.68006
#
# Poissons Ratio (x) = -0.13172 0.05478
# Poissons Ratio (y) = -0.36567 0.32575
# Poissons Ratio (z) = 0.04620 0.09895
#
# Static dielectric constant tensor:
#      x y z
#    x 2.219210 -0.208540 0.092610 
#    y -0.208540 2.260100 -0.022150 
#    z 0.092610 -0.022150 2.086700 
# 
# From -- ./inp_files/593345.got.cif
#   From: 2010.05.17/outbox.cif.g08.bks.cpg/sg2_297_cif.got.tgz:593345.got - 2010.06.03 11:33:40.
