data_PCOD9018249
_publ_section_title
;
Structure prediction by ZEFSAII (Michael W. Deem and Ramdas Pophale) SiO2 
 PCOD9018249
Probable space group: P -1
;
_chemical_formula_sum "Si O2"
_cell_formula_units_Z 15
_cell_length_a 26.799979
_cell_length_b 8.421938
_cell_length_c 14.131524
_cell_angle_alpha 56.544091
_cell_angle_beta 26.514674
_cell_angle_gamma 37.287206
_cell_volume 693.990504
_symmetry_space_group_name_H-M "P -1"
_symmetry_group_IT_number 2
_symmetry_cell_setting 'triclinic'
loop_
_space_group_symop_operation_xyz
x,y,z
-x,-y,-z
loop_
_atom_site_type_symbol
_atom_site_label
_atom_site_fract_x
_atom_site_fract_y
_atom_site_fract_z
Si Si1 0.128428 0.827569 0.615939
Si Si2 0.006147 0.564280 0.363449
Si Si3 0.294824 0.146356 0.866704
Si Si4 0.213992 0.963018 0.899553
Si Si5 0.595901 0.249487 0.538519
Si Si6 0.721293 0.474250 0.337738
Si Si7 0.604690 0.057529 0.794339
Si Si8 0.500000 0.500000 0.000000
O O1 0.160235 0.743160 0.700594
O O2 0.328227 0.594032 0.300434
O O3 0.012418 0.183621 0.684580
O O4 0.993608 0.842882 0.806055
O O5 0.000000 0.500000 0.500000
O O6 0.202236 0.223893 0.097218
O O7 0.828217 0.732735 0.549678
O O8 0.202758 0.469354 0.879394
O O9 0.245500 0.060323 0.900538
O O10 0.521717 0.841024 0.592499
O O11 0.380973 0.572325 0.756698
O O12 0.265870 0.998726 0.701313
O O13 0.671447 0.354365 0.404664
O O14 0.591701 0.141943 0.679207
O O15 0.528783 0.321950 0.911725
O O16 0.500000 0.000000 0.000000
#
# Coordination Sequence:
#
# PCOD9018249 Si02
#       8
#     2   2   2   2   2   2   2   1
#     4  11  24  42  70  95 130 186 217 283 341 413
#     4  11  26  44  64  97 132 174 230 280 335 411
#     4  10  24  42  65 103 127 172 223 286 338 409
#     4  10  24  39  70  99 133 169 222 290 338 402
#     4  10  21  46  63  99 135 174 223 277 348 405
#     4  10  21  43  69  89 136 173 219 277 345 403
#     4  11  26  44  70  95 138 188 225 286 339 415
#     4  10  24  46  64 102 132 184 232 272 346 408
#
# _framework density 21.614128000000001
#
# number of rings (size 3 to 8) (size 9 to 14) (size 15 to 20)
#    0.000    1.600    2.667    0.800    9.333    3.733 
#    0.000    1.333    0.000    0.000    0.000    0.000 
#    0.000    0.000    0.000    0.000    0.000    0.000 
#
# Total GULP energy -83551.923068 kJ/mol
# GULP energy per Si atom -5570.128205 kJ/mol
# Density = 2.156493 g / cm^3
# Si number density = 21.614128 Si / 1000 Ang^3
#
#
#
# Elastic Constant Matrix: (Units=GPa)
#
#
# Indices 1 2 3 4 5 6 
#
# 1 65.1187 28.2161 40.7428 -21.1287 12.8909 -19.1387
# 2 28.2161 65.2084 12.8401 -19.4864 9.3010 -10.1902
# 3 40.7428 12.8401 112.8479 -19.9371 18.8258 1.7380
# 4 -21.1287 -19.4864 -19.9371 27.0015 0.6163 -0.5052
# 5 12.8909 9.3010 18.8258 0.6163 51.9109 -5.3540
# 6 -19.1387 -10.1902 1.7380 -0.5052 -5.3540 26.2574
#
#
#
# Elastic Compliance Matrix: (Units=1/GPa)
#
#
# Indices 1 2 3 4 5 6 
#
# 1 0.038144 -0.003919 -0.009667 0.020445 -0.002747 0.026755
# 2 -0.003919 0.022335 0.001944 0.014663 -0.003363 0.005279
# 3 -0.009667 0.001944 0.013538 0.003771 -0.003714 -0.007873
# 4 0.020445 0.014663 0.003771 0.066952 -0.007800 0.020040
# 5 -0.002747 -0.003363 -0.003714 -0.007800 0.022122 0.001299
# 6 0.026755 0.005279 -0.007873 0.020040 0.001299 0.060806
#
#
# Mechanical properties :
#
#
# Convention : Reuss Voigt Hill
#
# Bulk Modulus (GPa) = 19.71162 45.19701 32.45432
# Shear Modulus (GPa) = 18.93268 31.79237 25.36252
#
# Velocity S-wave (km/s) = 2.96284 3.83940 3.42924
# Velocity P-wave (km/s) = 4.56554 6.37267 5.54324
#
# Compressibility (1/GPa) = 0.05073149
#
# Stress axis : x y z
#
# Youngs Moduli (GPa) = 26.21622 44.77297 73.86719
#
# Poissons Ratio (x) = 0.17547 0.71411
# Poissons Ratio (y) = 0.10275 -0.14359
# Poissons Ratio (z) = 0.25345 -0.08704
#
# Static dielectric constant tensor:
#      x y z
#    x 1.626180 -0.035230 0.132320 
#    y -0.035230 1.823780 0.057460 
#    z 0.132320 0.057460 1.695480 
# 
# From -- ./inp_files/474148.got.cif
#   From: 2010.05.17/outbox.cif.g08.bks.cpg/sg2_238_cif.got.tgz:474148.got - 2010.06.03 11:33:40.
