data_PCOD9018394
_publ_section_title
;
Structure prediction by ZEFSAII (Michael W. Deem and Ramdas Pophale) SiO2 
 PCOD9018394
Probable space group: P -1
;
_chemical_formula_sum "Si O2"
_cell_formula_units_Z 12
_cell_length_a 9.316596
_cell_length_b 8.643814
_cell_length_c 8.350073
_cell_angle_alpha 67.292783
_cell_angle_beta 113.476194
_cell_angle_gamma 91.748971
_cell_volume 562.902247
_symmetry_space_group_name_H-M "P -1"
_symmetry_group_IT_number 2
_symmetry_cell_setting 'triclinic'
loop_
_space_group_symop_operation_xyz
x,y,z
-x,-y,-z
loop_
_atom_site_type_symbol
_atom_site_label
_atom_site_fract_x
_atom_site_fract_y
_atom_site_fract_z
Si Si1 0.983985 0.483422 0.306961
Si Si2 0.344349 0.431122 0.019310
Si Si3 0.416502 0.617597 0.278210
Si Si4 0.630992 0.840245 0.100959
Si Si5 0.950095 0.856378 0.425048
Si Si6 0.896917 0.176291 0.821135
O O1 0.075190 0.296012 0.403971
O O2 0.030002 0.650006 0.177610
O O3 0.000000 0.500000 0.500000
O O4 0.806490 0.474999 0.178959
O O5 0.336733 0.493438 0.173332
O O6 0.500000 0.500000 0.000000
O O7 0.350339 0.236586 0.040273
O O8 0.500000 0.500000 0.500000
O O9 0.558296 0.695308 0.224013
O O10 0.281862 0.771475 0.214860
O O11 0.793172 0.880353 0.235200
O O12 0.500000 0.000000 0.000000
O O13 0.089379 0.827069 0.364566
O O14 0.000000 0.000000 0.500000
O O15 0.000000 0.000000 0.000000
#
# Coordination Sequence:
#
# PCOD9018394 Si02
#       6
#     2   2   2   2   2   2
#     4  10  21  43  70  91 133 179 230 267 335 409
#     4  10  23  41  71  94 132 179 228 268 341 407
#     4  11  26  43  68 100 138 175 224 287 347 395
#     4  11  23  45  68  98 133 179 227 274 335 416
#     4  11  25  43  71  98 133 182 232 273 332 418
#     4  11  24  44  66 102 140 168 228 290 343 390
#
# _framework density 21.318090999999999
#
# number of rings (size 3 to 8) (size 9 to 14) (size 15 to 20)
#    0.000    1.333    3.333    2.000   14.000    0.667 
#    3.000    1.667    0.000    0.000    0.000    0.000 
#    0.000    0.000    0.000    0.000    0.000    0.000 
#
# Total GULP energy -66826.224161 kJ/mol
# GULP energy per Si atom -5568.852013 kJ/mol
# Density = 2.126957 g / cm^3
# Si number density = 21.318091 Si / 1000 Ang^3
#
#
#
# Elastic Constant Matrix: (Units=GPa)
#
#
# Indices 1 2 3 4 5 6 
#
# 1 80.6986 23.8809 24.9234 16.4819 7.6233 -4.3696
# 2 23.8809 160.5395 61.9174 13.4535 3.2507 -6.8937
# 3 24.9234 61.9174 119.0784 7.6869 13.4626 -1.3175
# 4 16.4819 13.4535 7.6869 50.6368 11.7148 -0.4163
# 5 7.6233 3.2507 13.4626 11.7148 34.3010 -2.0212
# 6 -4.3696 -6.8937 -1.3175 -0.4163 -2.0212 42.7946
#
#
#
# Elastic Compliance Matrix: (Units=1/GPa)
#
#
# Indices 1 2 3 4 5 6 
#
# 1 0.014257 -0.000896 -0.002160 -0.003869 -0.000846 0.001167
# 2 -0.000896 0.008090 -0.004090 -0.001610 0.001655 0.001148
# 3 -0.002160 -0.004090 0.011354 0.000977 -0.003964 -0.000707
# 4 -0.003869 -0.001610 0.000977 0.022960 -0.007256 -0.000744
# 5 -0.000846 0.001655 -0.003964 -0.007256 0.033311 0.001561
# 6 0.001167 0.001148 -0.000707 -0.000744 0.001561 0.023716
#
#
# Mechanical properties :
#
#
# Convention : Reuss Voigt Hill
#
# Bulk Modulus (GPa) = 51.51982 64.63998 58.07990
# Shear Modulus (GPa) = 37.18851 42.18614 39.68732
#
# Velocity S-wave (km/s) = 4.18120 4.45330 4.31939
# Velocity P-wave (km/s) = 6.89417 7.53856 7.22356
#
# Compressibility (1/GPa) = 0.01941001
#
# Stress axis : x y z
#
# Youngs Moduli (GPa) = 70.13871 123.60349 88.07780
#
# Poissons Ratio (x) = 0.11080 0.19022
# Poissons Ratio (y) = 0.06287 0.36021
# Poissons Ratio (z) = 0.15148 0.50549
#
# Static dielectric constant tensor:
#      x y z
#    x 1.855890 0.001300 -0.045210 
#    y 0.001300 1.889590 -0.066630 
#    z -0.045210 -0.066630 1.734760 
# 
# From -- ./inp_files/153530.got.cif
#   From: 2010.05.17/outbox.cif.g08.bks.cpg/sg2_77_cif.got.tgz:153530.got - 2010.06.03 11:33:40.
