data_PCOD9018269
_publ_section_title
;
Structure prediction by ZEFSAII (Michael W. Deem and Ramdas Pophale) SiO2 
 PCOD9018269
Probable space group: P -1
;
_chemical_formula_sum "Si O2"
_cell_formula_units_Z 16
_cell_length_a 19.725823
_cell_length_b 8.545034
_cell_length_c 16.480108
_cell_angle_alpha 46.173142
_cell_angle_beta 157.562482
_cell_angle_gamma 143.323917
_cell_volume 618.574347
_symmetry_space_group_name_H-M "P -1"
_symmetry_group_IT_number 2
_symmetry_cell_setting 'triclinic'
loop_
_space_group_symop_operation_xyz
x,y,z
-x,-y,-z
loop_
_atom_site_type_symbol
_atom_site_label
_atom_site_fract_x
_atom_site_fract_y
_atom_site_fract_z
Si Si1 0.534925 0.967894 0.252655
Si Si2 0.604372 0.545005 0.512723
Si Si3 0.117792 0.401418 0.586608
Si Si4 0.336256 0.028351 0.150523
Si Si5 0.735145 0.369829 0.078883
Si Si6 0.061109 0.070170 0.338933
Si Si7 0.336647 0.343247 0.708001
Si Si8 0.809004 0.870974 0.900294
O O1 0.679494 0.846745 0.453861
O O2 0.358633 0.801811 0.046746
O O3 0.685316 0.284853 0.296384
O O4 0.433270 0.894324 0.257779
O O5 0.500000 0.500000 0.500000
O O6 0.843548 0.649368 0.716173
O O7 0.416810 0.320353 0.329369
O O8 0.222206 0.285465 0.688371
O O9 0.984399 0.760252 0.385913
O O10 0.917480 0.357855 0.327978
O O11 0.536928 0.337684 0.278417
O O12 0.215382 0.942748 0.134138
O O13 0.190925 0.036408 0.918661
O O14 0.518061 0.282991 0.920894
O O15 0.839103 0.678329 0.058344
O O16 0.170363 0.204761 0.499122
O O17 0.000000 0.000000 0.000000
#
# Coordination Sequence:
#
# PCOD9018269 Si02
#       8
#     2   2   2   2   2   2   2   2
#     4  10  23  45  64 104 134 171 233 271 335 410
#     4  11  24  45  69  95 133 172 225 288 332 403
#     4  11  26  40  68 103 139 180 229 271 334 412
#     4  10  22  41  68  93 136 178 221 281 333 399
#     4  10  22  44  66  96 140 179 217 286 336 395
#     4  12  23  43  67  99 136 180 224 272 344 397
#     4  10  22  44  61  96 141 177 228 270 332 400
#     4  10  21  43  69  94 128 179 227 276 344 398
#
# _framework density 25.865929999999999
#
# number of rings (size 3 to 8) (size 9 to 14) (size 15 to 20)
#    0.000    1.500    3.750    1.875    5.250    4.000 
#    2.250    7.500    0.000    0.000    0.000    0.000 
#    0.000    0.000    0.000    0.000    0.000    0.000 
#
# Total GULP energy -89323.094729 kJ/mol
# GULP energy per Si atom -5582.693421 kJ/mol
# Density = 2.580706 g / cm^3
# Si number density = 25.865930 Si / 1000 Ang^3
#
#
#
# Elastic Constant Matrix: (Units=GPa)
#
#
# Indices 1 2 3 4 5 6 
#
# 1 199.5071 45.3386 28.3160 3.9452 37.8082 -17.3236
# 2 45.3386 85.7985 32.8899 10.0702 6.9628 -14.9374
# 3 28.3160 32.8899 83.8153 10.8095 -4.5397 -12.1623
# 4 3.9452 10.0702 10.8095 33.8783 0.4387 6.1059
# 5 37.8082 6.9628 -4.5397 0.4387 30.9510 2.5804
# 6 -17.3236 -14.9374 -12.1623 6.1059 2.5804 45.0654
#
#
#
# Elastic Compliance Matrix: (Units=1/GPa)
#
#
# Indices 1 2 3 4 5 6 
#
# 1 0.007786 -0.002209 -0.001961 0.000091 -0.009492 0.002263
# 2 -0.002209 0.015785 -0.004529 -0.003643 -0.001778 0.003756
# 3 -0.001961 -0.004529 0.015472 -0.003816 0.005561 0.002119
# 4 0.000091 -0.003643 -0.003816 0.033010 0.000239 -0.006689
# 5 -0.009492 -0.001778 0.005561 0.000239 0.045565 -0.005379
# 6 0.002263 0.003756 0.002119 -0.006689 -0.005379 0.026091
#
#
# Mechanical properties :
#
#
# Convention : Reuss Voigt Hill
#
# Bulk Modulus (GPa) = 46.20256 64.69000 55.44628
# Shear Modulus (GPa) = 29.70520 39.48404 34.59462
#
# Velocity S-wave (km/s) = 3.39253 3.91127 3.66110
# Velocity P-wave (km/s) = 5.76600 6.74251 6.27328
#
# Compressibility (1/GPa) = 0.02164382
#
# Stress axis : x y z
#
# Youngs Moduli (GPa) = 128.43285 63.35285 64.63464
#
# Poissons Ratio (x) = 0.13995 0.12675
# Poissons Ratio (y) = 0.28372 0.29274
# Poissons Ratio (z) = 0.25186 0.28693
#
# Static dielectric constant tensor:
#      x y z
#    x 2.094300 -0.001240 0.051810 
#    y -0.001240 2.229360 -0.100720 
#    z 0.051810 -0.100720 2.049190 
# 
# From -- ./inp_files/601855.got.cif
#   From: 2010.05.17/outbox.cif.g08.bks.cpg/sg2_301_cif.got.tgz:601855.got - 2010.06.03 11:33:40.
