data_PCOD9018748
_publ_section_title
;
Structure prediction by ZEFSAII (Michael W. Deem and Ramdas Pophale) SiO2 
 PCOD9018748
Probable space group: P -1
;
_chemical_formula_sum "Si O2"
_cell_formula_units_Z 14
_cell_length_a 20.587863
_cell_length_b 6.371013
_cell_length_c 21.360864
_cell_angle_alpha 58.828956
_cell_angle_beta 18.724102
_cell_angle_gamma 47.876101
_cell_volume 579.970389
_symmetry_space_group_name_H-M "P -1"
_symmetry_group_IT_number 2
_symmetry_cell_setting 'triclinic'
loop_
_space_group_symop_operation_xyz
x,y,z
-x,-y,-z
loop_
_atom_site_type_symbol
_atom_site_label
_atom_site_fract_x
_atom_site_fract_y
_atom_site_fract_z
Si Si1 0.529490 0.723377 0.717609
Si Si2 0.769150 0.323210 0.435143
Si Si3 0.511550 0.232658 0.999135
Si Si4 0.281198 0.440273 0.797035
Si Si5 0.101492 0.265182 0.531726
Si Si6 0.771093 0.670656 0.275571
Si Si7 0.478462 0.785439 0.149507
O O1 0.697184 0.519999 0.534044
O O2 0.720547 0.671051 0.606748
O O3 0.399636 0.567020 0.881526
O O4 0.355402 0.097957 0.799558
O O5 0.494779 0.443991 0.634423
O O6 0.896617 0.405567 0.256772
O O7 0.926571 0.949921 0.364606
O O8 0.196803 0.410250 0.258608
O O9 0.648154 0.902260 0.964356
O O10 0.500000 0.500000 0.000000
O O11 0.609645 0.195238 0.844729
O O12 0.284687 0.443544 0.718272
O O13 0.982459 0.707175 0.055206
O O14 0.256662 0.037202 0.364630
O O15 0.500000 0.000000 0.500000
#
# Coordination Sequence:
#
# PCOD9018748 Si02
#       7
#     2   2   2   2   2   2   2
#     4  10  21  44  61  91 129 166 217 260 319 376
#     4  10  22  42  64  95 128 173 218 262 323 382
#     4  11  24  41  64  97 126 164 213 257 320 381
#     4  10  23  42  64  94 132 170 214 271 320 377
#     4  10  23  42  63  89 129 169 205 266 317 373
#     4  11  22  42  67  94 130 170 216 266 321 386
#     4  10  23  39  64  91 122 164 207 260 311 376
#
# _framework density 24.139163
#
# number of rings (size 3 to 8) (size 9 to 14) (size 15 to 20)
#    0.000    1.714    1.429    1.714    2.000    6.286 
#   10.286    0.000    0.000    0.000    0.000    0.000 
#    0.000    0.000    0.000    0.000    0.000    0.000 
#
# Total GULP energy -78225.750947 kJ/mol
# GULP energy per Si atom -5587.553639 kJ/mol
# Density = 2.408422 g / cm^3
# Si number density = 24.139163 Si / 1000 Ang^3
#
#
#
# Elastic Constant Matrix: (Units=GPa)
#
#
# Indices 1 2 3 4 5 6 
#
# 1 103.3315 28.5455 29.5337 -5.0826 32.5616 16.0670
# 2 28.5455 118.8280 -3.4713 -17.7134 23.7952 0.9196
# 3 29.5337 -3.4713 62.9720 4.0415 30.9021 8.1839
# 4 -5.0826 -17.7134 4.0415 25.4007 -9.4506 11.4251
# 5 32.5616 23.7952 30.9021 -9.4506 40.8109 -1.5493
# 6 16.0670 0.9196 8.1839 11.4251 -1.5493 45.0266
#
#
#
# Elastic Compliance Matrix: (Units=1/GPa)
#
#
# Indices 1 2 3 4 5 6 
#
# 1 0.014378 -0.001411 -0.001561 0.001070 -0.009425 -0.005414
# 2 -0.001411 0.011359 0.005595 0.004461 -0.008783 -0.002180
# 3 -0.001561 0.005595 0.032426 -0.010759 -0.029202 -0.003726
# 4 0.001070 0.004461 -0.010759 0.056327 0.017272 -0.012215
# 5 -0.009425 -0.008783 -0.029202 0.017272 0.063508 0.006653
# 6 -0.005414 -0.002180 -0.003726 -0.012215 0.006653 0.028191
#
#
# Mechanical properties :
#
#
# Convention : Reuss Voigt Hill
#
# Bulk Modulus (GPa) = 15.77081 43.81637 29.79359
# Shear Modulus (GPa) = 22.51459 37.61588 30.06523
#
# Velocity S-wave (km/s) = 3.05733 3.95180 3.53299
# Velocity P-wave (km/s) = 4.36010 6.24606 5.38627
#
# Compressibility (1/GPa) = 0.06340827
#
# Stress axis : x y z
#
# Youngs Moduli (GPa) = 69.55165 88.03904 30.83964
#
# Poissons Ratio (x) = 0.12421 0.04814
# Poissons Ratio (y) = 0.09813 -0.17255
# Poissons Ratio (z) = 0.10858 -0.49258
#
# Static dielectric constant tensor:
#      x y z
#    x 1.930430 -0.019020 -0.024290 
#    y -0.019020 1.999430 -0.004130 
#    z -0.024290 -0.004130 1.941870 
# 
# From -- ./inp_files/114462.got.cif
#   From: 2010.05.17/outbox.cif.g08.bks.cpg/sg2_58_cif.got.tgz:114462.got - 2010.06.03 11:33:40.
