data_PCOD9018936
_publ_section_title
;
Structure prediction by ZEFSAII (Michael W. Deem and Ramdas Pophale) SiO2 
 PCOD9018936
Probable space group: P -1
;
_chemical_formula_sum "Si O2"
_cell_formula_units_Z 15
_cell_length_a 8.010004
_cell_length_b 11.128991
_cell_length_c 7.883446
_cell_angle_alpha 67.089410
_cell_angle_beta 64.221249
_cell_angle_gamma 60.694452
_cell_volume 537.722316
_symmetry_space_group_name_H-M "P -1"
_symmetry_group_IT_number 2
_symmetry_cell_setting 'triclinic'
loop_
_space_group_symop_operation_xyz
x,y,z
-x,-y,-z
loop_
_atom_site_type_symbol
_atom_site_label
_atom_site_fract_x
_atom_site_fract_y
_atom_site_fract_z
Si Si1 0.500000 0.000000 0.500000
Si Si2 0.392391 0.819910 0.030894
Si Si3 0.327244 0.227027 0.737396
Si Si4 0.877629 0.436081 0.392401
Si Si5 0.718395 0.446808 0.809856
Si Si6 0.305753 0.656566 0.785646
Si Si7 0.762644 0.828319 0.692549
Si Si8 0.053310 0.094526 0.099879
O O1 0.541198 0.861210 0.427371
O O2 0.741834 0.924331 0.487844
O O3 0.523712 0.814078 0.143164
O O4 0.383267 0.668527 0.099868
O O5 0.166224 0.932575 0.088857
O O6 0.522907 0.862161 0.806048
O O7 0.223129 0.396841 0.683145
O O8 0.149011 0.174023 0.885614
O O9 0.873795 0.410580 0.608760
O O10 0.748531 0.372395 0.364759
O O11 0.105426 0.337410 0.293054
O O12 0.541931 0.591700 0.749038
O O13 0.772973 0.431268 0.993047
O O14 0.180030 0.815482 0.814284
O O15 0.850527 0.885196 0.775576
#
# Coordination Sequence:
#
# PCOD9018936 Si02
#       8
#     1   2   2   2   2   2   2   2
#     4  12  22  40  64 110 130 164 222 282 328 400
#     4  11  21  44  68  95 135 177 219 271 338 392
#     4  11  23  40  69  95 135 168 217 279 335 385
#     4  11  25  46  68  98 139 174 221 277 335 389
#     4  11  25  44  67  99 134 179 225 270 329 403
#     4  10  24  43  68  96 135 177 226 269 329 397
#     4  10  23  40  69 101 131 174 221 277 332 394
#     4  10  21  44  66  95 128 179 221 270 334 393
#
# _framework density 27.895437999999999
#
# number of rings (size 3 to 8) (size 9 to 14) (size 15 to 20)
#    0.000    1.333    4.000    1.200    3.733    4.800 
#    0.000    4.000    0.000    0.000    0.000    0.000 
#    0.000    0.000    0.000    0.000    0.000    0.000 
#
# Total GULP energy -83793.279060 kJ/mol
# GULP energy per Si atom -5586.218604 kJ/mol
# Density = 2.783195 g / cm^3
# Si number density = 27.895438 Si / 1000 Ang^3
#
#
#
# Elastic Constant Matrix: (Units=GPa)
#
#
# Indices 1 2 3 4 5 6 
#
# 1 73.9806 21.2214 7.0861 10.1664 2.4724 -17.4700
# 2 21.2214 211.7459 1.6960 8.3371 -3.4348 -17.1503
# 3 7.0861 1.6960 48.1042 12.0989 17.1719 6.2850
# 4 10.1664 8.3371 12.0989 44.8205 5.0687 5.6062
# 5 2.4724 -3.4348 17.1719 5.0687 38.4476 -0.4979
# 6 -17.4700 -17.1503 6.2850 5.6062 -0.4979 49.2687
#
#
#
# Elastic Compliance Matrix: (Units=1/GPa)
#
#
# Indices 1 2 3 4 5 6 
#
# 1 0.015918 -0.000937 -0.002374 -0.003608 0.000507 0.006036
# 2 -0.000937 0.004994 -0.000286 -0.000921 0.000776 0.001555
# 3 -0.002374 -0.000286 0.026932 -0.004908 -0.011306 -0.003933
# 4 -0.003608 -0.000921 -0.004908 0.025225 -0.001034 -0.003855
# 5 0.000507 0.000776 -0.011306 -0.001034 0.031262 0.002326
# 6 0.006036 0.001555 -0.003933 -0.003855 0.002326 0.023942
#
#
# Mechanical properties :
#
#
# Convention : Reuss Voigt Hill
#
# Bulk Modulus (GPa) = 24.60125 43.75972 34.18048
# Shear Modulus (GPa) = 33.55322 46.76249 40.15786
#
# Velocity S-wave (km/s) = 3.47193 4.09877 3.79830
# Velocity P-wave (km/s) = 4.99106 6.17422 5.61389
#
# Compressibility (1/GPa) = 0.04064835
#
# Stress axis : x y z
#
# Youngs Moduli (GPa) = 62.82379 200.25326 37.13046
#
# Poissons Ratio (x) = 0.18765 0.08814
# Poissons Ratio (y) = 0.05887 0.01064
# Poissons Ratio (z) = 0.14914 0.05737
#
# Static dielectric constant tensor:
#      x y z
#    x 2.129470 0.048480 -0.197250 
#    y 0.048480 2.001230 0.366330 
#    z -0.197250 0.366330 1.084650 
# 
# From -- ./inp_files/176007.got.cif
#   From: 2010.05.17/outbox.cif.g08.bks.cpg/sg2_89_cif.got.tgz:176007.got - 2010.06.03 11:33:40.
