data_PCOD9018238
_publ_section_title
;
Structure prediction by ZEFSAII (Michael W. Deem and Ramdas Pophale) SiO2 
 PCOD9018238
Probable space group: P -1
;
_chemical_formula_sum "Si O2"
_cell_formula_units_Z 14
_cell_length_a 8.246289
_cell_length_b 18.322903
_cell_length_c 9.891126
_cell_angle_alpha 136.924645
_cell_angle_beta 43.516405
_cell_angle_gamma 149.670432
_cell_volume 495.610632
_symmetry_space_group_name_H-M "P -1"
_symmetry_group_IT_number 2
_symmetry_cell_setting 'triclinic'
loop_
_space_group_symop_operation_xyz
x,y,z
-x,-y,-z
loop_
_atom_site_type_symbol
_atom_site_label
_atom_site_fract_x
_atom_site_fract_y
_atom_site_fract_z
Si Si1 0.782989 0.721864 0.256166
Si Si2 0.551177 0.863905 0.642548
Si Si3 0.810903 0.518802 0.310016
Si Si4 0.961913 0.594519 0.777898
Si Si5 0.142271 0.827477 0.472168
Si Si6 0.334835 0.226099 0.079913
Si Si7 0.307640 0.017536 0.984570
O O1 0.758765 0.841780 0.407117
O O2 0.408127 0.553821 0.247104
O O3 0.941493 0.766428 0.369545
O O4 0.963344 0.702297 0.014872
O O5 0.646350 0.906765 0.800471
O O6 0.182807 0.693633 0.648619
O O7 0.507179 0.972378 0.776036
O O8 0.500000 0.500000 0.500000
O O9 0.655575 0.403775 0.121182
O O10 0.882215 0.450343 0.285527
O O11 0.130954 0.697754 0.341314
O O12 0.908224 0.808446 0.700166
O O13 0.500000 0.000000 0.500000
O O14 0.402762 0.128983 0.958673
O O15 0.082653 0.139993 0.993047
#
# Coordination Sequence:
#
# PCOD9018238 Si02
#       7
#     2   2   2   2   2   2   2
#     4  11  26  46  69 107 143 191 240 303 359 445
#     4  11  22  44  70 103 145 192 239 299 367 424
#     4  10  22  44  75 101 136 195 242 295 360 429
#     4  11  25  47  71 105 147 186 251 296 363 438
#     4  11  25  44  69 105 146 184 237 305 371 425
#     4  10  21  43  69 105 139 189 249 293 356 434
#     4  10  22  38  70 105 138 187 242 294 348 432
#
# _framework density 28.247980999999999
#
# number of rings (size 3 to 8) (size 9 to 14) (size 15 to 20)
#    0.000    1.429    2.857    1.286    8.000    0.571 
#    5.143    3.571    0.000    0.000    0.000    0.000 
#    0.000    0.000    0.000    0.000    0.000    0.000 
#
# Total GULP energy -78536.648152 kJ/mol
# GULP energy per Si atom -5609.760582 kJ/mol
# Density = 2.818369 g / cm^3
# Si number density = 28.247981 Si / 1000 Ang^3
#
#
#
# Elastic Constant Matrix: (Units=GPa)
#
#
# Indices 1 2 3 4 5 6 
#
# 1 99.6143 34.5766 55.7763 14.2374 -17.3643 8.0574
# 2 34.5766 187.1178 57.3255 35.4239 -6.4755 16.7656
# 3 55.7763 57.3255 222.8004 28.2939 -23.1748 -0.0232
# 4 14.2374 35.4239 28.2939 58.1640 -3.7364 -4.3446
# 5 -17.3643 -6.4755 -23.1748 -3.7364 54.9743 20.2481
# 6 8.0574 16.7656 -0.0232 -4.3446 20.2481 54.3771
#
#
#
# Elastic Compliance Matrix: (Units=1/GPa)
#
#
# Indices 1 2 3 4 5 6 
#
# 1 0.012867 -0.000956 -0.002378 -0.001392 0.004044 -0.003230
# 2 -0.000956 0.006737 -0.000965 -0.003537 0.000766 -0.002504
# 3 -0.002378 -0.000965 0.005670 -0.001497 0.001422 0.000003
# 4 -0.001392 -0.003537 -0.001497 0.020586 -0.001357 0.003447
# 5 0.004044 0.000766 0.001422 -0.001357 0.023657 -0.009753
# 6 -0.003230 -0.002504 0.000003 0.003447 -0.009753 0.023548
#
#
# Mechanical properties :
#
#
# Convention : Reuss Voigt Hill
#
# Bulk Modulus (GPa) = 59.96962 89.43214 74.70088
# Shear Modulus (GPa) = 46.63145 57.62669 52.12907
#
# Velocity S-wave (km/s) = 4.06740 4.52157 4.30048
# Velocity P-wave (km/s) = 6.58286 7.68035 7.15269
#
# Compressibility (1/GPa) = 0.01667511
#
# Stress axis : x y z
#
# Youngs Moduli (GPa) = 77.71593 148.42905 176.36493
#
# Poissons Ratio (x) = 0.14194 0.41942
# Poissons Ratio (y) = 0.07432 0.17026
# Poissons Ratio (z) = 0.18482 0.14329
#
# Static dielectric constant tensor:
#      x y z
#    x 2.188270 0.039620 -0.036380 
#    y 0.039620 2.261570 -0.058600 
#    z -0.036380 -0.058600 2.260900 
# 
# From -- ./inp_files/404897.got.cif
#   From: 2010.05.17/outbox.cif.g08.bks.cpg/sg2_203_cif.got.tgz:404897.got - 2010.06.03 11:33:40.
