data_PCOD9018690
_publ_section_title
;
Structure prediction by ZEFSAII (Michael W. Deem and Ramdas Pophale) SiO2 
 PCOD9018690
Probable space group: P -1
;
_chemical_formula_sum "Si O2"
_cell_formula_units_Z 14
_cell_length_a 15.032552
_cell_length_b 8.688709
_cell_length_c 12.893060
_cell_angle_alpha 55.657544
_cell_angle_beta 156.324939
_cell_angle_gamma 123.280266
_cell_volume 555.715780
_symmetry_space_group_name_H-M "P -1"
_symmetry_group_IT_number 2
_symmetry_cell_setting 'triclinic'
loop_
_space_group_symop_operation_xyz
x,y,z
-x,-y,-z
loop_
_atom_site_type_symbol
_atom_site_label
_atom_site_fract_x
_atom_site_fract_y
_atom_site_fract_z
Si Si1 0.208203 0.472243 0.538684
Si Si2 0.988250 0.853763 0.443439
Si Si3 0.875846 0.675146 0.010177
Si Si4 0.346659 0.647693 0.230653
Si Si5 0.551276 0.923105 0.474350
Si Si6 0.620019 0.882846 0.260431
Si Si7 0.396144 0.266445 0.086477
O O1 0.000383 0.357307 0.421168
O O2 0.288437 0.302881 0.620580
O O3 0.422141 0.555661 0.799368
O O4 0.122838 0.648948 0.321364
O O5 0.773921 0.807440 0.158469
O O6 0.000000 0.000000 0.500000
O O7 0.185029 0.966281 0.547582
O O8 0.834952 0.479312 0.977213
O O9 0.778548 0.823652 0.771389
O O10 0.735782 0.695529 0.960387
O O11 0.500000 0.500000 0.500000
O O12 0.333931 0.781543 0.263904
O O13 0.462277 0.789118 0.215773
O O14 0.500000 0.000000 0.500000
O O15 0.542873 0.094964 0.324780
O O16 0.500000 0.000000 0.000000
#
# Coordination Sequence:
#
# PCOD9018690 Si02
#       7
#     2   2   2   2   2   2   2
#     4  11  24  43  72 103 148 191 243 299 367 430
#     4  10  25  43  67 103 143 189 242 300 359 440
#     4  10  22  44  67 107 143 185 243 303 364 430
#     4  10  21  43  75 104 144 192 242 301 360 435
#     4   9  22  41  70 103 143 190 238 301 357 431
#     4  11  24  44  74 107 144 191 244 301 370 435
#     4  11  23  44  71 100 148 187 244 299 365 427
#
# _framework density 25.192734000000002
#
# number of rings (size 3 to 8) (size 9 to 14) (size 15 to 20)
#    0.000    1.714    1.429    1.286    8.000    2.286 
#    0.000   10.000    0.000    0.000    0.000    0.000 
#    0.000    0.000    0.000    0.000    0.000    0.000 
#
# Total GULP energy -77946.391763 kJ/mol
# GULP energy per Si atom -5567.599412 kJ/mol
# Density = 2.513539 g / cm^3
# Si number density = 25.192734 Si / 1000 Ang^3
#
#
#
# Elastic Constant Matrix: (Units=GPa)
#
#
# Indices 1 2 3 4 5 6 
#
# 1 56.6014 23.9986 26.7371 -3.3460 -18.7052 -21.8539
# 2 23.9986 118.2462 57.0013 16.8204 -8.2608 -21.1013
# 3 26.7371 57.0013 156.8959 1.3105 -27.3026 -8.8917
# 4 -3.3460 16.8204 1.3105 64.5938 -8.0106 -14.8442
# 5 -18.7052 -8.2608 -27.3026 -8.0106 29.0231 0.4002
# 6 -21.8539 -21.1013 -8.8917 -14.8442 0.4002 38.4727
#
#
#
# Elastic Compliance Matrix: (Units=1/GPa)
#
#
# Indices 1 2 3 4 5 6 
#
# 1 0.037510 -0.003546 0.000811 0.011635 0.026813 0.023760
# 2 -0.003546 0.011781 -0.004169 -0.003096 -0.003740 0.002328
# 3 0.000811 -0.004169 0.009309 0.002274 0.008706 0.001113
# 4 0.011635 -0.003096 0.002274 0.021800 0.014585 0.013697
# 5 0.026813 -0.003740 0.008706 0.014585 0.062608 0.020167
# 6 0.023760 0.002328 0.001113 0.013697 0.020167 0.046098
#
#
# Mechanical properties :
#
#
# Convention : Reuss Voigt Hill
#
# Bulk Modulus (GPa) = 22.32492 60.80196 41.56344
# Shear Modulus (GPa) = 22.95212 41.35169 32.15191
#
# Velocity S-wave (km/s) = 3.02165 4.05583 3.57632
# Velocity P-wave (km/s) = 4.58854 6.79118 5.79547
#
# Compressibility (1/GPa) = 0.04479299
#
# Stress axis : x y z
#
# Youngs Moduli (GPa) = 26.65948 84.88442 107.42316
#
# Poissons Ratio (x) = 0.30098 -0.08714
# Poissons Ratio (y) = 0.09453 0.44783
# Poissons Ratio (z) = -0.02163 0.35387
#
# Static dielectric constant tensor:
#      x y z
#    x 2.170410 -0.020170 0.010150 
#    y -0.020170 1.987120 -0.010710 
#    z 0.010150 -0.010710 2.039640 
# 
# From -- ./inp_files/537611.got.cif
#   From: 2010.05.17/outbox.cif.g08.bks.cpg/sg2_269_cif.got.tgz:537611.got - 2010.06.03 11:33:40.
