data_PCOD9018663
_publ_section_title
;
Structure prediction by ZEFSAII (Michael W. Deem and Ramdas Pophale) SiO2 
 PCOD9018663
Probable space group: P -1
;
_chemical_formula_sum "Si O2"
_cell_formula_units_Z 14
_cell_length_a 8.375469
_cell_length_b 9.389491
_cell_length_c 9.180878
_cell_angle_alpha 119.923361
_cell_angle_beta 95.265436
_cell_angle_gamma 90.546666
_cell_volume 621.828166
_symmetry_space_group_name_H-M "P -1"
_symmetry_group_IT_number 2
_symmetry_cell_setting 'triclinic'
loop_
_space_group_symop_operation_xyz
x,y,z
-x,-y,-z
loop_
_atom_site_type_symbol
_atom_site_label
_atom_site_fract_x
_atom_site_fract_y
_atom_site_fract_z
Si Si1 0.074142 0.345995 0.853401
Si Si2 0.433354 0.324998 0.971707
Si Si3 0.464442 0.652007 0.679013
Si Si4 0.122525 0.883501 0.882444
Si Si5 0.898250 0.461589 0.329570
Si Si6 0.375497 0.998638 0.197107
Si Si7 0.051030 0.002663 0.337416
O O1 0.248428 0.304660 0.902028
O O2 0.094530 0.389497 0.705813
O O3 0.956832 0.190469 0.796040
O O4 0.000000 0.500000 0.000000
O O5 0.530360 0.167071 0.847747
O O6 0.500000 0.500000 0.000000
O O7 0.445861 0.346047 0.157546
O O8 0.500000 0.500000 0.500000
O O9 0.278560 0.611375 0.679539
O O10 0.507827 0.835361 0.715161
O O11 0.049127 0.702240 0.826602
O O12 0.288719 0.946338 0.007398
O O13 0.084987 0.907849 0.720205
O O14 0.000000 0.000000 0.000000
O O15 0.000000 0.500000 0.500000
O O16 0.232170 0.050669 0.321097
O O17 0.000000 0.000000 0.500000
#
# Coordination Sequence:
#
# PCOD9018663 Si02
#       7
#     2   2   2   2   2   2   2
#     4  12  26  46  73 107 143 193 245 302 373 447
#     4  12  24  50  77 108 151 190 252 314 370 442
#     4  12  29  47  75 110 150 198 246 311 376 434
#     4  10  21  43  74 100 137 193 243 296 356 447
#     4  12  27  47  72 106 150 188 246 302 375 446
#     4  11  25  50  75 108 145 199 258 299 369 451
#     4  11  25  44  73 105 147 188 241 308 368 433
#
# _framework density 22.514258999999999
#
# number of rings (size 3 to 8) (size 9 to 14) (size 15 to 20)
#    0.000    0.571    2.857    4.714   10.000    0.000 
#    2.571    1.429    0.000    0.000    0.000    0.000 
#    0.000    0.000    0.000    0.000    0.000    0.000 
#
# Total GULP energy -78173.481652 kJ/mol
# GULP energy per Si atom -5583.820118 kJ/mol
# Density = 2.246302 g / cm^3
# Si number density = 22.514259 Si / 1000 Ang^3
#
#
#
# Elastic Constant Matrix: (Units=GPa)
#
#
# Indices 1 2 3 4 5 6 
#
# 1 88.0217 25.0251 9.8455 -18.4806 4.7958 -7.7410
# 2 25.0251 130.4935 20.9266 2.6613 3.5361 0.8832
# 3 9.8455 20.9266 96.4132 -18.7737 -3.2681 -11.1104
# 4 -18.4806 2.6613 -18.7737 51.0399 -4.5943 1.7119
# 5 4.7958 3.5361 -3.2681 -4.5943 36.2177 2.6892
# 6 -7.7410 0.8832 -11.1104 1.7119 2.6892 45.4793
#
#
#
# Elastic Compliance Matrix: (Units=1/GPa)
#
#
# Indices 1 2 3 4 5 6 
#
# 1 0.013392 -0.002726 0.000426 0.004979 -0.001008 0.002309
# 2 -0.002726 0.008614 -0.002185 -0.002286 -0.000891 -0.001026
# 3 0.000426 -0.002185 0.012111 0.004777 0.001648 0.002796
# 4 0.004979 -0.002286 0.004777 0.023499 0.002901 0.001003
# 5 -0.001008 -0.000891 0.001648 0.002901 0.028463 -0.001544
# 6 0.002309 -0.001026 0.002796 0.001003 -0.001544 0.023138
#
#
# Mechanical properties :
#
#
# Convention : Reuss Voigt Hill
#
# Bulk Modulus (GPa) = 39.76770 47.39142 43.57956
# Shear Modulus (GPa) = 39.50393 43.82280 41.66337
#
# Velocity S-wave (km/s) = 4.19336 4.41664 4.30645
# Velocity P-wave (km/s) = 6.41462 6.86325 6.64272
#
# Compressibility (1/GPa) = 0.02514603
#
# Stress axis : x y z
#
# Youngs Moduli (GPa) = 74.67286 116.08841 82.56864
#
# Poissons Ratio (x) = 0.31649 -0.03514
# Poissons Ratio (y) = 0.20358 0.18040
# Poissons Ratio (z) = -0.03178 0.25364
#
# Static dielectric constant tensor:
#      x y z
#    x 1.800150 0.082930 0.034770 
#    y 0.082930 1.770530 -0.100710 
#    z 0.034770 -0.100710 1.854430 
# 
# From -- ./inp_files/160241.got.cif
#   From: 2010.05.17/outbox.cif.g08.bks.cpg/sg2_81_cif.got.tgz:160241.got - 2010.06.03 11:33:40.
