data_PCOD9018376
_publ_section_title
;
Structure prediction by ZEFSAII (Michael W. Deem and Ramdas Pophale) SiO2 
 PCOD9018376
Probable space group: P -1
;
_chemical_formula_sum "Si O2"
_cell_formula_units_Z 14
_cell_length_a 11.589604
_cell_length_b 11.478495
_cell_length_c 7.896456
_cell_angle_alpha 40.628771
_cell_angle_beta 113.766397
_cell_angle_gamma 117.876761
_cell_volume 602.526250
_symmetry_space_group_name_H-M "P -1"
_symmetry_group_IT_number 2
_symmetry_cell_setting 'triclinic'
loop_
_space_group_symop_operation_xyz
x,y,z
-x,-y,-z
loop_
_atom_site_type_symbol
_atom_site_label
_atom_site_fract_x
_atom_site_fract_y
_atom_site_fract_z
Si Si1 0.872222 0.664313 0.300270
Si Si2 0.243195 0.029397 0.975107
Si Si3 0.655464 0.291720 0.505937
Si Si4 0.293466 0.735255 0.793118
Si Si5 0.119452 0.907664 0.678345
Si Si6 0.480623 0.704338 0.240988
Si Si7 0.027636 0.456244 0.840001
O O1 0.844329 0.858073 0.108002
O O2 0.737196 0.502415 0.365466
O O3 0.957146 0.663547 0.184494
O O4 0.946731 0.596996 0.573849
O O5 0.390555 0.160567 0.911838
O O6 0.200329 0.993941 0.795408
O O7 0.244741 0.835177 0.272529
O O8 0.612529 0.253323 0.327811
O O9 0.550055 0.233404 0.657543
O O10 0.223881 0.902159 0.598010
O O11 0.174080 0.558240 0.869128
O O12 0.363159 0.705019 0.041464
O O13 0.000000 0.000000 0.500000
O O14 0.051466 0.690048 0.912225
O O15 0.500000 0.500000 0.500000
#
# Coordination Sequence:
#
# PCOD9018376 Si02
#       7
#     2   2   2   2   2   2   2
#     4  10  21  43  70 106 133 187 225 286 350 409
#     4  12  25  44  74  99 143 183 232 286 351 406
#     4  11  24  48  71 103 140 178 235 290 342 414
#     4  11  26  46  71 103 139 185 232 285 345 414
#     4  12  26  41  68 108 140 183 231 281 348 413
#     4  12  26  48  74 100 141 187 230 289 350 408
#     4  10  22  43  70  97 148 176 230 288 344 410
#
# _framework density 23.235503000000001
#
# number of rings (size 3 to 8) (size 9 to 14) (size 15 to 20)
#    0.000    0.857    4.286    1.714    4.000    1.714 
#    0.000    0.000    0.000    0.000    0.000    0.000 
#    0.000    0.000    0.000    0.000    0.000    0.000 
#
# Total GULP energy -78320.373660 kJ/mol
# GULP energy per Si atom -5594.312404 kJ/mol
# Density = 2.318262 g / cm^3
# Si number density = 23.235503 Si / 1000 Ang^3
#
#
#
# Elastic Constant Matrix: (Units=GPa)
#
#
# Indices 1 2 3 4 5 6 
#
# 1 74.0448 12.1534 26.9441 6.5456 8.2679 -27.7327
# 2 12.1534 74.4413 25.6644 1.3229 13.3902 -12.9219
# 3 26.9441 25.6644 57.7702 5.9752 20.4557 -26.9926
# 4 6.5456 1.3229 5.9752 35.6828 -12.0264 2.7473
# 5 8.2679 13.3902 20.4557 -12.0264 37.9019 -3.0667
# 6 -27.7327 -12.9219 -26.9926 2.7473 -3.0667 49.7333
#
#
#
# Elastic Compliance Matrix: (Units=1/GPa)
#
#
# Indices 1 2 3 4 5 6 
#
# 1 0.018683 0.000204 -0.002968 -0.004747 -0.003331 0.008918
# 2 0.000204 0.016055 -0.005655 -0.000714 -0.002803 0.001082
# 3 -0.002968 -0.005655 0.037987 -0.013963 -0.020913 0.016975
# 4 -0.004747 -0.000714 -0.013963 0.038963 0.020271 -0.011313
# 5 -0.003331 -0.002803 -0.020913 0.020271 0.044825 -0.012292
# 6 0.008918 0.001082 0.016975 -0.011313 -0.012292 0.034441
#
#
# Mechanical properties :
#
#
# Convention : Reuss Voigt Hill
#
# Bulk Modulus (GPa) = 17.89308 37.30891 27.60099
# Shear Modulus (GPa) = 22.08271 34.09654 28.08962
#
# Velocity S-wave (km/s) = 3.08618 3.83486 3.48071
# Velocity P-wave (km/s) = 4.51849 5.97494 5.29702
#
# Compressibility (1/GPa) = 0.05588753
#
# Stress axis : x y z
#
# Youngs Moduli (GPa) = 53.52391 62.28742 26.32466
#
# Poissons Ratio (x) = -0.01273 0.07812
# Poissons Ratio (y) = -0.01094 0.14888
# Poissons Ratio (z) = 0.15884 0.35226
#
# Static dielectric constant tensor:
#      x y z
#    x 1.918340 -0.035020 -0.033790 
#    y -0.035020 1.891130 0.014580 
#    z -0.033790 0.014580 1.874120 
# 
# From -- ./inp_files/256153.got.cif
#   From: 2010.05.17/outbox.cif.g08.bks.cpg/sg2_129_cif.got.tgz:256153.got - 2010.06.03 11:33:40.
