data_PCOD9018911
_publ_section_title
;
Structure prediction by ZEFSAII (Michael W. Deem and Ramdas Pophale) SiO2 
 PCOD9018911
Probable space group: P -1
;
_chemical_formula_sum "Si O2"
_cell_formula_units_Z 12
_cell_length_a 11.681888
_cell_length_b 14.678980
_cell_length_c 5.647870
_cell_angle_alpha 94.152665
_cell_angle_beta 97.745285
_cell_angle_gamma 149.042842
_cell_volume 458.841486
_symmetry_space_group_name_H-M "P -1"
_symmetry_group_IT_number 2
_symmetry_cell_setting 'triclinic'
loop_
_space_group_symop_operation_xyz
x,y,z
-x,-y,-z
loop_
_atom_site_type_symbol
_atom_site_label
_atom_site_fract_x
_atom_site_fract_y
_atom_site_fract_z
Si Si1 0.787131 0.198292 0.629623
Si Si2 0.157480 0.980448 0.981905
Si Si3 0.360923 0.666565 0.628410
Si Si4 0.911348 0.377775 0.191934
Si Si5 0.163095 0.335266 0.558469
Si Si6 0.808028 0.824552 0.232434
O O1 0.843251 0.276010 0.393047
O O2 0.976190 0.244513 0.684440
O O3 0.500000 0.000000 0.500000
O O4 0.838556 0.279292 0.914598
O O5 0.375966 0.107553 0.241558
O O6 0.948466 0.880252 0.059841
O O7 0.301711 0.157877 0.896468
O O8 0.014359 0.814633 0.735959
O O9 0.219309 0.616217 0.798101
O O10 0.200362 0.585011 0.342971
O O11 0.342728 0.543775 0.595408
O O12 0.297285 0.336769 0.690615
O O13 0.000000 0.000000 0.500000
#
# Coordination Sequence:
#
# PCOD9018911 Si02
#       6
#     2   2   2   2   2   2
#     4  11  23  40  68  98 137 181 221 270 330 390
#     4  10  21  44  66  91 130 172 214 277 341 385
#     4  10  23  42  66  94 134 178 213 271 332 390
#     4  10  24  43  60 101 143 171 223 273 319 399
#     4  10  23  39  65  97 126 171 225 271 322 406
#     4   9  21  42  64  94 128 161 223 281 327 400
#
# _framework density 26.152822
#
# number of rings (size 3 to 8) (size 9 to 14) (size 15 to 20)
#    0.000    2.000    0.000    1.500    7.000    6.667 
#   12.000   10.000    0.000    0.000    0.000    0.000 
#    0.000    0.000    0.000    0.000    0.000    0.000 
#
# Total GULP energy -66914.525358 kJ/mol
# GULP energy per Si atom -5576.210447 kJ/mol
# Density = 2.609330 g / cm^3
# Si number density = 26.152822 Si / 1000 Ang^3
#
#
#
# Elastic Constant Matrix: (Units=GPa)
#
#
# Indices 1 2 3 4 5 6 
#
# 1 36.2289 -6.3361 24.8588 -0.0209 -17.9158 -19.6565
# 2 -6.3361 52.8369 38.7032 -4.9309 4.2563 -8.9785
# 3 24.8588 38.7032 225.9959 35.2903 -38.2381 6.5444
# 4 -0.0209 -4.9309 35.2903 46.4788 -2.7778 14.2857
# 5 -17.9158 4.2563 -38.2381 -2.7778 51.4203 6.5744
# 6 -19.6565 -8.9785 6.5444 14.2857 6.5744 39.6494
#
#
#
# Elastic Compliance Matrix: (Units=1/GPa)
#
#
# Indices 1 2 3 4 5 6 
#
# 1 0.060328 0.019398 -0.009491 -0.000973 0.007839 0.034918
# 2 0.019398 0.032401 -0.009899 0.005249 -0.005247 0.017566
# 3 -0.009491 -0.009899 0.009042 -0.005381 0.004880 -0.007309
# 4 -0.000973 0.005249 -0.005381 0.028595 -0.002163 -0.008349
# 5 0.007839 -0.005247 0.004880 -0.002163 0.026342 -0.001696
# 6 0.034918 0.017566 -0.007309 -0.008349 -0.001696 0.051005
#
#
# Mechanical properties :
#
#
# Convention : Reuss Voigt Hill
#
# Bulk Modulus (GPa) = 9.82446 47.72374 28.77410
# Shear Modulus (GPa) = 20.69323 44.69876 32.69600
#
# Velocity S-wave (km/s) = 2.81596 4.13866 3.53964
# Velocity P-wave (km/s) = 3.78649 6.41293 5.26608
#
# Compressibility (1/GPa) = 0.10178680
#
# Stress axis : x y z
#
# Youngs Moduli (GPa) = 16.57605 30.86369 110.59846
#
# Poissons Ratio (x) = -0.59868 1.04966
# Poissons Ratio (y) = -0.32154 1.09477
# Poissons Ratio (z) = 0.15732 0.30551
#
# Static dielectric constant tensor:
#      x y z
#    x 2.286530 -0.227420 0.101470 
#    y -0.227420 2.248430 -0.026400 
#    z 0.101470 -0.026400 2.017840 
# 
# From -- ./inp_files/57545.got.cif
#   From: 2010.05.17/outbox.cif.g08.bks.cpg/sg2_29_cif.got.tgz:57545.got - 2010.06.03 11:33:40.
