data_PCOD9018759
_publ_section_title
;
Structure prediction by ZEFSAII (Michael W. Deem and Ramdas Pophale) SiO2 
 PCOD9018759
Probable space group: P -1
;
_chemical_formula_sum "Si O2"
_cell_formula_units_Z 16
_cell_length_a 13.735812
_cell_length_b 11.955728
_cell_length_c 11.646738
_cell_angle_alpha 87.822827
_cell_angle_beta 68.563027
_cell_angle_gamma 30.309239
_cell_volume 724.902415
_symmetry_space_group_name_H-M "P -1"
_symmetry_group_IT_number 2
_symmetry_cell_setting 'triclinic'
loop_
_space_group_symop_operation_xyz
x,y,z
-x,-y,-z
loop_
_atom_site_type_symbol
_atom_site_label
_atom_site_fract_x
_atom_site_fract_y
_atom_site_fract_z
Si Si1 0.814802 0.619612 0.162974
Si Si2 0.367809 0.340427 0.265801
Si Si3 0.110600 0.261555 0.692446
Si Si4 0.904815 0.055603 0.729417
Si Si5 0.906121 0.882707 0.938558
Si Si6 0.698336 0.815361 0.596832
Si Si7 0.647501 0.410874 0.624911
Si Si8 0.082350 0.048731 0.827174
O O1 0.860738 0.651272 0.253846
O O2 0.906005 0.404851 0.147683
O O3 0.518436 0.918888 0.238460
O O4 0.000000 0.500000 0.000000
O O5 0.398541 0.218446 0.358474
O O6 0.267651 0.552555 0.357814
O O7 0.167687 0.483521 0.256796
O O8 0.630024 0.109739 0.094792
O O9 0.305618 0.094181 0.510520
O O10 0.135664 0.123407 0.759365
O O11 0.173402 0.789982 0.553183
O O12 0.879922 0.976380 0.828992
O O13 0.893597 0.173164 0.815086
O O14 0.698073 0.271454 0.708867
O O15 0.000699 0.863768 0.007730
O O16 0.000000 0.500000 0.500000
O O17 0.349306 0.719885 0.716200
#
# Coordination Sequence:
#
# PCOD9018759 Si02
#       8
#     2   2   2   2   2   2   2   2
#     4  12  22  42  64  99 137 170 224 276 335 400
#     4  10  21  44  62  97 135 175 222 276 345 401
#     4  11  23  40  70  92 133 180 219 280 335 409
#     4  11  24  44  66  97 130 176 228 281 339 400
#     4  11  25  41  68  97 138 179 215 281 344 409
#     4  10  23  42  66  97 132 179 223 272 339 405
#     4  10  23  42  68  92 134 171 230 288 327 404
#     4  11  22  44  66  97 132 177 225 274 344 406
#
# _framework density 22.071935
#
# number of rings (size 3 to 8) (size 9 to 14) (size 15 to 20)
#    0.000    1.250    3.750    1.875    3.500    2.500 
#    2.250    0.000    0.000    0.000    0.000    0.000 
#    0.000    0.000    0.000    0.000    0.000    0.000 
#
# Total GULP energy -89251.023309 kJ/mol
# GULP energy per Si atom -5578.188957 kJ/mol
# Density = 2.202170 g / cm^3
# Si number density = 22.071935 Si / 1000 Ang^3
#
#
#
# Elastic Constant Matrix: (Units=GPa)
#
#
# Indices 1 2 3 4 5 6 
#
# 1 63.3193 28.1165 18.7814 8.0011 -0.0952 2.5776
# 2 28.1165 115.8721 51.1640 -21.4673 1.0909 20.0787
# 3 18.7814 51.1640 107.7510 -11.6891 -5.6841 4.3052
# 4 8.0011 -21.4673 -11.6891 42.8710 10.3680 -6.3919
# 5 -0.0952 1.0909 -5.6841 10.3680 28.0225 -2.4421
# 6 2.5776 20.0787 4.3052 -6.3919 -2.4421 38.5092
#
#
#
# Elastic Compliance Matrix: (Units=1/GPa)
#
#
# Indices 1 2 3 4 5 6 
#
# 1 0.019656 -0.005684 -0.001419 -0.007475 0.002831 0.000745
# 2 -0.005684 0.014729 -0.005234 0.007321 -0.004869 -0.005808
# 3 -0.001419 -0.005234 0.012144 0.000585 0.002596 0.001728
# 4 -0.007475 0.007321 0.000585 0.031558 -0.011771 0.001110
# 5 0.002831 -0.004869 0.002596 -0.011771 0.041002 0.002705
# 6 0.000745 -0.005808 0.001728 0.001110 0.002705 0.029109
#
#
# Mechanical properties :
#
#
# Convention : Reuss Voigt Hill
#
# Bulk Modulus (GPa) = 45.75158 53.67402 49.71280
# Shear Modulus (GPa) = 27.75360 34.47257 31.11309
#
# Velocity S-wave (km/s) = 3.54985 3.95628 3.75857
# Velocity P-wave (km/s) = 6.12987 6.72608 6.43488
#
# Compressibility (1/GPa) = 0.02185717
#
# Stress axis : x y z
#
# Youngs Moduli (GPa) = 50.87493 67.89376 82.34206
#
# Poissons Ratio (x) = 0.38590 0.11681
# Poissons Ratio (y) = 0.28916 0.43096
# Poissons Ratio (z) = 0.07217 0.35534
#
# Static dielectric constant tensor:
#      x y z
#    x 1.853010 -0.058480 0.020110 
#    y -0.058480 1.919480 -0.008850 
#    z 0.020110 -0.008850 1.830840 
# 
# From -- ./inp_files/452273.got.cif
#   From: 2010.05.17/outbox.cif.g08.bks.cpg/sg2_227_cif.got.tgz:452273.got - 2010.06.03 11:33:40.
