data_PCOD9018132
_publ_section_title
;
Structure prediction by ZEFSAII (Michael W. Deem and Ramdas Pophale) SiO2 
 PCOD9018132
Probable space group: P -1
;
_chemical_formula_sum "Si O2"
_cell_formula_units_Z 16
_cell_length_a 13.852175
_cell_length_b 8.986070
_cell_length_c 9.198215
_cell_angle_alpha 138.163723
_cell_angle_beta 76.726012
_cell_angle_gamma 114.113205
_cell_volume 691.777066
_symmetry_space_group_name_H-M "P -1"
_symmetry_group_IT_number 2
_symmetry_cell_setting 'triclinic'
loop_
_space_group_symop_operation_xyz
x,y,z
-x,-y,-z
loop_
_atom_site_type_symbol
_atom_site_label
_atom_site_fract_x
_atom_site_fract_y
_atom_site_fract_z
Si Si1 0.091444 0.693232 0.511160
Si Si2 0.424213 0.645152 0.595925
Si Si3 0.237349 0.436645 0.299511
Si Si4 0.325004 0.366843 0.923219
Si Si5 0.238914 0.500018 0.786214
Si Si6 0.487955 0.115843 0.742476
Si Si7 0.918576 0.852147 0.628642
Si Si8 0.893818 0.307747 0.834469
O O1 0.198535 0.660770 0.505455
O O2 0.102582 0.644908 0.302600
O O3 0.000000 0.500000 0.500000
O O4 0.039754 0.896647 0.664748
O O5 0.500000 0.500000 0.500000
O O6 0.352144 0.509278 0.385338
O O7 0.341293 0.620223 0.737169
O O8 0.479616 0.919329 0.725498
O O9 0.153506 0.211889 0.248969
O O10 0.247036 0.371969 0.083567
O O11 0.266912 0.317160 0.751311
O O12 0.384366 0.187994 0.814235
O O13 0.414818 0.634997 0.080730
O O14 0.138578 0.376109 0.623626
O O15 0.206480 0.669218 0.030521
O O16 0.500000 0.000000 0.500000
O O17 0.904157 0.060590 0.693930
O O18 0.000000 0.500000 0.000000
#
# Coordination Sequence:
#
# PCOD9018132 Si02
#       8
#     2   2   2   2   2   2   2   2
#     4  10  21  43  68  95 135 177 216 279 335 398
#     4  11  25  46  69  97 141 183 226 287 348 400
#     4  10  22  44  68 100 132 176 233 270 335 413
#     4  11  24  42  69 102 131 179 235 274 339 409
#     4  11  25  42  67 102 136 178 232 275 338 407
#     4  11  24  44  68  96 139 179 224 290 345 393
#     4  10  24  44  68  94 143 179 213 282 342 390
#     4  12  24  43  68 102 137 177 229 272 337 411
#
# _framework density 23.12884
#
# number of rings (size 3 to 8) (size 9 to 14) (size 15 to 20)
#    0.000    1.250    3.750    1.125    3.500    4.500 
#    0.000    3.750    0.000    0.000    0.000    0.000 
#    0.000    0.000    0.000    0.000    0.000    0.000 
#
# Total GULP energy -89378.763193 kJ/mol
# GULP energy per Si atom -5586.172700 kJ/mol
# Density = 2.307620 g / cm^3
# Si number density = 23.128840 Si / 1000 Ang^3
#
#
#
# Elastic Constant Matrix: (Units=GPa)
#
#
# Indices 1 2 3 4 5 6 
#
# 1 113.7882 48.1763 19.1775 16.2743 -25.9809 -24.8926
# 2 48.1763 155.3118 61.3609 -18.6885 -13.3453 -9.4076
# 3 19.1775 61.3609 56.3566 -5.2932 -23.7277 7.5533
# 4 16.2743 -18.6885 -5.2932 36.8650 -3.6776 -7.1374
# 5 -25.9809 -13.3453 -23.7277 -3.6776 40.4283 0.5041
# 6 -24.8926 -9.4076 7.5533 -7.1374 0.5041 39.7676
#
#
#
# Elastic Compliance Matrix: (Units=1/GPa)
#
#
# Indices 1 2 3 4 5 6 
#
# 1 0.015015 -0.005735 0.003511 -0.006959 0.009108 0.006010
# 2 -0.005735 0.016763 -0.020234 0.008322 -0.009343 0.005831
# 3 0.003511 -0.020234 0.050414 -0.004663 0.024907 -0.013317
# 4 -0.006959 0.008322 -0.004663 0.034522 -0.001380 0.004711
# 5 0.009108 -0.009343 0.024907 -0.001380 0.042022 -0.002020
# 6 0.006010 0.005831 -0.013317 0.004711 -0.002020 0.033688
#
#
# Mechanical properties :
#
#
# Convention : Reuss Voigt Hill
#
# Bulk Modulus (GPa) = 26.82761 64.76511 45.79636
# Shear Modulus (GPa) = 20.01871 36.52830 28.27351
#
# Velocity S-wave (km/s) = 2.94518 3.97840 3.50013
# Velocity P-wave (km/s) = 4.81558 7.01187 6.01482
#
# Compressibility (1/GPa) = 0.03727503
#
# Stress axis : x y z
#
# Youngs Moduli (GPa) = 66.60179 59.65346 19.83578
#
# Poissons Ratio (x) = 0.34212 -0.06964
# Poissons Ratio (y) = 0.38197 0.40136
# Poissons Ratio (z) = -0.23383 1.20704
#
# Static dielectric constant tensor:
#      x y z
#    x 1.886510 -0.016770 -0.019840 
#    y -0.016770 1.826430 -0.023760 
#    z -0.019840 -0.023760 1.812370 
# 
# From -- ./inp_files/299815.got.cif
#   From: 2010.05.17/outbox.cif.g08.bks.cpg/sg2_150_cif.got.tgz:299815.got - 2010.06.03 11:33:40.
