data_PCOD9018817
_publ_section_title
;
Structure prediction by ZEFSAII (Michael W. Deem and Ramdas Pophale) SiO2 
 PCOD9018817
Probable space group: P -1
;
_chemical_formula_sum "Si O2"
_cell_formula_units_Z 14
_cell_length_a 12.831561
_cell_length_b 7.130497
_cell_length_c 12.313523
_cell_angle_alpha 129.305632
_cell_angle_beta 128.170373
_cell_angle_gamma 48.021187
_cell_volume 609.966277
_symmetry_space_group_name_H-M "P -1"
_symmetry_group_IT_number 2
_symmetry_cell_setting 'triclinic'
loop_
_space_group_symop_operation_xyz
x,y,z
-x,-y,-z
loop_
_atom_site_type_symbol
_atom_site_label
_atom_site_fract_x
_atom_site_fract_y
_atom_site_fract_z
Si Si1 0.188923 0.526119 0.568243
Si Si2 0.340149 0.820406 0.898518
Si Si3 0.670902 0.675669 0.031561
Si Si4 0.892995 0.932403 0.596567
Si Si5 0.902480 0.153703 0.096711
Si Si6 0.361331 0.485060 0.293379
Si Si7 0.578438 0.749035 0.541041
O O1 0.302715 0.597818 0.735315
O O2 0.176563 0.277706 0.529160
O O3 0.254687 0.409222 0.451717
O O4 0.033613 0.798527 0.558014
O O5 0.514272 0.717681 0.997786
O O6 0.219277 0.930609 0.959262
O O7 0.315753 0.049533 0.876622
O O8 0.676651 0.569262 0.871960
O O9 0.803321 0.460518 0.107620
O O10 0.981456 0.878115 0.747218
O O11 0.772162 0.245746 0.639224
O O12 0.000000 0.000000 0.000000
O O13 0.495296 0.564402 0.401233
O O14 0.413478 0.230521 0.316338
O O15 0.500000 0.000000 0.500000
#
# Coordination Sequence:
#
# PCOD9018817 Si02
#       7
#     2   2   2   2   2   2   2
#     4  10  21  44  64  93 137 170 215 269 330 388
#     4  10  24  44  64  98 131 179 223 274 331 386
#     4  11  23  45  67  97 133 176 228 270 325 396
#     4  10  22  43  65  99 132 175 215 265 330 393
#     4  11  23  43  69  96 138 174 221 273 327 398
#     4  11  23  41  67  98 128 166 224 269 322 394
#     4  11  23  42  67  98 128 169 216 273 332 382
#
# _framework density 22.952088
#
# number of rings (size 3 to 8) (size 9 to 14) (size 15 to 20)
#    0.000    1.429    4.286    0.429    0.000    3.429 
#   23.143    0.000    0.000    0.000    0.000    0.000 
#    0.000    0.000    0.000    0.000    0.000    0.000 
#
# Total GULP energy -78158.541821 kJ/mol
# GULP energy per Si atom -5582.752987 kJ/mol
# Density = 2.289985 g / cm^3
# Si number density = 22.952088 Si / 1000 Ang^3
#
#
#
# Elastic Constant Matrix: (Units=GPa)
#
#
# Indices 1 2 3 4 5 6 
#
# 1 127.1582 42.1280 21.1314 -0.4941 -20.8012 -17.2767
# 2 42.1280 105.3250 26.1004 -15.2866 6.8396 1.0218
# 3 21.1314 26.1004 52.2297 3.3760 5.7802 15.4370
# 4 -0.4941 -15.2866 3.3760 30.4338 1.4820 -2.7179
# 5 -20.8012 6.8396 5.7802 1.4820 21.8552 -7.3853
# 6 -17.2767 1.0218 15.4370 -2.7179 -7.3853 29.5071
#
#
#
# Elastic Compliance Matrix: (Units=1/GPa)
#
#
# Indices 1 2 3 4 5 6 
#
# 1 0.031647 -0.009724 -0.028454 0.000304 0.056896 0.048021
# 2 -0.009724 0.015567 0.000841 0.007520 -0.018439 -0.010594
# 3 -0.028454 0.000841 0.056281 -0.008821 -0.062808 -0.062666
# 4 0.000304 0.007520 -0.008821 0.038327 0.000431 0.008171
# 5 0.056896 -0.018439 -0.062808 0.000431 0.158233 0.106454
# 6 0.048021 -0.010594 -0.062666 0.008171 0.106454 0.122555
#
#
# Mechanical properties :
#
#
# Convention : Reuss Voigt Hill
#
# Bulk Modulus (GPa) = 34.69740 51.49249 43.09495
# Shear Modulus (GPa) = 9.86402 29.38277 19.62340
#
# Velocity S-wave (km/s) = 2.07533 3.58184 2.92716
# Velocity P-wave (km/s) = 4.57086 6.29203 5.49920
#
# Compressibility (1/GPa) = 0.02882060
#
# Stress axis : x y z
#
# Youngs Moduli (GPa) = 31.59815 64.23894 17.76798
#
# Poissons Ratio (x) = 0.62463 0.50558
# Poissons Ratio (y) = 0.30725 -0.01494
# Poissons Ratio (z) = 0.89911 -0.05401
#
# Static dielectric constant tensor:
#      x y z
#    x 1.937920 -0.026730 -0.076740 
#    y -0.026730 1.872600 0.016710 
#    z -0.076740 0.016710 1.891770 
# 
# From -- ./inp_files/408768.got.cif
#   From: 2010.05.17/outbox.cif.g08.bks.cpg/sg2_205_cif.got.tgz:408768.got - 2010.06.03 11:33:40.
