data_PCOD9018372
_publ_section_title
;
Structure prediction by ZEFSAII (Michael W. Deem and Ramdas Pophale) SiO2 
 PCOD9018372
Probable space group: P -1
;
_chemical_formula_sum "Si O2"
_cell_formula_units_Z 16
_cell_length_a 5.200267
_cell_length_b 9.129962
_cell_length_c 22.589924
_cell_angle_alpha 126.742781
_cell_angle_beta 123.964649
_cell_angle_gamma 45.593655
_cell_volume 595.321627
_symmetry_space_group_name_H-M "P -1"
_symmetry_group_IT_number 2
_symmetry_cell_setting 'triclinic'
loop_
_space_group_symop_operation_xyz
x,y,z
-x,-y,-z
loop_
_atom_site_type_symbol
_atom_site_label
_atom_site_fract_x
_atom_site_fract_y
_atom_site_fract_z
Si Si1 0.726243 0.878164 0.900457
Si Si2 0.374024 0.640963 0.740198
Si Si3 0.573819 0.893485 0.670067
Si Si4 0.223991 0.285060 0.016760
Si Si5 0.421652 0.137958 0.463958
Si Si6 0.552332 0.449063 0.832900
Si Si7 0.536737 0.472228 0.407325
Si Si8 0.626739 0.837087 0.181000
O O1 0.628148 0.719067 0.817438
O O2 0.973978 0.740729 0.957098
O O3 0.698871 0.015759 0.872217
O O4 0.403064 0.077064 0.947277
O O5 0.342720 0.508709 0.757862
O O6 0.516955 0.513035 0.666645
O O7 0.970941 0.852802 0.725561
O O8 0.437159 0.991740 0.611370
O O9 0.645260 0.651579 0.619846
O O10 0.338249 0.023638 0.728363
O O11 0.528288 0.327305 0.094060
O O12 0.000000 0.500000 0.000000
O O13 0.576961 0.293694 0.527029
O O14 0.975727 0.301526 0.437059
O O15 0.500000 0.000000 0.500000
O O16 0.453374 0.322785 0.833902
O O17 0.984208 0.300167 0.835573
#
# Coordination Sequence:
#
# PCOD9018372 Si02
#       8
#     2   2   2   2   2   2   2   2
#     4  10  21  43  70 103 140 191 239 300 359 429
#     4  10  23  44  68 101 144 185 240 296 364 420
#     4  11  24  42  70  99 142 191 230 302 357 430
#     4  10  21  43  73 100 146 191 242 298 364 429
#     4  10  24  44  68 100 140 184 231 295 356 432
#     4  11  27  44  71 109 145 190 246 302 361 434
#     4  10  22  43  68  98 138 177 238 288 356 428
#     4  12  25  44  72 106 146 184 247 299 359 428
#
# _framework density 26.876225999999999
#
# number of rings (size 3 to 8) (size 9 to 14) (size 15 to 20)
#    0.000    1.500    2.500    1.125    5.250    1.000 
#    0.000    0.625    0.000    0.000    0.000    0.000 
#    0.000    0.000    0.000    0.000    0.000    0.000 
#
# Total GULP energy -89543.631542 kJ/mol
# GULP energy per Si atom -5596.476971 kJ/mol
# Density = 2.681505 g / cm^3
# Si number density = 26.876226 Si / 1000 Ang^3
#
#
#
# Elastic Constant Matrix: (Units=GPa)
#
#
# Indices 1 2 3 4 5 6 
#
# 1 90.1418 49.0739 31.1648 -12.3596 -19.6719 29.3785
# 2 49.0739 134.0370 67.9029 -26.6641 -18.1225 29.8153
# 3 31.1648 67.9029 183.1207 -27.2413 -38.3702 22.1569
# 4 -12.3596 -26.6641 -27.2413 56.7853 15.0153 -9.9064
# 5 -19.6719 -18.1225 -38.3702 15.0153 51.1011 -12.2244
# 6 29.3785 29.8153 22.1569 -9.9064 -12.2244 51.9598
#
#
#
# Elastic Compliance Matrix: (Units=1/GPa)
#
#
# Indices 1 2 3 4 5 6 
#
# 1 0.015976 -0.004256 0.000262 -0.000364 0.003523 -0.005943
# 2 -0.004256 0.011580 -0.003095 0.002917 -0.001354 -0.002681
# 3 0.000262 -0.003095 0.007687 0.001065 0.004362 -0.000421
# 4 -0.000364 0.002917 0.001065 0.020688 -0.004134 0.001050
# 5 0.003523 -0.001354 0.004362 -0.004134 0.025443 0.002123
# 6 -0.005943 -0.002681 -0.000421 0.001050 0.002123 0.025024
#
#
# Mechanical properties :
#
#
# Convention : Reuss Voigt Hill
#
# Bulk Modulus (GPa) = 47.47016 78.17586 62.82301
# Shear Modulus (GPa) = 39.18583 49.24642 44.21613
#
# Velocity S-wave (km/s) = 3.82253 4.28523 4.06048
# Velocity P-wave (km/s) = 6.09780 7.32358 6.73862
#
# Compressibility (1/GPa) = 0.02106587
#
# Stress axis : x y z
#
# Youngs Moduli (GPa) = 62.59445 86.35209 130.08552
#
# Poissons Ratio (x) = 0.36753 -0.03415
# Poissons Ratio (y) = 0.26641 0.40264
# Poissons Ratio (z) = -0.01643 0.26728
#
# Static dielectric constant tensor:
#      x y z
#    x 2.258970 -0.017610 0.055780 
#    y -0.017610 2.138430 -0.012160 
#    z 0.055780 -0.012160 2.088340 
# 
# From -- ./inp_files/582533.got.cif
#   From: 2010.05.17/outbox.cif.g08.bks.cpg/sg2_292_cif.got.tgz:582533.got - 2010.06.03 11:33:40.
