data_PCOD9018736
_publ_section_title
;
Structure prediction by ZEFSAII (Michael W. Deem and Ramdas Pophale) SiO2 
 PCOD9018736
Probable space group: P -1
;
_chemical_formula_sum "Si O2"
_cell_formula_units_Z 14
_cell_length_a 5.270319
_cell_length_b 15.773182
_cell_length_c 6.980266
_cell_angle_alpha 80.694339
_cell_angle_beta 87.588374
_cell_angle_gamma 82.824232
_cell_volume 568.004019
_symmetry_space_group_name_H-M "P -1"
_symmetry_group_IT_number 2
_symmetry_cell_setting 'triclinic'
loop_
_space_group_symop_operation_xyz
x,y,z
-x,-y,-z
loop_
_atom_site_type_symbol
_atom_site_label
_atom_site_fract_x
_atom_site_fract_y
_atom_site_fract_z
Si Si1 0.762207 0.076816 0.786046
Si Si2 0.231035 0.628318 0.337572
Si Si3 0.252930 0.474894 0.128208
Si Si4 0.619145 0.155737 0.374617
Si Si5 0.088286 0.772624 0.993936
Si Si6 0.703316 0.678559 0.552960
Si Si7 0.673780 0.902934 0.926021
O O1 0.772974 0.105800 0.558125
O O2 0.859955 0.151237 0.885549
O O3 0.859956 0.975682 0.850056
O O4 0.472135 0.079145 0.876512
O O5 0.231542 0.530263 0.305251
O O6 0.187468 0.684199 0.123698
O O7 0.489181 0.645525 0.430825
O O8 0.984443 0.660217 0.461258
O O9 0.289078 0.375718 0.230484
O O10 0.500000 0.500000 0.000000
O O11 0.000000 0.500000 0.000000
O O12 0.391540 0.220733 0.450577
O O13 0.512248 0.091414 0.252231
O O14 0.783426 0.213869 0.217968
O O15 0.789264 0.802199 0.962650
#
# Coordination Sequence:
#
# PCOD9018736 Si02
#       7
#     2   2   2   2   2   2   2
#     4  10  21  44  59  96 129 179 228 290 351 406
#     4  12  26  46  72 100 142 184 232 278 345 415
#     4  12  26  46  74 107 143 177 232 285 338 411
#     4  11  24  39  65  97 134 178 234 281 348 408
#     4  11  24  39  65  96 132 180 231 286 345 407
#     4  12  26  46  72 101 141 187 229 278 347 413
#     4  10  23  38  67  89 135 176 231 291 343 415
#
# _framework density 24.647713
#
# number of rings (size 3 to 8) (size 9 to 14) (size 15 to 20)
#    0.000    0.857    1.429    5.143    6.000    1.714 
#    0.000    0.000    0.000    0.000    0.000    0.000 
#    0.000    0.000    0.000    0.000    0.000    0.000 
#
# Total GULP energy -78357.915235 kJ/mol
# GULP energy per Si atom -5596.993945 kJ/mol
# Density = 2.459161 g / cm^3
# Si number density = 24.647713 Si / 1000 Ang^3
#
#
#
# Elastic Constant Matrix: (Units=GPa)
#
#
# Indices 1 2 3 4 5 6 
#
# 1 78.0719 -0.8505 28.4132 1.5143 1.7936 -5.8938
# 2 -0.8505 83.5211 9.2295 -1.5253 7.5079 -3.5788
# 3 28.4132 9.2295 126.3658 -18.7353 2.6805 1.9767
# 4 1.5143 -1.5253 -18.7353 54.0415 1.9443 3.5252
# 5 1.7936 7.5079 2.6805 1.9443 42.7818 1.9580
# 6 -5.8938 -3.5788 1.9767 3.5252 1.9580 29.2477
#
#
#
# Elastic Compliance Matrix: (Units=1/GPa)
#
#
# Indices 1 2 3 4 5 6 
#
# 1 0.014446 0.000715 -0.003617 -0.001846 -0.000581 0.003505
# 2 0.000715 0.012376 -0.001059 -0.000081 -0.002218 0.001888
# 3 -0.003617 -0.001059 0.009352 0.003448 -0.000319 -0.001885
# 4 -0.001846 -0.000081 0.003448 0.019975 -0.000897 -0.002963
# 5 -0.000581 -0.002218 -0.000319 -0.000897 0.023934 -0.001861
# 6 0.003505 0.001888 -0.001885 -0.002963 -0.001861 0.035737
#
#
# Mechanical properties :
#
#
# Convention : Reuss Voigt Hill
#
# Bulk Modulus (GPa) = 35.39449 40.17148 37.78298
# Shear Modulus (GPa) = 37.54916 41.95864 39.75390
#
# Velocity S-wave (km/s) = 3.90735 4.13041 4.02043
# Velocity P-wave (km/s) = 5.89473 6.25146 6.07571
#
# Compressibility (1/GPa) = 0.02825298
#
# Stress axis : x y z
#
# Youngs Moduli (GPa) = 69.22100 80.80016 106.93405
#
# Poissons Ratio (x) = -0.05781 0.38675
# Poissons Ratio (y) = -0.04952 0.11328
# Poissons Ratio (z) = 0.25035 0.08560
#
# Static dielectric constant tensor:
#      x y z
#    x 2.032320 -0.021470 0.019850 
#    y -0.021470 1.983920 0.003510 
#    z 0.019850 0.003510 1.904840 
# 
# From -- ./inp_files/7060.got.cif
#   From: 2010.05.17/outbox.cif.g08.bks.cpg/sg2_4_cif.got.tgz:7060.got - 2010.06.03 11:33:40.
