data_PCOD9018808
_publ_section_title
;
Structure prediction by ZEFSAII (Michael W. Deem and Ramdas Pophale) SiO2 
 PCOD9018808
Probable space group: P -1
;
_chemical_formula_sum "Si O2"
_cell_formula_units_Z 14
_cell_length_a 11.589226
_cell_length_b 18.326819
_cell_length_c 6.711013
_cell_angle_alpha 131.662370
_cell_angle_beta 63.232851
_cell_angle_gamma 141.420670
_cell_volume 656.659963
_symmetry_space_group_name_H-M "P -1"
_symmetry_group_IT_number 2
_symmetry_cell_setting 'triclinic'
loop_
_space_group_symop_operation_xyz
x,y,z
-x,-y,-z
loop_
_atom_site_type_symbol
_atom_site_label
_atom_site_fract_x
_atom_site_fract_y
_atom_site_fract_z
Si Si1 0.541893 0.783423 0.792852
Si Si2 0.115708 0.567886 0.729315
Si Si3 0.685242 0.035096 0.369135
Si Si4 0.062415 0.981211 0.706893
Si Si5 0.522008 0.420277 0.194287
Si Si6 0.954481 0.636683 0.275769
Si Si7 0.753655 0.774853 0.290498
O O1 0.331418 0.694316 0.747383
O O2 0.534034 0.705313 0.851784
O O3 0.627956 0.777918 0.526359
O O4 0.641302 0.940171 0.046429
O O5 0.082869 0.451375 0.664954
O O6 0.000000 0.500000 0.500000
O O7 0.051375 0.623110 0.010716
O O8 0.753918 0.987793 0.382373
O O9 0.881508 0.199194 0.490666
O O10 0.500000 0.000000 0.500000
O O11 0.899901 0.826232 0.447893
O O12 0.112013 0.099111 0.743517
O O13 0.000000 0.000000 0.000000
O O14 0.500000 0.500000 0.500000
O O15 0.743129 0.541691 0.192105
O O16 0.390769 0.359219 0.989366
#
# Coordination Sequence:
#
# PCOD9018808 Si02
#       7
#     2   2   2   2   2   2   2
#     4  11  23  44  68  97 139 180 229 297 350 411
#     4  10  21  44  64  92 132 181 224 277 340 415
#     4  12  24  45  70 101 143 184 231 289 352 411
#     4  11  24  44  73  99 140 183 234 291 354 411
#     4  11  25  44  68 100 138 180 233 294 355 416
#     4  10  24  40  67  94 133 177 225 281 344 409
#     4  11  23  43  73  99 133 187 236 289 355 412
#
# _framework density 21.320015000000001
#
# number of rings (size 3 to 8) (size 9 to 14) (size 15 to 20)
#    0.000    1.143    4.286    0.857    4.000    1.714 
#    7.714    1.429    0.000    0.000    0.000    0.000 
#    0.000    0.000    0.000    0.000    0.000    0.000 
#
# Total GULP energy -77942.974742 kJ/mol
# GULP energy per Si atom -5567.355339 kJ/mol
# Density = 2.127149 g / cm^3
# Si number density = 21.320015 Si / 1000 Ang^3
#
#
#
# Elastic Constant Matrix: (Units=GPa)
#
#
# Indices 1 2 3 4 5 6 
#
# 1 102.4412 9.5950 48.8602 6.3049 17.0025 40.2114
# 2 9.5950 98.0508 42.1942 18.1107 9.0248 20.6232
# 3 48.8602 42.1942 156.6725 14.1651 18.1299 22.8378
# 4 6.3049 18.1107 14.1651 52.2087 13.8452 -3.1206
# 5 17.0025 9.0248 18.1299 13.8452 45.9784 1.2500
# 6 40.2114 20.6232 22.8378 -3.1206 1.2500 34.1186
#
#
#
# Elastic Compliance Matrix: (Units=1/GPa)
#
#
# Indices 1 2 3 4 5 6 
#
# 1 0.024313 0.007144 -0.003881 -0.004408 -0.006705 -0.030533
# 2 0.007144 0.015563 -0.003302 -0.005734 -0.002232 -0.016060
# 3 -0.003881 -0.003302 0.008523 -0.000327 -0.001203 0.000879
# 4 -0.004408 -0.005734 -0.000327 0.023637 -0.004538 0.011208
# 5 -0.006705 -0.002232 -0.001203 -0.004538 0.026272 0.008679
# 6 -0.030533 -0.016060 0.000879 0.011208 0.008679 0.075121
#
#
# Mechanical properties :
#
#
# Convention : Reuss Voigt Hill
#
# Bulk Modulus (GPa) = 20.69456 62.05145 41.37300
# Shear Modulus (GPa) = 26.36944 43.56214 34.96579
#
# Velocity S-wave (km/s) = 3.52069 4.52514 4.05414
# Velocity P-wave (km/s) = 5.12393 7.51468 6.43137
#
# Compressibility (1/GPa) = 0.04832188
#
# Stress axis : x y z
#
# Youngs Moduli (GPa) = 41.13012 64.25545 117.33068
#
# Poissons Ratio (x) = -0.45907 0.45539
# Poissons Ratio (y) = -0.29385 0.38739
# Poissons Ratio (z) = 0.15964 0.21215
#
# Static dielectric constant tensor:
#      x y z
#    x 1.892460 -0.028570 0.013150 
#    y -0.028570 1.824140 0.061690 
#    z 0.013150 0.061690 1.789010 
# 
# From -- ./inp_files/81673.got.cif
#   From: 2010.05.17/outbox.cif.g08.bks.cpg/sg2_41_cif.got.tgz:81673.got - 2010.06.03 11:33:40.
