data_PCOD9018141
_publ_section_title
;
Structure prediction by ZEFSAII (Michael W. Deem and Ramdas Pophale) SiO2 
 PCOD9018141
Probable space group: P -1
;
_chemical_formula_sum "Si O2"
_cell_formula_units_Z 15
_cell_length_a 14.296696
_cell_length_b 18.330342
_cell_length_c 11.198380
_cell_angle_alpha 129.511104
_cell_angle_beta 147.662860
_cell_angle_gamma 28.230601
_cell_volume 671.232302
_symmetry_space_group_name_H-M "P -1"
_symmetry_group_IT_number 2
_symmetry_cell_setting 'triclinic'
loop_
_space_group_symop_operation_xyz
x,y,z
-x,-y,-z
loop_
_atom_site_type_symbol
_atom_site_label
_atom_site_fract_x
_atom_site_fract_y
_atom_site_fract_z
Si Si1 0.471028 0.758272 0.959285
Si Si2 0.206349 0.986875 0.420857
Si Si3 0.997941 0.258079 0.739743
Si Si4 0.595336 0.114683 0.218206
Si Si5 0.633764 0.477449 0.813016
Si Si6 0.334857 0.128656 0.626677
Si Si7 0.000000 0.000000 0.000000
Si Si8 0.011259 0.787094 0.880817
O O1 0.353710 0.831925 0.774310
O O2 0.663186 0.575459 0.974459
O O3 0.163104 0.880471 0.839119
O O4 0.648555 0.772818 0.204715
O O5 0.251922 0.079222 0.574661
O O6 0.359277 0.872259 0.582905
O O7 0.296542 0.916210 0.312015
O O8 0.856472 0.346056 0.807979
O O9 0.716907 0.380424 0.468471
O O10 0.170820 0.079270 0.749193
O O11 0.249222 0.226095 0.948734
O O12 0.726215 0.377818 0.925315
O O13 0.090264 0.228987 0.359203
O O14 0.690053 0.945969 0.776027
O O15 0.894891 0.151990 0.999131
#
# Coordination Sequence:
#
# PCOD9018141 Si02
#       8
#     2   2   2   2   2   2   1   2
#     4  12  24  39  69 103 136 177 223 273 341 399
#     4  11  22  40  68 103 126 174 230 280 311 398
#     4  10  23  42  67 100 137 179 224 278 332 396
#     4  11  22  42  71  95 132 185 229 265 323 409
#     4  11  24  40  64 104 143 171 216 287 350 382
#     4  10  22  42  70  93 134 174 237 266 324 410
#     4  10  22  40  70  98 124 176 234 264 332 402
#     4  10  21  43  68  96 130 180 222 288 323 399
#
# _framework density 22.346958000000001
#
# number of rings (size 3 to 8) (size 9 to 14) (size 15 to 20)
#    0.000    1.333    2.667    3.600    0.000    2.133 
#    0.000    6.667    0.000    0.000    0.000    0.000 
#    0.000    0.000    0.000    0.000    0.000    0.000 
#
# Total GULP energy -83662.924784 kJ/mol
# GULP energy per Si atom -5577.528319 kJ/mol
# Density = 2.229610 g / cm^3
# Si number density = 22.346958 Si / 1000 Ang^3
#
#
#
# Elastic Constant Matrix: (Units=GPa)
#
#
# Indices 1 2 3 4 5 6 
#
# 1 71.4833 39.9924 38.1539 -8.8492 3.0015 40.1890
# 2 39.9924 66.2057 47.6730 10.9012 -16.4852 30.7061
# 3 38.1539 47.6730 103.5526 22.3279 -5.3210 22.1788
# 4 -8.8492 10.9012 22.3279 38.0312 5.9359 1.9989
# 5 3.0015 -16.4852 -5.3210 5.9359 38.4752 -7.2046
# 6 40.1890 30.7061 22.1788 1.9989 -7.2046 40.6480
#
#
#
# Elastic Compliance Matrix: (Units=1/GPa)
#
#
# Indices 1 2 3 4 5 6 
#
# 1 0.068670 -0.021792 -0.014193 0.038272 -0.032162 -0.051271
# 2 -0.021792 0.041370 -0.005955 -0.016575 0.020793 -0.001956
# 3 -0.014193 -0.005955 0.018784 -0.013947 0.005155 0.009882
# 4 0.038272 -0.016575 -0.013947 0.053321 -0.024875 -0.024740
# 5 -0.032162 0.020793 0.005155 -0.024875 0.046208 0.022692
# 6 -0.051271 -0.001956 0.009882 -0.024740 0.022692 0.076618
#
#
# Mechanical properties :
#
#
# Convention : Reuss Voigt Hill
#
# Bulk Modulus (GPa) = 22.24969 54.76447 38.50708
# Shear Modulus (GPa) = 12.38139 31.12572 21.75355
#
# Velocity S-wave (km/s) = 2.35639 3.73612 3.12339
# Velocity P-wave (km/s) = 4.16911 6.57048 5.50239
#
# Compressibility (1/GPa) = 0.04494446
#
# Stress axis : x y z
#
# Youngs Moduli (GPa) = 14.56243 24.17210 53.23809
#
# Poissons Ratio (x) = 0.52675 0.75558
# Poissons Ratio (y) = 0.31734 0.31705
# Poissons Ratio (z) = 0.20668 0.14395
#
# Static dielectric constant tensor:
#      x y z
#    x 1.566360 0.005260 0.048720 
#    y 0.005260 1.802510 0.016990 
#    z 0.048720 0.016990 1.833640 
# 
# From -- ./inp_files/456779.got.cif
#   From: 2010.05.17/outbox.cif.g08.bks.cpg/sg2_229_cif.got.tgz:456779.got - 2010.06.03 11:33:40.
