data_PCOD9018153
_publ_section_title
;
Structure prediction by ZEFSAII (Michael W. Deem and Ramdas Pophale) SiO2 
 PCOD9018153
Probable space group: P -1
;
_chemical_formula_sum "Si O2"
_cell_formula_units_Z 15
_cell_length_a 11.412174
_cell_length_b 16.651543
_cell_length_c 5.766560
_cell_angle_alpha 121.367491
_cell_angle_beta 65.841475
_cell_angle_gamma 138.200356
_cell_volume 623.211592
_symmetry_space_group_name_H-M "P -1"
_symmetry_group_IT_number 2
_symmetry_cell_setting 'triclinic'
loop_
_space_group_symop_operation_xyz
x,y,z
-x,-y,-z
loop_
_atom_site_type_symbol
_atom_site_label
_atom_site_fract_x
_atom_site_fract_y
_atom_site_fract_z
Si Si1 0.000000 0.000000 0.500000
Si Si2 0.130800 0.607976 0.247771
Si Si3 0.048540 0.737722 0.826284
Si Si4 0.292179 0.195096 0.912597
Si Si5 0.345073 0.810151 0.011690
Si Si6 0.331207 0.416681 0.177476
Si Si7 0.263209 0.011023 0.014882
Si Si8 0.629386 0.365760 0.568311
O O1 0.892587 0.909738 0.224215
O O2 0.834499 0.991370 0.688942
O O3 0.040785 0.637414 0.536522
O O4 0.224179 0.570981 0.254446
O O5 0.284660 0.747523 0.219064
O O6 0.000000 0.500000 0.000000
O O7 0.187043 0.792052 0.003960
O O8 0.851884 0.670250 0.947430
O O9 0.135226 0.866116 0.802567
O O10 0.444812 0.269344 0.707144
O O11 0.314189 0.311795 0.175996
O O12 0.303207 0.118901 0.976537
O O13 0.546297 0.942487 0.035496
O O14 0.346599 0.714153 0.721669
O O15 0.350074 0.529389 0.441809
O O16 0.500000 0.500000 0.000000
#
# Coordination Sequence:
#
# PCOD9018153 Si02
#       8
#     1   2   2   2   2   2   2   2
#     4  12  24  42  72  96 136 180 222 276 344 402
#     4  11  23  42  69  98 133 181 226 282 336 401
#     4  11  25  43  66 105 136 173 230 285 335 409
#     4  11  23  45  67  98 133 182 223 282 335 405
#     4  11  23  43  69  98 136 181 222 279 352 395
#     4  10  22  42  68  94 135 175 222 283 335 390
#     4  12  25  45  70 100 139 178 229 277 343 411
#     4  10  21  43  68  96 136 172 229 279 335 401
#
# _framework density 24.068871999999999
#
# number of rings (size 3 to 8) (size 9 to 14) (size 15 to 20)
#    0.000    1.067    4.000    2.400    0.000    3.733 
#    2.400    2.000    0.000    0.000    0.000    0.000 
#    0.000    0.000    0.000    0.000    0.000    0.000 
#
# Total GULP energy -83529.696662 kJ/mol
# GULP energy per Si atom -5568.646444 kJ/mol
# Density = 2.401409 g / cm^3
# Si number density = 24.068872 Si / 1000 Ang^3
#
#
#
# Elastic Constant Matrix: (Units=GPa)
#
#
# Indices 1 2 3 4 5 6 
#
# 1 118.5460 63.3359 10.9439 7.3831 -7.1169 13.5740
# 2 63.3359 119.7234 7.1842 7.6114 -6.2121 9.8487
# 3 10.9439 7.1842 17.7048 4.6703 3.9670 6.9425
# 4 7.3831 7.6114 4.6703 35.8380 8.3840 -11.0427
# 5 -7.1169 -6.2121 3.9670 8.3840 24.7982 4.5500
# 6 13.5740 9.8487 6.9425 -11.0427 4.5500 62.0728
#
#
#
# Elastic Compliance Matrix: (Units=1/GPa)
#
#
# Indices 1 2 3 4 5 6 
#
# 1 0.012646 -0.005872 -0.004972 -0.002277 0.004087 -0.001982
# 2 -0.005872 0.011839 -0.000731 -0.002068 0.002289 -0.001048
# 3 -0.004972 -0.000731 0.066492 -0.007681 -0.008368 -0.006987
# 4 -0.002277 -0.002068 -0.007681 0.035813 -0.013714 0.009062
# 5 0.004087 0.002289 -0.008368 -0.013714 0.049215 -0.006368
# 6 -0.001982 -0.001048 -0.006987 0.009062 -0.006368 0.019570
#
#
# Mechanical properties :
#
#
# Convention : Reuss Voigt Hill
#
# Bulk Modulus (GPa) = 14.74309 46.54469 30.64389
# Shear Modulus (GPa) = 20.71817 36.17582 28.44699
#
# Velocity S-wave (km/s) = 2.93710 3.88108 3.44161
# Velocity P-wave (km/s) = 4.20009 6.28202 5.34343
#
# Compressibility (1/GPa) = 0.06782839
#
# Stress axis : x y z
#
# Youngs Moduli (GPa) = 79.07777 84.46585 15.03934
#
# Poissons Ratio (x) = 0.49595 0.07478
# Poissons Ratio (y) = 0.46431 0.01099
# Poissons Ratio (z) = 0.39317 0.06173
#
# Static dielectric constant tensor:
#      x y z
#    x 1.988370 0.013700 -0.035790 
#    y 0.013700 1.925140 0.023630 
#    z -0.035790 0.023630 1.923480 
# 
# From -- ./inp_files/81680.got.cif
#   From: 2010.05.17/outbox.cif.g08.bks.cpg/sg2_41_cif.got.tgz:81680.got - 2010.06.03 11:33:40.
