data_PCOD9018942
_publ_section_title
;
Structure prediction by ZEFSAII (Michael W. Deem and Ramdas Pophale) SiO2 
 PCOD9018942
Probable space group: P -1
;
_chemical_formula_sum "Si O2"
_cell_formula_units_Z 15
_cell_length_a 12.357219
_cell_length_b 10.392713
_cell_length_c 9.654681
_cell_angle_alpha 126.088001
_cell_angle_beta 139.220639
_cell_angle_gamma 66.015753
_cell_volume 652.603043
_symmetry_space_group_name_H-M "P -1"
_symmetry_group_IT_number 2
_symmetry_cell_setting 'triclinic'
loop_
_space_group_symop_operation_xyz
x,y,z
-x,-y,-z
loop_
_atom_site_type_symbol
_atom_site_label
_atom_site_fract_x
_atom_site_fract_y
_atom_site_fract_z
Si Si1 0.150894 0.245361 0.569768
Si Si2 0.374147 0.488089 0.493869
Si Si3 0.614316 0.458776 0.960401
Si Si4 0.958786 0.667476 0.000554
Si Si5 0.657847 0.000677 0.551693
Si Si6 0.879222 0.228343 0.061005
Si Si7 0.758950 0.171617 0.475577
Si Si8 0.000000 0.000000 0.500000
O O1 0.236295 0.402963 0.823194
O O2 0.014135 0.267809 0.333601
O O3 0.299835 0.162604 0.583399
O O4 0.057418 0.129865 0.516010
O O5 0.500000 0.500000 0.500000
O O6 0.232660 0.350177 0.232889
O O7 0.296297 0.662007 0.531593
O O8 0.486448 0.447748 0.704496
O O9 0.707919 0.302022 0.979125
O O10 0.500000 0.500000 0.000000
O O11 0.054254 0.689336 0.963658
O O12 0.000000 0.500000 0.000000
O O13 0.039155 0.804931 0.268877
O O14 0.666268 0.118750 0.496637
O O15 0.500000 0.000000 0.500000
O O16 0.817656 0.051353 0.836939
O O17 0.790988 0.040776 0.310371
#
# Coordination Sequence:
#
# PCOD9018942 Si02
#       8
#     2   2   2   2   2   2   2   1
#     4  11  25  43  67  96 133 184 221 278 334 409
#     4  11  23  39  65 100 132 171 214 276 346 392
#     4  12  26  41  65 104 139 167 218 293 353 389
#     4   9  19  37  67  92 125 167 218 265 319 402
#     4  10  21  44  66  96 131 171 225 277 330 403
#     4  11  23  42  68  96 129 179 228 266 335 410
#     4   9  21  40  65  93 126 174 222 268 319 404
#     4  10  24  42  64  88 132 172 234 256 324 404
#
# _framework density 22.984877000000001
#
# number of rings (size 3 to 8) (size 9 to 14) (size 15 to 20)
#    0.000    1.600    0.000    4.800    7.467    1.067 
#    2.400    1.333    0.000    0.000    0.000    0.000 
#    0.000    0.000    0.000    0.000    0.000    0.000 
#
# Total GULP energy -83516.412046 kJ/mol
# GULP energy per Si atom -5567.760803 kJ/mol
# Density = 2.293256 g / cm^3
# Si number density = 22.984877 Si / 1000 Ang^3
#
#
#
# Elastic Constant Matrix: (Units=GPa)
#
#
# Indices 1 2 3 4 5 6 
#
# 1 143.0538 -12.3453 -8.5378 -8.4123 7.8047 3.0477
# 2 -12.3453 45.3044 0.2749 0.4254 7.2804 -1.1592
# 3 -8.5378 0.2749 95.5965 -2.0615 12.3573 11.2640
# 4 -8.4123 0.4254 -2.0615 30.7983 5.0150 5.8945
# 5 7.8047 7.2804 12.3573 5.0150 23.6657 -1.3830
# 6 3.0477 -1.1592 11.2640 5.8945 -1.3830 35.6873
#
#
#
# Elastic Compliance Matrix: (Units=1/GPa)
#
#
# Indices 1 2 3 4 5 6 
#
# 1 0.007862 0.002885 0.001657 0.003419 -0.005179 -0.001866
# 2 0.002885 0.024386 0.001589 0.002292 -0.009811 -0.000715
# 3 0.001657 0.001589 0.012365 0.003590 -0.008540 -0.004916
# 4 0.003419 0.002292 0.003590 0.037091 -0.012031 -0.007943
# 5 -0.005179 -0.009811 -0.008540 -0.012031 0.054394 0.006914
# 6 -0.001866 -0.000715 -0.004916 -0.007943 0.006914 0.031289
#
#
# Mechanical properties :
#
#
# Convention : Reuss Voigt Hill
#
# Bulk Modulus (GPa) = 17.58286 26.97092 22.27689
# Shear Modulus (GPa) = 28.72204 38.33446 33.52825
#
# Velocity S-wave (km/s) = 3.53881 4.08832 3.82345
# Velocity P-wave (km/s) = 4.93598 5.83485 5.40414
#
# Compressibility (1/GPa) = 0.05687356
#
# Stress axis : x y z
#
# Youngs Moduli (GPa) = 127.20175 41.00705 80.87597
#
# Poissons Ratio (x) = -0.11829 -0.13400
# Poissons Ratio (y) = -0.36692 -0.12854
# Poissons Ratio (z) = -0.21075 -0.06517
#
# Static dielectric constant tensor:
#      x y z
#    x 1.848760 -0.276800 0.061090 
#    y -0.276800 2.323090 0.258550 
#    z 0.061090 0.258550 1.820480 
# 
# From -- ./inp_files/260473.got.cif
#   From: 2010.05.17/outbox.cif.g08.bks.cpg/sg2_131_cif.got.tgz:260473.got - 2010.06.03 11:33:40.
