data_PCOD9018864
_publ_section_title
;
Structure prediction by ZEFSAII (Michael W. Deem and Ramdas Pophale) SiO2 
 PCOD9018864
Probable space group: P -1
;
_chemical_formula_sum "Si O2"
_cell_formula_units_Z 13
_cell_length_a 10.368098
_cell_length_b 8.719699
_cell_length_c 9.946666
_cell_angle_alpha 131.777413
_cell_angle_beta 105.669041
_cell_angle_gamma 102.543093
_cell_volume 537.943182
_symmetry_space_group_name_H-M "P -1"
_symmetry_group_IT_number 2
_symmetry_cell_setting 'triclinic'
loop_
_space_group_symop_operation_xyz
x,y,z
-x,-y,-z
loop_
_atom_site_type_symbol
_atom_site_label
_atom_site_fract_x
_atom_site_fract_y
_atom_site_fract_z
Si Si1 0.547347 0.838292 0.142049
Si Si2 0.094064 0.250879 0.406449
Si Si3 0.500000 0.000000 0.500000
Si Si4 0.232770 0.810250 0.805030
Si Si5 0.132240 0.835505 0.080312
Si Si6 0.767650 0.698346 0.242929
Si Si7 0.805992 0.451098 0.862489
O O1 0.500064 0.955870 0.312850
O O2 0.700913 0.857146 0.265964
O O3 0.611132 0.977467 0.102002
O O4 0.398564 0.559477 0.914852
O O5 0.196498 0.546899 0.594588
O O6 0.115847 0.205697 0.541917
O O7 0.915615 0.170192 0.271098
O O8 0.144006 0.090643 0.244108
O O9 0.379047 0.694578 0.312185
O O10 0.225265 0.823867 0.972237
O O11 0.183976 0.769779 0.197334
O O12 0.943661 0.608111 0.884590
O O13 0.839503 0.634800 0.100883
#
# Coordination Sequence:
#
# PCOD9018864 Si02
#       7
#     2   2   1   2   2   2   2
#     4  10  23  42  68  91 133 166 222 267 319 384
#     4  11  24  41  66  96 132 169 216 257 336 375
#     4  10  22  40  64  94 122 170 214 264 316 382
#     4  11  25  43  62 100 132 170 211 275 320 382
#     4  11  23  43  64  97 131 170 213 268 320 388
#     4  10  21  44  65  96 123 179 217 262 320 389
#     4  10  22  40  67  95 130 166 221 265 313 390
#
# _framework density 24.166121
#
# number of rings (size 3 to 8) (size 9 to 14) (size 15 to 20)
#    0.000    1.538    1.538    2.308    4.308    3.077 
#    5.538    0.769    0.000    0.000    0.000    0.000 
#    0.000    0.000    0.000    0.000    0.000    0.000 
#
# Total GULP energy -72483.517087 kJ/mol
# GULP energy per Si atom -5575.655161 kJ/mol
# Density = 2.411112 g / cm^3
# Si number density = 24.166121 Si / 1000 Ang^3
#
#
#
# Elastic Constant Matrix: (Units=GPa)
#
#
# Indices 1 2 3 4 5 6 
#
# 1 66.9767 33.4016 38.8851 -2.5226 1.0065 5.1479
# 2 33.4016 90.5118 78.5579 -4.0695 31.7354 39.0386
# 3 38.8851 78.5579 -19.7211 -1.4483 -119.1330 -32.6286
# 4 -2.5226 -4.0695 -1.4483 34.6665 -15.3209 5.3805
# 5 1.0065 31.7354 -119.1330 -15.3209 -75.0688 -41.4155
# 6 5.1479 39.0386 -32.6286 5.3805 -41.4155 56.4090
#
#
#
# Elastic Compliance Matrix: (Units=1/GPa)
#
#
# Indices 1 2 3 4 5 6 
#
# 1 0.019941 -0.005591 -0.004029 0.001675 0.002989 0.001753
# 2 -0.005591 0.012974 -0.000893 0.005119 0.007835 -0.003721
# 3 -0.004029 -0.000893 0.007963 -0.004610 -0.011000 -0.002045
# 4 0.001675 0.005119 -0.004610 0.032729 0.005732 -0.005275
# 5 0.002989 0.007835 -0.011000 0.005732 0.009446 -0.005669
# 6 0.001753 -0.003721 -0.002045 -0.005275 -0.005669 0.015301
#
#
# Mechanical properties :
#
#
# Convention : Reuss Voigt Hill
#
# Bulk Modulus (GPa) = 50.37007 48.82853 49.59930
# Shear Modulus (GPa) = 39.68312 2.32953 21.00632
#
# Velocity S-wave (km/s) = 4.05668 0.98288 2.95150
# Velocity P-wave (km/s) = 6.54451 4.64083 5.67309
#
# Compressibility (1/GPa) = 0.01985306
#
# Stress axis : x y z
#
# Youngs Moduli (GPa) = 50.14724 77.07460 125.57861
#
# Poissons Ratio (x) = 0.43091 0.50595
# Poissons Ratio (y) = 0.28036 0.11215
# Poissons Ratio (z) = 0.20204 0.06883
#
# Static dielectric constant tensor:
#      x y z
#    x 2.089740 -0.008730 0.113230 
#    y -0.008730 1.929710 0.035650 
#    z 0.113230 0.035650 1.899890 
# 
# From -- ./inp_files/214046.got.cif
#   From: 2010.05.17/outbox.cif.g08.bks.cpg/sg2_108_cif.got.tgz:214046.got - 2010.06.03 11:33:40.
