data_PCOD9018829
_publ_section_title
;
Structure prediction by ZEFSAII (Michael W. Deem and Ramdas Pophale) SiO2 
 PCOD9018829
Probable space group: P -1
;
_chemical_formula_sum "Si O2"
_cell_formula_units_Z 16
_cell_length_a 11.715843
_cell_length_b 6.362821
_cell_length_c 12.494033
_cell_angle_alpha 99.391621
_cell_angle_beta 89.010435
_cell_angle_gamma 132.057625
_cell_volume 676.845198
_symmetry_space_group_name_H-M "P -1"
_symmetry_group_IT_number 2
_symmetry_cell_setting 'triclinic'
loop_
_space_group_symop_operation_xyz
x,y,z
-x,-y,-z
loop_
_atom_site_type_symbol
_atom_site_label
_atom_site_fract_x
_atom_site_fract_y
_atom_site_fract_z
Si Si1 0.240964 0.446194 0.715682
Si Si2 0.407780 0.917892 0.603182
Si Si3 0.557559 0.291864 0.849695
Si Si4 0.886744 0.057712 0.031577
Si Si5 0.837186 0.315363 0.855624
Si Si6 0.060224 0.702016 0.351444
Si Si7 0.877467 0.122988 0.413443
Si Si8 0.419715 0.549689 0.912421
O O1 0.337068 0.606986 0.620043
O O2 0.096253 0.420001 0.714017
O O3 0.352409 0.617040 0.828495
O O4 0.170397 0.124279 0.684514
O O5 0.265515 0.895423 0.581235
O O6 0.500000 0.000000 0.500000
O O7 0.488478 0.113704 0.725367
O O8 0.713485 0.350108 0.868003
O O9 0.533583 0.519077 0.854463
O O10 0.502671 0.231333 0.971079
O O11 0.995856 0.354855 0.122005
O O12 0.734765 0.767923 0.066612
O O13 0.843201 0.148537 0.936417
O O14 0.000000 0.000000 0.000000
O O15 0.813584 0.167133 0.730655
O O16 0.023545 0.432337 0.388021
O O17 0.092300 0.900428 0.465795
#
# Coordination Sequence:
#
# PCOD9018829 Si02
#       8
#     2   2   2   2   2   2   2   2
#     4  11  23  42  70  98 127 184 221 273 346 393
#     4  11  25  45  66  95 138 175 223 278 335 403
#     4  11  25  45  66 101 134 181 226 271 339 401
#     4  11  23  43  64  97 137 173 220 278 336 394
#     4  11  24  40  66  98 132 178 218 275 345 390
#     4  10  22  39  70  97 131 169 227 282 330 402
#     4  10  21  44  64  99 129 175 225 277 335 391
#     4  11  24  44  70  97 138 177 228 277 328 414
#
# _framework density 23.639084
#
# number of rings (size 3 to 8) (size 9 to 14) (size 15 to 20)
#    0.000    1.250    2.500    2.625    3.500    3.500 
#    2.250    0.000    0.000    0.000    0.000    0.000 
#    0.000    0.000    0.000    0.000    0.000    0.000 
#
# Total GULP energy -89261.348946 kJ/mol
# GULP energy per Si atom -5578.834309 kJ/mol
# Density = 2.358528 g / cm^3
# Si number density = 23.639084 Si / 1000 Ang^3
#
#
#
# Elastic Constant Matrix: (Units=GPa)
#
#
# Indices 1 2 3 4 5 6 
#
# 1 129.7167 15.7677 61.7275 -9.1404 9.0300 -7.9999
# 2 15.7677 75.3010 29.5177 0.3111 -11.2749 2.9103
# 3 61.7275 29.5177 153.5135 9.0799 1.8084 -13.9910
# 4 -9.1404 0.3111 9.0799 35.9783 1.0514 -2.3883
# 5 9.0300 -11.2749 1.8084 1.0514 37.8639 -6.1799
# 6 -7.9999 2.9103 -13.9910 -2.3883 -6.1799 15.6115
#
#
#
# Elastic Compliance Matrix: (Units=1/GPa)
#
#
# Indices 1 2 3 4 5 6 
#
# 1 0.010259 -0.001021 -0.003988 0.003792 -0.002421 0.001495
# 2 -0.001021 0.015489 -0.003019 -0.000050 0.004278 -0.004430
# 3 -0.003988 -0.003019 0.009491 -0.002949 0.000806 0.006893
# 4 0.003792 -0.000050 -0.002949 0.029762 -0.001042 0.003451
# 5 -0.002421 0.004278 0.000806 -0.001042 0.029946 0.010379
# 6 0.001495 -0.004430 0.006893 0.003451 0.010379 0.076461
#
#
# Mechanical properties :
#
#
# Convention : Reuss Voigt Hill
#
# Bulk Modulus (GPa) = 52.12856 63.61747 57.87301
# Shear Modulus (GPa) = 25.79180 34.65863 30.22521
#
# Velocity S-wave (km/s) = 3.30671 3.83320 3.57965
# Velocity P-wave (km/s) = 6.05631 6.82361 6.45137
#
# Compressibility (1/GPa) = 0.01918334
#
# Stress axis : x y z
#
# Youngs Moduli (GPa) = 97.47499 64.56097 105.35792
#
# Poissons Ratio (x) = 0.06590 0.42021
# Poissons Ratio (y) = 0.09950 0.31808
# Poissons Ratio (z) = 0.38877 0.19491
#
# Static dielectric constant tensor:
#      x y z
#    x 1.901360 0.001320 0.036920 
#    y 0.001320 1.943510 0.005380 
#    z 0.036920 0.005380 1.926660 
# 
# From -- ./inp_files/410833.got.cif
#   From: 2010.05.17/outbox.cif.g08.bks.cpg/sg2_206_cif.got.tgz:410833.got - 2010.06.03 11:33:40.
