data_PCOD9018723
_publ_section_title
;
Structure prediction by ZEFSAII (Michael W. Deem and Ramdas Pophale) SiO2 
 PCOD9018723
Probable space group: P -1
;
_chemical_formula_sum "Si O2"
_cell_formula_units_Z 14
_cell_length_a 9.212534
_cell_length_b 19.829334
_cell_length_c 8.411092
_cell_angle_alpha 126.097199
_cell_angle_beta 116.269737
_cell_angle_gamma 28.046129
_cell_volume 571.515931
_symmetry_space_group_name_H-M "P -1"
_symmetry_group_IT_number 2
_symmetry_cell_setting 'triclinic'
loop_
_space_group_symop_operation_xyz
x,y,z
-x,-y,-z
loop_
_atom_site_type_symbol
_atom_site_label
_atom_site_fract_x
_atom_site_fract_y
_atom_site_fract_z
Si Si1 0.365336 0.131474 0.228492
Si Si2 0.321106 0.852701 0.052036
Si Si3 0.756930 0.780595 0.369990
Si Si4 0.009219 0.074913 0.721875
Si Si5 0.164985 0.516299 0.652711
Si Si6 0.262192 0.652485 0.220049
Si Si7 0.963976 0.510122 0.810465
O O1 0.050527 0.309498 0.249488
O O2 0.349264 0.115208 0.386843
O O3 0.630903 0.084151 0.269782
O O4 0.500000 0.000000 0.000000
O O5 0.480799 0.861623 0.237409
O O6 0.230845 0.830496 0.119855
O O7 0.599503 0.691574 0.855508
O O8 0.000000 0.000000 0.000000
O O9 0.022524 0.702719 0.277863
O O10 0.910729 0.638343 0.356460
O O11 0.937691 0.191888 0.759534
O O12 0.000000 0.000000 0.500000
O O13 0.517146 0.389992 0.612426
O O14 0.000000 0.500000 0.500000
O O15 0.170358 0.490130 0.804404
O O16 0.500000 0.500000 0.000000
O O17 0.000000 0.500000 0.000000
#
# Coordination Sequence:
#
# PCOD9018723 Si02
#       7
#     2   2   2   2   2   2   2
#     4  12  27  48  74 110 163 200 253 319 384 443
#     4  11  23  44  78 114 146 194 258 315 381 458
#     4  11  24  49  73 111 157 199 251 319 380 456
#     4  12  25  49  74 104 152 201 248 312 383 450
#     4  12  24  48  78 109 144 197 261 311 368 460
#     4  12  26  47  79 109 149 200 245 314 397 450
#     4  10  21  43  77 108 146 189 253 315 374 449
#
# _framework density 24.496252999999999
#
# number of rings (size 3 to 8) (size 9 to 14) (size 15 to 20)
#    0.000    0.571    2.857    6.857    0.000    2.286 
#    7.714    0.000    0.000    0.000    0.000    0.000 
#    0.000    0.000    0.000    0.000    0.000    0.000 
#
# Total GULP energy -78160.859106 kJ/mol
# GULP energy per Si atom -5582.918508 kJ/mol
# Density = 2.444050 g / cm^3
# Si number density = 24.496253 Si / 1000 Ang^3
#
#
#
# Elastic Constant Matrix: (Units=GPa)
#
#
# Indices 1 2 3 4 5 6 
#
# 1 174.1396 50.8747 36.6227 -11.7121 -16.4848 -10.8613
# 2 50.8747 147.7852 25.3295 -2.2447 10.8899 -10.7192
# 3 36.6227 25.3295 123.6710 -12.4475 -1.1087 3.5906
# 4 -11.7121 -2.2447 -12.4475 30.2361 -8.9829 7.2937
# 5 -16.4848 10.8899 -1.1087 -8.9829 29.0079 -2.3018
# 6 -10.8613 -10.7192 3.5906 7.2937 -2.3018 47.5229
#
#
#
# Elastic Compliance Matrix: (Units=1/GPa)
#
#
# Indices 1 2 3 4 5 6 
#
# 1 0.007821 -0.002842 -0.001290 0.004080 0.006801 0.000947
# 2 -0.002842 0.008450 -0.001293 -0.003062 -0.005662 0.001550
# 3 -0.001290 -0.001293 0.009198 0.003988 0.001193 -0.001836
# 4 0.004080 -0.003062 0.003988 0.042288 0.016258 -0.005762
# 5 0.006801 -0.005662 0.001193 0.016258 0.045536 -0.000103
# 6 0.000947 0.001550 -0.001836 -0.005762 -0.000103 0.022627
#
#
# Mechanical properties :
#
#
# Convention : Reuss Voigt Hill
#
# Bulk Modulus (GPa) = 68.40163 74.58330 71.49246
# Shear Modulus (GPa) = 32.97229 43.53798 38.25513
#
# Velocity S-wave (km/s) = 3.67279 4.22042 3.95609
# Velocity P-wave (km/s) = 6.78010 7.36628 7.07926
#
# Compressibility (1/GPa) = 0.01461954
#
# Stress axis : x y z
#
# Youngs Moduli (GPa) = 127.85585 118.34932 108.71674
#
# Poissons Ratio (x) = 0.33633 0.14025
# Poissons Ratio (y) = 0.36334 0.14056
# Poissons Ratio (z) = 0.16493 0.15302
#
# Static dielectric constant tensor:
#      x y z
#    x 1.420340 -0.128200 0.030600 
#    y -0.128200 1.984600 -0.048110 
#    z 0.030600 -0.048110 2.342230 
# 
# From -- ./inp_files/218371.got.cif
#   From: 2010.05.17/outbox.cif.g08.bks.cpg/sg2_110_cif.got.tgz:218371.got - 2010.06.03 11:33:40.
