data_PCOD9018709
_publ_section_title
;
Structure prediction by ZEFSAII (Michael W. Deem and Ramdas Pophale) SiO2 
 PCOD9018709
Probable space group: P -1
;
_chemical_formula_sum "Si O2"
_cell_formula_units_Z 15
_cell_length_a 11.538882
_cell_length_b 9.603421
_cell_length_c 8.303865
_cell_angle_alpha 68.237655
_cell_angle_beta 86.100244
_cell_angle_gamma 45.338596
_cell_volume 581.439121
_symmetry_space_group_name_H-M "P -1"
_symmetry_group_IT_number 2
_symmetry_cell_setting 'triclinic'
loop_
_space_group_symop_operation_xyz
x,y,z
-x,-y,-z
loop_
_atom_site_type_symbol
_atom_site_label
_atom_site_fract_x
_atom_site_fract_y
_atom_site_fract_z
Si Si1 0.000000 0.500000 0.500000
Si Si2 0.671040 0.429086 0.661813
Si Si3 0.498385 0.303161 0.873843
Si Si4 0.601151 0.053405 0.517444
Si Si5 0.182589 0.709364 0.945722
Si Si6 0.221818 0.468591 0.615293
Si Si7 0.795252 0.966472 0.220533
Si Si8 0.946483 0.689979 0.812832
O O1 0.798352 0.636740 0.472220
O O2 0.958814 0.407277 0.331933
O O3 0.581001 0.356230 0.733876
O O4 0.781650 0.357571 0.521697
O O5 0.532590 0.690154 0.534730
O O6 0.774241 0.365102 0.841731
O O7 0.360530 0.509715 0.919367
O O8 0.377324 0.303822 0.790012
O O9 0.652611 0.081945 0.047308
O O10 0.746474 0.887320 0.710593
O O11 0.500000 0.000000 0.500000
O O12 0.699276 0.038501 0.366947
O O13 0.141978 0.922547 0.847721
O O14 0.033562 0.751091 0.863476
O O15 0.942097 0.707547 0.314158
O O16 0.000000 0.500000 0.000000
#
# Coordination Sequence:
#
# PCOD9018709 Si02
#       8
#     1   2   2   2   2   2   2   2
#     4  12  26  44  62  96 150 186 230 284 356 412
#     4  11  21  43  71 106 135 176 236 295 355 416
#     4  10  21  44  73 103 139 178 238 294 351 427
#     4  12  23  40  69 100 133 188 239 282 349 426
#     4  10  21  43  76 104 139 183 239 292 351 427
#     4  11  26  43  68 100 146 180 228 298 356 419
#     4  11  22  44  70 101 139 190 232 288 352 419
#     4  11  26  46  70 102 143 187 235 293 352 432
#
# _framework density 25.798058999999999
#
# number of rings (size 3 to 8) (size 9 to 14) (size 15 to 20)
#    0.000    1.067    4.000    2.800    3.733    2.133 
#    2.400    2.667    0.000    0.000    0.000    0.000 
#    0.000    0.000    0.000    0.000    0.000    0.000 
#
# Total GULP energy -83822.858919 kJ/mol
# GULP energy per Si atom -5588.190595 kJ/mol
# Density = 2.573934 g / cm^3
# Si number density = 25.798059 Si / 1000 Ang^3
#
#
#
# Elastic Constant Matrix: (Units=GPa)
#
#
# Indices 1 2 3 4 5 6 
#
# 1 175.5820 35.5894 95.2303 -22.5339 32.3342 0.9685
# 2 35.5894 82.2053 53.1157 -25.8120 1.1360 -0.9529
# 3 95.2303 53.1157 183.0954 -43.9981 5.6971 6.9698
# 4 -22.5339 -25.8120 -43.9981 47.3257 -8.1245 -8.6444
# 5 32.3342 1.1360 5.6971 -8.1245 54.6825 4.5370
# 6 0.9685 -0.9529 6.9698 -8.6444 4.5370 28.3229
#
#
#
# Elastic Compliance Matrix: (Units=1/GPa)
#
#
# Indices 1 2 3 4 5 6 
#
# 1 0.009276 -0.001347 -0.004629 -0.001303 -0.005270 0.001223
# 2 -0.001347 0.016601 -0.002654 0.006763 0.001477 0.003085
# 3 -0.004629 -0.002654 0.010023 0.005947 0.002716 -0.001018
# 4 -0.001303 0.006763 0.005947 0.031869 0.004092 0.007880
# 5 -0.005270 0.001477 0.002716 0.004092 0.021922 -0.002701
# 6 0.001223 0.003085 -0.001018 0.007880 -0.002701 0.038457
#
#
# Mechanical properties :
#
#
# Convention : Reuss Voigt Hill
#
# Bulk Modulus (GPa) = 53.64887 89.86149 71.75518
# Shear Modulus (GPa) = 32.97720 43.19605 38.08663
#
# Velocity S-wave (km/s) = 3.57919 4.09637 3.84648
# Velocity P-wave (km/s) = 6.15805 7.56848 6.89940
#
# Compressibility (1/GPa) = 0.01863972
#
# Stress axis : x y z
#
# Youngs Moduli (GPa) = 107.81002 60.23600 99.77547
#
# Poissons Ratio (x) = 0.08112 0.46190
# Poissons Ratio (y) = 0.14518 0.26478
# Poissons Ratio (z) = 0.49910 0.15985
#
# Static dielectric constant tensor:
#      x y z
#    x 1.849390 -0.282990 -0.152570 
#    y -0.282990 2.018500 0.049380 
#    z -0.152570 0.049380 1.963900 
# 
# From -- ./inp_files/262063.got.cif
#   From: 2010.05.17/outbox.cif.g08.bks.cpg/sg2_132_cif.got.tgz:262063.got - 2010.06.03 11:33:40.
