data_PCOD9018248
_publ_section_title
;
Structure prediction by ZEFSAII (Michael W. Deem and Ramdas Pophale) SiO2 
 PCOD9018248
Probable space group: P -1
;
_chemical_formula_sum "Si O2"
_cell_formula_units_Z 15
_cell_length_a 16.074778
_cell_length_b 18.526934
_cell_length_c 8.142018
_cell_angle_alpha 60.431518
_cell_angle_beta 133.234789
_cell_angle_gamma 156.041376
_cell_volume 641.403265
_symmetry_space_group_name_H-M "P -1"
_symmetry_group_IT_number 2
_symmetry_cell_setting 'triclinic'
loop_
_space_group_symop_operation_xyz
x,y,z
-x,-y,-z
loop_
_atom_site_type_symbol
_atom_site_label
_atom_site_fract_x
_atom_site_fract_y
_atom_site_fract_z
Si Si1 0.500000 0.000000 0.500000
Si Si2 0.369004 0.084141 0.781465
Si Si3 0.532827 0.172800 0.441373
Si Si4 0.143342 0.194899 0.756347
Si Si5 0.671155 0.113976 0.900743
Si Si6 0.909448 0.032027 0.138401
Si Si7 0.222685 0.547641 0.279381
Si Si8 0.553448 0.595507 0.720717
O O1 0.662595 0.199261 0.449243
O O2 0.764816 0.141037 0.819161
O O3 0.635537 0.310155 0.838074
O O4 0.416466 0.018428 0.953666
O O5 0.220606 0.024301 0.804939
O O6 0.150212 0.953713 0.485529
O O7 0.720686 0.355952 0.596324
O O8 0.457454 0.034769 0.598734
O O9 0.284935 0.061205 0.163577
O O10 0.353800 0.386763 0.716056
O O11 0.100184 0.073658 0.770799
O O12 0.269668 0.275809 0.017782
O O13 0.909578 0.322486 0.071284
O O14 0.221259 0.265560 0.271452
O O15 0.374393 0.560012 0.493190
#
# Coordination Sequence:
#
# PCOD9018248 Si02
#       8
#     1   2   2   2   2   2   2   2
#     4   8  20  44  68  88 126 174 204 264 328 366
#     4  12  24  39  65  96 132 169 215 266 314 386
#     4  10  21  43  69  89 130 176 205 271 320 378
#     4  11  23  40  60  94 127 167 218 256 320 381
#     4  10  22  45  64  93 130 166 214 272 312 379
#     4  12  22  42  62  93 133 170 213 259 324 374
#     4  12  23  40  68  96 129 171 217 259 323 383
#     4  11  24  39  63  93 130 171 208 266 319 382
#
# _framework density 23.386222
#
# number of rings (size 3 to 8) (size 9 to 14) (size 15 to 20)
#    0.800    0.267    5.333    2.000    0.000    2.133 
#    0.000    4.000    0.000    0.000    0.000    0.000 
#    0.000    0.000    0.000    0.000    0.000    0.000 
#
# Total GULP energy -83557.416312 kJ/mol
# GULP energy per Si atom -5570.494421 kJ/mol
# Density = 2.333299 g / cm^3
# Si number density = 23.386222 Si / 1000 Ang^3
#
#
#
# Elastic Constant Matrix: (Units=GPa)
#
#
# Indices 1 2 3 4 5 6 
#
# 1 86.3559 45.9594 35.3260 -2.1077 2.7668 0.6639
# 2 45.9594 134.0935 33.8468 -15.3449 16.9610 7.4972
# 3 35.3260 33.8468 141.0766 -19.5549 21.7117 -8.2208
# 4 -2.1077 -15.3449 -19.5549 39.8291 -17.4041 5.6095
# 5 2.7668 16.9610 21.7117 -17.4041 27.0889 -5.5655
# 6 0.6639 7.4972 -8.2208 5.6095 -5.5655 22.5783
#
#
#
# Elastic Compliance Matrix: (Units=1/GPa)
#
#
# Indices 1 2 3 4 5 6 
#
# 1 0.015541 -0.005186 -0.003334 -0.001371 0.003719 0.001309
# 2 -0.005186 0.010571 -0.000421 0.001880 -0.005647 -0.005370
# 3 -0.003334 -0.000421 0.009175 0.001559 -0.005364 0.001869
# 4 -0.001371 0.001880 0.001559 0.035773 0.019874 -0.004005
# 5 0.003719 -0.005647 -0.005364 0.019874 0.059078 0.009438
# 6 0.001309 -0.005370 0.001869 -0.004005 0.009438 0.050037
#
#
# Mechanical properties :
#
#
# Convention : Reuss Voigt Hill
#
# Bulk Modulus (GPa) = 57.45129 65.75449 61.60289
# Shear Modulus (GPa) = 24.52721 34.32551 29.42636
#
# Velocity S-wave (km/s) = 3.24201 3.83530 3.55107
# Velocity P-wave (km/s) = 6.21561 6.91307 6.57360
#
# Compressibility (1/GPa) = 0.01740605
#
# Stress axis : x y z
#
# Youngs Moduli (GPa) = 64.34693 94.60155 108.99762
#
# Poissons Ratio (x) = 0.49056 0.36335
# Poissons Ratio (y) = 0.33367 0.04587
# Poissons Ratio (z) = 0.21450 0.03981
#
# Static dielectric constant tensor:
#      x y z
#    x 2.023530 -0.038350 -0.094560 
#    y -0.038350 1.880210 -0.012630 
#    z -0.094560 -0.012630 1.964790 
# 
# From -- ./inp_files/349505.got.cif
#   From: 2010.05.17/outbox.cif.g08.bks.cpg/sg2_175_cif.got.tgz:349505.got - 2010.06.03 11:33:40.
