data_PCOD9018134
_publ_section_title
;
Structure prediction by ZEFSAII (Michael W. Deem and Ramdas Pophale) SiO2 
 PCOD9018134
Probable space group: P -1
;
_chemical_formula_sum "Si O2"
_cell_formula_units_Z 12
_cell_length_a 7.731488
_cell_length_b 7.241813
_cell_length_c 12.246982
_cell_angle_alpha 87.264985
_cell_angle_beta 135.484404
_cell_angle_gamma 75.186867
_cell_volume 437.192266
_symmetry_space_group_name_H-M "P -1"
_symmetry_group_IT_number 2
_symmetry_cell_setting 'triclinic'
loop_
_space_group_symop_operation_xyz
x,y,z
-x,-y,-z
loop_
_atom_site_type_symbol
_atom_site_label
_atom_site_fract_x
_atom_site_fract_y
_atom_site_fract_z
Si Si1 0.969527 0.586780 0.653499
Si Si2 0.879146 0.676693 0.850820
Si Si3 0.068366 0.893440 0.178930
Si Si4 0.503923 0.924742 0.833306
Si Si5 0.041429 0.008597 0.388467
Si Si6 0.399066 0.363011 0.700690
O O1 0.940219 0.559075 0.767616
O O2 0.832747 0.830282 0.575034
O O3 0.275289 0.504832 0.745944
O O4 0.800904 0.522154 0.491773
O O5 0.575444 0.793621 0.757447
O O6 0.953258 0.875626 0.864001
O O7 0.000000 0.500000 0.000000
O O8 0.302121 0.732046 0.212874
O O9 0.158000 0.848757 0.347274
O O10 0.782658 0.887351 0.020855
O O11 0.275521 0.890871 0.797882
O O12 0.373484 0.161009 0.737640
O O13 0.000000 0.000000 0.500000
#
# Coordination Sequence:
#
# PCOD9018134 Si02
#       6
#     2   2   2   2   2   2
#     4  10  23  42  68  99 136 175 216 287 318 400
#     4  10  23  42  67 100 133 175 226 265 334 390
#     4  10  24  43  70  96 137 178 215 280 328 397
#     4  11  23  42  68  96 138 174 220 270 334 397
#     4  11  23  41  66 102 130 175 224 269 331 395
#     4  10  21  43  68  95 136 174 224 268 347 374
#
# _framework density 27.447876000000001
#
# number of rings (size 3 to 8) (size 9 to 14) (size 15 to 20)
#    0.000    1.667    1.667    2.500    2.333    7.333 
#    0.000    9.167    0.000    0.000    0.000    0.000 
#    0.000    0.000    0.000    0.000    0.000    0.000 
#
# Total GULP energy -66967.858525 kJ/mol
# GULP energy per Si atom -5580.654877 kJ/mol
# Density = 2.738540 g / cm^3
# Si number density = 27.447876 Si / 1000 Ang^3
#
#
#
# Elastic Constant Matrix: (Units=GPa)
#
#
# Indices 1 2 3 4 5 6 
#
# 1 93.5776 30.7618 38.8150 9.6868 -21.5375 -26.3266
# 2 30.7618 115.1371 32.6861 -4.5454 -15.6778 -33.0251
# 3 38.8150 32.6861 93.5506 1.0698 -38.8629 -14.7398
# 4 9.6868 -4.5454 1.0698 45.4376 -7.0223 -16.8757
# 5 -21.5375 -15.6778 -38.8629 -7.0223 63.8848 8.8657
# 6 -26.3266 -33.0251 -14.7398 -16.8757 8.8657 61.7277
#
#
#
# Elastic Compliance Matrix: (Units=1/GPa)
#
#
# Indices 1 2 3 4 5 6 
#
# 1 0.014473 -0.001440 -0.004415 -0.001552 0.001148 0.003759
# 2 -0.001440 0.011705 -0.002358 0.003869 0.000536 0.006066
# 3 -0.004415 -0.002358 0.016800 0.001640 0.008316 0.000121
# 4 -0.001552 0.003869 0.001640 0.026349 0.003133 0.008553
# 5 0.001148 0.000536 0.008316 0.003133 0.021502 0.000531
# 6 0.003759 0.006066 0.000121 0.008553 0.000531 0.023340
#
#
# Mechanical properties :
#
#
# Convention : Reuss Voigt Hill
#
# Bulk Modulus (GPa) = 37.66176 56.31012 46.98594
# Shear Modulus (GPa) = 35.85616 47.54352 41.69984
#
# Velocity S-wave (km/s) = 3.61825 4.16641 3.90197
# Velocity P-wave (km/s) = 5.58629 6.61099 6.12012
#
# Compressibility (1/GPa) = 0.02655213
#
# Stress axis : x y z
#
# Youngs Moduli (GPa) = 69.09182 85.43244 59.52299
#
# Poissons Ratio (x) = 0.12306 0.26280
# Poissons Ratio (y) = 0.09952 0.14035
# Poissons Ratio (z) = 0.30504 0.20144
#
# Static dielectric constant tensor:
#      x y z
#    x 2.162480 0.014140 0.050120 
#    y 0.014140 2.236860 0.044640 
#    z 0.050120 0.044640 2.327240 
# 
# From -- ./inp_files/379325.got.cif
#   From: 2010.05.17/outbox.cif.g08.bks.cpg/sg2_190_cif.got.tgz:379325.got - 2010.06.03 11:33:40.
