data_PCOD9018626
_publ_section_title
;
Structure prediction by ZEFSAII (Michael W. Deem and Ramdas Pophale) SiO2 
 PCOD9018626
Probable space group: P -1
;
_chemical_formula_sum "Si O2"
_cell_formula_units_Z 16
_cell_length_a 13.541348
_cell_length_b 14.321328
_cell_length_c 14.805844
_cell_angle_alpha 139.077180
_cell_angle_beta 139.758356
_cell_angle_gamma 20.212222
_cell_volume 630.864911
_symmetry_space_group_name_H-M "P -1"
_symmetry_group_IT_number 2
_symmetry_cell_setting 'triclinic'
loop_
_space_group_symop_operation_xyz
x,y,z
-x,-y,-z
loop_
_atom_site_type_symbol
_atom_site_label
_atom_site_fract_x
_atom_site_fract_y
_atom_site_fract_z
Si Si1 0.901572 0.492639 0.759365
Si Si2 0.197470 0.859846 0.944506
Si Si3 0.588112 0.724438 0.525239
Si Si4 0.603549 0.567360 0.771614
Si Si5 0.479584 0.958227 0.057810
Si Si6 0.675843 0.548609 0.267926
Si Si7 0.299545 0.044445 0.249656
Si Si8 0.977681 0.013695 0.700521
O O1 0.787811 0.541377 0.617986
O O2 0.721715 0.546179 0.747908
O O3 0.242348 0.205704 0.811532
O O4 0.810299 0.732690 0.881949
O O5 0.404721 0.554777 0.867669
O O6 0.031324 0.978059 0.819827
O O7 0.335897 0.904998 0.090380
O O8 0.000000 0.000000 0.000000
O O9 0.747699 0.532892 0.408580
O O10 0.551638 0.922666 0.632710
O O11 0.273851 0.897949 0.435506
O O12 0.849669 0.266542 0.761919
O O13 0.522513 0.756770 0.924303
O O14 0.290948 0.736800 0.669033
O O15 0.500000 0.000000 0.000000
O O16 0.957232 0.344603 0.251065
O O17 0.431566 0.851792 0.284775
#
# Coordination Sequence:
#
# PCOD9018626 Si02
#       8
#     2   2   2   2   2   2   2   2
#     4  11  25  44  73 107 147 188 245 306 353 439
#     4  10  24  48  75 106 139 187 249 303 355 433
#     4  12  28  47  70 113 153 195 243 298 372 439
#     4  11  24  45  72 100 143 195 243 293 372 419
#     4  10  21  43  73 103 140 183 240 308 364 408
#     4  11  24  48  74 106 148 194 237 305 374 436
#     4  11  26  45  78 105 145 190 251 303 364 433
#     4  12  27  44  72 103 150 194 238 298 368 441
#
# _framework density 25.362003999999999
#
# number of rings (size 3 to 8) (size 9 to 14) (size 15 to 20)
#    0.000    1.000    0.000    7.125    3.500   10.000 
#    0.000    0.000    0.000    0.000    0.000    0.000 
#    0.000    0.000    0.000    0.000    0.000    0.000 
#
# Total GULP energy -89714.136085 kJ/mol
# GULP energy per Si atom -5607.133505 kJ/mol
# Density = 2.530428 g / cm^3
# Si number density = 25.362004 Si / 1000 Ang^3
#
#
#
# Elastic Constant Matrix: (Units=GPa)
#
#
# Indices 1 2 3 4 5 6 
#
# 1 85.8686 24.4923 44.7303 1.5481 7.1717 15.0271
# 2 24.4923 116.2573 21.6022 -9.5794 0.4212 18.7341
# 3 44.7303 21.6022 148.7145 -4.1871 10.9035 20.3413
# 4 1.5481 -9.5794 -4.1871 46.9018 4.7620 2.9266
# 5 7.1717 0.4212 10.9035 4.7620 40.8920 -3.1116
# 6 15.0271 18.7341 20.3413 2.9266 -3.1116 41.8796
#
#
#
# Elastic Compliance Matrix: (Units=1/GPa)
#
#
# Indices 1 2 3 4 5 6 
#
# 1 0.014775 -0.002070 -0.003683 -0.000903 -0.001684 -0.002649
# 2 -0.002070 0.009874 -0.000216 0.002324 -0.000237 -0.003749
# 3 -0.003683 -0.000216 0.008440 0.001212 -0.001965 -0.002912
# 4 -0.000903 0.002324 0.001212 0.022435 -0.003037 -0.003098
# 5 -0.001684 -0.000237 -0.001965 -0.003037 0.025920 0.003803
# 6 -0.002649 -0.003749 -0.002912 -0.003098 0.003803 0.028419
#
#
# Mechanical properties :
#
#
# Convention : Reuss Voigt Hill
#
# Bulk Modulus (GPa) = 47.27797 59.16557 53.22177
# Shear Modulus (GPa) = 38.80427 43.26905 41.03666
#
# Velocity S-wave (km/s) = 3.91579 4.13493 4.02685
# Velocity P-wave (km/s) = 6.25510 6.79528 6.53078
#
# Compressibility (1/GPa) = 0.02115150
#
# Stress axis : x y z
#
# Youngs Moduli (GPa) = 67.68138 101.27234 118.48416
#
# Poissons Ratio (x) = 0.20962 0.43638
# Poissons Ratio (y) = 0.14009 0.02561
# Poissons Ratio (z) = 0.24927 0.02189
#
# Static dielectric constant tensor:
#      x y z
#    x 2.053430 -0.002210 0.051040 
#    y -0.002210 1.952650 0.001330 
#    z 0.051040 0.001330 2.024180 
# 
# From -- ./inp_files/534455.got.cif
#   From: 2010.05.17/outbox.cif.g08.bks.cpg/sg2_268_cif.got.tgz:534455.got - 2010.06.03 11:33:40.
