data_PCOD9018444
_publ_section_title
;
Structure prediction by ZEFSAII (Michael W. Deem and Ramdas Pophale) SiO2 
 PCOD9018444
Probable space group: P -1
;
_chemical_formula_sum "Si O2"
_cell_formula_units_Z 16
_cell_length_a 11.721525
_cell_length_b 12.279790
_cell_length_c 5.943486
_cell_angle_alpha 97.581302
_cell_angle_beta 54.049727
_cell_angle_gamma 99.147586
_cell_volume 682.938710
_symmetry_space_group_name_H-M "P -1"
_symmetry_group_IT_number 2
_symmetry_cell_setting 'triclinic'
loop_
_space_group_symop_operation_xyz
x,y,z
-x,-y,-z
loop_
_atom_site_type_symbol
_atom_site_label
_atom_site_fract_x
_atom_site_fract_y
_atom_site_fract_z
Si Si1 0.583148 0.948091 0.690203
Si Si2 0.077482 0.008566 0.163040
Si Si3 0.226003 0.254357 0.049295
Si Si4 0.310138 0.874844 0.698303
Si Si5 0.440835 0.278831 0.152270
Si Si6 0.028093 0.399557 0.599968
Si Si7 0.717646 0.336170 0.102503
Si Si8 0.266343 0.428882 0.666109
O O1 0.465198 0.906761 0.631915
O O2 0.637765 0.834803 0.681173
O O3 0.690192 0.047660 0.499037
O O4 0.500000 0.000000 0.000000
O O5 0.169760 0.127119 0.070089
O O6 0.187262 0.915764 0.007070
O O7 0.000000 0.000000 0.500000
O O8 0.000000 0.000000 0.000000
O O9 0.387696 0.270159 0.956851
O O10 0.122599 0.312650 0.352305
O O11 0.224456 0.325314 0.846808
O O12 0.291957 0.742965 0.688809
O O13 0.604084 0.285055 0.035373
O O14 0.381128 0.386483 0.354303
O O15 0.125328 0.450127 0.702860
O O16 0.000000 0.500000 0.500000
O O17 0.876725 0.343304 0.832887
O O18 0.683743 0.459512 0.231866
#
# Coordination Sequence:
#
# PCOD9018444 Si02
#       8
#     2   2   2   2   2   2   2   2
#     4  10  21  43  70  97 138 189 235 303 374 439
#     4  12  29  46  75 111 151 199 253 312 372 455
#     4  11  25  45  73  98 145 192 233 307 373 443
#     4  10  24  42  67 102 140 184 244 302 364 440
#     4  10  24  43  69 103 139 183 240 299 372 443
#     4  11  24  45  68  99 139 191 243 300 368 442
#     4  11  23  45  68 103 141 185 246 303 363 450
#     4  11  24  44  70  99 143 189 239 299 376 440
#
# _framework density 23.428163000000001
#
# number of rings (size 3 to 8) (size 9 to 14) (size 15 to 20)
#    0.000    1.250    1.250    3.000    8.750    2.500 
#    6.750    0.000    0.000    0.000    0.000    0.000 
#    0.000    0.000    0.000    0.000    0.000    0.000 
#
# Total GULP energy -89393.373024 kJ/mol
# GULP energy per Si atom -5587.085814 kJ/mol
# Density = 2.337484 g / cm^3
# Si number density = 23.428163 Si / 1000 Ang^3
#
#
#
# Elastic Constant Matrix: (Units=GPa)
#
#
# Indices 1 2 3 4 5 6 
#
# 1 124.6273 19.8723 16.7565 -16.1235 7.7705 2.5702
# 2 19.8723 115.1768 19.4595 -9.1972 -1.4449 0.1784
# 3 16.7565 19.4595 81.2433 -7.5851 -4.9492 4.7306
# 4 -16.1235 -9.1972 -7.5851 41.5957 -6.1676 -0.1853
# 5 7.7705 -1.4449 -4.9492 -6.1676 30.6100 -1.5808
# 6 2.5702 0.1784 4.7306 -0.1853 -1.5808 36.4309
#
#
#
# Elastic Compliance Matrix: (Units=1/GPa)
#
#
# Indices 1 2 3 4 5 6 
#
# 1 0.008868 -0.001106 -0.001412 0.002632 -0.002028 -0.000511
# 2 -0.001106 0.009305 -0.001844 0.001401 0.000720 0.000310
# 3 -0.001412 -0.001844 0.013475 0.001904 0.002756 -0.001512
# 4 0.002632 0.001401 0.001904 0.026464 0.005034 -0.000087
# 5 -0.002028 0.000720 0.002756 0.005034 0.034745 0.001315
# 6 -0.000511 0.000310 -0.001512 -0.000087 0.001315 0.027737
#
#
# Mechanical properties :
#
#
# Convention : Reuss Voigt Hill
#
# Bulk Modulus (GPa) = 43.62246 48.13599 45.87922
# Shear Modulus (GPa) = 36.50706 39.39127 37.94917
#
# Velocity S-wave (km/s) = 3.95176 4.10489 4.02905
# Velocity P-wave (km/s) = 6.28346 6.56183 6.42416
#
# Compressibility (1/GPa) = 0.02292397
#
# Stress axis : x y z
#
# Youngs Moduli (GPa) = 112.76954 107.46821 74.20968
#
# Poissons Ratio (x) = 0.11885 0.10479
# Poissons Ratio (y) = 0.12471 0.13685
# Poissons Ratio (z) = 0.15924 0.19818
#
# Static dielectric constant tensor:
#      x y z
#    x 1.869870 -0.013780 0.031870 
#    y -0.013780 1.854070 0.003530 
#    z 0.031870 0.003530 1.963160 
# 
# From -- ./inp_files/70340.got.cif
#   From: 2010.05.17/outbox.cif.g08.bks.cpg/sg2_36_cif.got.tgz:70340.got - 2010.06.03 11:33:40.
