data_PCOD9018990
_publ_section_title
;
Structure prediction by ZEFSAII (Michael W. Deem and Ramdas Pophale) SiO2 
 PCOD9018990
Probable space group: P -1
;
_chemical_formula_sum "Si O2"
_cell_formula_units_Z 16
_cell_length_a 7.620505
_cell_length_b 8.239073
_cell_length_c 12.013355
_cell_angle_alpha 78.079787
_cell_angle_beta 94.112373
_cell_angle_gamma 118.143266
_cell_volume 650.461730
_symmetry_space_group_name_H-M "P -1"
_symmetry_group_IT_number 2
_symmetry_cell_setting 'triclinic'
loop_
_space_group_symop_operation_xyz
x,y,z
-x,-y,-z
loop_
_atom_site_type_symbol
_atom_site_label
_atom_site_fract_x
_atom_site_fract_y
_atom_site_fract_z
Si Si1 0.370741 0.264728 0.269016
Si Si2 0.594417 0.593874 0.104299
Si Si3 0.772139 0.076348 0.799942
Si Si4 0.712423 0.173234 0.530622
Si Si5 0.956366 0.209501 0.324424
Si Si6 0.804432 0.867276 0.229595
Si Si7 0.996737 0.551473 0.122772
Si Si8 0.339977 0.505039 0.575041
O O1 0.418201 0.467431 0.197382
O O2 0.548994 0.326455 0.354484
O O3 0.160735 0.192882 0.331209
O O4 0.386538 0.144121 0.183381
O O5 0.665034 0.800985 0.124268
O O6 0.794659 0.570522 0.127717
O O7 0.500000 0.500000 0.000000
O O8 0.743793 0.125666 0.664719
O O9 0.818230 0.247034 0.861016
O O10 0.974371 0.057744 0.817118
O O11 0.878882 0.188957 0.448393
O O12 0.758681 0.391559 0.512678
O O13 0.500000 0.000000 0.500000
O O14 0.983830 0.391883 0.231015
O O15 0.793956 0.028807 0.275858
O O16 0.761913 0.690679 0.335030
O O17 0.000000 0.500000 0.000000
O O18 0.500000 0.500000 0.500000
#
# Coordination Sequence:
#
# PCOD9018990 Si02
#       8
#     2   2   2   2   2   2   2   2
#     4  10  22  41  63  96 128 173 211 265 325 394
#     4  10  21  44  67  91 130 168 213 273 334 381
#     4  10  23  41  66  91 134 171 218 262 330 383
#     4  12  24  40  66  99 135 174 215 271 321 388
#     4  11  24  42  67  96 132 167 225 264 321 396
#     4   9  22  40  62  92 126 173 208 262 323 388
#     4  11  25  45  67  97 127 171 226 276 322 385
#     4  11  23  39  59  91 133 170 214 255 322 383
#
# _framework density 24.597913999999999
#
# number of rings (size 3 to 8) (size 9 to 14) (size 15 to 20)
#    0.000    1.500    1.250    3.750    3.500    3.000 
#    2.250    5.000    0.000    0.000    0.000    0.000 
#    0.000    0.000    0.000    0.000    0.000    0.000 
#
# Total GULP energy -89150.141207 kJ/mol
# GULP energy per Si atom -5571.883825 kJ/mol
# Density = 2.454193 g / cm^3
# Si number density = 24.597914 Si / 1000 Ang^3
#
#
#
# Elastic Constant Matrix: (Units=GPa)
#
#
# Indices 1 2 3 4 5 6 
#
# 1 39.9397 1.1058 -9.4675 -1.2246 -8.6358 1.0112
# 2 1.1058 112.0777 -3.0170 32.2521 5.5911 1.6082
# 3 -9.4675 -3.0170 54.2033 27.0760 -4.6049 11.5978
# 4 -1.2246 32.2521 27.0760 38.9035 1.1544 -0.7414
# 5 -8.6358 5.5911 -4.6049 1.1544 36.6237 4.3299
# 6 1.0112 1.6082 11.5978 -0.7414 4.3299 26.7281
#
#
#
# Elastic Compliance Matrix: (Units=1/GPa)
#
#
# Indices 1 2 3 4 5 6 
#
# 1 0.030464 0.003331 0.014684 -0.012505 0.010062 -0.009701
# 2 0.003331 0.016614 0.016276 -0.025237 0.002184 -0.009242
# 3 0.014684 0.016276 0.055600 -0.052673 0.013086 -0.029242
# 4 -0.012505 -0.025237 -0.052673 0.083797 -0.011798 0.029083
# 5 0.010062 0.002184 0.013086 -0.011798 0.032759 -0.011824
# 6 -0.009701 -0.009242 -0.029242 0.029083 -0.011824 0.053748
#
#
# Mechanical properties :
#
#
# Convention : Reuss Voigt Hill
#
# Bulk Modulus (GPa) = 5.83913 20.38479 13.11196
# Shear Modulus (GPa) = 19.12141 34.95768 27.03955
#
# Velocity S-wave (km/s) = 2.79114 3.77392 3.31911
# Velocity P-wave (km/s) = 3.57299 5.22448 4.47557
#
# Compressibility (1/GPa) = 0.17125843
#
# Stress axis : x y z
#
# Youngs Moduli (GPa) = 32.82551 60.19126 17.98565
#
# Poissons Ratio (x) = -0.20047 -0.26410
# Poissons Ratio (y) = -0.10933 -0.29274
# Poissons Ratio (z) = -0.48200 -0.97968
#
# Static dielectric constant tensor:
#      x y z
#    x 2.072600 0.030020 0.220260 
#    y 0.030020 2.113330 -0.063270 
#    z 0.220260 -0.063270 2.373780 
# 
# From -- ./inp_files/214531.got.cif
#   From: 2010.05.17/outbox.cif.g08.bks.cpg/sg2_108_cif.got.tgz:214531.got - 2010.06.03 11:33:40.
