data_PCOD9018176
_publ_section_title
;
Structure prediction by ZEFSAII (Michael W. Deem and Ramdas Pophale) SiO2 
 PCOD9018176
Probable space group: P -1
;
_chemical_formula_sum "Si O2"
_cell_formula_units_Z 14
_cell_length_a 11.647842
_cell_length_b 7.328592
_cell_length_c 8.287627
_cell_angle_alpha 95.270888
_cell_angle_beta 109.274739
_cell_angle_gamma 67.699710
_cell_volume 617.397955
_symmetry_space_group_name_H-M "P -1"
_symmetry_group_IT_number 2
_symmetry_cell_setting 'triclinic'
loop_
_space_group_symop_operation_xyz
x,y,z
-x,-y,-z
loop_
_atom_site_type_symbol
_atom_site_label
_atom_site_fract_x
_atom_site_fract_y
_atom_site_fract_z
Si Si1 0.185980 0.410551 0.705621
Si Si2 0.140761 0.940283 0.244887
Si Si3 0.402201 0.896766 0.498066
Si Si4 0.522109 0.683228 0.227759
Si Si5 0.022462 0.778043 0.430634
Si Si6 0.393871 0.773288 0.845696
Si Si7 0.847785 0.236538 0.101990
O O1 0.331948 0.312658 0.697251
O O2 0.190948 0.528114 0.882482
O O3 0.107945 0.265205 0.671659
O O4 0.003758 0.125002 0.181234
O O5 0.249029 0.999073 0.390921
O O6 0.108760 0.772713 0.313706
O O7 0.186509 0.847094 0.085047
O O8 0.450228 0.723297 0.370622
O O9 0.414374 0.858688 0.691181
O O10 0.500000 0.000000 0.500000
O O11 0.542766 0.460373 0.175102
O O12 0.451691 0.811238 0.047011
O O13 0.103656 0.597966 0.570402
O O14 0.000000 0.000000 0.500000
O O15 0.240594 0.818391 0.811317
#
# Coordination Sequence:
#
# PCOD9018176 Si02
#       7
#     2   2   2   2   2   2   2
#     4  10  23  42  69 101 132 178 233 279 340 415
#     4  11  23  41  66  97 138 177 228 287 340 404
#     4  12  27  41  66 102 138 181 225 283 347 415
#     4  10  22  45  65  98 133 176 234 274 337 423
#     4  11  23  41  69  99 136 179 226 286 343 401
#     4  10  22  44  70  91 135 182 223 284 343 405
#     4  10  21  43  68  98 131 177 234 282 342 405
#
# _framework density 22.675810999999999
#
# number of rings (size 3 to 8) (size 9 to 14) (size 15 to 20)
#    0.000    1.429    2.857    2.143    2.000    1.143 
#    5.143    0.000    0.000    0.000    0.000    0.000 
#    0.000    0.000    0.000    0.000    0.000    0.000 
#
# Total GULP energy -78117.233477 kJ/mol
# GULP energy per Si atom -5579.802391 kJ/mol
# Density = 2.262420 g / cm^3
# Si number density = 22.675811 Si / 1000 Ang^3
#
#
#
# Elastic Constant Matrix: (Units=GPa)
#
#
# Indices 1 2 3 4 5 6 
#
# 1 109.6033 32.8530 41.0016 0.4495 -1.0144 20.5569
# 2 32.8530 86.3298 35.7278 1.8231 -2.5852 12.4155
# 3 41.0016 35.7278 109.3146 -11.0582 -23.1743 5.2509
# 4 0.4495 1.8231 -11.0582 21.2727 -2.8046 -7.2728
# 5 -1.0144 -2.5852 -23.1743 -2.8046 51.2708 3.4151
# 6 20.5569 12.4155 5.2509 -7.2728 3.4151 36.2226
#
#
#
# Elastic Compliance Matrix: (Units=1/GPa)
#
#
# Indices 1 2 3 4 5 6 
#
# 1 0.012727 -0.001853 -0.004748 -0.005128 -0.001818 -0.006758
# 2 -0.001853 0.014997 -0.004866 -0.005455 -0.001489 -0.004338
# 3 -0.004748 -0.004866 0.014804 0.010346 0.006674 0.003664
# 4 -0.005128 -0.005455 0.010346 0.058771 0.006551 0.014463
# 5 -0.001818 -0.001489 0.006674 0.006551 0.022786 -0.000258
# 6 -0.006758 -0.004338 0.003664 0.014463 -0.000258 0.035326
#
#
# Mechanical properties :
#
#
# Convention : Reuss Voigt Hill
#
# Bulk Modulus (GPa) = 51.03086 58.26804 54.64945
# Shear Modulus (GPa) = 26.47265 34.79756 30.63511
#
# Velocity S-wave (km/s) = 3.42049 3.92161 3.67959
# Velocity P-wave (km/s) = 6.17682 6.80127 6.49655
#
# Compressibility (1/GPa) = 0.01959598
#
# Stress axis : x y z
#
# Youngs Moduli (GPa) = 78.57412 66.68124 67.54780
#
# Poissons Ratio (x) = 0.12354 0.32069
# Poissons Ratio (y) = 0.14558 0.32866
# Poissons Ratio (z) = 0.37304 0.32445
#
# Static dielectric constant tensor:
#      x y z
#    x 1.857130 -0.032230 -0.006910 
#    y -0.032230 1.866510 0.048010 
#    z -0.006910 0.048010 2.047230 
# 
# From -- ./inp_files/61063.got.cif
#   From: 2010.05.17/outbox.cif.g08.bks.cpg/sg2_31_cif.got.tgz:61063.got - 2010.06.03 11:33:40.
