data_PCOD9018198
_publ_section_title
;
Structure prediction by ZEFSAII (Michael W. Deem and Ramdas Pophale) SiO2 
 PCOD9018198
Probable space group: P -1
;
_chemical_formula_sum "Si O2"
_cell_formula_units_Z 15
_cell_length_a 5.195925
_cell_length_b 16.950786
_cell_length_c 7.267081
_cell_angle_alpha 68.808305
_cell_angle_beta 76.933757
_cell_angle_gamma 95.941739
_cell_volume 569.095692
_symmetry_space_group_name_H-M "P -1"
_symmetry_group_IT_number 2
_symmetry_cell_setting 'triclinic'
loop_
_space_group_symop_operation_xyz
x,y,z
-x,-y,-z
loop_
_atom_site_type_symbol
_atom_site_label
_atom_site_fract_x
_atom_site_fract_y
_atom_site_fract_z
Si Si1 0.500000 0.500000 0.500000
Si Si2 0.644823 0.596888 0.017873
Si Si3 0.694696 0.965830 0.273649
Si Si4 0.021497 0.643553 0.426629
Si Si5 0.512416 0.755434 0.079046
Si Si6 0.260637 0.052894 0.162975
Si Si7 0.334485 0.228854 0.527354
Si Si8 0.760437 0.380281 0.230529
O O1 0.510000 0.545149 0.257254
O O2 0.779049 0.573628 0.449920
O O3 0.668727 0.697260 0.985353
O O4 0.442603 0.579852 0.892950
O O5 0.946347 0.591001 0.923828
O O6 0.725698 0.872116 0.420431
O O7 0.402692 0.989458 0.313207
O O8 0.721809 0.963713 0.046678
O O9 0.940846 0.036301 0.254385
O O10 0.893732 0.713352 0.507267
O O11 0.208214 0.700146 0.196366
O O12 0.209922 0.597813 0.572557
O O13 0.613679 0.764749 0.266002
O O14 0.566327 0.851590 0.913436
O O15 0.608648 0.280015 0.346292
#
# Coordination Sequence:
#
# PCOD9018198 Si02
#       8
#     1   2   2   2   2   2   2   2
#     4  12  28  48  76 102 142 162 240 278 358 388
#     4  12  26  47  70 103 132 187 217 295 328 422
#     4   9  19  30  59  94 137 166 223 277 337 371
#     4  11  24  47  70 105 132 189 219 295 330 419
#     4  10  23  39  71  97 141 176 237 271 351 386
#     4   9  19  32  55 101 132 170 216 290 323 391
#     4  10  21  43  69 100 134 184 228 278 331 414
#     4  11  26  46  71  99 139 181 236 261 355 401
#
# _framework density 26.357603999999998
#
# number of rings (size 3 to 8) (size 9 to 14) (size 15 to 20)
#    0.000    1.600    2.667    0.800   11.200    3.200 
#    0.000    0.000    0.000    4.800    0.000    0.000 
#    0.000    0.000    0.000    0.000    0.000    0.000 
#
# Total GULP energy -83839.850980 kJ/mol
# GULP energy per Si atom -5589.323399 kJ/mol
# Density = 2.629761 g / cm^3
# Si number density = 26.357604 Si / 1000 Ang^3
#
#
#
# Elastic Constant Matrix: (Units=GPa)
#
#
# Indices 1 2 3 4 5 6 
#
# 1 174.9170 50.9086 57.4954 -15.6504 -1.5874 18.2325
# 2 50.9086 88.8746 55.0083 -22.3768 0.8310 9.7757
# 3 57.4954 55.0083 112.4419 -1.9999 -5.3372 7.6633
# 4 -15.6504 -22.3768 -1.9999 39.1351 -5.2467 -2.7288
# 5 -1.5874 0.8310 -5.3372 -5.2467 48.2539 1.7251
# 6 18.2325 9.7757 7.6633 -2.7288 1.7251 36.6347
#
#
#
# Elastic Compliance Matrix: (Units=1/GPa)
#
#
# Indices 1 2 3 4 5 6 
#
# 1 0.007599 -0.002001 -0.002690 0.001612 0.000254 -0.002577
# 2 -0.002001 0.020664 -0.008781 0.010408 -0.000193 -0.001897
# 3 -0.002690 -0.008781 0.014510 -0.005194 0.001095 0.000208
# 4 0.001612 0.010408 -0.005194 0.032244 0.002813 -0.000224
# 5 0.000254 -0.000193 0.001095 0.002813 0.021202 -0.001093
# 6 -0.002577 -0.001897 0.000208 -0.000224 -0.001093 0.029077
#
#
# Mechanical properties :
#
#
# Convention : Reuss Voigt Hill
#
# Bulk Modulus (GPa) = 63.17456 78.11759 70.64607
# Shear Modulus (GPa) = 31.74302 38.99281 35.36792
#
# Velocity S-wave (km/s) = 3.47410 3.85044 3.66710
# Velocity P-wave (km/s) = 6.33346 7.03347 6.69263
#
# Compressibility (1/GPa) = 0.01582916
#
# Stress axis : x y z
#
# Youngs Moduli (GPa) = 131.60092 48.39434 68.91659
#
# Poissons Ratio (x) = 0.09681 0.18542
# Poissons Ratio (y) = 0.26327 0.60514
# Poissons Ratio (z) = 0.35406 0.42494
#
# Static dielectric constant tensor:
#      x y z
#    x 1.836270 0.180320 0.170430 
#    y 0.180320 1.818810 -0.094980 
#    z 0.170430 -0.094980 2.013290 
# 
# From -- ./inp_files/136580.got.cif
#   From: 2010.05.17/outbox.cif.g08.bks.cpg/sg2_69_cif.got.tgz:136580.got - 2010.06.03 11:33:40.
