data_PCOD9018478
_publ_section_title
;
Structure prediction by ZEFSAII (Michael W. Deem and Ramdas Pophale) SiO2 
 PCOD9018478
Probable space group: P -1
;
_chemical_formula_sum "Si O2"
_cell_formula_units_Z 12
_cell_length_a 12.415391
_cell_length_b 8.707971
_cell_length_c 9.065562
_cell_angle_alpha 91.036351
_cell_angle_beta 54.780489
_cell_angle_gamma 130.716470
_cell_volume 495.092797
_symmetry_space_group_name_H-M "P -1"
_symmetry_group_IT_number 2
_symmetry_cell_setting 'triclinic'
loop_
_space_group_symop_operation_xyz
x,y,z
-x,-y,-z
loop_
_atom_site_type_symbol
_atom_site_label
_atom_site_fract_x
_atom_site_fract_y
_atom_site_fract_z
Si Si1 0.730946 0.197451 0.239292
Si Si2 0.087310 0.905829 0.461079
Si Si3 0.998384 0.175501 0.147723
Si Si4 0.724274 0.629505 0.330316
Si Si5 0.550523 0.974182 0.802393
Si Si6 0.144015 0.511609 0.593136
O O1 0.819555 0.108337 0.198176
O O2 0.896357 0.447854 0.214101
O O3 0.500000 0.000000 0.500000
O O4 0.657406 0.188835 0.137783
O O5 0.978724 0.754173 0.699224
O O6 0.340118 0.095803 0.285868
O O7 0.027225 0.735440 0.372383
O O8 0.000000 0.000000 0.500000
O O9 0.907660 0.919874 0.228581
O O10 0.204873 0.366674 0.885537
O O11 0.500000 0.500000 0.500000
O O12 0.706622 0.488853 0.469689
O O13 0.734379 0.252226 0.594059
O O14 0.500000 0.000000 0.000000
#
# Coordination Sequence:
#
# PCOD9018478 Si02
#       6
#     2   2   2   2   2   2
#     4  10  21  43  71 101 138 186 241 291 352 433
#     4  12  25  46  68 105 146 188 238 302 362 427
#     4  11  24  46  71 100 148 190 237 304 361 425
#     4  11  25  43  71 105 140 190 245 295 364 440
#     4  11  26  45  72 106 148 182 238 303 363 427
#     4  11  24  43  70 100 142 184 243 288 362 431
#
# _framework density 24.237881000000002
#
# number of rings (size 3 to 8) (size 9 to 14) (size 15 to 20)
#    0.000    1.000    5.000    2.500    2.333    3.333 
#    0.000    1.667    0.000    0.000    0.000    0.000 
#    0.000    0.000    0.000    0.000    0.000    0.000 
#
# Total GULP energy -66990.405097 kJ/mol
# GULP energy per Si atom -5582.533758 kJ/mol
# Density = 2.418271 g / cm^3
# Si number density = 24.237881 Si / 1000 Ang^3
#
#
#
# Elastic Constant Matrix: (Units=GPa)
#
#
# Indices 1 2 3 4 5 6 
#
# 1 204.9931 37.6820 68.5978 13.8542 -11.8583 3.5366
# 2 37.6820 117.0339 14.9670 21.8794 9.8266 14.3436
# 3 68.5978 14.9670 115.5661 31.6516 -4.9597 15.0616
# 4 13.8542 21.8794 31.6516 41.2214 7.3157 13.2169
# 5 -11.8583 9.8266 -4.9597 7.3157 46.8925 2.3580
# 6 3.5366 14.3436 15.0616 13.2169 2.3580 50.6392
#
#
#
# Elastic Compliance Matrix: (Units=1/GPa)
#
#
# Indices 1 2 3 4 5 6 
#
# 1 0.006609 -0.002114 -0.004127 0.001534 0.001393 0.000899
# 2 -0.002114 0.010341 0.001455 -0.005012 -0.001674 -0.001828
# 3 -0.004127 0.001455 0.013905 -0.009799 0.001741 -0.001783
# 4 0.001534 -0.005012 -0.009799 0.036440 -0.005029 -0.005050
# 5 0.001393 -0.001674 0.001741 -0.005029 0.022992 0.000101
# 6 0.000899 -0.001828 -0.001783 -0.005050 0.000101 0.022046
#
#
# Mechanical properties :
#
#
# Convention : Reuss Voigt Hill
#
# Bulk Modulus (GPa) = 46.98642 75.56518 61.27580
# Shear Modulus (GPa) = 38.75958 48.84038 43.79998
#
# Velocity S-wave (km/s) = 4.00325 4.49379 4.25560
# Velocity P-wave (km/s) = 6.38715 7.62691 7.03439
#
# Compressibility (1/GPa) = 0.02128275
#
# Stress axis : x y z
#
# Youngs Moduli (GPa) = 151.30274 96.70437 71.91518
#
# Poissons Ratio (x) = 0.20446 0.29678
# Poissons Ratio (y) = 0.31989 -0.10463
# Poissons Ratio (z) = 0.62441 -0.14069
#
# Static dielectric constant tensor:
#      x y z
#    x 1.965340 0.004490 -0.009390 
#    y 0.004490 2.084180 0.031310 
#    z -0.009390 0.031310 2.018570 
# 
# From -- ./inp_files/238931.got.cif
#   From: 2010.05.17/outbox.cif.g08.bks.cpg/sg2_120_cif.got.tgz:238931.got - 2010.06.03 11:33:40.
