data_PCOD9018359
_publ_section_title
;
Structure prediction by ZEFSAII (Michael W. Deem and Ramdas Pophale) SiO2 
 PCOD9018359
Probable space group: P -1
;
_chemical_formula_sum "Si O2"
_cell_formula_units_Z 13
_cell_length_a 13.235676
_cell_length_b 9.463903
_cell_length_c 4.929267
_cell_angle_alpha 75.878672
_cell_angle_beta 59.720140
_cell_angle_gamma 94.188535
_cell_volume 502.727017
_symmetry_space_group_name_H-M "P -1"
_symmetry_group_IT_number 2
_symmetry_cell_setting 'triclinic'
loop_
_space_group_symop_operation_xyz
x,y,z
-x,-y,-z
loop_
_atom_site_type_symbol
_atom_site_label
_atom_site_fract_x
_atom_site_fract_y
_atom_site_fract_z
Si Si1 0.000000 0.000000 0.500000
Si Si2 0.492923 0.662252 0.251881
Si Si3 0.885916 0.437580 0.880242
Si Si4 0.996453 0.741653 0.815157
Si Si5 0.439599 0.131094 0.433356
Si Si6 0.693796 0.524321 0.777644
Si Si7 0.822639 0.864301 0.328920
O O1 0.039533 0.834138 0.444995
O O2 0.877728 0.950327 0.479443
O O3 0.519928 0.805207 0.947632
O O4 0.591355 0.569191 0.080743
O O5 0.516095 0.731122 0.484109
O O6 0.367329 0.558712 0.369027
O O7 0.899917 0.586688 0.975902
O O8 0.766676 0.418804 0.877740
O O9 0.000000 0.500000 0.500000
O O10 0.906812 0.304429 0.102566
O O11 0.925790 0.870629 0.952836
O O12 0.294530 0.089323 0.646159
O O13 0.500000 0.000000 0.500000
O O14 0.780973 0.687147 0.532727
#
# Coordination Sequence:
#
# PCOD9018359 Si02
#       7
#     1   2   2   2   2   2   2
#     4  12  24  44  62 104 128 190 232 268 364 426
#     4  10  24  44  73 103 136 181 240 284 361 416
#     4  11  21  40  64 101 134 175 227 288 348 408
#     4  11  23  40  66  93 138 180 229 281 344 429
#     4  11  25  47  69 103 138 183 233 294 351 422
#     4  10  21  43  70 101 136 176 233 296 347 418
#     4  11  24  43  70  91 139 182 228 288 347 426
#
# _framework density 25.858965000000001
#
# number of rings (size 3 to 8) (size 9 to 14) (size 15 to 20)
#    0.000    1.231    3.077    1.846    2.154    8.000 
#    5.538    0.000    0.000    0.000    0.000    0.000 
#    0.000    0.000    0.000    0.000    0.000    0.000 
#
# Total GULP energy -72668.599636 kJ/mol
# GULP energy per Si atom -5589.892280 kJ/mol
# Density = 2.580011 g / cm^3
# Si number density = 25.858965 Si / 1000 Ang^3
#
#
#
# Elastic Constant Matrix: (Units=GPa)
#
#
# Indices 1 2 3 4 5 6 
#
# 1 212.6676 70.5874 36.0767 -19.9162 26.7604 -9.7552
# 2 70.5874 115.7634 33.4509 -16.4961 4.5533 -5.7687
# 3 36.0767 33.4509 59.1816 -17.3196 10.4411 -12.3687
# 4 -19.9162 -16.4961 -17.3196 51.5419 -4.1339 22.8758
# 5 26.7604 4.5533 10.4411 -4.1339 40.9250 -20.8397
# 6 -9.7552 -5.7687 -12.3687 22.8758 -20.8397 62.9846
#
#
#
# Elastic Compliance Matrix: (Units=1/GPa)
#
#
# Indices 1 2 3 4 5 6 
#
# 1 0.006637 -0.003388 -0.001291 0.001337 -0.004220 -0.001418
# 2 -0.003388 0.012192 -0.004888 0.001154 0.002191 -0.000062
# 3 -0.001291 -0.004888 0.022671 0.004883 -0.003450 0.000889
# 4 0.001337 0.001154 0.004883 0.025830 -0.004533 -0.009609
# 5 -0.004220 0.002191 -0.003450 -0.004533 0.033235 0.011512
# 6 -0.001418 -0.000062 0.000889 -0.009609 0.011512 0.023125
#
#
# Mechanical properties :
#
#
# Convention : Reuss Voigt Hill
#
# Bulk Modulus (GPa) = 44.71197 74.20472 59.45834
# Shear Modulus (GPa) = 33.27154 47.59015 40.43084
#
# Velocity S-wave (km/s) = 3.59089 4.29461 3.95842
# Velocity P-wave (km/s) = 5.87545 7.30410 6.62837
#
# Compressibility (1/GPa) = 0.02236538
#
# Stress axis : x y z
#
# Youngs Moduli (GPa) = 150.67097 82.02411 44.11016
#
# Poissons Ratio (x) = 0.27789 0.05696
# Poissons Ratio (y) = 0.51046 0.21559
# Poissons Ratio (z) = 0.19457 0.40090
#
# Static dielectric constant tensor:
#      x y z
#    x 1.970560 -0.019160 -0.027940 
#    y -0.019160 2.119800 -0.047310 
#    z -0.027940 -0.047310 2.364930 
# 
# From -- ./inp_files/24250.got.cif
#   From: 2010.05.17/outbox.cif.g08.bks.cpg/sg2_13_cif.got.tgz:24250.got - 2010.06.03 11:33:40.
