data_PCOD9018865
_publ_section_title
;
Structure prediction by ZEFSAII (Michael W. Deem and Ramdas Pophale) SiO2 
 PCOD9018865
Probable space group: P -1
;
_chemical_formula_sum "Si O2"
_cell_formula_units_Z 16
_cell_length_a 18.995367
_cell_length_b 10.147368
_cell_length_c 22.248805
_cell_angle_alpha 35.946948
_cell_angle_beta 18.203177
_cell_angle_gamma 36.085156
_cell_volume 768.360594
_symmetry_space_group_name_H-M "P -1"
_symmetry_group_IT_number 2
_symmetry_cell_setting 'triclinic'
loop_
_space_group_symop_operation_xyz
x,y,z
-x,-y,-z
loop_
_atom_site_type_symbol
_atom_site_label
_atom_site_fract_x
_atom_site_fract_y
_atom_site_fract_z
Si Si1 0.087445 0.137661 0.550298
Si Si2 0.203210 0.451748 0.435474
Si Si3 0.567227 0.286145 0.633041
Si Si4 0.683346 0.517119 0.040830
Si Si5 0.828039 0.622994 0.369884
Si Si6 0.136898 0.893564 0.869945
Si Si7 0.134031 0.416859 0.861250
Si Si8 0.783242 0.817948 0.943504
O O1 0.207601 0.218112 0.481626
O O2 0.002228 0.354725 0.496158
O O3 0.243407 0.931374 0.462556
O O4 0.865836 0.052638 0.786574
O O5 0.176742 0.436140 0.534256
O O6 0.446796 0.517044 0.200347
O O7 0.677181 0.483344 0.502877
O O8 0.399746 0.375399 0.679331
O O9 0.397922 0.205176 0.849272
O O10 0.682286 0.757215 0.984849
O O11 0.910264 0.447068 0.842123
O O12 0.698580 0.334129 0.152070
O O13 0.759280 0.900342 0.316592
O O14 0.955393 0.806345 0.006056
O O15 0.000000 0.000000 0.000000
O O16 0.020340 0.620580 0.833068
O O17 0.000000 0.500000 0.000000
#
# Coordination Sequence:
#
# PCOD9018865 Si02
#       8
#     2   2   2   2   2   2   2   2
#     4  11  27  45  64  94 126 168 224 268 319 378
#     4  11  27  45  64  94 126 168 224 268 319 378
#     4  11  23  42  67  97 129 169 216 260 320 387
#     4  10  21  44  65  96 132 167 209 263 320 383
#     4  11  23  42  67  97 129 169 216 260 320 387
#     4   9  21  38  63  96 131 163 207 253 316 390
#     4   9  21  38  63  96 131 163 207 253 316 390
#     4  10  21  44  65  96 132 167 209 263 320 383
#
# _framework density 20.823556
#
# number of rings (size 3 to 8) (size 9 to 14) (size 15 to 20)
#    0.000    1.750    2.500    0.000    7.000    4.000 
#    0.000    2.500    0.000    0.000    0.000    0.000 
#    0.000    0.000    0.000    0.000    0.000    0.000 
#
# Total GULP energy -89291.325809 kJ/mol
# GULP energy per Si atom -5580.707863 kJ/mol
# Density = 2.077616 g / cm^3
# Si number density = 20.823556 Si / 1000 Ang^3
#
#
#
# Elastic Constant Matrix: (Units=GPa)
#
#
# Indices 1 2 3 4 5 6 
#
# 1 99.6441 59.8431 57.5208 -13.4311 -17.2779 32.7323
# 2 59.8431 48.9029 26.5155 -2.7381 -10.8516 13.6576
# 3 57.5208 26.5155 104.4591 4.7007 -2.3685 11.1773
# 4 -13.4311 -2.7381 4.7007 26.6209 8.9685 -5.6008
# 5 -17.2779 -10.8516 -2.3685 8.9685 31.4545 -9.8280
# 6 32.7323 13.6576 11.1773 -5.6008 -9.8280 34.1483
#
#
#
# Elastic Compliance Matrix: (Units=1/GPa)
#
#
# Indices 1 2 3 4 5 6 
#
# 1 0.116940 -0.109224 -0.033250 0.044371 -0.004726 -0.051606
# 2 -0.109224 0.129151 0.025057 -0.041312 0.011118 0.041264
# 3 -0.033250 0.025057 0.020871 -0.015322 0.000250 0.012577
# 4 0.044371 -0.041312 -0.015322 0.059543 -0.012656 -0.014870
# 5 -0.004726 0.011118 0.000250 -0.012656 0.039569 0.009314
# 6 -0.051606 0.041264 0.012577 -0.014870 0.009314 0.058372
#
#
# Mechanical properties :
#
#
# Convention : Reuss Voigt Hill
#
# Bulk Modulus (GPa) = 31.12518 60.08501 45.60509
# Shear Modulus (GPa) = 7.46280 25.71986 16.59133
#
# Velocity S-wave (km/s) = 1.89515 3.51826 2.82575
# Velocity P-wave (km/s) = 4.44616 6.73952 5.70918
#
# Compressibility (1/GPa) = 0.03212833
#
# Stress axis : x y z
#
# Youngs Moduli (GPa) = 8.55140 7.74286 47.91229
#
# Poissons Ratio (x) = 0.84571 1.59310
# Poissons Ratio (y) = 0.93402 -1.20055
# Poissons Ratio (z) = 0.28434 -0.19401
#
# Static dielectric constant tensor:
#      x y z
#    x 1.743090 -0.031900 -0.014320 
#    y -0.031900 1.756710 -0.013760 
#    z -0.014320 -0.013760 1.775490 
# 
# From -- ./inp_files/599702.got.cif
#   From: 2010.05.17/outbox.cif.g08.bks.cpg/sg2_300_cif.got.tgz:599702.got - 2010.06.03 11:33:40.
