data_PCOD9018756
_publ_section_title
;
Structure prediction by ZEFSAII (Michael W. Deem and Ramdas Pophale) SiO2 
 PCOD9018756
Probable space group: P -1
;
_chemical_formula_sum "Si O2"
_cell_formula_units_Z 14
_cell_length_a 12.225840
_cell_length_b 13.146675
_cell_length_c 6.680758
_cell_angle_alpha 109.194892
_cell_angle_beta 81.162766
_cell_angle_gamma 146.096518
_cell_volume 550.972922
_symmetry_space_group_name_H-M "P -1"
_symmetry_group_IT_number 2
_symmetry_cell_setting 'triclinic'
loop_
_space_group_symop_operation_xyz
x,y,z
-x,-y,-z
loop_
_atom_site_type_symbol
_atom_site_label
_atom_site_fract_x
_atom_site_fract_y
_atom_site_fract_z
Si Si1 0.606337 0.972859 0.519985
Si Si2 0.274883 0.218843 0.317292
Si Si3 0.439096 0.525045 0.222761
Si Si4 0.031673 0.819681 0.180507
Si Si5 0.383706 0.609432 0.939635
Si Si6 0.243890 0.639810 0.690748
Si Si7 0.097844 0.757534 0.712685
O O1 0.431447 0.780468 0.580240
O O2 0.500000 0.000000 0.500000
O O3 0.797603 0.109870 0.705166
O O4 0.720615 0.035788 0.321527
O O5 0.262404 0.320783 0.264691
O O6 0.388392 0.326124 0.564399
O O7 0.427196 0.274341 0.168442
O O8 0.086275 0.989921 0.262853
O O9 0.500000 0.500000 0.000000
O O10 0.411138 0.613910 0.170090
O O11 0.811251 0.623055 0.204790
O O12 0.027631 0.770212 0.925818
O O13 0.312430 0.665628 0.911941
O O14 0.172617 0.704096 0.744513
O O15 0.073295 0.421769 0.509993
#
# Coordination Sequence:
#
# PCOD9018756 Si02
#       7
#     2   2   2   2   2   2   2
#     4  10  22  42  59  87 127 173 222 266 308 366
#     4  10  23  47  66  94 133 161 212 266 322 391
#     4   9  22  46  72  93 123 170 207 261 333 392
#     4  12  25  39  65 101 127 170 218 263 318 380
#     4  11  23  41  66 101 127 169 215 261 328 375
#     4  10  21  44  62  89 135 176 215 268 308 374
#     4  10  24  42  61  92 134 174 221 262 312 370
#
# _framework density 25.409597000000002
#
# number of rings (size 3 to 8) (size 9 to 14) (size 15 to 20)
#    0.000    1.714    2.857    0.000    2.000    6.857 
#    2.571    6.429    0.000    0.000    0.000    0.000 
#    0.000    0.000    0.000    0.000    0.000    0.000 
#
# Total GULP energy -78216.491932 kJ/mol
# GULP energy per Si atom -5586.892281 kJ/mol
# Density = 2.535176 g / cm^3
# Si number density = 25.409597 Si / 1000 Ang^3
#
#
#
# Elastic Constant Matrix: (Units=GPa)
#
#
# Indices 1 2 3 4 5 6 
#
# 1 79.0018 12.0976 56.1495 -10.8229 41.8810 -8.4658
# 2 12.0976 119.6665 -8.6999 -14.6623 18.5619 -21.6909
# 3 56.1495 -8.6999 114.4567 -25.2173 26.3356 -33.3139
# 4 -10.8229 -14.6623 -25.2173 32.4919 -15.5283 7.7250
# 5 41.8810 18.5619 26.3356 -15.5283 50.0751 -15.1550
# 6 -8.4658 -21.6909 -33.3139 7.7250 -15.1550 36.5560
#
#
#
# Elastic Compliance Matrix: (Units=1/GPa)
#
#
# Indices 1 2 3 4 5 6 
#
# 1 0.051710 -0.010704 -0.032503 -0.023608 -0.040318 -0.035723
# 2 -0.010704 0.013883 0.012372 0.011052 0.005918 0.017151
# 3 -0.032503 0.012372 0.036920 0.025181 0.022304 0.037384
# 4 -0.023608 0.011052 0.025181 0.054482 0.026403 0.023471
# 5 -0.040318 0.005918 0.022304 0.026403 0.057921 0.032933
# 6 -0.035723 0.017151 0.037384 0.023471 0.032933 0.072022
#
#
# Mechanical properties :
#
#
# Convention : Reuss Voigt Hill
#
# Bulk Modulus (GPa) = 24.48456 48.02439 36.25448
# Shear Modulus (GPa) = 13.80369 40.72978 27.26673
#
# Velocity S-wave (km/s) = 2.33329 4.00800 3.27936
# Velocity P-wave (km/s) = 4.11289 6.35295 5.35144
#
# Compressibility (1/GPa) = 0.04084206
#
# Stress axis : x y z
#
# Youngs Moduli (GPa) = 19.33869 72.02922 27.08591
#
# Poissons Ratio (x) = 0.77102 0.88037
# Poissons Ratio (y) = 0.20701 -0.33511
# Poissons Ratio (z) = 0.62856 -0.89114
#
# Static dielectric constant tensor:
#      x y z
#    x 2.072190 -0.064140 0.024860 
#    y -0.064140 2.050080 0.083850 
#    z 0.024860 0.083850 1.995500 
# 
# From -- ./inp_files/98276.got.cif
#   From: 2010.05.17/outbox.cif.g08.bks.cpg/sg2_50_cif.got.tgz:98276.got - 2010.06.03 11:33:40.
