data_PCOD9018381
_publ_section_title
;
Structure prediction by ZEFSAII (Michael W. Deem and Ramdas Pophale) SiO2 
 PCOD9018381
Probable space group: P -1
;
_chemical_formula_sum "Si O2"
_cell_formula_units_Z 16
_cell_length_a 16.954459
_cell_length_b 11.910564
_cell_length_c 5.237270
_cell_angle_alpha 120.108777
_cell_angle_beta 113.275167
_cell_angle_gamma 39.896276
_cell_volume 586.717418
_symmetry_space_group_name_H-M "P -1"
_symmetry_group_IT_number 2
_symmetry_cell_setting 'triclinic'
loop_
_space_group_symop_operation_xyz
x,y,z
-x,-y,-z
loop_
_atom_site_type_symbol
_atom_site_label
_atom_site_fract_x
_atom_site_fract_y
_atom_site_fract_z
Si Si1 0.893600 0.015087 0.791304
Si Si2 0.797347 0.698403 0.009366
Si Si3 0.616570 0.679700 0.526537
Si Si4 0.220626 0.607786 0.943848
Si Si5 0.235816 0.006009 0.993477
Si Si6 0.607562 0.968710 0.469871
Si Si7 0.585286 0.422659 0.279402
Si Si8 0.070199 0.685992 0.333653
O O1 0.942332 0.900455 0.458644
O O2 0.777383 0.237878 0.888000
O O3 0.865499 0.928344 0.850333
O O4 0.000000 0.000000 0.000000
O O5 0.699735 0.712133 0.748428
O O6 0.918384 0.479502 0.890121
O O7 0.805970 0.834472 0.070420
O O8 0.731047 0.777221 0.289106
O O9 0.480085 0.864652 0.656095
O O10 0.638064 0.511918 0.465190
O O11 0.651634 0.605663 0.189130
O O12 0.145912 0.658157 0.160402
O O13 0.138670 0.642336 0.640002
O O14 0.345830 0.965903 0.224171
O O15 0.304425 0.798228 0.782197
O O16 0.500000 0.000000 0.500000
O O17 0.500000 0.500000 0.500000
O O18 0.500000 0.500000 0.000000
#
# Coordination Sequence:
#
# PCOD9018381 Si02
#       8
#     2   2   2   2   2   2   2   2
#     4  10  23  49  73 104 141 188 242 313 375 427
#     4  11  26  44  70 106 146 199 244 296 364 444
#     4  11  22  43  70 102 144 194 237 290 365 435
#     4  10  21  43  70 108 135 183 241 298 361 435
#     4  12  26  47  70 109 149 188 249 305 365 443
#     4  12  24  42  70 103 149 192 239 291 362 440
#     4  12  27  45  69 109 148 191 245 301 362 437
#     4  10  23  43  73  99 138 188 244 295 362 428
#
# _framework density 27.270365999999999
#
# number of rings (size 3 to 8) (size 9 to 14) (size 15 to 20)
#    0.000    1.000    3.750    2.250    3.500    2.500 
#    9.000    0.625    0.000    0.000    0.000    0.000 
#    0.000    0.000    0.000    0.000    0.000    0.000 
#
# Total GULP energy -89371.455568 kJ/mol
# GULP energy per Si atom -5585.715973 kJ/mol
# Density = 2.720830 g / cm^3
# Si number density = 27.270366 Si / 1000 Ang^3
#
#
#
# Elastic Constant Matrix: (Units=GPa)
#
#
# Indices 1 2 3 4 5 6 
#
# 1 180.0492 33.9825 43.1970 1.2820 2.9278 40.1220
# 2 33.9825 114.6212 34.4571 31.3372 -4.4727 10.7442
# 3 43.1970 34.4571 119.3995 21.9760 -20.7795 16.1182
# 4 1.2820 31.3372 21.9760 56.8671 -0.0878 1.0493
# 5 2.9278 -4.4727 -20.7795 -0.0878 54.6376 1.5565
# 6 40.1220 10.7442 16.1182 1.0493 1.5565 62.4892
#
#
#
# Elastic Compliance Matrix: (Units=1/GPa)
#
#
# Indices 1 2 3 4 5 6 
#
# 1 0.007235 -0.001639 -0.002145 0.001637 -0.001227 -0.003807
# 2 -0.001639 0.011238 -0.001492 -0.005571 0.000443 -0.000413
# 3 -0.002145 -0.001492 0.011121 -0.003397 0.004253 -0.001283
# 4 0.001637 -0.005571 -0.003397 0.021919 -0.001813 0.000460
# 5 -0.001227 0.000443 0.004253 -0.001813 0.020043 -0.000854
# 6 -0.003807 -0.000413 -0.001283 0.000460 -0.000854 0.018863
#
#
# Mechanical properties :
#
#
# Convention : Reuss Voigt Hill
#
# Bulk Modulus (GPa) = 52.51874 70.81590 61.66732
# Shear Modulus (GPa) = 46.59073 54.96099 50.77586
#
# Velocity S-wave (km/s) = 4.13785 4.49420 4.31970
# Velocity P-wave (km/s) = 6.49072 7.27701 6.89508
#
# Compressibility (1/GPa) = 0.01904082
#
# Stress axis : x y z
#
# Youngs Moduli (GPa) = 138.22360 88.98552 89.92281
#
# Poissons Ratio (x) = 0.14581 0.19292
# Poissons Ratio (y) = 0.22649 0.13417
# Poissons Ratio (z) = 0.29655 0.13277
#
# Static dielectric constant tensor:
#      x y z
#    x 2.191910 -0.058700 -0.051860 
#    y -0.058700 2.554720 -0.058410 
#    z -0.051860 -0.058410 2.149440 
# 
# From -- ./inp_files/109869.got.cif
#   From: 2010.05.17/outbox.cif.g08.bks.cpg/sg2_55_cif.got.tgz:109869.got - 2010.06.03 11:33:40.
