data_PCOD9018065
_publ_section_title
;
Structure prediction by ZEFSAII (Michael W. Deem and Ramdas Pophale) SiO2 
 PCOD9018065
Probable space group: P -1
;
_chemical_formula_sum "Si O2"
_cell_formula_units_Z 16
_cell_length_a 8.357115
_cell_length_b 10.758178
_cell_length_c 14.028264
_cell_angle_alpha 79.066978
_cell_angle_beta 31.028327
_cell_angle_gamma 83.962831
_cell_volume 634.211570
_symmetry_space_group_name_H-M "P -1"
_symmetry_group_IT_number 2
_symmetry_cell_setting 'triclinic'
loop_
_space_group_symop_operation_xyz
x,y,z
-x,-y,-z
loop_
_atom_site_type_symbol
_atom_site_label
_atom_site_fract_x
_atom_site_fract_y
_atom_site_fract_z
Si Si1 0.566715 0.214842 0.135433
Si Si2 0.623847 0.141731 0.537086
Si Si3 0.302944 0.667369 0.693212
Si Si4 0.900680 0.557284 0.417955
Si Si5 0.066258 0.721270 0.475719
Si Si6 0.790545 0.474732 0.921661
Si Si7 0.861492 0.096198 0.152950
Si Si8 0.279682 0.109407 0.108946
O O1 0.799707 0.115414 0.068547
O O2 0.478031 0.201990 0.069818
O O3 0.231210 0.204650 0.360092
O O4 0.714811 0.360098 0.048944
O O5 0.596409 0.265641 0.468374
O O6 0.666844 0.193357 0.615565
O O7 0.940990 0.089709 0.340325
O O8 0.337175 0.033359 0.693382
O O9 0.538627 0.569693 0.618695
O O10 0.318996 0.786080 0.737052
O O11 0.953434 0.600112 0.870319
O O12 0.985901 0.419645 0.427866
O O13 0.086260 0.676137 0.363134
O O14 0.959506 0.565314 0.275458
O O15 0.500000 0.500000 0.000000
O O16 0.173763 0.127791 0.050824
O O17 0.500000 0.000000 0.000000
#
# Coordination Sequence:
#
# PCOD9018065 Si02
#       8
#     2   2   2   2   2   2   2   2
#     4  11  24  46  70 100 146 185 225 287 352 412
#     4  10  22  44  73  97 137 178 231 292 339 405
#     4  11  22  42  70 103 130 179 235 285 347 403
#     4  11  22  41  71 100 140 173 235 290 331 420
#     4  10  21  43  68 104 135 176 236 282 345 403
#     4  12  23  41  68  99 144 182 221 286 353 407
#     4  11  24  46  71  99 139 184 235 286 339 416
#     4  10  23  45  68  99 139 184 231 284 352 411
#
# _framework density 25.228173000000002
#
# number of rings (size 3 to 8) (size 9 to 14) (size 15 to 20)
#    0.000    1.250    3.750    3.375    0.000    5.000 
#    4.500    1.250    0.000    0.000    0.000    0.000 
#    0.000    0.000    0.000    0.000    0.000    0.000 
#
# Total GULP energy -89328.314057 kJ/mol
# GULP energy per Si atom -5583.019629 kJ/mol
# Density = 2.517075 g / cm^3
# Si number density = 25.228173 Si / 1000 Ang^3
#
#
#
# Elastic Constant Matrix: (Units=GPa)
#
#
# Indices 1 2 3 4 5 6 
#
# 1 137.6059 29.9454 9.0561 -11.2256 -16.6724 0.9203
# 2 29.9454 71.1671 16.0842 -2.9286 -12.5029 13.0075
# 3 9.0561 16.0842 39.0620 -0.7037 3.1083 -3.9063
# 4 -11.2256 -2.9286 -0.7037 51.5223 -0.7568 -5.5096
# 5 -16.6724 -12.5029 3.1083 -0.7568 29.1063 7.5701
# 6 0.9203 13.0075 -3.9063 -5.5096 7.5701 64.9746
#
#
#
# Elastic Compliance Matrix: (Units=1/GPa)
#
#
# Indices 1 2 3 4 5 6 
#
# 1 0.008524 -0.002545 -0.001212 0.001755 0.003964 0.000003
# 2 -0.002545 0.019803 -0.008872 -0.000006 0.009443 -0.005562
# 3 -0.001212 -0.008872 0.030720 0.000021 -0.009005 0.004691
# 4 0.001755 -0.000006 0.000021 0.019972 0.001119 0.001541
# 5 0.003964 0.009443 -0.009005 0.001119 0.043619 -0.007475
# 6 0.000003 -0.005562 0.004691 0.001541 -0.007475 0.017788
#
#
# Mechanical properties :
#
#
# Convention : Reuss Voigt Hill
#
# Bulk Modulus (GPa) = 29.59428 39.77849 34.68639
# Shear Modulus (GPa) = 28.25723 41.97060 35.11391
#
# Velocity S-wave (km/s) = 3.35037 4.08320 3.73480
# Velocity P-wave (km/s) = 5.16941 6.16699 5.69010
#
# Compressibility (1/GPa) = 0.03379031
#
# Stress axis : x y z
#
# Youngs Moduli (GPa) = 117.31519 50.49845 32.55171
#
# Poissons Ratio (x) = 0.12850 0.03945
# Poissons Ratio (y) = 0.29853 0.28879
# Poissons Ratio (z) = 0.14218 0.44801
#
# Static dielectric constant tensor:
#      x y z
#    x 2.184170 0.021250 0.063200 
#    y 0.021250 1.963920 0.057650 
#    z 0.063200 0.057650 2.052820 
# 
# From -- ./inp_files/500348.got.cif
#   From: 2010.05.17/outbox.cif.g08.bks.cpg/sg2_251_cif.got.tgz:500348.got - 2010.06.03 11:33:40.
