data_PCOD9018763
_publ_section_title
;
Structure prediction by ZEFSAII (Michael W. Deem and Ramdas Pophale) SiO2 
 PCOD9018763
Probable space group: P -1
;
_chemical_formula_sum "Si O2"
_cell_formula_units_Z 12
_cell_length_a 9.995862
_cell_length_b 11.807616
_cell_length_c 4.834287
_cell_angle_alpha 63.048513
_cell_angle_beta 86.261763
_cell_angle_gamma 65.178168
_cell_volume 456.072080
_symmetry_space_group_name_H-M "P -1"
_symmetry_group_IT_number 2
_symmetry_cell_setting 'triclinic'
loop_
_space_group_symop_operation_xyz
x,y,z
-x,-y,-z
loop_
_atom_site_type_symbol
_atom_site_label
_atom_site_fract_x
_atom_site_fract_y
_atom_site_fract_z
Si Si1 0.696351 0.091103 0.055713
Si Si2 0.121614 0.050418 0.319049
Si Si3 0.804606 0.490881 0.215021
Si Si4 0.398995 0.635923 0.542025
Si Si5 0.396464 0.245761 0.663286
Si Si6 0.116289 0.302229 0.365082
O O1 0.831094 0.980928 0.969887
O O2 0.694696 0.239980 0.798641
O O3 0.527815 0.124985 0.953431
O O4 0.733330 0.050142 0.411128
O O5 0.088197 0.208529 0.237169
O O6 0.000000 0.000000 0.500000
O O7 0.710976 0.407341 0.225805
O O8 0.704627 0.621987 0.276648
O O9 0.958600 0.378223 0.458082
O O10 0.851044 0.568196 0.884279
O O11 0.500000 0.500000 0.500000
O O12 0.509860 0.692107 0.605968
O O13 0.276826 0.204507 0.585911
#
# Coordination Sequence:
#
# PCOD9018763 Si02
#       6
#     2   2   2   2   2   2
#     4  10  25  46  74 103 135 189 235 293 343 426
#     4  12  27  49  70 102 145 191 237 283 357 431
#     4  10  21  44  63 104 141 181 240 288 354 415
#     4   8  18  42  68 100 134 178 230 291 341 415
#     4   9  22  41  69 104 134 182 232 296 352 409
#     4  11  25  40  69 100 143 190 227 300 349 419
#
# _framework density 26.311630999999998
#
# number of rings (size 3 to 8) (size 9 to 14) (size 15 to 20)
#    1.000    1.000    0.000    2.000    4.667    2.000 
#   18.000    0.000    0.000    0.000    0.000    0.000 
#    0.000    0.000    0.000    0.000    0.000    0.000 
#
# Total GULP energy -67030.183565 kJ/mol
# GULP energy per Si atom -5585.848630 kJ/mol
# Density = 2.625174 g / cm^3
# Si number density = 26.311631 Si / 1000 Ang^3
#
#
#
# Elastic Constant Matrix: (Units=GPa)
#
#
# Indices 1 2 3 4 5 6 
#
# 1 182.7729 31.5689 15.5623 -1.0600 3.0284 4.4023
# 2 31.5689 91.9528 -10.7170 1.3807 -4.3208 -8.2257
# 3 15.5623 -10.7170 54.0373 -10.3961 3.7383 6.7306
# 4 -1.0600 1.3807 -10.3961 35.6214 1.2354 -3.3640
# 5 3.0284 -4.3208 3.7383 1.2354 38.3888 -11.0263
# 6 4.4023 -8.2257 6.7306 -3.3640 -11.0263 45.4447
#
#
#
# Elastic Compliance Matrix: (Units=1/GPa)
#
#
# Indices 1 2 3 4 5 6 
#
# 1 0.006115 -0.002467 -0.002156 -0.000413 -0.000809 -0.000946
# 2 -0.002467 0.012368 0.002782 0.000433 0.002047 0.002594
# 3 -0.002156 0.002782 0.021313 0.005888 -0.002535 -0.002624
# 4 -0.000413 0.000433 0.005888 0.029914 -0.001113 0.001191
# 5 -0.000809 0.002047 -0.002535 -0.001113 0.028850 0.007742
# 6 -0.000946 0.002594 -0.002624 0.001191 0.007742 0.024921
#
#
# Mechanical properties :
#
#
# Convention : Reuss Voigt Hill
#
# Bulk Modulus (GPa) = 27.68982 44.62126 36.15554
# Shear Modulus (GPa) = 35.91937 43.38091 39.65014
#
# Velocity S-wave (km/s) = 3.69880 4.06487 3.88615
# Velocity P-wave (km/s) = 5.36546 6.24711 5.82300
#
# Compressibility (1/GPa) = 0.03611436
#
# Stress axis : x y z
#
# Youngs Moduli (GPa) = 163.53933 80.85313 46.91889
#
# Poissons Ratio (x) = 0.19947 0.10115
# Poissons Ratio (y) = 0.40345 -0.13053
# Poissons Ratio (z) = 0.35257 -0.22493
#
# Static dielectric constant tensor:
#      x y z
#    x 2.140570 0.006440 0.063060 
#    y 0.006440 2.044920 -0.076290 
#    z 0.063060 -0.076290 2.141080 
# 
# From -- ./inp_files/23510.got.cif
#   From: 2010.05.17/outbox.cif.g08.bks.cpg/sg2_12_cif.got.tgz:23510.got - 2010.06.03 11:33:40.
