data_PCOD9018410
_publ_section_title
;
Structure prediction by ZEFSAII (Michael W. Deem and Ramdas Pophale) SiO2 
 PCOD9018410
Probable space group: P -1
;
_chemical_formula_sum "Si O2"
_cell_formula_units_Z 10
_cell_length_a 11.472871
_cell_length_b 7.569569
_cell_length_c 8.909674
_cell_angle_alpha 93.439886
_cell_angle_beta 141.155783
_cell_angle_gamma 67.590276
_cell_volume 409.494866
_symmetry_space_group_name_H-M "P -1"
_symmetry_group_IT_number 2
_symmetry_cell_setting 'triclinic'
loop_
_space_group_symop_operation_xyz
x,y,z
-x,-y,-z
loop_
_atom_site_type_symbol
_atom_site_label
_atom_site_fract_x
_atom_site_fract_y
_atom_site_fract_z
Si Si1 0.230065 0.269404 0.118843
Si Si2 0.791783 0.351397 0.742428
Si Si3 0.584623 0.917267 0.249264
Si Si4 0.545762 0.403793 0.799754
Si Si5 0.940054 0.403208 0.299914
O O1 0.265493 0.407615 0.280633
O O2 0.445186 0.085148 0.247205
O O3 0.054491 0.212370 0.991319
O O4 0.101618 0.443333 0.870802
O O5 0.696107 0.310449 0.793801
O O6 0.658089 0.375940 0.458202
O O7 0.540698 0.732717 0.225958
O O8 0.843434 0.824347 0.517931
O O9 0.500000 0.000000 0.000000
O O10 0.713063 0.412052 0.083031
O O11 0.000000 0.500000 0.500000
#
# Coordination Sequence:
#
# PCOD9018410 Si02
#       5
#     2   2   2   2   2
#     4  10  21  43  70  94 136 169 213 272 326 383
#     4   9  20  45  68  96 131 175 212 266 330 385
#     4  12  25  43  65 101 131 173 220 269 322 386
#     4  10  23  43  67  99 128 173 222 262 331 385
#     4  11  23  46  65  93 136 176 215 269 324 387
#
# _framework density 24.420331999999998
#
# number of rings (size 3 to 8) (size 9 to 14) (size 15 to 20)
#    0.000    1.600    4.000    0.000    0.000    3.200 
#   10.800    0.000    0.000    0.000    0.000    0.000 
#    0.000    0.000    0.000    0.000    0.000    0.000 
#
# Total GULP energy -55910.688411 kJ/mol
# GULP energy per Si atom -5591.068841 kJ/mol
# Density = 2.436475 g / cm^3
# Si number density = 24.420332 Si / 1000 Ang^3
#
#
#
# Elastic Constant Matrix: (Units=GPa)
#
#
# Indices 1 2 3 4 5 6 
#
# 1 84.3476 17.7679 20.4874 0.3859 15.3305 8.3006
# 2 17.7679 57.5309 28.0703 -0.4502 10.2726 -20.4208
# 3 20.4874 28.0703 142.2387 20.0305 13.0544 -4.6051
# 4 0.3859 -0.4502 20.0305 29.3893 0.7817 9.6221
# 5 15.3305 10.2726 13.0544 0.7817 42.6562 -16.5341
# 6 8.3006 -20.4208 -4.6051 9.6221 -16.5341 49.4774
#
#
#
# Elastic Compliance Matrix: (Units=1/GPa)
#
#
# Indices 1 2 3 4 5 6 
#
# 1 0.015399 -0.005773 -0.001168 0.003327 -0.006968 -0.008050
# 2 -0.005773 0.024780 -0.003725 -0.000852 0.001760 0.011603
# 3 -0.001168 -0.003725 0.008924 -0.006189 -0.001186 0.000297
# 4 0.003327 -0.000852 -0.006189 0.041904 -0.004134 -0.011017
# 5 -0.006968 0.001760 -0.001186 -0.004134 0.030978 0.012941
# 6 -0.008050 0.011603 0.000297 -0.011017 0.012941 0.032846
#
#
# Mechanical properties :
#
#
# Convention : Reuss Voigt Hill
#
# Bulk Modulus (GPa) = 36.00932 46.30760 41.15846
# Shear Modulus (GPa) = 26.96579 38.82401 32.89490
#
# Velocity S-wave (km/s) = 3.32661 3.99158 3.67417
# Velocity P-wave (km/s) = 5.43440 6.34410 5.90679
#
# Compressibility (1/GPa) = 0.02777059
#
# Stress axis : x y z
#
# Youngs Moduli (GPa) = 64.93922 40.35531 112.05991
#
# Poissons Ratio (x) = 0.23298 0.13092
# Poissons Ratio (y) = 0.37490 0.41738
# Poissons Ratio (z) = 0.07587 0.15031
#
# Static dielectric constant tensor:
#      x y z
#    x 1.990980 -0.061470 0.020720 
#    y -0.061470 2.038740 0.104540 
#    z 0.020720 0.104540 2.092310 
# 
# From -- ./inp_files/166582.got.cif
#   From: 2010.05.17/outbox.cif.g08.bks.cpg/sg2_84_cif.got.tgz:166582.got - 2010.06.03 11:33:40.
