data_PCOD9018812
_publ_section_title
;
Structure prediction by ZEFSAII (Michael W. Deem and Ramdas Pophale) SiO2 
 PCOD9018812
Probable space group: P -1
;
_chemical_formula_sum "Si O2"
_cell_formula_units_Z 14
_cell_length_a 10.776627
_cell_length_b 9.246429
_cell_length_c 8.646718
_cell_angle_alpha 73.145198
_cell_angle_beta 104.744088
_cell_angle_gamma 62.268831
_cell_volume 648.187296
_symmetry_space_group_name_H-M "P -1"
_symmetry_group_IT_number 2
_symmetry_cell_setting 'triclinic'
loop_
_space_group_symop_operation_xyz
x,y,z
-x,-y,-z
loop_
_atom_site_type_symbol
_atom_site_label
_atom_site_fract_x
_atom_site_fract_y
_atom_site_fract_z
Si Si1 0.807201 0.835895 0.812542
Si Si2 0.291762 0.526091 0.479646
Si Si3 0.335126 0.026297 0.936769
Si Si4 0.099931 0.536858 0.155460
Si Si5 0.418901 0.770362 0.518461
Si Si6 0.516818 0.667085 0.933533
Si Si7 0.180314 0.415018 0.752047
O O1 0.789408 0.672747 0.808988
O O2 0.715444 0.010471 0.615315
O O3 0.733310 0.928789 0.926647
O O4 0.995570 0.703237 0.948277
O O5 0.192043 0.591671 0.271378
O O6 0.346227 0.653529 0.507657
O O7 0.445092 0.319313 0.544588
O O8 0.184788 0.527865 0.578617
O O9 0.226572 0.220357 0.753530
O O10 0.373243 0.843042 0.927874
O O11 0.500000 0.000000 0.000000
O O12 0.975974 0.523166 0.223824
O O13 0.490398 0.725891 0.727188
O O14 0.500000 0.500000 0.000000
O O15 0.679704 0.616657 0.080131
#
# Coordination Sequence:
#
# PCOD9018812 Si02
#       7
#     2   2   2   2   2   2   2
#     4  10  23  44  62  98 127 168 220 259 326 373
#     4  11  24  42  67  96 130 167 217 265 322 377
#     4   9  20  36  63  91 124 164 208 264 309 369
#     4  10  24  43  69  90 131 174 213 266 314 386
#     4  11  25  40  66 100 127 167 214 271 317 383
#     4  11  22  40  66  97 132 166 212 265 324 378
#     4  10  21  44  64  93 129 169 215 260 320 380
#
# _framework density 21.598696
#
# number of rings (size 3 to 8) (size 9 to 14) (size 15 to 20)
#    0.000    1.714    1.429    2.143   12.000    1.143 
#    0.000    3.571    0.000    0.000    0.000    0.000 
#    0.000    0.000    0.000    0.000    0.000    0.000 
#
# Total GULP energy -78014.788654 kJ/mol
# GULP energy per Si atom -5572.484904 kJ/mol
# Density = 2.154954 g / cm^3
# Si number density = 21.598696 Si / 1000 Ang^3
#
#
#
# Elastic Constant Matrix: (Units=GPa)
#
#
# Indices 1 2 3 4 5 6 
#
# 1 43.6488 30.4501 3.8662 -3.9800 3.8278 -8.5233
# 2 30.4501 153.3814 35.7615 -2.6325 7.0039 -0.5100
# 3 3.8662 35.7615 106.6324 -8.6463 18.0486 8.5687
# 4 -3.9800 -2.6325 -8.6463 35.2536 7.3548 -0.1066
# 5 3.8278 7.0039 18.0486 7.3548 30.6236 6.9904
# 6 -8.5233 -0.5100 8.5687 -0.1066 6.9904 18.3565
#
#
#
# Elastic Compliance Matrix: (Units=1/GPa)
#
#
# Indices 1 2 3 4 5 6 
#
# 1 0.031595 -0.006057 0.001387 0.005294 -0.008567 0.017148
# 2 -0.006057 0.008274 -0.002673 -0.000949 0.001066 -0.001746
# 3 0.001387 -0.002673 0.011972 0.004378 -0.007151 -0.002270
# 4 0.005294 -0.000949 0.004378 0.032486 -0.012002 0.005147
# 5 -0.008567 0.001066 -0.007151 -0.012002 0.044612 -0.017669
# 6 0.017148 -0.001746 -0.002270 0.005147 -0.017669 0.070208
#
#
# Mechanical properties :
#
#
# Convention : Reuss Voigt Hill
#
# Bulk Modulus (GPa) = 26.91277 49.31311 38.11294
# Shear Modulus (GPa) = 22.10264 32.41908 27.26086
#
# Velocity S-wave (km/s) = 3.20243 3.87844 3.55653
# Velocity P-wave (km/s) = 5.11483 6.55267 5.87788
#
# Compressibility (1/GPa) = 0.03715709
#
# Stress axis : x y z
#
# Youngs Moduli (GPa) = 31.65056 120.85427 83.52915
#
# Poissons Ratio (x) = 0.73198 -0.11587
# Poissons Ratio (y) = 0.19170 0.22323
# Poissons Ratio (z) = -0.04390 0.32298
#
# Static dielectric constant tensor:
#      x y z
#    x 1.813670 -0.073750 0.033440 
#    y -0.073750 1.851070 -0.033420 
#    z 0.033440 -0.033420 1.886750 
# 
# From -- ./inp_files/238588.got.cif
#   From: 2010.05.17/outbox.cif.g08.bks.cpg/sg2_120_cif.got.tgz:238588.got - 2010.06.03 11:33:40.
