data_PCOD9018137
_publ_section_title
;
Structure prediction by ZEFSAII (Michael W. Deem and Ramdas Pophale) SiO2 
 PCOD9018137
Probable space group: P -1
;
_chemical_formula_sum "Si O2"
_cell_formula_units_Z 15
_cell_length_a 13.552269
_cell_length_b 23.606802
_cell_length_c 7.278526
_cell_angle_alpha 138.130760
_cell_angle_beta 45.637520
_cell_angle_gamma 155.969458
_cell_volume 631.337806
_symmetry_space_group_name_H-M "P -1"
_symmetry_group_IT_number 2
_symmetry_cell_setting 'triclinic'
loop_
_space_group_symop_operation_xyz
x,y,z
-x,-y,-z
loop_
_atom_site_type_symbol
_atom_site_label
_atom_site_fract_x
_atom_site_fract_y
_atom_site_fract_z
Si Si1 0.383969 0.430865 0.182604
Si Si2 0.500000 0.000000 0.000000
Si Si3 0.066371 0.021084 0.178493
Si Si4 0.549163 0.734487 0.237042
Si Si5 0.399992 0.697858 0.725006
Si Si6 0.700401 0.460316 0.221322
Si Si7 0.161573 0.873383 0.789892
Si Si8 0.810161 0.227583 0.833664
O O1 0.458936 0.541091 0.498053
O O2 0.095347 0.296054 0.226167
O O3 0.500000 0.500000 0.000000
O O4 0.423394 0.353354 0.999518
O O5 0.653834 0.049828 0.101362
O O6 0.250925 0.838395 0.044695
O O7 0.808765 0.913311 0.349807
O O8 0.321423 0.190391 0.319038
O O9 0.110430 0.945496 0.987382
O O10 0.000000 0.000000 0.000000
O O11 0.379149 0.677391 0.484513
O O12 0.437900 0.684575 0.059541
O O13 0.223728 0.549324 0.713540
O O14 0.346382 0.768381 0.003961
O O15 0.912576 0.601910 0.155682
O O16 0.233197 0.866442 0.488522
#
# Coordination Sequence:
#
# PCOD9018137 Si02
#       8
#     2   1   2   2   2   2   2   2
#     4  10  21  43  68  95 137 173 229 281 339 414
#     4  12  24  44  72  98 140 182 230 288 332 418
#     4  11  23  46  70 100 140 183 227 286 348 410
#     4  11  24  41  66 102 136 178 231 282 347 411
#     4  12  24  44  67 100 142 180 230 285 343 415
#     4  11  24  44  69  99 135 185 228 288 351 404
#     4  10  25  47  69 104 135 182 234 286 343 404
#     4  11  27  45  70 102 137 183 239 281 344 412
#
# _framework density 23.759072
#
# number of rings (size 3 to 8) (size 9 to 14) (size 15 to 20)
#    0.000    1.067    4.000    1.600    1.867    2.667 
#    4.800    0.000    0.000    0.000    0.000    0.000 
#    0.000    0.000    0.000    0.000    0.000    0.000 
#
# Total GULP energy -83526.284028 kJ/mol
# GULP energy per Si atom -5568.418935 kJ/mol
# Density = 2.370499 g / cm^3
# Si number density = 23.759072 Si / 1000 Ang^3
#
#
#
# Elastic Constant Matrix: (Units=GPa)
#
#
# Indices 1 2 3 4 5 6 
#
# 1 67.9287 5.3703 13.9860 -6.3344 23.4226 -19.4936
# 2 5.3703 103.9175 24.6449 -22.6222 5.9316 -19.7855
# 3 13.9860 24.6449 69.4332 -19.1740 11.6976 -7.8406
# 4 -6.3344 -22.6222 -19.1740 39.9568 -6.2698 13.9150
# 5 23.4226 5.9316 11.6976 -6.2698 27.1209 -4.2814
# 6 -19.4936 -19.7855 -7.8406 13.9150 -4.2814 43.2939
#
#
#
# Elastic Compliance Matrix: (Units=1/GPa)
#
#
# Indices 1 2 3 4 5 6 
#
# 1 0.024491 0.001665 -0.001784 -0.002749 -0.019740 0.010397
# 2 0.001665 0.011958 -0.002777 0.004008 -0.001250 0.004300
# 3 -0.001784 -0.002777 0.018166 0.006648 -0.004364 -0.001350
# 4 -0.002749 0.004008 0.006648 0.033836 0.005099 -0.008573
# 5 -0.019740 -0.001250 -0.004364 0.005099 0.056256 -0.006325
# 6 0.010397 0.004300 -0.001350 -0.008573 -0.006325 0.031629
#
#
# Mechanical properties :
#
#
# Convention : Reuss Voigt Hill
#
# Bulk Modulus (GPa) = 20.48168 36.58687 28.53427
# Shear Modulus (GPa) = 25.20143 35.22621 30.21382
#
# Velocity S-wave (km/s) = 3.26038 3.85469 3.56992
# Velocity P-wave (km/s) = 4.77627 5.93667 5.38780
#
# Compressibility (1/GPa) = 0.04882411
#
# Stress axis : x y z
#
# Youngs Moduli (GPa) = 40.83177 83.62523 55.04880
#
# Poissons Ratio (x) = -0.13925 0.09819
# Poissons Ratio (y) = -0.06799 0.15286
# Poissons Ratio (z) = 0.07283 0.23221
#
# Static dielectric constant tensor:
#      x y z
#    x 1.871050 0.077990 0.034910 
#    y 0.077990 2.024870 0.025640 
#    z 0.034910 0.025640 1.922610 
# 
# From -- ./inp_files/83409.got.cif
#   From: 2010.05.17/outbox.cif.g08.bks.cpg/sg2_42_cif.got.tgz:83409.got - 2010.06.03 11:33:40.
