data_PCOD9018440
_publ_section_title
;
Structure prediction by ZEFSAII (Michael W. Deem and Ramdas Pophale) SiO2 
 PCOD9018440
Probable space group: P -1
;
_chemical_formula_sum "Si O2"
_cell_formula_units_Z 16
_cell_length_a 19.010696
_cell_length_b 7.655312
_cell_length_c 11.954788
_cell_angle_alpha 39.447379
_cell_angle_beta 138.743472
_cell_angle_gamma 136.952680
_cell_volume 680.453895
_symmetry_space_group_name_H-M "P -1"
_symmetry_group_IT_number 2
_symmetry_cell_setting 'triclinic'
loop_
_space_group_symop_operation_xyz
x,y,z
-x,-y,-z
loop_
_atom_site_type_symbol
_atom_site_label
_atom_site_fract_x
_atom_site_fract_y
_atom_site_fract_z
Si Si1 0.591483 0.283916 0.913452
Si Si2 0.739682 0.284227 0.891060
Si Si3 0.302749 0.361440 0.917882
Si Si4 0.378422 0.755831 0.602326
Si Si5 0.873863 0.229550 0.727947
Si Si6 0.437010 0.598504 0.514404
Si Si7 0.957235 0.810611 0.873319
Si Si8 0.048040 0.297981 0.582789
O O1 0.690118 0.237365 0.980466
O O2 0.512908 0.402534 0.683376
O O3 0.649598 0.517669 0.964199
O O4 0.500000 0.000000 0.000000
O O5 0.676034 0.472212 0.657701
O O6 0.703787 0.967939 0.947580
O O7 0.871947 0.476662 0.943896
O O8 0.374318 0.579055 0.798642
O O9 0.175834 0.358957 0.747859
O O10 0.258877 0.808164 0.414033
O O11 0.399634 0.578418 0.609641
O O12 0.480827 0.066544 0.573762
O O13 0.941095 0.561428 0.596845
O O14 0.900822 0.001103 0.788481
O O15 0.925448 0.172981 0.934292
O O16 0.977266 0.963671 0.699958
O O17 0.000000 0.500000 0.500000
#
# Coordination Sequence:
#
# PCOD9018440 Si02
#       8
#     2   2   2   2   2   2   2   2
#     4  12  27  45  73 101 138 186 231 287 350 419
#     4  12  27  44  68 108 139 182 237 282 351 421
#     4  11  25  46  70 101 142 179 232 291 345 417
#     4  10  21  43  70  97 137 180 230 287 351 408
#     4   9  20  40  67  99 134 184 232 292 346 418
#     4  11  24  41  68 101 137 180 229 290 347 413
#     4  10  22  39  68  97 142 183 232 288 351 416
#     4   9  21  40  68 101 136 186 230 288 351 410
#
# _framework density 23.513717
#
# number of rings (size 3 to 8) (size 9 to 14) (size 15 to 20)
#    0.000    1.500    0.000    4.125    8.750    5.000 
#    2.250    1.250    0.000    0.000    0.000    0.000 
#    0.000    0.000    0.000    0.000    0.000    0.000 
#
# Total GULP energy -89581.869498 kJ/mol
# GULP energy per Si atom -5598.866844 kJ/mol
# Density = 2.346020 g / cm^3
# Si number density = 23.513717 Si / 1000 Ang^3
#
#
#
# Elastic Constant Matrix: (Units=GPa)
#
#
# Indices 1 2 3 4 5 6 
#
# 1 91.3262 29.9426 19.1169 -3.4201 -6.5666 -3.9395
# 2 29.9426 87.1249 18.4324 -10.9043 -12.3990 -6.6862
# 3 19.1169 18.4324 65.2908 -15.2919 8.6773 -0.5933
# 4 -3.4201 -10.9043 -15.2919 24.7810 9.1592 -4.3773
# 5 -6.5666 -12.3990 8.6773 9.1592 44.8667 -1.6479
# 6 -3.9395 -6.6862 -0.5933 -4.3773 -1.6479 33.2693
#
#
#
# Elastic Compliance Matrix: (Units=1/GPa)
#
#
# Indices 1 2 3 4 5 6 
#
# 1 0.013012 -0.003692 -0.003727 -0.002862 0.002206 0.000465
# 2 -0.003692 0.014447 -0.002579 0.003563 0.003336 0.003054
# 3 -0.003727 -0.002579 0.021828 0.015152 -0.008536 0.001000
# 4 -0.002862 0.003563 0.015152 0.057297 -0.013786 0.007503
# 5 0.002206 0.003336 -0.008536 -0.013786 0.028011 0.000353
# 6 0.000465 0.003054 0.001000 0.007503 0.000353 0.031749
#
#
# Mechanical properties :
#
#
# Convention : Reuss Voigt Hill
#
# Bulk Modulus (GPa) = 34.13923 42.08065 38.10994
# Shear Modulus (GPa) = 25.49687 32.33341 28.91514
#
# Velocity S-wave (km/s) = 3.29650 3.71224 3.51053
# Velocity P-wave (km/s) = 5.38884 6.02573 5.71616
#
# Compressibility (1/GPa) = 0.02929182
#
# Stress axis : x y z
#
# Youngs Moduli (GPa) = 76.85313 69.21756 45.81361
#
# Poissons Ratio (x) = 0.25554 0.17074
# Poissons Ratio (y) = 0.28373 0.11814
# Poissons Ratio (z) = 0.28641 0.17849
#
# Static dielectric constant tensor:
#      x y z
#    x 2.506600 -0.511800 0.770140 
#    y -0.511800 2.275740 -0.705810 
#    z 0.770140 -0.705810 2.936110 
# 
# From -- ./inp_files/347261.got.cif
#   From: 2010.05.17/outbox.cif.g08.bks.cpg/sg2_174_cif.got.tgz:347261.got - 2010.06.03 11:33:40.
