data_PCOD9018656
_publ_section_title
;
Structure prediction by ZEFSAII (Michael W. Deem and Ramdas Pophale) SiO2 
 PCOD9018656
Probable space group: P -1
;
_chemical_formula_sum "Si O2"
_cell_formula_units_Z 14
_cell_length_a 7.229570
_cell_length_b 9.060310
_cell_length_c 14.539318
_cell_angle_alpha 134.000169
_cell_angle_beta 56.324118
_cell_angle_gamma 97.208352
_cell_volume 513.657301
_symmetry_space_group_name_H-M "P -1"
_symmetry_group_IT_number 2
_symmetry_cell_setting 'triclinic'
loop_
_space_group_symop_operation_xyz
x,y,z
-x,-y,-z
loop_
_atom_site_type_symbol
_atom_site_label
_atom_site_fract_x
_atom_site_fract_y
_atom_site_fract_z
Si Si1 0.727649 0.223323 0.871085
Si Si2 0.039657 0.755949 0.921409
Si Si3 0.736391 0.726631 0.436208
Si Si4 0.438207 0.357732 0.184343
Si Si5 0.819541 0.756648 0.638824
Si Si6 0.320644 0.318775 0.882140
Si Si7 0.653396 0.167144 0.558315
O O1 0.584315 0.267043 0.834006
O O2 0.907043 0.957200 0.711824
O O3 0.502025 0.275424 0.027632
O O4 0.826486 0.408027 0.946916
O O5 0.084905 0.541369 0.748272
O O6 0.298928 0.670713 0.864049
O O7 0.824500 0.789054 0.066643
O O8 0.000000 0.000000 0.000000
O O9 0.714811 0.767981 0.569733
O O10 0.469533 0.785021 0.488353
O O11 0.810565 0.911438 0.443661
O O12 0.364259 0.209942 0.210408
O O13 0.266109 0.630825 0.354511
O O14 0.000000 0.500000 0.500000
O O15 0.404515 0.238426 0.721968
#
# Coordination Sequence:
#
# PCOD9018656 Si02
#       7
#     2   2   2   2   2   2   2
#     4  10  22  42  71  96 136 177 222 271 329 403
#     4  11  25  41  67  98 135 175 225 276 333 398
#     4  10  23  42  65  96 134 174 222 274 330 390
#     4  10  24  43  67  98 135 179 222 276 331 394
#     4  12  26  42  66 102 140 179 217 272 343 400
#     4  10  21  43  73  99 126 177 228 276 328 394
#     4   9  20  44  68  93 129 176 224 279 325 385
#
# _framework density 27.255528999999999
#
# number of rings (size 3 to 8) (size 9 to 14) (size 15 to 20)
#    0.000    1.714    1.429    1.286    4.000    8.571 
#    2.571    1.429    0.000    0.000    0.000    0.000 
#    0.000    0.000    0.000    0.000    0.000    0.000 
#
# Total GULP energy -78302.598783 kJ/mol
# GULP energy per Si atom -5593.042770 kJ/mol
# Density = 2.719349 g / cm^3
# Si number density = 27.255529 Si / 1000 Ang^3
#
#
#
# Elastic Constant Matrix: (Units=GPa)
#
#
# Indices 1 2 3 4 5 6 
#
# 1 46.5479 23.0821 3.8303 1.3409 1.9395 -12.8991
# 2 23.0821 212.7396 49.6611 30.6254 17.6049 1.6620
# 3 3.8303 49.6611 116.1565 46.8591 6.5430 -14.0119
# 4 1.3409 30.6254 46.8591 65.8727 1.9387 10.8572
# 5 1.9395 17.6049 6.5430 1.9387 30.2074 -7.9377
# 6 -12.8991 1.6620 -14.0119 10.8572 -7.9377 45.2205
#
#
#
# Elastic Compliance Matrix: (Units=1/GPa)
#
#
# Indices 1 2 3 4 5 6 
#
# 1 0.025380 -0.003252 0.002452 -0.002311 0.002267 0.009072
# 2 -0.003252 0.005969 -0.002291 -0.000602 -0.003339 -0.002298
# 3 0.002452 -0.002291 0.014847 -0.010913 0.000803 0.008145
# 4 -0.002311 -0.000602 -0.010913 0.025007 -0.001442 -0.010276
# 5 0.002267 -0.003339 0.000803 -0.001442 0.036883 0.007838
# 6 0.009072 -0.002298 0.008145 -0.010276 0.007838 0.031153
#
#
# Mechanical properties :
#
#
# Convention : Reuss Voigt Hill
#
# Bulk Modulus (GPa) = 24.99031 58.73233 41.86132
# Shear Modulus (GPa) = 31.49417 48.18481 39.83949
#
# Velocity S-wave (km/s) = 3.40297 4.20919 3.82737
# Velocity P-wave (km/s) = 4.96277 6.72448 5.90964
#
# Compressibility (1/GPa) = 0.04001551
#
# Stress axis : x y z
#
# Youngs Moduli (GPa) = 39.40101 167.52675 67.35174
#
# Poissons Ratio (x) = 0.54479 -0.16518
# Poissons Ratio (y) = 0.12813 0.15431
# Poissons Ratio (z) = -0.09663 0.38382
#
# Static dielectric constant tensor:
#      x y z
#    x 2.114820 0.021900 -0.048320 
#    y 0.021900 2.162480 0.044430 
#    z -0.048320 0.044430 2.300210 
# 
# From -- ./inp_files/493789.got.cif
#   From: 2010.05.17/outbox.cif.g08.bks.cpg/sg2_247_cif.got.tgz:493789.got - 2010.06.03 11:33:40.
