data_PCOD9018538
_publ_section_title
;
Structure prediction by ZEFSAII (Michael W. Deem and Ramdas Pophale) SiO2 
 PCOD9018538
Probable space group: P -1
;
_chemical_formula_sum "Si O2"
_cell_formula_units_Z 12
_cell_length_a 11.667033
_cell_length_b 5.031233
_cell_length_c 14.589244
_cell_angle_alpha 82.474085
_cell_angle_beta 50.130916
_cell_angle_gamma 115.686681
_cell_volume 477.778505
_symmetry_space_group_name_H-M "P -1"
_symmetry_group_IT_number 2
_symmetry_cell_setting 'triclinic'
loop_
_space_group_symop_operation_xyz
x,y,z
-x,-y,-z
loop_
_atom_site_type_symbol
_atom_site_label
_atom_site_fract_x
_atom_site_fract_y
_atom_site_fract_z
Si Si1 0.949958 0.532361 0.365075
Si Si2 0.743024 0.413922 0.079873
Si Si3 0.774578 0.614776 0.607576
Si Si4 0.629957 0.719682 0.255516
Si Si5 0.887757 0.007303 0.274034
Si Si6 0.609852 0.729627 0.842791
O O1 0.820493 0.409880 0.530767
O O2 0.921025 0.232313 0.335176
O O3 0.896771 0.714496 0.317138
O O4 0.183824 0.863333 0.257896
O O5 0.736086 0.582579 0.168145
O O6 0.544007 0.272634 0.134355
O O7 0.722769 0.081520 0.133953
O O8 0.931859 0.707362 0.903990
O O9 0.610322 0.568589 0.629147
O O10 0.664476 0.532199 0.764456
O O11 0.000000 0.000000 0.500000
O O12 0.686030 0.821899 0.327770
O O13 0.500000 0.500000 0.000000
#
# Coordination Sequence:
#
# PCOD9018538 Si02
#       6
#     2   2   2   2   2   2
#     4  11  25  42  66 101 137 175 217 272 331 395
#     4  11  23  41  68 100 136 169 225 279 328 384
#     4   9  23  45  67  97 135 174 220 274 332 391
#     4  11  24  43  68  98 133 180 218 273 334 388
#     4  12  24  41  68  98 139 175 221 268 329 404
#     4  10  21  43  71  96 130 172 225 274 326 384
#
# _framework density 25.116240999999999
#
# number of rings (size 3 to 8) (size 9 to 14) (size 15 to 20)
#    0.000    1.333    1.667    3.000    2.333    8.667 
#    0.000    8.333    0.000    0.000    0.000    0.000 
#    0.000    0.000    0.000    0.000    0.000    0.000 
#
# Total GULP energy -67229.842629 kJ/mol
# GULP energy per Si atom -5602.486886 kJ/mol
# Density = 2.505908 g / cm^3
# Si number density = 25.116241 Si / 1000 Ang^3
#
#
#
# Elastic Constant Matrix: (Units=GPa)
#
#
# Indices 1 2 3 4 5 6 
#
# 1 122.4044 18.1258 21.8583 -10.5749 6.6646 26.7973
# 2 18.1258 86.3965 33.1453 11.2502 -7.8750 12.9387
# 3 21.8583 33.1453 152.4788 -0.6185 -11.4846 19.7169
# 4 -10.5749 11.2502 -0.6185 36.2540 -7.9759 12.5602
# 5 6.6646 -7.8750 -11.4846 -7.9759 32.9205 -0.1668
# 6 26.7973 12.9387 19.7169 12.5602 -0.1668 53.2653
#
#
#
# Elastic Compliance Matrix: (Units=1/GPa)
#
#
# Indices 1 2 3 4 5 6 
#
# 1 0.010350 -0.001974 -0.000385 0.005334 -0.001439 -0.005847
# 2 -0.001974 0.013748 -0.002545 -0.004376 0.001738 -0.000367
# 3 -0.000385 -0.002545 0.007713 0.002296 0.002703 -0.002576
# 4 0.005334 -0.004376 0.002296 0.035931 0.007324 -0.010920
# 5 -0.001439 0.001738 0.002703 0.007324 0.033789 -0.002320
# 6 -0.005847 -0.000367 -0.002576 -0.010920 -0.002320 0.025326
#
#
# Mechanical properties :
#
#
# Convention : Reuss Voigt Hill
#
# Bulk Modulus (GPa) = 45.44810 56.39317 50.92063
# Shear Modulus (GPa) = 34.72241 43.69796 39.21019
#
# Velocity S-wave (km/s) = 3.72219 4.17565 3.95542
# Velocity P-wave (km/s) = 6.05040 6.76385 6.41705
#
# Compressibility (1/GPa) = 0.02200312
#
# Stress axis : x y z
#
# Youngs Moduli (GPa) = 96.61838 72.73672 129.65579
#
# Poissons Ratio (x) = 0.14356 0.04996
# Poissons Ratio (y) = 0.19069 0.32996
# Poissons Ratio (z) = 0.03723 0.18511
#
# Static dielectric constant tensor:
#      x y z
#    x 2.038360 -0.052310 0.036630 
#    y -0.052310 2.016820 -0.067350 
#    z 0.036630 -0.067350 1.972140 
# 
# From -- ./inp_files/30070.got.cif
#   From: 2010.05.17/outbox.cif.g08.bks.cpg/sg2_16_cif.got.tgz:30070.got - 2010.06.03 11:33:40.
