data_PCOD9018670
_publ_section_title
;
Structure prediction by ZEFSAII (Michael W. Deem and Ramdas Pophale) SiO2 
 PCOD9018670
Probable space group: P -1
;
_chemical_formula_sum "Si O2"
_cell_formula_units_Z 12
_cell_length_a 7.499709
_cell_length_b 10.086606
_cell_length_c 7.432519
_cell_angle_alpha 71.621775
_cell_angle_beta 102.416832
_cell_angle_gamma 110.457321
_cell_volume 496.431027
_symmetry_space_group_name_H-M "P -1"
_symmetry_group_IT_number 2
_symmetry_cell_setting 'triclinic'
loop_
_space_group_symop_operation_xyz
x,y,z
-x,-y,-z
loop_
_atom_site_type_symbol
_atom_site_label
_atom_site_fract_x
_atom_site_fract_y
_atom_site_fract_z
Si Si1 0.999865 0.784641 0.477043
Si Si2 0.648468 0.758904 0.830799
Si Si3 0.660705 0.526796 0.675211
Si Si4 0.704019 0.960007 0.411551
Si Si5 0.038777 0.845254 0.054015
Si Si6 0.416279 0.801437 0.108680
O O1 0.860357 0.638043 0.598158
O O2 0.040107 0.772006 0.280664
O O3 0.870710 0.895400 0.403672
O O4 0.193811 0.869458 0.589742
O O5 0.574263 0.602737 0.783766
O O6 0.650691 0.880082 0.628334
O O7 0.862008 0.759736 0.931035
O O8 0.549597 0.795854 0.970726
O O9 0.500000 0.500000 0.500000
O O10 0.677261 0.369596 0.793640
O O11 0.531502 0.891726 0.264901
O O12 0.756981 0.135114 0.997748
O O13 0.000000 0.000000 0.000000
#
# Coordination Sequence:
#
# PCOD9018670 Si02
#       6
#     2   2   2   2   2   2
#     4  10  21  43  74 102 152 185 241 304 366 421
#     4  11  23  47  74 108 153 183 243 311 361 435
#     4  11  22  46  78 108 144 196 241 298 371 443
#     4  10  21  45  73 107 141 197 238 301 361 429
#     4  12  26  47  71 111 152 193 245 312 360 425
#     4  12  26  46  78 111 144 199 248 292 373 441
#
# _framework density 24.172545
#
# number of rings (size 3 to 8) (size 9 to 14) (size 15 to 20)
#    0.000    1.000    6.667    0.500    0.000    2.667 
#    6.000    0.000    0.000    0.000    0.000    0.000 
#    0.000    0.000    0.000    0.000    0.000    0.000 
#
# Total GULP energy -67191.221523 kJ/mol
# GULP energy per Si atom -5599.268460 kJ/mol
# Density = 2.411753 g / cm^3
# Si number density = 24.172545 Si / 1000 Ang^3
#
#
#
# Elastic Constant Matrix: (Units=GPa)
#
#
# Indices 1 2 3 4 5 6 
#
# 1 120.4548 36.0355 57.8872 17.7454 12.9242 14.7165
# 2 36.0355 160.6724 62.1894 4.0778 -1.9366 12.7207
# 3 57.8872 62.1894 179.0511 27.3244 -7.3622 26.1162
# 4 17.7454 4.0778 27.3244 46.3561 14.8599 2.6523
# 5 12.9242 -1.9366 -7.3622 14.8599 29.4669 -3.0313
# 6 14.7165 12.7207 26.1162 2.6523 -3.0313 30.2891
#
#
#
# Elastic Compliance Matrix: (Units=1/GPa)
#
#
# Indices 1 2 3 4 5 6 
#
# 1 0.011098 -0.001185 -0.002928 -0.000400 -0.005775 -0.002913
# 2 -0.001185 0.007396 -0.002292 0.001286 -0.000287 -0.000695
# 3 -0.002928 -0.002292 0.009059 -0.005622 0.005784 -0.004354
# 4 -0.000400 0.001286 -0.005622 0.030146 -0.016323 0.000229
# 5 -0.005775 -0.000287 0.005784 -0.016323 0.046541 0.004026
# 6 -0.002913 -0.000695 -0.004354 0.000229 0.004026 0.038860
#
#
# Mechanical properties :
#
#
# Convention : Reuss Voigt Hill
#
# Bulk Modulus (GPa) = 67.83138 85.82249 76.82693
# Shear Modulus (GPa) = 31.09010 41.49350 36.29180
#
# Velocity S-wave (km/s) = 3.59022 4.14763 3.87895
# Velocity P-wave (km/s) = 6.73116 7.64972 7.20509
#
# Compressibility (1/GPa) = 0.01474244
#
# Stress axis : x y z
#
# Youngs Moduli (GPa) = 90.10803 135.21262 110.39077
#
# Poissons Ratio (x) = 0.16017 0.32322
# Poissons Ratio (y) = 0.10674 0.25306
# Poissons Ratio (z) = 0.26383 0.30997
#
# Static dielectric constant tensor:
#      x y z
#    x 1.931910 0.048840 -0.000830 
#    y 0.048840 2.017830 0.015440 
#    z -0.000830 0.015440 1.984380 
# 
# From -- ./inp_files/248950.got.cif
#   From: 2010.05.17/outbox.cif.g08.bks.cpg/sg2_125_cif.got.tgz:248950.got - 2010.06.03 11:33:40.
