data_PCOD9018761
_publ_section_title
;
Structure prediction by ZEFSAII (Michael W. Deem and Ramdas Pophale) SiO2 
 PCOD9018761
Probable space group: P -1
;
_chemical_formula_sum "Si O2"
_cell_formula_units_Z 14
_cell_length_a 12.049986
_cell_length_b 9.694359
_cell_length_c 11.103525
_cell_angle_alpha 91.549826
_cell_angle_beta 72.964921
_cell_angle_gamma 36.924640
_cell_volume 663.534000
_symmetry_space_group_name_H-M "P -1"
_symmetry_group_IT_number 2
_symmetry_cell_setting 'triclinic'
loop_
_space_group_symop_operation_xyz
x,y,z
-x,-y,-z
loop_
_atom_site_type_symbol
_atom_site_label
_atom_site_fract_x
_atom_site_fract_y
_atom_site_fract_z
Si Si1 0.413679 0.640847 0.659856
Si Si2 0.646570 0.226581 0.898030
Si Si3 0.571812 0.652829 0.267687
Si Si4 0.176883 0.323982 0.784604
Si Si5 0.195997 0.080529 0.593573
Si Si6 0.850459 0.220005 0.653616
Si Si7 0.691534 0.893535 0.005354
O O1 0.500000 0.500000 0.500000
O O2 0.309820 0.610176 0.749093
O O3 0.613954 0.475388 0.677923
O O4 0.266833 0.915056 0.680209
O O5 0.517599 0.273279 0.835950
O O6 0.832622 0.127565 0.766178
O O7 0.500000 0.500000 0.000000
O O8 0.698687 0.049063 0.968815
O O9 0.732085 0.614296 0.240555
O O10 0.361614 0.885441 0.426911
O O11 0.212223 0.216861 0.642238
O O12 0.304281 0.124433 0.850986
O O13 0.919006 0.590910 0.892278
O O14 0.959134 0.258067 0.645687
O O15 0.000000 0.000000 0.500000
O O16 0.500000 0.000000 0.000000
#
# Coordination Sequence:
#
# PCOD9018761 Si02
#       7
#     2   2   2   2   2   2   2
#     4   9  19  35  63  93 131 169 212 278 329 381
#     4  11  25  42  72  98 132 176 224 283 338 397
#     4  10  21  44  63 100 137 166 225 279 334 395
#     4  11  26  43  69  95 135 184 224 266 342 407
#     4  11  23  40  68 101 134 176 221 277 335 407
#     4  11  21  40  66  99 134 169 226 278 335 387
#     4  11  26  48  65  92 139 181 224 277 329 406
#
# _framework density 21.099145
#
# number of rings (size 3 to 8) (size 9 to 14) (size 15 to 20)
#    0.000    1.429    5.714    0.429    8.000    0.000 
#    0.000    2.143    0.000    0.000    0.000    0.000 
#    0.000    0.000    0.000    0.000    0.000    0.000 
#
# Total GULP energy -78067.146736 kJ/mol
# GULP energy per Si atom -5576.224767 kJ/mol
# Density = 2.105112 g / cm^3
# Si number density = 21.099145 Si / 1000 Ang^3
#
#
#
# Elastic Constant Matrix: (Units=GPa)
#
#
# Indices 1 2 3 4 5 6 
#
# 1 145.4950 22.8203 32.3090 1.7101 6.2348 -22.7708
# 2 22.8203 73.4946 16.3309 -15.5263 2.6351 -11.7532
# 3 32.3090 16.3309 54.7008 0.4253 -0.4950 0.4132
# 4 1.7101 -15.5263 0.4253 19.3039 10.0593 3.0675
# 5 6.2348 2.6351 -0.4950 10.0593 33.2977 0.5716
# 6 -22.7708 -11.7532 0.4132 3.0675 0.5716 24.3101
#
#
#
# Elastic Compliance Matrix: (Units=1/GPa)
#
#
# Indices 1 2 3 4 5 6 
#
# 1 0.009750 -0.000686 -0.005620 -0.002021 -0.001402 0.009184
# 2 -0.000686 0.020772 -0.006074 0.019773 -0.007703 0.007189
# 3 -0.005620 -0.006074 0.023551 -0.005566 0.003702 -0.007986
# 4 -0.002021 0.019773 -0.005566 0.081848 -0.025962 -0.001956
# 5 -0.001402 -0.007703 0.003702 -0.025962 0.038849 -0.002738
# 6 0.009184 0.007189 -0.007986 -0.001956 -0.002738 0.053661
#
#
# Mechanical properties :
#
#
# Convention : Reuss Voigt Hill
#
# Bulk Modulus (GPa) = 34.11514 46.29012 40.20263
# Shear Modulus (GPa) = 19.01403 28.86435 23.93919
#
# Velocity S-wave (km/s) = 3.00521 3.70271 3.37204
# Velocity P-wave (km/s) = 5.31468 6.34563 5.85290
#
# Compressibility (1/GPa) = 0.02931250
#
# Stress axis : x y z
#
# Youngs Moduli (GPa) = 102.56380 48.14090 42.46051
#
# Poissons Ratio (x) = 0.03305 0.23864
# Poissons Ratio (y) = 0.07041 0.25790
# Poissons Ratio (z) = 0.57643 0.29240
#
# Static dielectric constant tensor:
#      x y z
#    x 1.815780 -0.000280 0.012230 
#    y -0.000280 1.785180 -0.027420 
#    z 0.012230 -0.027420 1.796600 
# 
# From -- ./inp_files/417322.got.cif
#   From: 2010.05.17/outbox.cif.g08.bks.cpg/sg2_209_cif.got.tgz:417322.got - 2010.06.03 11:33:40.
