data_PCOD9018753
_publ_section_title
;
Structure prediction by ZEFSAII (Michael W. Deem and Ramdas Pophale) SiO2 
 PCOD9018753
Probable space group: P -1
;
_chemical_formula_sum "Si O2"
_cell_formula_units_Z 16
_cell_length_a 8.077868
_cell_length_b 8.829906
_cell_length_c 15.784835
_cell_angle_alpha 92.183354
_cell_angle_beta 76.993101
_cell_angle_gamma 34.614556
_cell_volume 570.171463
_symmetry_space_group_name_H-M "P -1"
_symmetry_group_IT_number 2
_symmetry_cell_setting 'triclinic'
loop_
_space_group_symop_operation_xyz
x,y,z
-x,-y,-z
loop_
_atom_site_type_symbol
_atom_site_label
_atom_site_fract_x
_atom_site_fract_y
_atom_site_fract_z
Si Si1 0.947441 0.644203 0.926349
Si Si2 0.430719 0.250318 0.164784
Si Si3 0.639424 0.377733 0.613595
Si Si4 0.934536 0.989696 0.732795
Si Si5 0.818071 0.756237 0.369364
Si Si6 0.640406 0.636209 0.496901
Si Si7 0.390983 0.570091 0.917323
Si Si8 0.495788 0.079730 0.746621
O O1 0.057090 0.729633 0.943253
O O2 0.232318 0.394635 0.820406
O O3 0.648118 0.798929 0.909548
O O4 0.000000 0.500000 0.000000
O O5 0.619583 0.253936 0.115263
O O6 0.114418 0.543674 0.263671
O O7 0.599940 0.007724 0.204911
O O8 0.844277 0.131990 0.654966
O O9 0.780549 0.415294 0.547332
O O10 0.511817 0.358923 0.556570
O O11 0.316073 0.696635 0.700591
O O12 0.698681 0.251065 0.831114
O O13 0.831754 0.890906 0.737676
O O14 0.881532 0.575570 0.425826
O O15 0.527454 0.905616 0.349534
O O16 0.649441 0.037716 0.425875
O O17 0.500000 0.500000 0.000000
#
# Coordination Sequence:
#
# PCOD9018753 Si02
#       8
#     2   2   2   2   2   2   2   2
#     4  10  22  45  69  96 144 183 238 306 370 440
#     4  11  23  44  72  97 147 190 238 304 373 441
#     4  11  24  46  68 103 141 198 241 311 371 441
#     4  11  25  46  72 100 152 192 245 304 381 442
#     4  10  21  44  62 101 134 192 233 308 362 431
#     4  10  22  40  69  96 141 180 255 295 363 440
#     4  11  24  46  72 112 139 190 253 299 368 451
#     4  10  23  40  67  97 136 194 241 289 380 442
#
# _framework density 28.061734999999999
#
# number of rings (size 3 to 8) (size 9 to 14) (size 15 to 20)
#    0.000    1.500    2.500    1.500    5.250    2.500 
#    4.500    3.125    0.000    0.000    0.000    0.000 
#    0.000    0.000    0.000    0.000    0.000    0.000 
#
# Total GULP energy -89708.536734 kJ/mol
# GULP energy per Si atom -5606.783546 kJ/mol
# Density = 2.799786 g / cm^3
# Si number density = 28.061735 Si / 1000 Ang^3
#
#
#
# Elastic Constant Matrix: (Units=GPa)
#
#
# Indices 1 2 3 4 5 6 
#
# 1 201.1518 42.0833 56.7640 -12.2019 -23.2907 36.8306
# 2 42.0833 119.1618 44.0824 -16.5486 3.1043 21.9236
# 3 56.7640 44.0824 135.2209 -4.4021 11.5119 21.8036
# 4 -12.2019 -16.5486 -4.4021 61.5363 21.7382 -3.6617
# 5 -23.2907 3.1043 11.5119 21.7382 41.3256 -8.0158
# 6 36.8306 21.9236 21.8036 -3.6617 -8.0158 48.6910
#
#
#
# Elastic Compliance Matrix: (Units=1/GPa)
#
#
# Indices 1 2 3 4 5 6 
#
# 1 0.006936 -0.001260 -0.002460 -0.000946 0.004627 -0.002887
# 2 -0.001260 0.010777 -0.002048 0.003521 -0.003439 -0.003284
# 3 -0.002460 -0.002048 0.009976 0.001369 -0.005205 -0.002439
# 4 -0.000946 0.003521 0.001369 0.021546 -0.012898 -0.001986
# 5 0.004627 -0.003439 -0.005205 -0.012898 0.036344 0.005393
# 6 -0.002887 -0.003284 -0.002439 -0.001986 0.005393 0.026030
#
#
# Mechanical properties :
#
#
# Convention : Reuss Voigt Hill
#
# Bulk Modulus (GPa) = 61.90340 82.37710 72.14025
# Shear Modulus (GPa) = 38.90129 51.15091 45.02610
#
# Velocity S-wave (km/s) = 3.72731 4.27406 4.01001
# Velocity P-wave (km/s) = 6.37428 7.33322 6.87050
#
# Compressibility (1/GPa) = 0.01615420
#
# Stress axis : x y z
#
# Youngs Moduli (GPa) = 144.17166 92.78846 100.23704
#
# Poissons Ratio (x) = 0.11693 0.24659
# Poissons Ratio (y) = 0.18169 0.20524
# Poissons Ratio (z) = 0.35467 0.18999
#
# Static dielectric constant tensor:
#      x y z
#    x 2.262490 -0.054980 -0.007570 
#    y -0.054980 2.121150 0.060680 
#    z -0.007570 0.060680 2.183160 
# 
# From -- ./inp_files/495050.got.cif
#   From: 2010.05.17/outbox.cif.g08.bks.cpg/sg2_248_cif.got.tgz:495050.got - 2010.06.03 11:33:40.
