data_PCOD9018107
_publ_section_title
;
Structure prediction by ZEFSAII (Michael W. Deem and Ramdas Pophale) SiO2 
 PCOD9018107
Probable space group: P -1
;
_chemical_formula_sum "Si O2"
_cell_formula_units_Z 16
_cell_length_a 23.963615
_cell_length_b 15.084333
_cell_length_c 18.045822
_cell_angle_alpha 27.148950
_cell_angle_beta 19.477821
_cell_angle_gamma 19.941249
_cell_volume 741.457783
_symmetry_space_group_name_H-M "P -1"
_symmetry_group_IT_number 2
_symmetry_cell_setting 'triclinic'
loop_
_space_group_symop_operation_xyz
x,y,z
-x,-y,-z
loop_
_atom_site_type_symbol
_atom_site_label
_atom_site_fract_x
_atom_site_fract_y
_atom_site_fract_z
Si Si1 0.991382 0.171139 0.547225
Si Si2 0.852424 0.010871 0.111899
Si Si3 0.698383 0.417018 0.869409
Si Si4 0.553308 0.594692 0.588228
Si Si5 0.617617 0.207658 0.902067
Si Si6 0.037576 0.390385 0.115744
Si Si7 0.447517 0.603507 0.406374
Si Si8 0.858612 0.535678 0.922301
O O1 0.086269 0.288940 0.301389
O O2 0.898808 0.302165 0.646765
O O3 0.793901 0.217233 0.714672
O O4 0.191060 0.863073 0.529233
O O5 0.990515 0.724367 0.121295
O O6 0.617830 0.139947 0.349752
O O7 0.785465 0.194825 0.987315
O O8 0.000000 0.000000 0.000000
O O9 0.500000 0.500000 0.000000
O O10 0.579765 0.671289 0.880711
O O11 0.528260 0.401694 0.800721
O O12 0.497894 0.611484 0.559149
O O13 0.809427 0.459607 0.373208
O O14 0.752467 0.917373 0.922100
O O15 0.077383 0.525305 0.025831
O O16 0.000000 0.500000 0.000000
O O17 0.500000 0.500000 0.500000
O O18 0.603780 0.663239 0.143009
#
# Coordination Sequence:
#
# PCOD9018107 Si02
#       8
#     2   2   2   2   2   2   2   2
#     4  11  22  42  68  98 135 171 219 280 327 403
#     4  11  24  45  70  95 138 178 223 277 339 406
#     4   9  22  41  71  97 126 184 226 267 339 400
#     4  11  22  44  70  90 129 183 215 263 347 395
#     4  10  21  43  68  93 133 174 216 270 340 391
#     4  12  25  40  67 103 132 169 226 285 323 395
#     4  12  24  41  69  95 134 179 220 267 338 404
#     4  12  26  42  66 104 133 172 230 276 335 399
#
# _framework density 21.579111999999999
#
# number of rings (size 3 to 8) (size 9 to 14) (size 15 to 20)
#    0.000    1.000    3.750    3.000    3.500    1.500 
#    0.000    0.625    0.000    0.000    0.000    0.000 
#    0.000    0.000    0.000    0.000    0.000    0.000 
#
# Total GULP energy -89396.561362 kJ/mol
# GULP energy per Si atom -5587.285085 kJ/mol
# Density = 2.153000 g / cm^3
# Si number density = 21.579112 Si / 1000 Ang^3
#
#
#
# Elastic Constant Matrix: (Units=GPa)
#
#
# Indices 1 2 3 4 5 6 
#
# 1 129.3392 24.2897 17.4567 6.8342 16.8671 8.0952
# 2 24.2897 70.7527 12.3544 13.4635 15.9291 13.3240
# 3 17.4567 12.3544 65.1252 17.4481 25.1980 9.8341
# 4 6.8342 13.4635 17.4481 27.0913 12.6089 9.1611
# 5 16.8671 15.9291 25.1980 12.6089 27.6433 2.5347
# 6 8.0952 13.3240 9.8341 9.1611 2.5347 39.5127
#
#
#
# Elastic Compliance Matrix: (Units=1/GPa)
#
#
# Indices 1 2 3 4 5 6 
#
# 1 0.008727 -0.002035 -0.000561 0.001487 -0.004225 -0.001036
# 2 -0.002035 0.018154 0.002483 -0.004266 -0.009102 -0.004750
# 3 -0.000561 0.002483 0.025523 -0.006265 -0.021106 -0.004269
# 4 0.001487 -0.004266 -0.006265 0.053128 -0.016185 -0.008587
# 5 -0.004225 -0.009102 -0.021106 -0.016185 0.069843 0.008460
# 6 -0.001036 -0.004750 -0.004269 -0.008587 0.008460 0.029633
#
#
# Mechanical properties :
#
#
# Convention : Reuss Voigt Hill
#
# Bulk Modulus (GPa) = 19.16460 41.49097 30.32779
# Shear Modulus (GPa) = 22.45927 32.92388 27.69157
#
# Velocity S-wave (km/s) = 3.22962 3.91030 3.58615
# Velocity P-wave (km/s) = 4.77574 6.29733 5.58856
#
# Compressibility (1/GPa) = 0.05217955
#
# Stress axis : x y z
#
# Youngs Moduli (GPa) = 114.59231 55.08410 39.18004
#
# Poissons Ratio (x) = 0.11209 0.02197
# Poissons Ratio (y) = 0.23317 -0.09730
# Poissons Ratio (z) = 0.06425 -0.13679
#
# Static dielectric constant tensor:
#      x y z
#    x 1.835160 0.003880 -0.017620 
#    y 0.003880 1.756730 0.006960 
#    z -0.017620 0.006960 1.839990 
# 
# From -- ./inp_files/217124.got.cif
#   From: 2010.05.17/outbox.cif.g08.bks.cpg/sg2_109_cif.got.tgz:217124.got - 2010.06.03 11:33:40.
