data_PCOD9018563
_publ_section_title
;
Structure prediction by ZEFSAII (Michael W. Deem and Ramdas Pophale) SiO2 
 PCOD9018563
Probable space group: P -1
;
_chemical_formula_sum "Si O2"
_cell_formula_units_Z 16
_cell_length_a 9.398479
_cell_length_b 20.728250
_cell_length_c 11.542322
_cell_angle_alpha 141.566509
_cell_angle_beta 45.694739
_cell_angle_gamma 151.912906
_cell_volume 657.867013
_symmetry_space_group_name_H-M "P -1"
_symmetry_group_IT_number 2
_symmetry_cell_setting 'triclinic'
loop_
_space_group_symop_operation_xyz
x,y,z
-x,-y,-z
loop_
_atom_site_type_symbol
_atom_site_label
_atom_site_fract_x
_atom_site_fract_y
_atom_site_fract_z
Si Si1 0.076315 0.376344 0.757551
Si Si2 0.289481 0.603327 0.136440
Si Si3 0.043661 0.488963 0.593200
Si Si4 0.995449 0.774080 0.761443
Si Si5 0.297618 0.258969 0.332660
Si Si6 0.121109 0.027335 0.671582
Si Si7 0.836604 0.117531 0.929235
Si Si8 0.673358 0.096857 0.753325
O O1 0.215839 0.335116 0.551244
O O2 0.989007 0.435665 0.806827
O O3 0.769859 0.219108 0.776104
O O4 0.288990 0.502233 0.915167
O O5 0.578770 0.789023 0.221290
O O6 0.212447 0.556337 0.248032
O O7 0.375966 0.647737 0.676394
O O8 0.000000 0.500000 0.500000
O O9 0.008740 0.350832 0.432974
O O10 0.745903 0.733333 0.767124
O O11 0.320176 0.945649 0.772019
O O12 0.975415 0.781019 0.920539
O O13 0.048474 0.079626 0.267733
O O14 0.894802 0.019890 0.730372
O O15 0.210185 0.964243 0.455414
O O16 0.854444 0.185792 0.895253
O O17 0.500000 0.000000 0.000000
#
# Coordination Sequence:
#
# PCOD9018563 Si02
#       8
#     2   2   2   2   2   2   2   2
#     4  10  23  42  69 103 135 182 227 291 332 410
#     4  11  24  43  70  99 143 176 233 278 349 400
#     4  12  28  43  69 102 144 182 224 284 351 410
#     4  11  23  44  70 100 142 184 227 284 342 409
#     4  11  25  45  74 100 137 182 237 277 345 409
#     4  11  23  43  71  99 133 182 234 281 341 405
#     4  10  25  39  66  99 143 175 224 285 340 403
#     4  10  21  43  71  99 138 177 236 278 345 399
#
# _framework density 24.321027000000001
#
# number of rings (size 3 to 8) (size 9 to 14) (size 15 to 20)
#    0.000    1.250    2.500    1.500    7.000    6.500 
#    0.000    1.250    0.000    0.000    0.000    0.000 
#    0.000    0.000    0.000    0.000    0.000    0.000 
#
# Total GULP energy -89573.585517 kJ/mol
# GULP energy per Si atom -5598.349095 kJ/mol
# Density = 2.426567 g / cm^3
# Si number density = 24.321027 Si / 1000 Ang^3
#
#
#
# Elastic Constant Matrix: (Units=GPa)
#
#
# Indices 1 2 3 4 5 6 
#
# 1 103.3748 25.2722 12.4519 -4.4576 24.9829 4.6814
# 2 25.2722 111.8375 25.7936 16.1936 17.0306 6.7339
# 3 12.4519 25.7936 74.1479 3.1319 21.4372 -1.0085
# 4 -4.4576 16.1936 3.1319 24.5024 -0.0820 0.1228
# 5 24.9829 17.0306 21.4372 -0.0820 36.6530 -4.9358
# 6 4.6814 6.7339 -1.0085 0.1228 -4.9358 31.9641
#
#
#
# Elastic Compliance Matrix: (Units=1/GPa)
#
#
# Indices 1 2 3 4 5 6 
#
# 1 0.012355 -0.002072 0.000866 0.003492 -0.008313 -0.002643
# 2 -0.002072 0.011742 -0.002606 -0.007801 -0.002896 -0.002670
# 3 0.000866 -0.002606 0.016963 -0.000317 -0.009367 -0.000488
# 4 0.003492 -0.007801 -0.000317 0.046643 0.001696 0.001205
# 5 -0.008313 -0.002896 -0.009367 0.001696 0.040831 0.007831
# 6 -0.002643 -0.002670 -0.000488 0.001205 0.007831 0.033424
#
#
# Mechanical properties :
#
#
# Convention : Reuss Voigt Hill
#
# Bulk Modulus (GPa) = 29.90891 46.26618 38.08754
# Shear Modulus (GPa) = 27.66591 33.68007 30.67299
#
# Velocity S-wave (km/s) = 3.37639 3.72534 3.55515
# Velocity P-wave (km/s) = 5.24636 6.12933 5.70495
#
# Compressibility (1/GPa) = 0.03343485
#
# Stress axis : x y z
#
# Youngs Moduli (GPa) = 80.93808 85.16325 58.95352
#
# Poissons Ratio (x) = 0.17648 -0.05105
# Poissons Ratio (y) = 0.16772 0.15365
# Poissons Ratio (z) = -0.07009 0.22196
#
# Static dielectric constant tensor:
#      x y z
#    x 1.945450 0.018940 0.008710 
#    y 0.018940 1.936890 -0.001080 
#    z 0.008710 -0.001080 1.956500 
# 
# From -- ./inp_files/405564.got.cif
#   From: 2010.05.17/outbox.cif.g08.bks.cpg/sg2_203_cif.got.tgz:405564.got - 2010.06.03 11:33:40.
