data_PCOD9018666
_publ_section_title
;
Structure prediction by ZEFSAII (Michael W. Deem and Ramdas Pophale) SiO2 
 PCOD9018666
Probable space group: P -1
;
_chemical_formula_sum "Si O2"
_cell_formula_units_Z 16
_cell_length_a 8.649881
_cell_length_b 13.947596
_cell_length_c 9.654203
_cell_angle_alpha 106.976785
_cell_angle_beta 88.004435
_cell_angle_gamma 138.589357
_cell_volume 704.928679
_symmetry_space_group_name_H-M "P -1"
_symmetry_group_IT_number 2
_symmetry_cell_setting 'triclinic'
loop_
_space_group_symop_operation_xyz
x,y,z
-x,-y,-z
loop_
_atom_site_type_symbol
_atom_site_label
_atom_site_fract_x
_atom_site_fract_y
_atom_site_fract_z
Si Si1 0.562271 0.934480 0.061838
Si Si2 0.579515 0.383900 0.674223
Si Si3 0.386436 0.511397 0.757232
Si Si4 0.499508 0.959781 0.636760
Si Si5 0.277026 0.605738 0.022247
Si Si6 0.913214 0.837621 0.785110
Si Si7 0.955547 0.648168 0.562274
Si Si8 0.820093 0.938456 0.604389
O O1 0.410785 0.756300 0.986247
O O2 0.508991 0.950352 0.223399
O O3 0.847592 0.053826 0.084081
O O4 0.500000 0.000000 0.000000
O O5 0.437374 0.418166 0.711988
O O6 0.611230 0.349409 0.808388
O O7 0.834723 0.535183 0.652069
O O8 0.425857 0.240815 0.511984
O O9 0.653212 0.694018 0.803380
O O10 0.203520 0.449866 0.611970
O O11 0.288959 0.505458 0.901444
O O12 0.737732 0.010353 0.663840
O O13 0.243254 0.772817 0.591616
O O14 0.500000 0.000000 0.500000
O O15 0.000000 0.500000 0.000000
O O16 0.929048 0.753597 0.639491
O O17 0.924744 0.944312 0.742859
O O18 0.000000 0.000000 0.500000
#
# Coordination Sequence:
#
# PCOD9018666 Si02
#       8
#     2   2   2   2   2   2   2   2
#     4  11  28  51  69  97 145 192 230 287 350 422
#     4  11  23  45  68 105 140 178 230 295 352 411
#     4  11  23  44  74 103 136 185 226 288 352 412
#     4  11  26  44  71 102 139 185 235 286 351 409
#     4  12  30  44  67 102 147 186 235 281 347 425
#     4  10  21  45  71 101 131 171 242 285 343 409
#     4  10  21  43  74 102 135 178 229 288 350 414
#     4  12  23  39  71 103 135 176 235 295 343 407
#
# _framework density 22.697331999999999
#
# number of rings (size 3 to 8) (size 9 to 14) (size 15 to 20)
#    0.000    1.000    2.500    4.125   10.500    1.000 
#    2.250    0.000    0.000    0.000    0.000    0.000 
#    0.000    0.000    0.000    0.000    0.000    0.000 
#
# Total GULP energy -89515.417178 kJ/mol
# GULP energy per Si atom -5594.713574 kJ/mol
# Density = 2.264567 g / cm^3
# Si number density = 22.697332 Si / 1000 Ang^3
#
#
#
# Elastic Constant Matrix: (Units=GPa)
#
#
# Indices 1 2 3 4 5 6 
#
# 1 96.3293 15.0919 11.0437 -6.5654 -0.1989 12.4598
# 2 15.0919 36.2893 -4.9777 5.5833 -7.6019 1.5662
# 3 11.0437 -4.9777 58.3353 -8.2262 1.9012 -2.4331
# 4 -6.5654 5.5833 -8.2262 28.4504 -2.7847 4.9234
# 5 -0.1989 -7.6019 1.9012 -2.7847 40.1858 -10.2096
# 6 12.4598 1.5662 -2.4331 4.9234 -10.2096 37.4208
#
#
#
# Elastic Compliance Matrix: (Units=1/GPa)
#
#
# Indices 1 2 3 4 5 6 
#
# 1 0.012631 -0.006445 -0.002505 0.004154 -0.002074 -0.005211
# 2 -0.006445 0.032938 0.002972 -0.007090 0.006499 0.003667
# 3 -0.002505 0.002972 0.018479 0.003958 0.000326 0.001479
# 4 0.004154 -0.007090 0.003958 0.039674 -0.000318 -0.006135
# 5 -0.002074 0.006499 0.000326 -0.000318 0.028139 0.008159
# 6 -0.005211 0.003667 0.001479 -0.006135 0.008159 0.031434
#
#
# Mechanical properties :
#
#
# Convention : Reuss Voigt Hill
#
# Bulk Modulus (GPa) = 19.19681 25.91885 22.55783
# Shear Modulus (GPa) = 25.95833 32.53115 29.24474
#
# Velocity S-wave (km/s) = 3.38549 3.78995 3.59342
# Velocity P-wave (km/s) = 4.87424 5.53134 5.21315
#
# Compressibility (1/GPa) = 0.05209198
#
# Stress axis : x y z
#
# Youngs Moduli (GPa) = 79.17064 30.35968 54.11449
#
# Poissons Ratio (x) = 0.19568 0.13557
# Poissons Ratio (y) = 0.51028 -0.16083
# Poissons Ratio (z) = 0.19834 -0.09023
#
# Static dielectric constant tensor:
#      x y z
#    x 1.860190 0.005840 0.001840 
#    y 0.005840 1.872900 0.019380 
#    z 0.001840 0.019380 1.815320 
# 
# From -- ./inp_files/207828.got.cif
#   From: 2010.05.17/outbox.cif.g08.bks.cpg/sg2_104_cif.got.tgz:207828.got - 2010.06.03 11:33:40.
