data_PCOD9018232
_publ_section_title
;
Structure prediction by ZEFSAII (Michael W. Deem and Ramdas Pophale) SiO2 
 PCOD9018232
Probable space group: P -1
;
_chemical_formula_sum "Si O2"
_cell_formula_units_Z 14
_cell_length_a 16.100875
_cell_length_b 10.616527
_cell_length_c 8.807312
_cell_angle_alpha 110.452875
_cell_angle_beta 112.202340
_cell_angle_gamma 23.601400
_cell_volume 558.040348
_symmetry_space_group_name_H-M "P -1"
_symmetry_group_IT_number 2
_symmetry_cell_setting 'triclinic'
loop_
_space_group_symop_operation_xyz
x,y,z
-x,-y,-z
loop_
_atom_site_type_symbol
_atom_site_label
_atom_site_fract_x
_atom_site_fract_y
_atom_site_fract_z
Si Si1 0.369435 0.759740 0.896047
Si Si2 0.091597 0.535065 0.044139
Si Si3 0.774355 0.379052 0.990984
Si Si4 0.239066 0.201346 0.701104
Si Si5 0.876846 0.369850 0.357768
Si Si6 0.643180 0.750475 0.632155
Si Si7 0.727453 0.161729 0.454520
O O1 0.278174 0.794211 0.708832
O O2 0.500000 0.500000 0.000000
O O3 0.556561 0.601019 0.894503
O O4 0.160543 0.110760 0.969472
O O5 0.210701 0.350309 0.208488
O O6 0.173995 0.568182 0.060834
O O7 0.170694 0.331679 0.878987
O O8 0.741474 0.481669 0.182738
O O9 0.000000 0.000000 0.000000
O O10 0.124511 0.471138 0.631838
O O11 0.478867 0.905261 0.695503
O O12 0.213994 0.076651 0.608707
O O13 0.798165 0.454205 0.510642
O O14 0.111793 0.996734 0.378390
O O15 0.500000 0.000000 0.500000
O O16 0.500000 0.500000 0.500000
#
# Coordination Sequence:
#
# PCOD9018232 Si02
#       7
#     2   2   2   2   2   2   2
#     4  12  26  46  73 111 145 192 243 293 359 436
#     4  11  23  47  75 104 147 189 248 293 361 433
#     4  11  23  45  73 103 148 195 238 291 361 433
#     4  10  24  45  72 102 141 193 238 295 367 428
#     4  10  23  46  70 105 144 184 241 300 360 430
#     4  10  21  43  69 104 142 181 238 301 362 418
#     4  12  26  46  70 103 147 185 240 301 367 424
#
# _framework density 25.087790999999999
#
# number of rings (size 3 to 8) (size 9 to 14) (size 15 to 20)
#    0.000    1.143    2.857    2.571    2.000    4.000 
#   10.286    2.143    0.000    0.000    0.000    0.000 
#    0.000    0.000    0.000    0.000    0.000    0.000 
#
# Total GULP energy -78182.327169 kJ/mol
# GULP energy per Si atom -5584.451941 kJ/mol
# Density = 2.503069 g / cm^3
# Si number density = 25.087791 Si / 1000 Ang^3
#
#
#
# Elastic Constant Matrix: (Units=GPa)
#
#
# Indices 1 2 3 4 5 6 
#
# 1 85.1974 28.3402 14.1256 -12.5678 -13.8159 -5.1182
# 2 28.3402 112.0508 70.2622 -20.8258 -24.4430 -20.6903
# 3 14.1256 70.2622 140.6442 -8.3639 -12.0836 1.3324
# 4 -12.5678 -20.8258 -8.3639 56.6489 -7.9692 -3.6156
# 5 -13.8159 -24.4430 -12.0836 -7.9692 24.8579 2.6698
# 6 -5.1182 -20.6903 1.3324 -3.6156 2.6698 34.2522
#
#
#
# Elastic Compliance Matrix: (Units=1/GPa)
#
#
# Indices 1 2 3 4 5 6 
#
# 1 0.014005 -0.000560 -0.000181 0.004142 0.008306 0.001551
# 2 -0.000560 0.024890 -0.009997 0.011510 0.021395 0.014888
# 3 -0.000181 -0.009997 0.011609 -0.003058 -0.004571 -0.006484
# 4 0.004142 0.011510 -0.003058 0.025648 0.019401 0.008886
# 5 0.008306 0.021395 -0.004571 0.019401 0.068695 0.011036
# 6 0.001551 0.014888 -0.006484 0.008886 0.011036 0.038750
#
#
# Mechanical properties :
#
#
# Convention : Reuss Voigt Hill
#
# Bulk Modulus (GPa) = 34.44999 62.59429 48.52214
# Shear Modulus (GPa) = 23.28293 38.16275 30.72284
#
# Velocity S-wave (km/s) = 3.04971 3.90445 3.50324
# Velocity P-wave (km/s) = 5.11494 6.73280 5.97884
#
# Compressibility (1/GPa) = 0.02902758
#
# Stress axis : x y z
#
# Youngs Moduli (GPa) = 71.40316 40.17676 86.13865
#
# Poissons Ratio (x) = 0.02251 0.01563
# Poissons Ratio (y) = 0.04001 0.86109
# Poissons Ratio (z) = 0.01296 0.40163
#
# Static dielectric constant tensor:
#      x y z
#    x 2.061620 -0.016820 0.007430 
#    y -0.016820 2.100580 0.035410 
#    z 0.007430 0.035410 2.044780 
# 
# From -- ./inp_files/333535.got.cif
#   From: 2010.05.17/outbox.cif.g08.bks.cpg/sg2_167_cif.got.tgz:333535.got - 2010.06.03 11:33:40.
