data_PCOD9018484
_publ_section_title
;
Structure prediction by ZEFSAII (Michael W. Deem and Ramdas Pophale) SiO2 
 PCOD9018484
Probable space group: P -1
;
_chemical_formula_sum "Si O2"
_cell_formula_units_Z 16
_cell_length_a 7.876947
_cell_length_b 18.458176
_cell_length_c 5.628352
_cell_angle_alpha 82.788184
_cell_angle_beta 113.766479
_cell_angle_gamma 127.032948
_cell_volume 590.122912
_symmetry_space_group_name_H-M "P -1"
_symmetry_group_IT_number 2
_symmetry_cell_setting 'triclinic'
loop_
_space_group_symop_operation_xyz
x,y,z
-x,-y,-z
loop_
_atom_site_type_symbol
_atom_site_label
_atom_site_fract_x
_atom_site_fract_y
_atom_site_fract_z
Si Si1 0.544101 0.106831 0.024003
Si Si2 0.664280 0.780200 0.689186
Si Si3 0.247380 0.604025 0.358294
Si Si4 0.802143 0.547985 0.374285
Si Si5 0.030698 0.846947 0.512096
Si Si6 0.819180 0.311109 0.092475
Si Si7 0.114761 0.294837 0.868601
Si Si8 0.711673 0.958211 0.606687
O O1 0.785864 0.120033 0.182643
O O2 0.603814 0.206121 0.065463
O O3 0.406869 0.047216 0.208256
O O4 0.435020 0.075981 0.711687
O O5 0.390240 0.701197 0.537681
O O6 0.762668 0.885446 0.712502
O O7 0.775850 0.779939 0.503601
O O8 0.753548 0.744207 0.944743
O O9 0.338492 0.547735 0.524379
O O10 0.972758 0.546130 0.288154
O O11 0.267659 0.633226 0.087502
O O12 0.714232 0.600908 0.179053
O O13 0.984041 0.624125 0.634981
O O14 0.061398 0.784737 0.385933
O O15 0.082107 0.935708 0.376934
O O16 0.959399 0.298541 0.974859
#
# Coordination Sequence:
#
# PCOD9018484 Si02
#       8
#     2   2   2   2   2   2   2   2
#     4  12  24  47  76 104 137 189 246 297 347 425
#     4  12  26  43  67 102 145 190 227 300 361 428
#     4  10  23  41  70 104 137 177 241 291 364 420
#     4  10  21  43  71 102 134 183 235 302 345 436
#     4  12  27  46  69 100 144 188 235 297 361 422
#     4  11  20  42  72  97 137 184 237 297 354 421
#     4  11  24  42  67  96 142 193 230 289 363 425
#     4  12  29  46  75 107 141 190 249 297 351 424
#
# _framework density 27.112994
#
# number of rings (size 3 to 8) (size 9 to 14) (size 15 to 20)
#    0.000    0.750    3.750    3.000    3.500    2.000 
#    0.000    2.500    0.000    0.000    0.000    0.000 
#    0.000    0.000    0.000    0.000    0.000    0.000 
#
# Total GULP energy -89515.687771 kJ/mol
# GULP energy per Si atom -5594.730486 kJ/mol
# Density = 2.705128 g / cm^3
# Si number density = 27.112994 Si / 1000 Ang^3
#
#
#
# Elastic Constant Matrix: (Units=GPa)
#
#
# Indices 1 2 3 4 5 6 
#
# 1 54.1207 4.9040 16.8658 -2.2595 -6.6407 -5.2231
# 2 4.9040 196.7289 47.0011 -44.4917 -1.4027 -27.7831
# 3 16.8658 47.0011 111.3376 -15.4565 2.5967 -13.3255
# 4 -2.2595 -44.4917 -15.4565 64.2199 -16.5548 0.3548
# 5 -6.6407 -1.4027 2.5967 -16.5548 36.0216 -8.4100
# 6 -5.2231 -27.7831 -13.3255 0.3548 -8.4100 38.4695
#
#
#
# Elastic Compliance Matrix: (Units=1/GPa)
#
#
# Indices 1 2 3 4 5 6 
#
# 1 0.020546 0.001403 -0.003006 0.002542 0.006182 0.004089
# 2 0.001403 0.007868 -0.002037 0.006276 0.005047 0.006212
# 3 -0.003006 -0.002037 0.010632 0.000876 -0.000609 0.001662
# 4 0.002542 0.006276 0.000876 0.023616 0.013343 0.007881
# 5 0.006182 0.005047 -0.000609 0.013343 0.038192 0.012499
# 6 0.004089 0.006212 0.001662 0.007881 0.012499 0.034272
#
#
# Mechanical properties :
#
#
# Convention : Reuss Voigt Hill
#
# Bulk Modulus (GPa) = 31.48141 55.52545 43.50343
# Shear Modulus (GPa) = 32.68088 47.30329 39.99209
#
# Velocity S-wave (km/s) = 3.47559 4.18146 3.84476
# Velocity P-wave (km/s) = 5.26714 6.62092 5.98244
#
# Compressibility (1/GPa) = 0.03176478
#
# Stress axis : x y z
#
# Youngs Moduli (GPa) = 48.67045 127.10442 94.05909
#
# Poissons Ratio (x) = -0.17828 0.28278
# Poissons Ratio (y) = -0.06826 0.19156
# Poissons Ratio (z) = 0.14632 0.25886
#
# Static dielectric constant tensor:
#      x y z
#    x 2.153810 0.019150 -0.018060 
#    y 0.019150 2.128380 -0.024230 
#    z -0.018060 -0.024230 2.239490 
# 
# From -- ./inp_files/47585.got.cif
#   From: 2010.05.17/outbox.cif.g08.bks.cpg/sg2_24_cif.got.tgz:47585.got - 2010.06.03 11:33:40.
