data_PCOD9018674
_publ_section_title
;
Structure prediction by ZEFSAII (Michael W. Deem and Ramdas Pophale) SiO2 
 PCOD9018674
Probable space group: P -1
;
_chemical_formula_sum "Si O2"
_cell_formula_units_Z 14
_cell_length_a 7.845816
_cell_length_b 12.052596
_cell_length_c 8.220441
_cell_angle_alpha 69.256565
_cell_angle_beta 116.099284
_cell_angle_gamma 71.673358
_cell_volume 540.889854
_symmetry_space_group_name_H-M "P -1"
_symmetry_group_IT_number 2
_symmetry_cell_setting 'triclinic'
loop_
_space_group_symop_operation_xyz
x,y,z
-x,-y,-z
loop_
_atom_site_type_symbol
_atom_site_label
_atom_site_fract_x
_atom_site_fract_y
_atom_site_fract_z
Si Si1 0.993472 0.168782 0.334208
Si Si2 0.812393 0.634210 0.748453
Si Si3 0.258601 0.437089 0.587040
Si Si4 0.728678 0.903069 0.046912
Si Si5 0.733740 0.173368 0.898662
Si Si6 0.205087 0.712904 0.479094
Si Si7 0.527801 0.105924 0.343452
O O1 0.812250 0.229256 0.375094
O O2 0.083664 0.273470 0.304496
O O3 0.890958 0.165576 0.117405
O O4 0.212821 0.007254 0.549199
O O5 0.761258 0.567533 0.611719
O O6 0.569103 0.749189 0.671642
O O7 0.000000 0.500000 0.000000
O O8 0.471989 0.277361 0.800115
O O9 0.328618 0.543319 0.620023
O O10 0.000000 0.500000 0.500000
O O11 0.662707 0.844728 0.899823
O O12 0.786037 0.018225 0.961111
O O13 0.932982 0.781908 0.300921
O O14 0.500000 0.000000 0.000000
O O15 0.747861 0.238891 0.699600
O O16 0.500000 0.000000 0.500000
#
# Coordination Sequence:
#
# PCOD9018674 Si02
#       7
#     2   2   2   2   2   2   2
#     4  11  24  48  71 110 152 191 243 306 371 439
#     4  11  23  44  76 109 144 195 252 303 356 434
#     4  12  25  50  76 102 146 199 247 301 368 447
#     4  12  24  47  75 104 146 194 244 299 363 444
#     4  12  28  47  74 110 149 195 243 310 381 434
#     4  12  25  47  75 108 156 190 247 306 373 436
#     4  10  21  43  74 104 147 188 248 304 356 437
#
# _framework density 25.883275000000001
#
# number of rings (size 3 to 8) (size 9 to 14) (size 15 to 20)
#    0.000    0.571    2.857    6.857    0.000    2.286 
#    7.714    0.000    0.000    0.000    0.000    0.000 
#    0.000    0.000    0.000    0.000    0.000    0.000 
#
# Total GULP energy -78378.559311 kJ/mol
# GULP energy per Si atom -5598.468522 kJ/mol
# Density = 2.582436 g / cm^3
# Si number density = 25.883275 Si / 1000 Ang^3
#
#
#
# Elastic Constant Matrix: (Units=GPa)
#
#
# Indices 1 2 3 4 5 6 
#
# 1 126.2128 29.3234 6.9905 -3.5307 -9.9465 -27.7454
# 2 29.3234 171.4226 34.8268 3.6131 -22.2896 -20.6781
# 3 6.9905 34.8268 102.7555 -1.4251 5.5552 -5.7996
# 4 -3.5307 3.6131 -1.4251 68.3819 0.6494 -0.1665
# 5 -9.9465 -22.2896 5.5552 0.6494 39.9786 -8.4562
# 6 -27.7454 -20.6781 -5.7996 -0.1665 -8.4562 40.6379
#
#
#
# Elastic Compliance Matrix: (Units=1/GPa)
#
#
# Indices 1 2 3 4 5 6 
#
# 1 0.009965 -0.000217 -0.000391 0.000498 0.003985 0.007469
# 2 -0.000217 0.007691 -0.002644 -0.000515 0.005572 0.004546
# 3 -0.000391 -0.002644 0.010793 0.000373 -0.003235 -0.000744
# 4 0.000498 -0.000515 0.000373 0.014689 -0.000432 0.000102
# 5 0.003985 0.005572 -0.003235 -0.000432 0.032056 0.011762
# 6 0.007469 0.004546 -0.000744 0.000102 0.011762 0.034362
#
#
# Mechanical properties :
#
#
# Convention : Reuss Voigt Hill
#
# Bulk Modulus (GPa) = 45.56834 60.29691 52.93262
# Shear Modulus (GPa) = 40.52729 51.74970 46.13849
#
# Velocity S-wave (km/s) = 3.96128 4.47626 4.22662
# Velocity P-wave (km/s) = 6.21014 7.07546 6.65687
#
# Compressibility (1/GPa) = 0.02194506
#
# Stress axis : x y z
#
# Youngs Moduli (GPa) = 100.35232 130.01602 92.65586
#
# Poissons Ratio (x) = 0.02815 0.03627
# Poissons Ratio (y) = 0.02173 0.24497
# Poissons Ratio (z) = 0.03929 0.34375
#
# Static dielectric constant tensor:
#      x y z
#    x 2.315570 0.084350 0.129220 
#    y 0.084350 2.081650 0.092260 
#    z 0.129220 0.092260 1.767750 
# 
# From -- ./inp_files/186000.got.cif
#   From: 2010.05.17/outbox.cif.g08.bks.cpg/sg2_93_cif.got.tgz:186000.got - 2010.06.03 11:33:40.
