data_PCOD9018318
_publ_section_title
;
Structure prediction by ZEFSAII (Michael W. Deem and Ramdas Pophale) SiO2 
 PCOD9018318
Probable space group: P -1
;
_chemical_formula_sum "Si O2"
_cell_formula_units_Z 14
_cell_length_a 12.964201
_cell_length_b 13.784721
_cell_length_c 6.768307
_cell_angle_alpha 111.832662
_cell_angle_beta 65.804892
_cell_angle_gamma 147.391309
_cell_volume 593.690427
_symmetry_space_group_name_H-M "P -1"
_symmetry_group_IT_number 2
_symmetry_cell_setting 'triclinic'
loop_
_space_group_symop_operation_xyz
x,y,z
-x,-y,-z
loop_
_atom_site_type_symbol
_atom_site_label
_atom_site_fract_x
_atom_site_fract_y
_atom_site_fract_z
Si Si1 0.451284 0.600718 0.676798
Si Si2 0.923053 0.767829 0.461447
Si Si3 0.851913 0.234734 0.969901
Si Si4 0.743347 0.881107 0.341913
Si Si5 0.238748 0.623728 0.077614
Si Si6 0.568261 0.942275 0.308104
Si Si7 0.696185 0.690719 0.896184
O O1 0.274769 0.383695 0.631048
O O2 0.552079 0.696284 0.462343
O O3 0.349484 0.629951 0.847487
O O4 0.614804 0.695943 0.779890
O O5 0.832066 0.702509 0.706419
O O6 0.083795 0.978161 0.528721
O O7 0.046500 0.767765 0.265820
O O8 0.770545 0.269511 0.932934
O O9 0.691707 0.060167 0.101915
O O10 0.022665 0.413771 0.107966
O O11 0.696111 0.961267 0.356588
O O12 0.789933 0.837512 0.094736
O O13 0.370965 0.731668 0.248211
O O14 0.500000 0.000000 0.500000
O O15 0.500000 0.500000 0.000000
#
# Coordination Sequence:
#
# PCOD9018318 Si02
#       7
#     2   2   2   2   2   2   2
#     4  11  24  48  70 100 141 184 227 289 349 406
#     4  11  25  44  70 100 139 182 227 288 342 409
#     4  10  23  42  68 102 139 183 230 277 353 405
#     4  12  26  44  70 106 138 182 236 283 349 404
#     4  10  21  43  69  97 139 185 222 287 345 406
#     4  12  24  41  68 104 141 180 231 283 340 420
#     4  12  26  49  72 101 138 185 237 284 345 410
#
# _framework density 23.581312
#
# number of rings (size 3 to 8) (size 9 to 14) (size 15 to 20)
#    0.000    0.857    2.857    3.857    0.000    4.571 
#    0.000    0.000    0.000    0.000    0.000    0.000 
#    0.000    0.000    0.000    0.000    0.000    0.000 
#
# Total GULP energy -78244.561033 kJ/mol
# GULP energy per Si atom -5588.897217 kJ/mol
# Density = 2.352764 g / cm^3
# Si number density = 23.581312 Si / 1000 Ang^3
#
#
#
# Elastic Constant Matrix: (Units=GPa)
#
#
# Indices 1 2 3 4 5 6 
#
# 1 83.2121 46.0332 49.2829 0.8165 -9.7775 -2.2737
# 2 46.0332 102.5635 33.3337 23.2990 1.5747 21.5168
# 3 49.2829 33.3337 112.4091 17.3689 -32.9338 -3.6525
# 4 0.8165 23.2990 17.3689 49.6717 12.1661 5.0059
# 5 -9.7775 1.5747 -32.9338 12.1661 39.1709 6.1011
# 6 -2.2737 21.5168 -3.6525 5.0059 6.1011 27.1583
#
#
#
# Elastic Compliance Matrix: (Units=1/GPa)
#
#
# Indices 1 2 3 4 5 6 
#
# 1 0.023506 -0.011218 -0.009867 0.008907 -0.006189 0.009277
# 2 -0.011218 0.019727 0.000227 -0.007955 0.001468 -0.015401
# 3 -0.009867 0.000227 0.020220 -0.011427 0.018116 -0.000250
# 4 0.008907 -0.007955 -0.011427 0.031623 -0.017447 0.003602
# 5 -0.006189 0.001468 0.018116 -0.017447 0.045551 -0.006262
# 6 0.009277 -0.015401 -0.000250 0.003602 -0.006262 0.050508
#
#
# Mechanical properties :
#
#
# Convention : Reuss Voigt Hill
#
# Bulk Modulus (GPa) = 46.00402 61.72049 53.86225
# Shear Modulus (GPa) = 20.82495 34.50249 27.66372
#
# Velocity S-wave (km/s) = 2.97494 3.82924 3.42880
# Velocity P-wave (km/s) = 5.59923 6.76617 6.21017
#
# Compressibility (1/GPa) = 0.02173723
#
# Stress axis : x y z
#
# Youngs Moduli (GPa) = 42.54246 50.69290 49.45619
#
# Poissons Ratio (x) = 0.56866 0.48799
# Poissons Ratio (y) = 0.47723 -0.01124
# Poissons Ratio (z) = 0.41977 -0.01152
#
# Static dielectric constant tensor:
#      x y z
#    x 1.905740 0.015760 -0.001280 
#    y 0.015760 1.895890 0.022310 
#    z -0.001280 0.022310 1.894040 
# 
# From -- ./inp_files/55706.got.cif
#   From: 2010.05.17/outbox.cif.g08.bks.cpg/sg2_28_cif.got.tgz:55706.got - 2010.06.03 11:33:40.
