data_PCOD9018451
_publ_section_title
;
Structure prediction by ZEFSAII (Michael W. Deem and Ramdas Pophale) SiO2 
 PCOD9018451
Probable space group: P -1
;
_chemical_formula_sum "Si O2"
_cell_formula_units_Z 14
_cell_length_a 26.983390
_cell_length_b 6.037650
_cell_length_c 9.320635
_cell_angle_alpha 62.868662
_cell_angle_beta 155.619900
_cell_angle_gamma 110.492698
_cell_volume 548.962201
_symmetry_space_group_name_H-M "P -1"
_symmetry_group_IT_number 2
_symmetry_cell_setting 'triclinic'
loop_
_space_group_symop_operation_xyz
x,y,z
-x,-y,-z
loop_
_atom_site_type_symbol
_atom_site_label
_atom_site_fract_x
_atom_site_fract_y
_atom_site_fract_z
Si Si1 0.063911 0.233103 0.658441
Si Si2 0.806596 0.756035 0.732278
Si Si3 0.639051 0.369996 0.367315
Si Si4 0.346224 0.945699 0.243542
Si Si5 0.946925 0.435075 0.728670
Si Si6 0.272885 0.832391 0.803487
Si Si7 0.419418 0.427207 0.154656
O O1 0.105841 0.341649 0.587734
O O2 0.000000 0.500000 0.500000
O O3 0.161824 0.125181 0.069855
O O4 0.000000 0.000000 0.500000
O O5 0.741778 0.516568 0.660134
O O6 0.718684 0.919745 0.337755
O O7 0.933366 0.702606 0.997084
O O8 0.659911 0.107778 0.589189
O O9 0.500000 0.500000 0.000000
O O10 0.645072 0.407618 0.201011
O O11 0.465768 0.747454 0.565552
O O12 0.356359 0.220766 0.132257
O O13 0.247837 0.868156 0.896196
O O14 0.841778 0.276336 0.525046
O O15 0.000000 0.500000 0.000000
O O16 0.399552 0.650319 0.154769
#
# Coordination Sequence:
#
# PCOD9018451 Si02
#       7
#     2   2   2   2   2   2   2
#     4  10  23  45  68  98 141 191 242 296 361 431
#     4  11  23  44  67 101 147 186 236 306 357 436
#     4  10  21  43  70  98 136 184 232 290 360 422
#     4  10  22  43  69  93 138 175 231 282 353 419
#     4  11  24  42  68 101 136 187 237 288 365 431
#     4  12  23  41  67 100 137 177 236 287 358 424
#     4  10  22  44  65  99 134 181 221 294 345 419
#
# _framework density 25.502669000000001
#
# number of rings (size 3 to 8) (size 9 to 14) (size 15 to 20)
#    0.000    1.429    1.429    3.429    0.000    2.286 
#   10.286    1.429    0.000    0.000    0.000    0.000 
#    0.000    0.000    0.000    0.000    0.000    0.000 
#
# Total GULP energy -78047.443618 kJ/mol
# GULP energy per Si atom -5574.817401 kJ/mol
# Density = 2.544462 g / cm^3
# Si number density = 25.502669 Si / 1000 Ang^3
#
#
#
# Elastic Constant Matrix: (Units=GPa)
#
#
# Indices 1 2 3 4 5 6 
#
# 1 161.0773 36.3479 38.1793 -19.6488 -20.1022 -4.7864
# 2 36.3479 44.9964 1.2135 -8.4683 -8.4685 8.9662
# 3 38.1793 1.2135 59.4457 -30.9683 -7.7277 0.5783
# 4 -19.6488 -8.4683 -30.9683 36.0633 21.2407 -3.8069
# 5 -20.1022 -8.4685 -7.7277 21.2407 63.5564 -8.9117
# 6 -4.7864 8.9662 0.5783 -3.8069 -8.9117 39.9242
#
#
#
# Elastic Compliance Matrix: (Units=1/GPa)
#
#
# Indices 1 2 3 4 5 6 
#
# 1 0.010268 -0.009272 -0.009175 -0.006108 0.003448 0.003633
# 2 -0.009272 0.033109 0.012387 0.014216 -0.002890 -0.008016
# 3 -0.009175 0.012387 0.041512 0.038914 -0.009619 -0.002920
# 4 -0.006108 0.014216 0.038914 0.072645 -0.019864 -0.001996
# 5 0.003448 -0.002890 -0.009619 -0.019864 0.022516 0.004334
# 6 0.003633 -0.008016 -0.002920 -0.001996 0.004334 0.028103
#
#
# Mechanical properties :
#
#
# Convention : Reuss Voigt Hill
#
# Bulk Modulus (GPa) = 13.74203 46.33345 30.03774
# Shear Modulus (GPa) = 20.44752 40.56068 30.50410
#
# Velocity S-wave (km/s) = 2.83464 3.99237 3.46224
# Velocity P-wave (km/s) = 4.01420 6.28168 5.27130
#
# Compressibility (1/GPa) = 0.07276948
#
# Stress axis : x y z
#
# Youngs Moduli (GPa) = 97.38780 30.20370 24.08928
#
# Poissons Ratio (x) = 0.28005 0.22102
# Poissons Ratio (y) = 0.90297 -0.29839
# Poissons Ratio (z) = 0.89352 -0.37413
#
# Static dielectric constant tensor:
#      x y z
#    x 2.016040 -0.102330 -0.016490 
#    y -0.102330 2.100480 -0.087890 
#    z -0.016490 -0.087890 2.217460 
# 
# From -- ./inp_files/355964.got.cif
#   From: 2010.05.17/outbox.cif.g08.bks.cpg/sg2_178_cif.got.tgz:355964.got - 2010.06.03 11:33:40.
