data_PCOD9018190
_publ_section_title
;
Structure prediction by ZEFSAII (Michael W. Deem and Ramdas Pophale) SiO2 
 PCOD9018190
Probable space group: P -1
;
_chemical_formula_sum "Si O2"
_cell_formula_units_Z 14
_cell_length_a 6.351300
_cell_length_b 18.599961
_cell_length_c 8.962921
_cell_angle_alpha 33.112525
_cell_angle_beta 100.302302
_cell_angle_gamma 100.983198
_cell_volume 567.459112
_symmetry_space_group_name_H-M "P -1"
_symmetry_group_IT_number 2
_symmetry_cell_setting 'triclinic'
loop_
_space_group_symop_operation_xyz
x,y,z
-x,-y,-z
loop_
_atom_site_type_symbol
_atom_site_label
_atom_site_fract_x
_atom_site_fract_y
_atom_site_fract_z
Si Si1 0.113311 0.633500 0.347402
Si Si2 0.025568 0.405675 0.308664
Si Si3 0.648751 0.384485 0.882280
Si Si4 0.200275 0.081164 0.456346
Si Si5 0.444254 0.037543 0.097065
Si Si6 0.681700 0.749786 0.088489
Si Si7 0.107177 0.806913 0.553562
O O1 0.262705 0.676385 0.154540
O O2 0.000000 0.500000 0.500000
O O3 0.165652 0.598396 0.585698
O O4 0.933550 0.736381 0.165073
O O5 0.237542 0.473380 0.302553
O O6 0.008157 0.262332 0.483220
O O7 0.000000 0.500000 0.000000
O O8 0.408229 0.379639 0.796349
O O9 0.717485 0.286977 0.191034
O O10 0.350066 0.000293 0.717946
O O11 0.339982 0.142157 0.231762
O O12 0.081921 0.183757 0.366057
O O13 0.000000 0.000000 0.500000
O O14 0.236194 0.943643 0.287355
O O15 0.404269 0.187333 0.879744
O O16 0.500000 0.000000 0.000000
#
# Coordination Sequence:
#
# PCOD9018190 Si02
#       7
#     2   2   2   2   2   2   2
#     4  10  23  42  68  98 129 177 228 280 338 404
#     4   9  22  41  66  95 133 178 216 279 344 406
#     4  10  21  43  68  99 131 174 236 278 335 408
#     4  12  24  44  71  98 133 189 233 276 342 412
#     4  12  29  43  65 108 144 182 229 286 348 410
#     4  12  24  42  72  98 133 179 231 286 336 410
#     4  11  22  44  69  95 142 177 227 282 348 407
#
# _framework density 24.671381
#
# number of rings (size 3 to 8) (size 9 to 14) (size 15 to 20)
#    0.000    1.143    4.286    1.286    4.000    2.857 
#    0.000    3.571    0.000    0.000    0.000    0.000 
#    0.000    0.000    0.000    0.000    0.000    0.000 
#
# Total GULP energy -78079.326601 kJ/mol
# GULP energy per Si atom -5577.094757 kJ/mol
# Density = 2.461523 g / cm^3
# Si number density = 24.671381 Si / 1000 Ang^3
#
#
#
# Elastic Constant Matrix: (Units=GPa)
#
#
# Indices 1 2 3 4 5 6 
#
# 1 56.1779 37.9252 5.0734 6.4449 11.4900 5.5219
# 2 37.9252 193.3324 23.1037 8.4707 -12.4984 5.9380
# 3 5.0734 23.1037 58.8524 17.7824 0.9884 6.1408
# 4 6.4449 8.4707 17.7824 49.5588 0.2307 -10.6780
# 5 11.4900 -12.4984 0.9884 0.2307 36.7481 -0.7325
# 6 5.5219 5.9380 6.1408 -10.6780 -0.7325 49.8065
#
#
#
# Elastic Compliance Matrix: (Units=1/GPa)
#
#
# Indices 1 2 3 4 5 6 
#
# 1 0.023755 -0.005196 0.001476 -0.003345 -0.009274 -0.003050
# 2 -0.005196 0.006711 -0.002403 0.000420 0.003973 0.000221
# 3 0.001476 -0.002403 0.020730 -0.008116 -0.001869 -0.004200
# 4 -0.003345 0.000420 -0.008116 0.024885 0.001384 0.006677
# 5 -0.009274 0.003973 -0.001869 0.001384 0.031536 0.001545
# 6 -0.003050 0.000221 -0.004200 0.006677 0.001545 0.022362
#
#
# Mechanical properties :
#
#
# Convention : Reuss Voigt Hill
#
# Bulk Modulus (GPa) = 25.67354 48.95194 37.31274
# Shear Modulus (GPa) = 32.21517 43.37336 37.79427
#
# Velocity S-wave (km/s) = 3.61747 4.19745 3.91820
# Velocity P-wave (km/s) = 5.27985 6.58606 5.96879
#
# Compressibility (1/GPa) = 0.03895061
#
# Stress axis : x y z
#
# Youngs Moduli (GPa) = 42.09606 149.01981 48.24015
#
# Poissons Ratio (x) = 0.77427 -0.07123
# Poissons Ratio (y) = 0.21872 0.11593
# Poissons Ratio (z) = -0.06215 0.35811
#
# Static dielectric constant tensor:
#      x y z
#    x 2.268820 -0.017790 -0.111610 
#    y -0.017790 1.986880 -0.008640 
#    z -0.111610 -0.008640 2.061170 
# 
# From -- ./inp_files/106533.got.cif
#   From: 2010.05.17/outbox.cif.g08.bks.cpg/sg2_54_cif.got.tgz:106533.got - 2010.06.03 11:33:40.
