data_PCOD9018765
_publ_section_title
;
Structure prediction by ZEFSAII (Michael W. Deem and Ramdas Pophale) SiO2 
 PCOD9018765
Probable space group: P -1
;
_chemical_formula_sum "Si O2"
_cell_formula_units_Z 16
_cell_length_a 18.202236
_cell_length_b 12.100276
_cell_length_c 11.326638
_cell_angle_alpha 136.934429
_cell_angle_beta 124.444246
_cell_angle_gamma 28.257598
_cell_volume 782.721177
_symmetry_space_group_name_H-M "P -1"
_symmetry_group_IT_number 2
_symmetry_cell_setting 'triclinic'
loop_
_space_group_symop_operation_xyz
x,y,z
-x,-y,-z
loop_
_atom_site_type_symbol
_atom_site_label
_atom_site_fract_x
_atom_site_fract_y
_atom_site_fract_z
Si Si1 0.942065 0.923589 0.746823
Si Si2 0.880969 0.631369 0.095396
Si Si3 0.275132 0.892796 0.504998
Si Si4 0.602343 0.911010 0.916202
Si Si5 0.625218 0.520832 0.536064
Si Si6 0.291735 0.474046 0.617017
Si Si7 0.553607 0.826280 0.249110
Si Si8 0.885107 0.383300 0.107538
O O1 0.111543 0.686788 0.645621
O O2 0.988942 0.769671 0.793648
O O3 0.807675 0.039166 0.637655
O O4 0.886543 0.188919 0.935120
O O5 0.918576 0.417278 0.040541
O O6 0.851813 0.809331 0.306261
O O7 0.723920 0.839488 0.038313
O O8 0.000000 0.500000 0.000000
O O9 0.439546 0.747226 0.528742
O O10 0.310914 0.688450 0.464948
O O11 0.658195 0.656332 0.711674
O O12 0.515934 0.135946 0.907103
O O13 0.500000 0.000000 0.000000
O O14 0.703064 0.398889 0.381168
O O15 0.371998 0.398777 0.757242
O O16 0.411853 0.149294 0.428405
O O17 0.708866 0.693018 0.239923
#
# Coordination Sequence:
#
# PCOD9018765 Si02
#       8
#     2   2   2   2   2   2   2   2
#     4  10  23  39  69  91 120 158 207 255 308 353
#     4  12  26  38  57  90 128 156 201 252 302 356
#     4  11  24  40  58  94 122 161 197 254 310 359
#     4  11  19  39  62  83 112 169 200 239 297 369
#     4  10  22  39  63  85 124 157 204 247 300 370
#     4   9  19  37  59  92 113 154 204 251 290 358
#     4   9  18  34  65  85 112 153 212 239 286 366
#     4  10  21  44  63  89 124 166 201 245 309 377
#
# _framework density 20.441507999999999
#
# number of rings (size 3 to 8) (size 9 to 14) (size 15 to 20)
#    0.000    1.750    2.500    1.500    5.250    1.000 
#    2.250    0.000    0.000    3.000    0.000    0.000 
#    0.000    0.000    0.000    0.000    0.000    0.000 
#
# Total GULP energy -89145.909086 kJ/mol
# GULP energy per Si atom -5571.619318 kJ/mol
# Density = 2.039498 g / cm^3
# Si number density = 20.441508 Si / 1000 Ang^3
#
#
#
# Elastic Constant Matrix: (Units=GPa)
#
#
# Indices 1 2 3 4 5 6 
#
# 1 14.3590 -14.9458 -10.8303 -2.3378 -37.7007 7.9312
# 2 -14.9458 79.2019 21.3826 -27.5956 -12.9530 14.3926
# 3 -10.8303 21.3826 54.0126 -21.1333 -7.7064 4.1360
# 4 -2.3378 -27.5956 -21.1333 41.1936 7.0248 -16.2247
# 5 -37.7007 -12.9530 -7.7064 7.0248 24.1722 -2.6683
# 6 7.9312 14.3926 4.1360 -16.2247 -2.6683 36.4556
#
#
#
# Elastic Compliance Matrix: (Units=1/GPa)
#
#
# Indices 1 2 3 4 5 6 
#
# 1 -0.014380 -0.007167 -0.005010 -0.002201 -0.026831 0.003583
# 2 -0.007167 0.014158 -0.005143 0.007445 -0.007470 -0.000680
# 3 -0.005010 -0.005143 0.022539 0.010795 -0.005976 0.004930
# 4 -0.002201 0.007445 0.010795 0.041396 -0.006457 0.014265
# 5 -0.026831 -0.007470 -0.005976 -0.006457 -0.003813 0.006312
# 6 0.003583 -0.000680 0.004930 0.014265 0.006312 0.033171
#
#
# Mechanical properties :
#
#
# Convention : Reuss Voigt Hill
#
# Bulk Modulus (GPa) = -81.15572 15.42072 -32.86750
# Shear Modulus (GPa) = 40.45237 30.49542 35.47389
#
# Velocity S-wave (km/s) = 4.45335 3.86662 4.17032
# Velocity P-wave (km/s) = 3.65302 5.24353 2.65989
#
# Compressibility (1/GPa) = -0.01232199
#
# Stress axis : x y z
#
# Youngs Moduli (GPa) = -69.54007 70.63180 44.36780
#
# Poissons Ratio (x) = 0.50622 0.22227
# Poissons Ratio (y) = -0.49840 0.22816
# Poissons Ratio (z) = -0.34838 0.36323
#
# Static dielectric constant tensor:
#      x y z
#    x 1.734100 0.035520 -0.037410 
#    y 0.035520 1.760150 0.041170 
#    z -0.037410 0.041170 1.903000 
# 
# From -- ./inp_files/244492.got.cif
#   From: 2010.05.17/outbox.cif.g08.bks.cpg/sg2_123_cif.got.tgz:244492.got - 2010.06.03 11:33:40.
