data_PCOD9018436
_publ_section_title
;
Structure prediction by ZEFSAII (Michael W. Deem and Ramdas Pophale) SiO2 
 PCOD9018436
Probable space group: P -1
;
_chemical_formula_sum "Si O2"
_cell_formula_units_Z 14
_cell_length_a 12.449400
_cell_length_b 11.839692
_cell_length_c 12.239580
_cell_angle_alpha 33.183540
_cell_angle_beta 142.160151
_cell_angle_gamma 126.414112
_cell_volume 593.433192
_symmetry_space_group_name_H-M "P -1"
_symmetry_group_IT_number 2
_symmetry_cell_setting 'triclinic'
loop_
_space_group_symop_operation_xyz
x,y,z
-x,-y,-z
loop_
_atom_site_type_symbol
_atom_site_label
_atom_site_fract_x
_atom_site_fract_y
_atom_site_fract_z
Si Si1 0.042236 0.947994 0.316821
Si Si2 0.554257 0.406205 0.740043
Si Si3 0.164755 0.324491 0.233781
Si Si4 0.178741 0.040305 0.669778
Si Si5 0.116373 0.242442 0.864058
Si Si6 0.665369 0.107755 0.536122
Si Si7 0.732388 0.506556 0.379963
O O1 0.075741 0.174848 0.202979
O O2 0.913188 0.869107 0.365004
O O3 0.249668 0.832918 0.557697
O O4 0.947010 0.893453 0.174068
O O5 0.500000 0.500000 0.500000
O O6 0.681308 0.553116 0.778443
O O7 0.380468 0.404896 0.676554
O O8 0.676076 0.171618 0.020998
O O9 0.245993 0.187310 0.515999
O O10 0.000000 0.500000 0.000000
O O11 0.000000 0.000000 0.500000
O O12 0.270105 0.341472 0.849592
O O13 0.947292 0.413307 0.634441
O O14 0.188370 0.086621 0.143500
O O15 0.652765 0.305962 0.442675
O O16 0.500000 0.000000 0.500000
#
# Coordination Sequence:
#
# PCOD9018436 Si02
#       7
#     2   2   2   2   2   2   2
#     4  10  21  43  70  97 135 182 233 287 349 411
#     4  12  27  41  71 109 143 184 235 293 349 425
#     4  11  23  46  69 102 140 188 232 284 359 419
#     4  10  23  45  66 102 137 182 233 281 349 413
#     4  10  24  45  72  96 138 186 229 290 342 414
#     4  11  24  44  69 103 137 178 230 295 343 412
#     4  10  24  46  66 103 136 180 236 277 350 416
#
# _framework density 23.591536000000001
#
# number of rings (size 3 to 8) (size 9 to 14) (size 15 to 20)
#    0.000    1.429    2.857    2.571    6.000    4.571 
#    5.143    2.857    0.000    0.000    0.000    0.000 
#    0.000    0.000    0.000    0.000    0.000    0.000 
#
# Total GULP energy -78046.761584 kJ/mol
# GULP energy per Si atom -5574.768685 kJ/mol
# Density = 2.353784 g / cm^3
# Si number density = 23.591536 Si / 1000 Ang^3
#
#
#
# Elastic Constant Matrix: (Units=GPa)
#
#
# Indices 1 2 3 4 5 6 
#
# 1 182.4672 29.8131 45.8308 -2.1666 20.1596 4.4661
# 2 29.8131 63.2801 26.4929 -5.4965 15.9346 10.1289
# 3 45.8308 26.4929 89.3142 -11.4043 -4.6772 -7.9463
# 4 -2.1666 -5.4965 -11.4043 12.0383 13.4984 1.4173
# 5 20.1596 15.9346 -4.6772 13.4984 23.2853 -6.4540
# 6 4.4661 10.1289 -7.9463 1.4173 -6.4540 51.4524
#
#
#
# Elastic Compliance Matrix: (Units=1/GPa)
#
#
# Indices 1 2 3 4 5 6 
#
# 1 0.004720 -0.010408 -0.001630 -0.030278 0.021628 0.004934
# 2 -0.010408 -0.019272 0.002538 -0.121954 0.099196 0.020891
# 3 -0.001630 0.002538 0.014742 0.035611 -0.018388 -0.001369
# 4 -0.030278 -0.121954 0.035611 -0.314561 0.321665 0.081149
# 5 0.021628 0.099196 -0.018388 0.321665 -0.251751 -0.064684
# 6 0.004934 0.020891 -0.001369 0.081149 -0.064684 0.004334
#
#
# Mechanical properties :
#
#
# Convention : Reuss Voigt Hill
#
# Bulk Modulus (GPa) = -53.17093 59.92614 3.37760
# Shear Modulus (GPa) = -9.10648 32.88348 11.88850
#
# Velocity S-wave (km/s) = -1.96684 3.73750 2.24728
# Velocity P-wave (km/s) = 5.26735 6.63942 2.85805
#
# Compressibility (1/GPa) = -0.01880727
#
# Stress axis : x y z
#
# Youngs Moduli (GPa) = 211.84610 -51.88841 67.83327
#
# Poissons Ratio (x) = -0.54004 0.11054
# Poissons Ratio (y) = 2.20482 -0.17219
# Poissons Ratio (z) = 0.34523 0.13172
#
# Static dielectric constant tensor:
#      x y z
#    x 2.166780 0.045540 -0.009560 
#    y 0.045540 1.910630 0.013450 
#    z -0.009560 0.013450 1.905900 
# 
# From -- ./inp_files/425181.got.cif
#   From: 2010.05.17/outbox.cif.g08.bks.cpg/sg2_213_cif.got.tgz:425181.got - 2010.06.03 11:33:40.
