data_PCOD9018062
_publ_section_title
;
Structure prediction by ZEFSAII (Michael W. Deem and Ramdas Pophale) SiO2 
 PCOD9018062
Probable space group: P -1
;
_chemical_formula_sum "Si O2"
_cell_formula_units_Z 15
_cell_length_a 9.187719
_cell_length_b 5.135287
_cell_length_c 16.479792
_cell_angle_alpha 94.648837
_cell_angle_beta 51.213070
_cell_angle_gamma 98.964210
_cell_volume 598.538320
_symmetry_space_group_name_H-M "P -1"
_symmetry_group_IT_number 2
_symmetry_cell_setting 'triclinic'
loop_
_space_group_symop_operation_xyz
x,y,z
-x,-y,-z
loop_
_atom_site_type_symbol
_atom_site_label
_atom_site_fract_x
_atom_site_fract_y
_atom_site_fract_z
Si Si1 0.197800 0.103483 0.308296
Si Si2 0.500000 0.000000 0.500000
Si Si3 0.406689 0.313100 0.398905
Si Si4 0.537023 0.180065 0.912278
Si Si5 0.785936 0.344081 0.194569
Si Si6 0.848615 0.769976 0.385613
Si Si7 0.893376 0.558595 0.802139
Si Si8 0.202309 0.159180 0.911466
O O1 0.294911 0.265498 0.353744
O O2 0.345518 0.954179 0.202369
O O3 0.122129 0.286846 0.271470
O O4 0.009266 0.909965 0.393569
O O5 0.570891 0.956214 0.568251
O O6 0.711308 0.951172 0.396743
O O7 0.619973 0.433039 0.310897
O O8 0.294706 0.438853 0.515072
O O9 0.344581 0.228390 0.938029
O O10 0.683051 0.433451 0.892834
O O11 0.500000 0.000000 0.000000
O O12 0.706808 0.061301 0.177562
O O13 0.979621 0.296496 0.168957
O O14 0.821408 0.575301 0.121695
O O15 0.976032 0.663719 0.270650
O O16 0.000000 0.000000 0.000000
#
# Coordination Sequence:
#
# PCOD9018062 Si02
#       8
#     2   1   2   2   2   2   2   2
#     4  11  22  43  67 100 145 187 250 299 376 441
#     4   8  20  38  66  98 142 184 248 292 368 416
#     4  10  21  43  68 103 145 196 242 311 360 453
#     4  11  26  47  73 104 144 193 244 313 376 448
#     4  12  27  47  77 110 152 194 247 313 374 446
#     4   9  22  41  64  99 137 193 237 301 361 435
#     4  11  26  42  71 104 144 196 245 307 369 449
#     4  12  28  51  77 111 146 198 250 311 382 444
#
# _framework density 25.061053000000001
#
# number of rings (size 3 to 8) (size 9 to 14) (size 15 to 20)
#    0.800    0.533    1.333    3.200    7.467    1.600 
#    2.400    0.000    0.000    0.000    0.000    0.000 
#    0.000    0.000    0.000    0.000    0.000    0.000 
#
# Total GULP energy -83569.547573 kJ/mol
# GULP energy per Si atom -5571.303172 kJ/mol
# Density = 2.500401 g / cm^3
# Si number density = 25.061053 Si / 1000 Ang^3
#
#
#
# Elastic Constant Matrix: (Units=GPa)
#
#
# Indices 1 2 3 4 5 6 
#
# 1 207.9132 24.4316 40.6796 -7.6806 0.7909 -3.5692
# 2 24.4316 47.2016 8.3378 -0.9454 10.4803 -3.1210
# 3 40.6796 8.3378 116.0239 -5.0469 -16.5334 -3.2588
# 4 -7.6806 -0.9454 -5.0469 38.1542 -9.0681 7.3696
# 5 0.7909 10.4803 -16.5334 -9.0681 52.5883 0.1062
# 6 -3.5692 -3.1210 -3.2588 7.3696 0.1062 35.8488
#
#
#
# Elastic Compliance Matrix: (Units=1/GPa)
#
#
# Indices 1 2 3 4 5 6 
#
# 1 0.005468 -0.002520 -0.001696 0.000820 0.000028 0.000002
# 2 -0.002520 0.024137 -0.001675 -0.001874 -0.005626 0.002100
# 3 -0.001696 -0.001675 0.009960 0.001797 0.003800 0.000210
# 4 0.000820 -0.001874 0.001797 0.029127 0.005960 -0.005923
# 5 0.000028 -0.005626 0.003800 0.005960 0.022362 -0.001433
# 6 0.000002 0.002100 0.000210 -0.005923 -0.001433 0.029319
#
#
# Mechanical properties :
#
#
# Convention : Reuss Voigt Hill
#
# Bulk Modulus (GPa) = 35.99604 57.55964 46.77784
# Shear Modulus (GPa) = 35.35681 45.16424 40.26052
#
# Velocity S-wave (km/s) = 3.76017 4.24980 4.01246
# Velocity P-wave (km/s) = 5.76597 6.86285 6.33818
#
# Compressibility (1/GPa) = 0.02778084
#
# Stress axis : x y z
#
# Youngs Moduli (GPa) = 182.88318 41.43067 100.40550
#
# Poissons Ratio (x) = 0.10442 0.17032
# Poissons Ratio (y) = 0.46092 0.16820
# Poissons Ratio (z) = 0.31022 0.06940
#
# Static dielectric constant tensor:
#      x y z
#    x 1.196710 -1.374240 -0.075940 
#    y -1.374240 -0.592060 0.005180 
#    z -0.075940 0.005180 2.104540 
# 
# From -- ./inp_files/553412.got.cif
#   From: 2010.05.17/outbox.cif.g08.bks.cpg/sg2_277_cif.got.tgz:553412.got - 2010.06.03 11:33:40.
