data_PCOD9018085
_publ_section_title
;
Structure prediction by ZEFSAII (Michael W. Deem and Ramdas Pophale) SiO2 
 PCOD9018085
Probable space group: P -1
;
_chemical_formula_sum "Si O2"
_cell_formula_units_Z 12
_cell_length_a 14.936434
_cell_length_b 8.512801
_cell_length_c 15.394047
_cell_angle_alpha 53.902185
_cell_angle_beta 19.002699
_cell_angle_gamma 53.047729
_cell_volume 507.698294
_symmetry_space_group_name_H-M "P -1"
_symmetry_group_IT_number 2
_symmetry_cell_setting 'triclinic'
loop_
_space_group_symop_operation_xyz
x,y,z
-x,-y,-z
loop_
_atom_site_type_symbol
_atom_site_label
_atom_site_fract_x
_atom_site_fract_y
_atom_site_fract_z
Si Si1 0.796112 0.858791 0.032555
Si Si2 0.615244 0.739564 0.067184
Si Si3 0.913330 0.229106 0.029931
Si Si4 0.702102 0.602664 0.508438
Si Si5 0.213386 0.132256 0.300228
Si Si6 0.791227 0.866598 0.498487
O O1 0.802254 0.718927 0.988472
O O2 0.949991 0.749723 0.009201
O O3 0.956780 0.037354 0.802246
O O4 0.478297 0.957726 0.313097
O O5 0.367836 0.616101 0.347597
O O6 0.497159 0.973872 0.100846
O O7 0.743006 0.708061 0.864112
O O8 0.043052 0.355315 0.797361
O O9 0.580435 0.281924 0.314993
O O10 0.000000 0.000000 0.000000
O O11 0.729503 0.695528 0.547572
O O12 0.144340 0.200141 0.439484
O O13 0.000000 0.000000 0.500000
#
# Coordination Sequence:
#
# PCOD9018085 Si02
#       6
#     2   2   2   2   2   2
#     4  11  22  40  65  89 126 172 207 241 315 380
#     4  10  25  41  63  97 125 161 211 266 307 366
#     4  12  23  41  66  92 129 171 205 249 318 371
#     4  12  25  40  65  99 128 156 215 267 297 364
#     4  10  21  43  68  84 127 171 205 248 329 378
#     4  11  21  39  66  93 120 169 208 251 308 377
#
# _framework density 23.636082999999999
#
# number of rings (size 3 to 8) (size 9 to 14) (size 15 to 20)
#    0.000    1.000    5.000    1.500    2.333    2.000 
#    0.000    0.833    0.000    0.000    0.000    0.000 
#    0.000    0.000    0.000    0.000    0.000    0.000 
#
# Total GULP energy -67169.717355 kJ/mol
# GULP energy per Si atom -5597.476446 kJ/mol
# Density = 2.358229 g / cm^3
# Si number density = 23.636083 Si / 1000 Ang^3
#
#
#
# Elastic Constant Matrix: (Units=GPa)
#
#
# Indices 1 2 3 4 5 6 
#
# 1 218.9527 28.0731 13.2926 -17.8253 20.6163 7.5933
# 2 28.0731 74.4280 1.4900 -16.9114 7.2370 -0.7903
# 3 13.2926 1.4900 51.3503 -19.8552 -1.3984 -2.7955
# 4 -17.8253 -16.9114 -19.8552 42.9346 -9.5076 -2.1109
# 5 20.6163 7.2370 -1.3984 -9.5076 42.5881 -6.0114
# 6 7.5933 -0.7903 -2.7955 -2.1109 -6.0114 28.7084
#
#
#
# Elastic Compliance Matrix: (Units=1/GPa)
#
#
# Indices 1 2 3 4 5 6 
#
# 1 0.005191 -0.001663 -0.001404 0.000190 -0.002526 -0.002070
# 2 -0.001663 0.015563 0.002679 0.006755 -0.000015 0.001623
# 3 -0.001404 0.002679 0.025379 0.013505 0.004765 0.004907
# 4 0.000190 0.006755 0.013505 0.034240 0.007634 0.005567
# 5 -0.002526 -0.000015 0.004765 0.007634 0.027622 0.007477
# 6 -0.002070 0.001623 0.004907 0.005567 0.007477 0.037878
#
#
# Mechanical properties :
#
#
# Convention : Reuss Voigt Hill
#
# Bulk Modulus (GPa) = 22.04750 47.82693 34.93721
# Shear Modulus (GPa) = 30.90859 42.97124 36.93991
#
# Velocity S-wave (km/s) = 3.62012 4.26847 3.95759
# Velocity P-wave (km/s) = 5.17898 6.67621 5.97468
#
# Compressibility (1/GPa) = 0.04535662
#
# Stress axis : x y z
#
# Youngs Moduli (GPa) = 192.65084 64.25526 39.40329
#
# Poissons Ratio (x) = 0.10686 0.05531
# Poissons Ratio (y) = 0.32038 -0.10555
# Poissons Ratio (z) = 0.27040 -0.17212
#
# Static dielectric constant tensor:
#      x y z
#    x 1.943220 -0.038370 0.015110 
#    y -0.038370 1.935230 0.062730 
#    z 0.015110 0.062730 1.877650 
# 
# From -- ./inp_files/18809.got.cif
#   From: 2010.05.17/outbox.cif.g08.bks.cpg/sg2_10_cif.got.tgz:18809.got - 2010.06.03 11:33:40.
