data_PCOD9018901
_publ_section_title
;
Structure prediction by ZEFSAII (Michael W. Deem and Ramdas Pophale) SiO2 
 PCOD9018901
Probable space group: P -1
;
_chemical_formula_sum "Si O2"
_cell_formula_units_Z 10
_cell_length_a 15.562995
_cell_length_b 5.128568
_cell_length_c 5.127934
_cell_angle_alpha 88.407874
_cell_angle_beta 90.850289
_cell_angle_gamma 75.078619
_cell_volume 395.234118
_symmetry_space_group_name_H-M "P -1"
_symmetry_group_IT_number 2
_symmetry_cell_setting 'triclinic'
loop_
_space_group_symop_operation_xyz
x,y,z
-x,-y,-z
loop_
_atom_site_type_symbol
_atom_site_label
_atom_site_fract_x
_atom_site_fract_y
_atom_site_fract_z
Si Si1 0.987603 0.753363 0.680614
Si Si2 0.315434 0.134022 0.662337
Si Si3 0.563161 0.455854 0.253367
Si Si4 0.177412 0.604256 0.840171
Si Si5 0.205207 0.928716 0.304505
O O1 0.071027 0.677538 0.882442
O O2 0.000000 0.500000 0.500000
O O3 0.000000 0.000000 0.500000
O O4 0.886923 0.851904 0.768585
O O5 0.223222 0.291457 0.792658
O O6 0.191744 0.764829 0.572328
O O7 0.373174 0.843747 0.759285
O O8 0.282324 0.073218 0.374351
O O9 0.500000 0.500000 0.500000
O O10 0.623841 0.662045 0.296156
O O11 0.500000 0.500000 0.000000
O O12 0.222327 0.714392 0.080264
#
# Coordination Sequence:
#
# PCOD9018901 Si02
#       5
#     2   2   2   2   2
#     4  10  21  44  66 105 151 197 236 288 346 411
#     4  12  26  51  78 110 144 188 242 301 360 436
#     4  12  30  52  78 105 144 185 236 304 380 440
#     4  11  25  45  73 109 150 194 241 292 348 424
#     4  11  25  45  73 109 150 194 241 292 348 424
#
# _framework density 25.301459999999999
#
# number of rings (size 3 to 8) (size 9 to 14) (size 15 to 20)
#    0.000    0.800    4.000    1.800    2.800    4.800 
#    0.000    4.000    0.000    0.000    0.000    0.000 
#    0.000    0.000    0.000    0.000    0.000    0.000 
#
# Total GULP energy -56075.987643 kJ/mol
# GULP energy per Si atom -5607.598764 kJ/mol
# Density = 2.524387 g / cm^3
# Si number density = 25.301460 Si / 1000 Ang^3
#
#
#
# Elastic Constant Matrix: (Units=GPa)
#
#
# Indices 1 2 3 4 5 6 
#
# 1 140.4427 64.7394 52.3486 -11.2834 35.5315 -3.1472
# 2 64.7394 237.9536 64.9325 2.9284 30.0627 -0.8831
# 3 52.3486 64.9325 161.7756 17.4703 25.0411 -2.8144
# 4 -11.2834 2.9284 17.4703 44.5294 4.8429 14.0736
# 5 35.5315 30.0627 25.0411 4.8429 52.5311 4.2451
# 6 -3.1472 -0.8831 -2.8144 14.0736 4.2451 53.6208
#
#
#
# Elastic Compliance Matrix: (Units=1/GPa)
#
#
# Indices 1 2 3 4 5 6 
#
# 1 0.010444 -0.001560 -0.002390 0.004355 -0.005413 -0.000253
# 2 -0.001560 0.005157 -0.001364 -0.000077 -0.001242 0.000040
# 3 -0.002390 -0.001364 0.008153 -0.004030 -0.001232 0.001420
# 4 0.004355 -0.000077 -0.004030 0.027678 -0.002968 -0.006987
# 5 -0.005413 -0.001242 -0.001232 -0.002968 0.024396 -0.001555
# 6 -0.000253 0.000040 0.001420 -0.006987 -0.001555 0.020667
#
#
# Mechanical properties :
#
#
# Convention : Reuss Voigt Hill
#
# Bulk Modulus (GPa) = 76.18446 100.46811 88.32628
# Shear Modulus (GPa) = 44.84399 54.01302 49.42851
#
# Velocity S-wave (km/s) = 4.21454 4.62538 4.42473
# Velocity P-wave (km/s) = 7.33888 8.26560 7.81599
#
# Compressibility (1/GPa) = 0.01312604
#
# Stress axis : x y z
#
# Youngs Moduli (GPa) = 95.74718 193.90726 122.65519
#
# Poissons Ratio (x) = 0.30247 0.29319
# Poissons Ratio (y) = 0.14935 0.16729
# Poissons Ratio (z) = 0.22887 0.26446
#
# Static dielectric constant tensor:
#      x y z
#    x 2.057700 0.017810 -0.035710 
#    y 0.017810 1.939380 -0.064760 
#    z -0.035710 -0.064760 1.992200 
# 
# From -- ./inp_files/85832.got.cif
#   From: 2010.05.17/outbox.cif.g08.bks.cpg/sg2_43_cif.got.tgz:85832.got - 2010.06.03 11:33:40.
