data_PCOD9018417
_publ_section_title
;
Structure prediction by ZEFSAII (Michael W. Deem and Ramdas Pophale) SiO2 
 PCOD9018417
Probable space group: P -1
;
_chemical_formula_sum "Si O2"
_cell_formula_units_Z 15
_cell_length_a 9.862522
_cell_length_b 16.079702
_cell_length_c 10.980472
_cell_angle_alpha 51.703848
_cell_angle_beta 105.720899
_cell_angle_gamma 61.843283
_cell_volume 699.528731
_symmetry_space_group_name_H-M "P -1"
_symmetry_group_IT_number 2
_symmetry_cell_setting 'triclinic'
loop_
_space_group_symop_operation_xyz
x,y,z
-x,-y,-z
loop_
_atom_site_type_symbol
_atom_site_label
_atom_site_fract_x
_atom_site_fract_y
_atom_site_fract_z
Si Si1 0.779957 0.191021 0.185609
Si Si2 0.344803 0.210723 0.136333
Si Si3 0.686717 0.813813 0.124773
Si Si4 0.912961 0.802220 0.757342
Si Si5 0.396838 0.800496 0.114286
Si Si6 0.942528 0.253853 0.642267
Si Si7 0.219675 0.535144 0.834122
Si Si8 0.500000 0.500000 0.500000
O O1 0.910479 0.212739 0.139164
O O2 0.682357 0.178678 0.063322
O O3 0.526624 0.373508 0.043481
O O4 0.000000 0.000000 0.500000
O O5 0.147882 0.252583 0.113777
O O6 0.624790 0.029816 0.439828
O O7 0.401367 0.135380 0.082314
O O8 0.223666 0.405682 0.931599
O O9 0.651219 0.716585 0.250740
O O10 0.952626 0.712027 0.286966
O O11 0.500000 0.000000 0.000000
O O12 0.071850 0.656395 0.812382
O O13 0.437377 0.666986 0.316449
O O14 0.155333 0.024215 0.905059
O O15 0.918228 0.313454 0.445981
O O16 0.668672 0.395016 0.506745
#
# Coordination Sequence:
#
# PCOD9018417 Si02
#       8
#     2   2   2   2   2   2   2   1
#     4  12  22  44  69  93 135 179 224 276 337 404
#     4  11  23  44  65 100 136 170 227 281 332 400
#     4  10  21  43  70  95 129 180 223 268 334 398
#     4  11  25  41  68  96 135 175 223 282 336 395
#     4  11  24  45  67  99 135 181 223 274 337 404
#     4  11  25  42  72  95 136 176 228 278 333 403
#     4  12  23  44  69  98 129 180 228 278 336 406
#     4  12  24  44  62 102 138 170 222 284 334 396
#
# _framework density 21.443007999999999
#
# number of rings (size 3 to 8) (size 9 to 14) (size 15 to 20)
#    0.000    0.800    4.000    3.600    1.867    2.133 
#    0.000    0.000    2.933    0.000    0.000    0.000 
#    0.000    0.000    0.000    0.000    0.000    0.000 
#
# Total GULP energy -83589.669002 kJ/mol
# GULP energy per Si atom -5572.644600 kJ/mol
# Density = 2.139420 g / cm^3
# Si number density = 21.443008 Si / 1000 Ang^3
#
#
#
# Elastic Constant Matrix: (Units=GPa)
#
#
# Indices 1 2 3 4 5 6 
#
# 1 167.6040 49.5154 47.9286 -6.9872 -24.8457 3.4194
# 2 49.5154 94.1391 4.7376 -16.7007 -6.5331 4.6239
# 3 47.9286 4.7376 53.6650 -20.6690 -20.0230 13.3024
# 4 -6.9872 -16.7007 -20.6690 34.0389 6.1837 0.6042
# 5 -24.8457 -6.5331 -20.0230 6.1837 33.8650 -5.7017
# 6 3.4194 4.6239 13.3024 0.6042 -5.7017 38.3703
#
#
#
# Elastic Compliance Matrix: (Units=1/GPa)
#
#
# Indices 1 2 3 4 5 6 
#
# 1 0.012329 -0.007847 -0.015452 -0.011046 0.001352 0.005579
# 2 -0.007847 0.017083 0.013222 0.014596 0.001693 -0.005921
# 3 -0.015452 0.013222 0.053739 0.033726 0.013915 -0.017310
# 4 -0.011046 0.014596 0.033726 0.054524 0.002516 -0.012951
# 5 0.001352 0.001693 0.013915 0.002516 0.038711 0.000564
# 6 0.005579 -0.005921 -0.017310 -0.012951 0.000564 0.032567
#
#
# Mechanical properties :
#
#
# Convention : Reuss Voigt Hill
#
# Bulk Modulus (GPa) = 15.87383 57.75236 36.81309
# Shear Modulus (GPa) = 19.99153 35.46995 27.73074
#
# Velocity S-wave (km/s) = 3.05669 4.07154 3.60005
# Velocity P-wave (km/s) = 4.45832 7.00676 5.87245
#
# Compressibility (1/GPa) = 0.06299679
#
# Stress axis : x y z
#
# Youngs Moduli (GPa) = 81.10629 58.53931 18.60850
#
# Poissons Ratio (x) = 0.45938 0.28753
# Poissons Ratio (y) = 0.63647 -0.24604
# Poissons Ratio (z) = 1.25322 -0.77399
#
# Static dielectric constant tensor:
#      x y z
#    x 1.804380 0.018020 0.051110 
#    y 0.018020 1.744720 0.000090 
#    z 0.051110 0.000090 1.845060 
# 
# From -- ./inp_files/348246.got.cif
#   From: 2010.05.17/outbox.cif.g08.bks.cpg/sg2_175_cif.got.tgz:348246.got - 2010.06.03 11:33:40.
