data_PCOD9018584
_publ_section_title
;
Structure prediction by ZEFSAII (Michael W. Deem and Ramdas Pophale) SiO2 
 PCOD9018584
Probable space group: P -1
;
_chemical_formula_sum "Si O2"
_cell_formula_units_Z 16
_cell_length_a 10.600162
_cell_length_b 13.656049
_cell_length_c 7.679594
_cell_angle_alpha 69.883616
_cell_angle_beta 38.762779
_cell_angle_gamma 90.623180
_cell_volume 575.238927
_symmetry_space_group_name_H-M "P -1"
_symmetry_group_IT_number 2
_symmetry_cell_setting 'triclinic'
loop_
_space_group_symop_operation_xyz
x,y,z
-x,-y,-z
loop_
_atom_site_type_symbol
_atom_site_label
_atom_site_fract_x
_atom_site_fract_y
_atom_site_fract_z
Si Si1 0.450979 0.740853 0.717310
Si Si2 0.037701 0.769287 0.459053
Si Si3 0.744504 0.510967 0.772447
Si Si4 0.313445 0.307111 0.811191
Si Si5 0.788547 0.488971 0.349155
Si Si6 0.469702 0.871598 0.140050
Si Si7 0.169891 0.085897 0.532716
Si Si8 0.710826 0.101180 0.319339
O O1 0.624733 0.763668 0.354521
O O2 0.450481 0.626049 0.373175
O O3 0.633836 0.809311 0.629519
O O4 0.257047 0.784584 0.897546
O O5 0.681872 0.399720 0.031808
O O6 0.032768 0.878614 0.289842
O O7 0.279372 0.789587 0.257548
O O8 0.899759 0.759826 0.792672
O O9 0.833169 0.490693 0.504686
O O10 0.892349 0.640189 0.612515
O O11 0.500000 0.500000 0.000000
O O12 0.260375 0.402422 0.711524
O O13 0.284054 0.105046 0.206576
O O14 0.000000 0.500000 0.000000
O O15 0.367456 0.853431 0.452806
O O16 0.500000 0.000000 0.000000
O O17 0.146066 0.964709 0.723212
O O18 0.500000 0.000000 0.500000
#
# Coordination Sequence:
#
# PCOD9018584 Si02
#       8
#     2   2   2   2   2   2   2   2
#     4  11  21  41  72 101 150 204 236 308 375 445
#     4  12  24  42  75 109 147 203 247 308 388 445
#     4  12  21  44  73 109 160 202 247 301 378 463
#     4  11  22  40  63 101 148 195 246 306 366 445
#     4  11  24  42  67 101 151 202 248 299 361 444
#     4  10  24  46  72 105 142 190 256 317 376 450
#     4  10  21  43  72 103 142 188 252 314 370 443
#     4   9  21  41  69 100 135 188 246 312 376 430
#
# _framework density 27.814529
#
# number of rings (size 3 to 8) (size 9 to 14) (size 15 to 20)
#    0.000    1.250    3.750    1.500    0.000    6.000 
#    0.000    8.750    0.000   14.250    0.000    0.000 
#    0.000    1.250    0.000    0.000    0.000    0.000 
#
# Total GULP energy -89557.675243 kJ/mol
# GULP energy per Si atom -5597.354703 kJ/mol
# Density = 2.775122 g / cm^3
# Si number density = 27.814529 Si / 1000 Ang^3
#
#
#
# Elastic Constant Matrix: (Units=GPa)
#
#
# Indices 1 2 3 4 5 6 
#
# 1 81.0474 42.8198 22.3063 5.5059 -7.0403 8.6523
# 2 42.8198 163.8333 19.3344 9.0412 -9.0092 -30.9780
# 3 22.3063 19.3344 72.1959 19.5901 -12.4527 -0.4018
# 4 5.5059 9.0412 19.5901 56.7202 1.1638 1.7686
# 5 -7.0403 -9.0092 -12.4527 1.1638 43.2440 12.5268
# 6 8.6523 -30.9780 -0.4018 1.7686 12.5268 56.6383
#
#
#
# Elastic Compliance Matrix: (Units=1/GPa)
#
#
# Indices 1 2 3 4 5 6 
#
# 1 0.016737 -0.004950 -0.003627 0.000551 0.002320 -0.005820
# 2 -0.004950 0.008538 -0.000646 -0.000816 -0.000822 0.005628
# 3 -0.003627 -0.000646 0.017472 -0.005658 0.004609 -0.000518
# 4 0.000551 -0.000816 -0.005658 0.019726 -0.002027 -0.000738
# 5 0.002320 -0.000822 0.004609 -0.002027 0.026624 -0.006596
# 6 -0.005820 0.005628 -0.000518 -0.000738 -0.006596 0.023102
#
#
# Mechanical properties :
#
#
# Convention : Reuss Voigt Hill
#
# Bulk Modulus (GPa) = 41.15095 53.99972 47.57533
# Shear Modulus (GPa) = 36.03720 46.82825 41.43273
#
# Velocity S-wave (km/s) = 3.60338 4.10761 3.86373
# Velocity P-wave (km/s) = 5.66916 6.47711 6.08656
#
# Compressibility (1/GPa) = 0.02430078
#
# Stress axis : x y z
#
# Youngs Moduli (GPa) = 59.74646 117.12643 57.23347
#
# Poissons Ratio (x) = 0.57975 0.20761
# Poissons Ratio (y) = 0.29573 0.03698
# Poissons Ratio (z) = 0.21673 0.07568
#
# Static dielectric constant tensor:
#      x y z
#    x 2.149310 -0.066940 0.182590 
#    y -0.066940 2.149790 0.057630 
#    z 0.182590 0.057630 2.869560 
# 
# From -- ./inp_files/311137.got.cif
#   From: 2010.05.17/outbox.cif.g08.bks.cpg/sg2_156_cif.got.tgz:311137.got - 2010.06.03 11:33:40.
