data_PCOD9018682
_publ_section_title
;
Structure prediction by ZEFSAII (Michael W. Deem and Ramdas Pophale) SiO2 
 PCOD9018682
Probable space group: P -1
;
_chemical_formula_sum "Si O2"
_cell_formula_units_Z 13
_cell_length_a 13.341945
_cell_length_b 7.679551
_cell_length_c 8.059043
_cell_angle_alpha 55.898613
_cell_angle_beta 49.181264
_cell_angle_gamma 64.840896
_cell_volume 515.173274
_symmetry_space_group_name_H-M "P -1"
_symmetry_group_IT_number 2
_symmetry_cell_setting 'triclinic'
loop_
_space_group_symop_operation_xyz
x,y,z
-x,-y,-z
loop_
_atom_site_type_symbol
_atom_site_label
_atom_site_fract_x
_atom_site_fract_y
_atom_site_fract_z
Si Si1 0.137633 0.723630 0.453368
Si Si2 0.887028 0.882538 0.474466
Si Si3 0.212665 0.348044 0.012159
Si Si4 0.000000 0.500000 0.000000
Si Si5 0.252920 0.786624 0.737335
Si Si6 0.394183 0.697003 0.976750
Si Si7 0.511305 0.888874 0.225592
O O1 0.084373 0.531020 0.712740
O O2 0.036541 0.782025 0.379510
O O3 0.135165 0.922811 0.474583
O O4 0.284888 0.690925 0.241266
O O5 0.829871 0.988335 0.311835
O O6 0.800700 0.714277 0.748942
O O7 0.096540 0.269835 0.068054
O O8 0.160931 0.596378 0.895057
O O9 0.359303 0.278766 0.829500
O O10 0.317863 0.705316 0.880999
O O11 0.378075 0.792316 0.475587
O O12 0.462221 0.916078 0.789894
O O13 0.500000 0.500000 0.000000
O O14 0.500000 0.000000 0.000000
#
# Coordination Sequence:
#
# PCOD9018682 Si02
#       7
#     2   2   2   1   2   2   2
#     4  10  21  45  69 103 134 179 232 287 328 404
#     4  10  21  43  74  98 130 174 243 282 325 401
#     4  11  22  41  72 102 130 178 238 279 328 401
#     4  10  22  38  74 106 126 176 240 288 328 384
#     4  12  25  42  68 103 142 179 219 282 358 399
#     4  12  28  45  66 103 147 182 219 281 356 413
#     4  12  24  45  71  97 132 187 235 280 324 410
#
# _framework density 25.23423
#
# number of rings (size 3 to 8) (size 9 to 14) (size 15 to 20)
#    0.000    0.923    4.615    1.846    2.154    0.615 
#    0.000    3.077    0.000    0.000    0.000    0.000 
#    0.000    0.000    0.000    0.000    0.000    0.000 
#
# Total GULP energy -72533.485005 kJ/mol
# GULP energy per Si atom -5579.498847 kJ/mol
# Density = 2.517680 g / cm^3
# Si number density = 25.234230 Si / 1000 Ang^3
#
#
#
# Elastic Constant Matrix: (Units=GPa)
#
#
# Indices 1 2 3 4 5 6 
#
# 1 97.0702 31.5007 25.8824 -11.3132 12.2705 -34.0812
# 2 31.5007 81.1680 44.6144 -20.7785 -3.8325 -26.1911
# 3 25.8824 44.6144 149.9112 -21.7134 -15.4581 -9.9519
# 4 -11.3132 -20.7785 -21.7134 46.1049 -15.2866 -0.9234
# 5 12.2705 -3.8325 -15.4581 -15.2866 42.6324 -7.4416
# 6 -34.0812 -26.1911 -9.9519 -0.9234 -7.4416 41.9371
#
#
#
# Elastic Compliance Matrix: (Units=1/GPa)
#
#
# Indices 1 2 3 4 5 6 
#
# 1 0.015557 -0.001226 -0.001570 0.001907 -0.002536 0.011097
# 2 -0.001226 0.022039 -0.003084 0.010944 0.007516 0.013611
# 3 -0.001570 -0.003084 0.008933 0.004033 0.004836 -0.000135
# 4 0.001907 0.010944 0.004033 0.034769 0.016644 0.013061
# 5 -0.002536 0.007516 0.004836 0.016644 0.034372 0.010246
# 6 0.011097 0.013611 -0.000135 0.013061 0.010246 0.043438
#
#
# Mechanical properties :
#
#
# Convention : Reuss Voigt Hill
#
# Bulk Modulus (GPa) = 28.75927 59.12714 43.94321
# Shear Modulus (GPa) = 27.40366 41.21169 34.30767
#
# Velocity S-wave (km/s) = 3.29898 4.04563 3.69123
# Velocity P-wave (km/s) = 5.09242 6.73090 5.96815
#
# Compressibility (1/GPa) = 0.03477139
#
# Stress axis : x y z
#
# Youngs Moduli (GPa) = 64.27954 45.37369 111.94102
#
# Poissons Ratio (x) = 0.05561 0.17573
# Poissons Ratio (y) = 0.07878 0.34518
# Poissons Ratio (z) = 0.10091 0.13992
#
# Static dielectric constant tensor:
#      x y z
#    x -0.599730 -0.848170 0.740920 
#    y -0.848170 1.750760 0.210260 
#    z 0.740920 0.210260 1.830420 
# 
# From -- ./inp_files/170984.got.cif
#   From: 2010.05.17/outbox.cif.g08.bks.cpg/sg2_86_cif.got.tgz:170984.got - 2010.06.03 11:33:40.
