data_PCOD9018646
_publ_section_title
;
Structure prediction by ZEFSAII (Michael W. Deem and Ramdas Pophale) SiO2 
 PCOD9018646
Probable space group: P -1
;
_chemical_formula_sum "Si O2"
_cell_formula_units_Z 16
_cell_length_a 11.480991
_cell_length_b 5.656600
_cell_length_c 15.387771
_cell_angle_alpha 83.517318
_cell_angle_beta 58.884663
_cell_angle_gamma 58.097812
_cell_volume 708.466517
_symmetry_space_group_name_H-M "P -1"
_symmetry_group_IT_number 2
_symmetry_cell_setting 'triclinic'
loop_
_space_group_symop_operation_xyz
x,y,z
-x,-y,-z
loop_
_atom_site_type_symbol
_atom_site_label
_atom_site_fract_x
_atom_site_fract_y
_atom_site_fract_z
Si Si1 0.983554 0.120630 0.405150
Si Si2 0.591897 0.207808 0.184231
Si Si3 0.215311 0.337093 0.759392
Si Si4 0.482219 0.727355 0.428728
Si Si5 0.646194 0.203157 0.721904
Si Si6 0.141853 0.677796 0.935453
Si Si7 0.835760 0.777966 0.395212
Si Si8 0.594802 0.864989 0.057577
O O1 0.896546 0.463764 0.422698
O O2 0.908960 0.963260 0.389805
O O3 0.000000 0.000000 0.500000
O O4 0.168869 0.003645 0.312763
O O5 0.409894 0.474120 0.248213
O O6 0.711596 0.303825 0.159113
O O7 0.641885 0.955757 0.240153
O O8 0.632964 0.081460 0.077455
O O9 0.327823 0.412775 0.661554
O O10 0.107612 0.533359 0.873683
O O11 0.128953 0.276021 0.719382
O O12 0.500000 0.500000 0.500000
O O13 0.392660 0.779479 0.366864
O O14 0.355966 0.025999 0.513613
O O15 0.532510 0.140828 0.826720
O O16 0.235995 0.447335 0.986503
O O17 0.000000 0.000000 0.000000
O O18 0.500000 0.000000 0.000000
#
# Coordination Sequence:
#
# PCOD9018646 Si02
#       8
#     2   2   2   2   2   2   2   2
#     4  12  28  46  68 101 154 202 243 299 369 449
#     4  10  21  43  73  95 141 179 238 305 368 442
#     4  11  24  43  70 106 140 184 245 300 373 439
#     4  12  23  44  75 106 143 194 247 304 364 445
#     4  11  24  44  70  98 145 194 241 298 369 439
#     4  10  23  46  72 103 143 184 236 314 388 435
#     4  12  28  45  69 108 152 196 251 299 365 446
#     4  10  23  46  70 104 137 188 253 305 376 455
#
# _framework density 22.58399
#
# number of rings (size 3 to 8) (size 9 to 14) (size 15 to 20)
#    0.000    1.000    5.000    2.250    5.250    4.000 
#    6.750    0.000    0.000    0.000    0.000    0.000 
#    0.000    0.000    0.000    0.000    0.000    0.000 
#
# Total GULP energy -89161.883689 kJ/mol
# GULP energy per Si atom -5572.617731 kJ/mol
# Density = 2.253259 g / cm^3
# Si number density = 22.583990 Si / 1000 Ang^3
#
#
#
# Elastic Constant Matrix: (Units=GPa)
#
#
# Indices 1 2 3 4 5 6 
#
# 1 100.2368 31.0471 26.9580 0.9605 11.8301 -2.0138
# 2 31.0471 174.9375 62.1675 24.5280 14.5178 -15.7939
# 3 26.9580 62.1675 85.1333 2.1320 17.6959 -15.4054
# 4 0.9605 24.5280 2.1320 49.3485 -8.1093 -3.8501
# 5 11.8301 14.5178 17.6959 -8.1093 45.8369 0.8047
# 6 -2.0138 -15.7939 -15.4054 -3.8501 0.8047 26.4211
#
#
#
# Elastic Compliance Matrix: (Units=1/GPa)
#
#
# Indices 1 2 3 4 5 6 
#
# 1 0.011172 -0.001018 -0.002722 0.000063 -0.001476 -0.001290
# 2 -0.001018 0.008598 -0.005370 -0.004102 -0.001137 0.001368
# 3 -0.002722 -0.005370 0.018919 0.001752 -0.004731 0.008013
# 4 0.000063 -0.004102 0.001752 0.023134 0.004668 0.001803
# 5 -0.001476 -0.001137 -0.004731 0.004668 0.025274 -0.003641
# 6 -0.001290 0.001368 0.008013 0.001803 -0.003641 0.043614
#
#
# Mechanical properties :
#
#
# Convention : Reuss Voigt Hill
#
# Bulk Modulus (GPa) = 48.85510 66.73920 57.79715
# Shear Modulus (GPa) = 32.10196 40.33029 36.21613
#
# Velocity S-wave (km/s) = 3.77430 4.23045 4.00887
# Velocity P-wave (km/s) = 6.37757 7.31286 6.86117
#
# Compressibility (1/GPa) = 0.02046869
#
# Stress axis : x y z
#
# Youngs Moduli (GPa) = 89.51307 116.30224 52.85657
#
# Poissons Ratio (x) = 0.11840 0.14390
# Poissons Ratio (y) = 0.09113 0.28382
# Poissons Ratio (z) = 0.24369 0.62451
#
# Static dielectric constant tensor:
#      x y z
#    x 1.789880 0.085310 0.074320 
#    y 0.085310 1.905360 0.017100 
#    z 0.074320 0.017100 1.865010 
# 
# From -- ./inp_files/123567.got.cif
#   From: 2010.05.17/outbox.cif.g08.bks.cpg/sg2_62_cif.got.tgz:123567.got - 2010.06.03 11:33:40.
