data_PCOD9018263
_publ_section_title
;
Structure prediction by ZEFSAII (Michael W. Deem and Ramdas Pophale) SiO2 
 PCOD9018263
Probable space group: P -1
;
_chemical_formula_sum "Si O2"
_cell_formula_units_Z 16
_cell_length_a 8.237022
_cell_length_b 11.228328
_cell_length_c 8.829513
_cell_angle_alpha 69.235743
_cell_angle_beta 109.730894
_cell_angle_gamma 80.100117
_cell_volume 678.153402
_symmetry_space_group_name_H-M "P -1"
_symmetry_group_IT_number 2
_symmetry_cell_setting 'triclinic'
loop_
_space_group_symop_operation_xyz
x,y,z
-x,-y,-z
loop_
_atom_site_type_symbol
_atom_site_label
_atom_site_fract_x
_atom_site_fract_y
_atom_site_fract_z
Si Si1 0.239952 0.087047 0.241439
Si Si2 0.630428 0.418987 0.945247
Si Si3 0.398282 0.876778 0.585917
Si Si4 0.027475 0.365412 0.166957
Si Si5 0.452325 0.608898 0.572472
Si Si6 0.575715 0.166760 0.053402
Si Si7 0.799931 0.889301 0.112857
Si Si8 0.035135 0.635411 0.501963
O O1 0.461584 0.048407 0.335490
O O2 0.180271 0.242111 0.196093
O O3 0.218247 0.991095 0.412789
O O4 0.148784 0.079827 0.055989
O O5 0.618255 0.534027 0.769474
O O6 0.500000 0.500000 0.000000
O O7 0.834562 0.343815 0.090723
O O8 0.565253 0.303489 0.902821
O O9 0.446655 0.764963 0.515744
O O10 0.385655 0.804288 0.772495
O O11 0.044840 0.353788 0.358100
O O12 0.000000 0.500000 0.000000
O O13 0.500000 0.500000 0.500000
O O14 0.252062 0.614354 0.569087
O O15 0.732111 0.030308 0.116111
O O16 0.382327 0.148640 0.964788
O O17 0.935201 0.765300 0.305414
O O18 0.000000 0.500000 0.500000
#
# Coordination Sequence:
#
# PCOD9018263 Si02
#       8
#     2   2   2   2   2   2   2   2
#     4  10  23  40  68 100 130 175 217 274 328 395
#     4  12  24  46  68  95 130 176 226 270 330 394
#     4  10  21  44  67  94 135 173 225 265 331 396
#     4  12  26  43  70  97 133 176 222 274 329 395
#     4  12  28  43  68  99 134 177 221 277 330 389
#     4  10  21  43  69  93 132 179 216 272 328 396
#     4  10  23  41  68 100 133 171 219 272 337 388
#     4  12  26  44  66 100 136 173 221 275 331 395
#
# _framework density 23.593481000000001
#
# number of rings (size 3 to 8) (size 9 to 14) (size 15 to 20)
#    0.000    1.000    2.500    3.000    8.750    2.000 
#    0.000    3.750    0.000    0.000    0.000    0.000 
#    0.000    0.000    0.000    0.000    0.000    0.000 
#
# Total GULP energy -89126.000393 kJ/mol
# GULP energy per Si atom -5570.375025 kJ/mol
# Density = 2.353978 g / cm^3
# Si number density = 23.593481 Si / 1000 Ang^3
#
#
#
# Elastic Constant Matrix: (Units=GPa)
#
#
# Indices 1 2 3 4 5 6 
#
# 1 33.9604 -3.6529 -2.5889 5.8593 4.3143 6.9595
# 2 -3.6529 131.3210 40.3545 -0.6466 0.6831 1.5648
# 3 -2.5889 40.3545 150.2982 -8.9356 -0.8713 -15.9143
# 4 5.8593 -0.6466 -8.9356 46.0266 -1.9012 -8.3592
# 5 4.3143 0.6831 -0.8713 -1.9012 22.4958 3.5370
# 6 6.9595 1.5648 -15.9143 -8.3592 3.5370 29.3786
#
#
#
# Elastic Compliance Matrix: (Units=1/GPa)
#
#
# Indices 1 2 3 4 5 6 
#
# 1 0.033337 0.001432 -0.001270 -0.006485 -0.005486 -0.009846
# 2 0.001432 0.008470 -0.002569 -0.001017 -0.000335 -0.002431
# 3 -0.001270 -0.002569 0.008073 0.002706 -0.000015 0.005583
# 4 -0.006485 -0.001017 0.002706 0.024945 0.001928 0.009922
# 5 -0.005486 -0.000335 -0.000015 0.001928 0.046261 -0.003712
# 6 -0.009846 -0.002431 0.005583 0.009922 -0.003712 0.042795
#
#
# Mechanical properties :
#
#
# Convention : Reuss Voigt Hill
#
# Bulk Modulus (GPa) = 22.19044 42.64501 32.41772
# Shear Modulus (GPa) = 27.21564 38.34467 32.78015
#
# Velocity S-wave (km/s) = 3.40004 4.03578 3.73147
# Velocity P-wave (km/s) = 4.98392 6.31117 5.68640
#
# Compressibility (1/GPa) = 0.04506446
#
# Stress axis : x y z
#
# Youngs Moduli (GPa) = 29.99684 118.06361 123.86391
#
# Poissons Ratio (x) = -0.16901 0.15731
# Poissons Ratio (y) = -0.04294 0.31825
# Poissons Ratio (z) = 0.03810 0.30335
#
# Static dielectric constant tensor:
#      x y z
#    x 2.024420 0.057880 -0.114660 
#    y 0.057880 1.910900 -0.037840 
#    z -0.114660 -0.037840 1.991390 
# 
# From -- ./inp_files/186079.got.cif
#   From: 2010.05.17/outbox.cif.g08.bks.cpg/sg2_94_cif.got.tgz:186079.got - 2010.06.03 11:33:40.
