data_PCOD9018118
_publ_section_title
;
Structure prediction by ZEFSAII (Michael W. Deem and Ramdas Pophale) SiO2 
 PCOD9018118
Probable space group: P -1
;
_chemical_formula_sum "Si O2"
_cell_formula_units_Z 16
_cell_length_a 19.509598
_cell_length_b 7.962355
_cell_length_c 11.273469
_cell_angle_alpha 44.870087
_cell_angle_beta 137.749874
_cell_angle_gamma 136.505239
_cell_volume 752.584147
_symmetry_space_group_name_H-M "P -1"
_symmetry_group_IT_number 2
_symmetry_cell_setting 'triclinic'
loop_
_space_group_symop_operation_xyz
x,y,z
-x,-y,-z
loop_
_atom_site_type_symbol
_atom_site_label
_atom_site_fract_x
_atom_site_fract_y
_atom_site_fract_z
Si Si1 0.367516 0.357736 0.911837
Si Si2 0.004706 0.759512 0.554551
Si Si3 0.209467 0.007871 0.073307
Si Si4 0.362205 0.875742 0.013274
Si Si5 0.181949 0.799103 0.393322
Si Si6 0.982796 0.023921 0.792976
Si Si7 0.373386 0.874541 0.746735
Si Si8 0.856101 0.422304 0.997385
O O1 0.334450 0.126554 0.886965
O O2 0.340713 0.610252 0.758491
O O3 0.500000 0.500000 0.000000
O O4 0.320334 0.212892 0.048382
O O5 0.084254 0.655662 0.778563
O O6 0.883011 0.514470 0.516843
O O7 0.042119 0.865197 0.417685
O O8 0.000000 0.000000 0.500000
O O9 0.229552 0.884887 0.280348
O O10 0.154855 0.778508 0.021660
O O11 0.117250 0.122703 0.920013
O O12 0.354409 0.826679 0.887175
O O13 0.268731 0.636969 0.085519
O O14 0.491943 0.950824 0.179762
O O15 0.280323 0.959544 0.532211
O O16 0.078367 0.880113 0.235327
O O17 0.925968 0.710500 0.891335
#
# Coordination Sequence:
#
# PCOD9018118 Si02
#       8
#     2   2   2   2   2   2   2   2
#     4   9  20  40  69  94 122 177 228 276 342 399
#     4  12  24  41  67  94 134 179 223 273 338 408
#     4  11  22  41  64  91 139 177 215 284 341 402
#     4   9  21  41  70  95 127 183 225 285 341 401
#     4  12  26  40  63 103 136 177 228 278 343 411
#     4  12  24  41  63  98 137 178 223 273 340 411
#     4  10  21  43  68  94 135 171 235 283 337 400
#     4  11  23  43  66  97 135 178 230 273 342 406
#
# _framework density 21.260082000000001
#
# number of rings (size 3 to 8) (size 9 to 14) (size 15 to 20)
#    0.000    1.250    2.500    3.375    3.500    0.000 
#    2.250    6.250    2.750    0.000    0.000    0.000 
#    0.000    0.000    0.000    0.000    0.000    0.000 
#
# Total GULP energy -89280.265841 kJ/mol
# GULP energy per Si atom -5580.016615 kJ/mol
# Density = 2.121169 g / cm^3
# Si number density = 21.260082 Si / 1000 Ang^3
#
#
#
# Elastic Constant Matrix: (Units=GPa)
#
#
# Indices 1 2 3 4 5 6 
#
# 1 106.3696 32.1396 24.2880 11.1650 2.0281 31.7008
# 2 32.1396 82.0312 40.3815 8.9023 4.7326 30.4627
# 3 24.2880 40.3815 86.5551 12.1921 -16.5770 20.8004
# 4 11.1650 8.9023 12.1921 30.2034 -0.7324 -1.9814
# 5 2.0281 4.7326 -16.5770 -0.7324 29.9238 -5.7705
# 6 31.7008 30.4627 20.8004 -1.9814 -5.7705 40.6315
#
#
#
# Elastic Compliance Matrix: (Units=1/GPa)
#
#
# Indices 1 2 3 4 5 6 
#
# 1 0.013494 0.000131 -0.001236 -0.005329 -0.003833 -0.010798
# 2 0.000131 0.023145 -0.008851 -0.004547 -0.011535 -0.014783
# 3 -0.001236 -0.008851 0.019080 -0.004396 0.011810 -0.000705
# 4 -0.005329 -0.004547 -0.004396 0.039027 0.001913 0.011992
# 5 -0.003833 -0.011535 0.011810 0.001913 0.044404 0.011992
# 6 -0.010798 -0.014783 -0.000705 0.011992 0.011992 0.046768
#
#
# Mechanical properties :
#
#
# Convention : Reuss Voigt Hill
#
# Bulk Modulus (GPa) = 27.92757 52.06379 39.99568
# Shear Modulus (GPa) = 22.96046 32.02818 27.49432
#
# Velocity S-wave (km/s) = 3.28987 3.88557 3.60006
# Velocity P-wave (km/s) = 5.25316 6.68374 6.01116
#
# Compressibility (1/GPa) = 0.03580691
#
# Stress axis : x y z
#
# Youngs Moduli (GPa) = 74.10488 43.20580 52.41147
#
# Poissons Ratio (x) = -0.00565 0.06479
# Poissons Ratio (y) = -0.00969 0.46388
# Poissons Ratio (z) = 0.09160 0.38240
#
# Static dielectric constant tensor:
#      x y z
#    x 1.804990 -0.023400 0.059730 
#    y -0.023400 1.836270 0.015750 
#    z 0.059730 0.015750 1.879320 
# 
# From -- ./inp_files/469160.got.cif
#   From: 2010.05.17/outbox.cif.g08.bks.cpg/sg2_235_cif.got.tgz:469160.got - 2010.06.03 11:33:40.
