data_PCOD9018430
_publ_section_title
;
Structure prediction by ZEFSAII (Michael W. Deem and Ramdas Pophale) SiO2 
 PCOD9018430
Probable space group: P -1
;
_chemical_formula_sum "Si O2"
_cell_formula_units_Z 16
_cell_length_a 14.784113
_cell_length_b 15.620034
_cell_length_c 13.002133
_cell_angle_alpha 152.919123
_cell_angle_beta 123.413371
_cell_angle_gamma 37.943465
_cell_volume 706.788238
_symmetry_space_group_name_H-M "P -1"
_symmetry_group_IT_number 2
_symmetry_cell_setting 'triclinic'
loop_
_space_group_symop_operation_xyz
x,y,z
-x,-y,-z
loop_
_atom_site_type_symbol
_atom_site_label
_atom_site_fract_x
_atom_site_fract_y
_atom_site_fract_z
Si Si1 0.144683 0.686930 0.691089
Si Si2 0.781583 0.819967 0.091483
Si Si3 0.311132 0.088711 0.528548
Si Si4 0.048602 0.154005 0.459991
Si Si5 0.318481 0.374291 0.081210
Si Si6 0.049255 0.771953 0.177015
Si Si7 0.429617 0.398006 0.388556
Si Si8 0.378738 0.134494 0.405250
O O1 0.295738 0.579969 0.597279
O O2 0.245886 0.419520 0.550757
O O3 0.030303 0.736922 0.586933
O O4 0.000000 0.000000 0.000000
O O5 0.872765 0.897342 0.227466
O O6 0.610966 0.049965 0.159715
O O7 0.708901 0.816793 0.144057
O O8 0.931373 0.466374 0.780068
O O9 0.240566 0.981045 0.400651
O O10 0.305408 0.107333 0.421263
O O11 0.499464 0.882935 0.473901
O O12 0.178369 0.438571 0.851247
O O13 0.036646 0.962991 0.295873
O O14 0.155748 0.683445 0.251061
O O15 0.342364 0.415338 0.255013
O O16 0.495160 0.164818 0.905996
O O17 0.500000 0.500000 0.500000
#
# Coordination Sequence:
#
# PCOD9018430 Si02
#       8
#     2   2   2   2   2   2   2   2
#     4  12  25  43  68  96 136 181 229 283 340 409
#     4  11  22  43  70  97 136 177 222 278 342 397
#     4   9  22  43  69 101 135 182 220 282 337 407
#     4  11  23  43  70 100 140 174 224 282 340 403
#     4  11  22  43  70  97 139 182 221 280 345 398
#     4  10  23  42  68 106 138 175 227 279 340 409
#     4  12  26  45  67 104 141 178 234 287 336 409
#     4  10  21  43  70  96 136 177 231 273 341 409
#
# _framework density 22.637616999999999
#
# number of rings (size 3 to 8) (size 9 to 14) (size 15 to 20)
#    0.000    1.250    2.500    3.000    0.000    4.000 
#    2.250    8.750    0.000    0.000    0.000    0.000 
#    0.000    0.000    0.000    0.000    0.000    0.000 
#
# Total GULP energy -89326.365383 kJ/mol
# GULP energy per Si atom -5582.897836 kJ/mol
# Density = 2.258609 g / cm^3
# Si number density = 22.637617 Si / 1000 Ang^3
#
#
#
# Elastic Constant Matrix: (Units=GPa)
#
#
# Indices 1 2 3 4 5 6 
#
# 1 124.6875 39.1253 38.8333 -7.9991 14.1642 0.3165
# 2 39.1253 146.8389 26.4430 20.1686 6.0306 14.3136
# 3 38.8333 26.4430 52.0859 1.6528 -2.4766 11.4877
# 4 -7.9991 20.1686 1.6528 32.0245 6.6669 -3.0351
# 5 14.1642 6.0306 -2.4766 6.6669 40.4363 -4.4702
# 6 0.3165 14.3136 11.4877 -3.0351 -4.4702 40.5071
#
#
#
# Elastic Compliance Matrix: (Units=1/GPa)
#
#
# Indices 1 2 3 4 5 6 
#
# 1 0.012892 -0.002805 -0.009435 0.006936 -0.005434 0.003486
# 2 -0.002805 0.009061 -0.001576 -0.006688 0.000283 -0.003203
# 3 -0.009435 -0.001576 0.029060 -0.004661 0.005273 -0.007378
# 4 0.006936 -0.006688 -0.004661 0.039539 -0.007600 0.005755
# 5 -0.005434 0.000283 0.005273 -0.007600 0.028278 0.000998
# 6 0.003486 -0.003203 -0.007378 0.005755 0.000998 0.028425
#
#
# Mechanical properties :
#
#
# Convention : Reuss Voigt Hill
#
# Bulk Modulus (GPa) = 42.77355 59.15730 50.96543
# Shear Modulus (GPa) = 27.37021 37.20761 32.28891
#
# Velocity S-wave (km/s) = 3.48092 4.05855 3.78079
# Velocity P-wave (km/s) = 5.92382 6.93913 6.45148
#
# Compressibility (1/GPa) = 0.02337893
#
# Stress axis : x y z
#
# Youngs Moduli (GPa) = 77.56655 110.36653 34.41211
#
# Poissons Ratio (x) = 0.30962 0.32468
# Poissons Ratio (y) = 0.21760 0.05425
# Poissons Ratio (z) = 0.73184 0.17398
#
# Static dielectric constant tensor:
#      x y z
#    x 1.971350 -0.005230 -0.052120 
#    y -0.005230 1.853830 -0.002100 
#    z -0.052120 -0.002100 1.915290 
# 
# From -- ./inp_files/456045.got.cif
#   From: 2010.05.17/outbox.cif.g08.bks.cpg/sg2_229_cif.got.tgz:456045.got - 2010.06.03 11:33:40.
