data_PCOD9018973
_publ_section_title
;
Structure prediction by ZEFSAII (Michael W. Deem and Ramdas Pophale) SiO2 
 PCOD9018973
Probable space group: P -1
;
_chemical_formula_sum "Si O2"
_cell_formula_units_Z 16
_cell_length_a 23.830031
_cell_length_b 6.961657
_cell_length_c 5.201987
_cell_angle_alpha 93.831513
_cell_angle_beta 51.821016
_cell_angle_gamma 94.177581
_cell_volume 676.319593
_symmetry_space_group_name_H-M "P -1"
_symmetry_group_IT_number 2
_symmetry_cell_setting 'triclinic'
loop_
_space_group_symop_operation_xyz
x,y,z
-x,-y,-z
loop_
_atom_site_type_symbol
_atom_site_label
_atom_site_fract_x
_atom_site_fract_y
_atom_site_fract_z
Si Si1 0.775222 0.575078 0.442488
Si Si2 0.545068 0.561167 0.126859
Si Si3 0.895109 0.867313 0.009426
Si Si4 0.978417 0.376299 0.301433
Si Si5 0.148063 0.902808 0.352363
Si Si6 0.352576 0.173768 0.389341
Si Si7 0.287061 0.783591 0.695995
Si Si8 0.334243 0.470820 0.881553
O O1 0.851282 0.665089 0.161716
O O2 0.718487 0.722995 0.499669
O O3 0.760792 0.360770 0.358636
O O4 0.748628 0.568782 0.812095
O O5 0.500000 0.500000 0.500000
O O6 0.620724 0.472367 0.986899
O O7 0.500000 0.500000 0.000000
O O8 0.578467 0.773054 0.975759
O O9 0.865572 0.003729 0.325563
O O10 0.880914 0.961372 0.782119
O O11 0.976363 0.816956 0.826936
O O12 0.000000 0.500000 0.500000
O O13 0.896394 0.300874 0.537066
O O14 0.000000 0.500000 0.000000
O O15 0.231135 0.879431 0.055093
O O16 0.363594 0.283238 0.642111
O O17 0.332195 0.951684 0.446143
O O18 0.338400 0.647891 0.694729
#
# Coordination Sequence:
#
# PCOD9018973 Si02
#       8
#     2   2   2   2   2   2   2   2
#     4  10  23  39  66  98 140 182 229 290 346 410
#     4  11  22  44  74  99 138 185 225 277 348 410
#     4  12  25  45  69  98 141 182 242 283 356 417
#     4  12  26  45  70 100 141 184 242 294 347 414
#     4  12  26  44  70 100 138 190 231 289 355 415
#     4  10  21  44  67 102 136 183 225 284 344 412
#     4  11  24  41  69 105 140 178 239 284 350 413
#     4  10  23  40  71  98 141 177 232 282 343 404
#
# _framework density 23.657454999999999
#
# number of rings (size 3 to 8) (size 9 to 14) (size 15 to 20)
#    0.000    1.000    2.500    3.750    5.250    2.000 
#    0.000    1.250    0.000    0.000    0.000    0.000 
#    0.000    0.000    0.000    0.000    0.000    0.000 
#
# Total GULP energy -89432.182133 kJ/mol
# GULP energy per Si atom -5589.511383 kJ/mol
# Density = 2.360361 g / cm^3
# Si number density = 23.657455 Si / 1000 Ang^3
#
#
#
# Elastic Constant Matrix: (Units=GPa)
#
#
# Indices 1 2 3 4 5 6 
#
# 1 72.2843 21.8503 25.0917 -14.6739 11.5687 9.5451
# 2 21.8503 123.4039 37.9150 -33.1865 9.8438 17.8972
# 3 25.0917 37.9150 127.1241 -33.7360 6.9406 16.3604
# 4 -14.6739 -33.1865 -33.7360 50.7374 6.4010 -2.9973
# 5 11.5687 9.8438 6.9406 6.4010 39.1213 -8.4594
# 6 9.5451 17.8972 16.3604 -2.9973 -8.4594 25.9521
#
#
#
# Elastic Compliance Matrix: (Units=1/GPa)
#
#
# Indices 1 2 3 4 5 6 
#
# 1 0.017339 0.000349 -0.000654 0.005303 -0.007720 -0.008110
# 2 0.000349 0.012246 0.000176 0.008494 -0.006747 -0.009903
# 3 -0.000654 0.000176 0.011164 0.007494 -0.004698 -0.007584
# 4 0.005303 0.008494 0.007494 0.032676 -0.013206 -0.013063
# 5 -0.007720 -0.006747 -0.004698 -0.013206 0.037081 0.021015
# 6 -0.008110 -0.009903 -0.007584 -0.013063 0.021015 0.058467
#
#
# Mechanical properties :
#
#
# Convention : Reuss Voigt Hill
#
# Bulk Modulus (GPa) = 24.69726 54.72515 39.71120
# Shear Modulus (GPa) = 27.36307 39.02584 33.19445
#
# Velocity S-wave (km/s) = 3.40462 4.06596 3.74990
# Velocity P-wave (km/s) = 5.09092 6.72497 5.96417
#
# Compressibility (1/GPa) = 0.04049032
#
# Stress axis : x y z
#
# Youngs Moduli (GPa) = 57.67426 81.65704 89.57197
#
# Poissons Ratio (x) = -0.02849 0.05857
# Poissons Ratio (y) = -0.02012 -0.01572
# Poissons Ratio (z) = 0.03771 -0.01433
#
# Static dielectric constant tensor:
#      x y z
#    x 1.960080 0.009510 0.005990 
#    y 0.009510 1.895630 0.008050 
#    z 0.005990 0.008050 1.987710 
# 
# From -- ./inp_files/11100.got.cif
#   From: 2010.05.17/outbox.cif.g08.bks.cpg/sg2_6_cif.got.tgz:11100.got - 2010.06.03 11:33:40.
