data_PCOD9018794
_publ_section_title
;
Structure prediction by ZEFSAII (Michael W. Deem and Ramdas Pophale) SiO2 
 PCOD9018794
Probable space group: P -1
;
_chemical_formula_sum "Si O2"
_cell_formula_units_Z 14
_cell_length_a 12.130275
_cell_length_b 11.880916
_cell_length_c 20.893736
_cell_angle_alpha 28.345229
_cell_angle_beta 28.648499
_cell_angle_gamma 23.885822
_cell_volume 535.715158
_symmetry_space_group_name_H-M "P -1"
_symmetry_group_IT_number 2
_symmetry_cell_setting 'triclinic'
loop_
_space_group_symop_operation_xyz
x,y,z
-x,-y,-z
loop_
_atom_site_type_symbol
_atom_site_label
_atom_site_fract_x
_atom_site_fract_y
_atom_site_fract_z
Si Si1 0.856497 0.162476 0.802777
Si Si2 0.731887 0.216235 0.405298
Si Si3 0.166875 0.090760 0.936562
Si Si4 0.698859 0.782408 0.566126
Si Si5 0.805353 0.766969 0.769011
Si Si6 0.465372 0.983514 0.713992
Si Si7 0.263564 0.517983 0.856395
O O1 0.875151 0.427292 0.643045
O O2 0.556264 0.261296 0.873467
O O3 0.490919 0.846847 0.701085
O O4 0.840262 0.126508 0.904701
O O5 0.464081 0.264975 0.556204
O O6 0.651887 0.453445 0.272286
O O7 0.965635 0.187767 0.346630
O O8 0.856514 0.906967 0.456827
O O9 0.228443 0.026482 0.861415
O O10 0.907751 0.443165 0.902621
O O11 0.473938 0.028008 0.830119
O O12 0.117783 0.837335 0.805155
O O13 0.500000 0.000000 0.500000
O O14 0.761122 0.774959 0.711018
O O15 0.000000 0.500000 0.000000
#
# Coordination Sequence:
#
# PCOD9018794 Si02
#       7
#     2   2   2   2   2   2   2
#     4  12  24  46  67 100 139 175 227 274 333 408
#     4  10  21  44  67 100 135 177 226 276 336 397
#     4  10  22  41  70  98 133 170 227 277 342 382
#     4  10  22  48  66 101 135 189 216 277 333 409
#     4  10  21  44  64 106 128 173 224 284 329 391
#     4   8  22  42  67  99 132 177 220 280 331 398
#     4  12  26  44  71 101 132 179 225 284 335 389
#
# _framework density 26.133289999999999
#
# number of rings (size 3 to 8) (size 9 to 14) (size 15 to 20)
#    1.714    0.000    1.429    3.429    0.000    2.857 
#    7.714    0.714    0.000    0.000    0.000    0.000 
#    0.000    0.000    0.000    0.000    0.000    0.000 
#
# Total GULP energy -78251.845203 kJ/mol
# GULP energy per Si atom -5589.417514 kJ/mol
# Density = 2.607381 g / cm^3
# Si number density = 26.133290 Si / 1000 Ang^3
#
#
#
# Elastic Constant Matrix: (Units=GPa)
#
#
# Indices 1 2 3 4 5 6 
#
# 1 145.7744 55.4582 49.4362 -17.2843 5.9159 -35.2932
# 2 55.4582 95.1402 15.9465 -3.0356 6.1388 -16.6504
# 3 49.4362 15.9465 130.2201 -20.6795 28.6178 -27.2987
# 4 -17.2843 -3.0356 -20.6795 36.8626 -2.8167 -4.7338
# 5 5.9159 6.1388 28.6178 -2.8167 54.9678 -3.8877
# 6 -35.2932 -16.6504 -27.2987 -4.7338 -3.8877 36.3314
#
#
#
# Elastic Compliance Matrix: (Units=1/GPa)
#
#
# Indices 1 2 3 4 5 6 
#
# 1 0.012162 -0.005107 -0.001306 0.005818 0.000901 0.009347
# 2 -0.005107 0.013712 0.000788 -0.000708 -0.001309 0.001683
# 3 -0.001306 0.000788 0.012144 0.006958 -0.005308 0.008555
# 4 0.005818 -0.000708 0.006958 0.035535 -0.001284 0.015049
# 5 0.000901 -0.001309 -0.005308 -0.001284 0.020823 -0.001653
# 6 0.009347 0.001683 0.008555 0.015049 -0.001653 0.045588
#
#
# Mechanical properties :
#
#
# Convention : Reuss Voigt Hill
#
# Bulk Modulus (GPa) = 37.35987 68.09072 52.72530
# Shear Modulus (GPa) = 31.22324 42.31861 36.77092
#
# Velocity S-wave (km/s) = 3.46029 4.02846 3.75514
# Velocity P-wave (km/s) = 5.50380 6.91012 6.24666
#
# Compressibility (1/GPa) = 0.02676669
#
# Stress axis : x y z
#
# Youngs Moduli (GPa) = 82.22189 72.92799 82.34725
#
# Poissons Ratio (x) = 0.37246 0.10757
# Poissons Ratio (y) = 0.41992 -0.06487
# Poissons Ratio (z) = 0.10740 -0.05745
#
# Static dielectric constant tensor:
#      x y z
#    x 2.077920 0.050570 0.058090 
#    y 0.050570 2.032860 0.070420 
#    z 0.058090 0.070420 2.137690 
# 
# From -- ./inp_files/623642.got.cif
#   From: 2010.05.17/outbox.cif.g08.bks.cpg/sg2_312_cif.got.tgz:623642.got - 2010.06.03 11:33:40.
