data_PCOD9018278
_publ_section_title
;
Structure prediction by ZEFSAII (Michael W. Deem and Ramdas Pophale) SiO2 
 PCOD9018278
Probable space group: P -1
;
_chemical_formula_sum "Si O2"
_cell_formula_units_Z 14
_cell_length_a 7.928285
_cell_length_b 18.987064
_cell_length_c 7.452983
_cell_angle_alpha 126.240852
_cell_angle_beta 57.485410
_cell_angle_gamma 140.018122
_cell_volume 573.643134
_symmetry_space_group_name_H-M "P -1"
_symmetry_group_IT_number 2
_symmetry_cell_setting 'triclinic'
loop_
_space_group_symop_operation_xyz
x,y,z
-x,-y,-z
loop_
_atom_site_type_symbol
_atom_site_label
_atom_site_fract_x
_atom_site_fract_y
_atom_site_fract_z
Si Si1 0.499493 0.482446 0.693225
Si Si2 0.187768 0.198461 0.026653
Si Si3 0.188776 0.002618 0.637236
Si Si4 0.375809 0.945271 0.791995
Si Si5 0.914975 0.375016 0.407565
Si Si6 0.360376 0.240293 0.396437
Si Si7 0.742202 0.422043 0.906249
O O1 0.500000 0.500000 0.500000
O O2 0.420319 0.358878 0.584927
O O3 0.311898 0.488889 0.931576
O O4 0.805637 0.589223 0.727032
O O5 0.307676 0.219685 0.186227
O O6 0.439353 0.307919 0.946046
O O7 0.917255 0.174699 0.172846
O O8 0.115405 0.082477 0.818346
O O9 0.418953 0.053993 0.436992
O O10 0.298535 0.997694 0.761917
O O11 0.919070 0.874364 0.539035
O O12 0.500000 0.000000 0.000000
O O13 0.638530 0.270419 0.315581
O O14 0.000000 0.500000 0.500000
O O15 0.830802 0.368036 0.647443
O O16 0.000000 0.500000 0.000000
#
# Coordination Sequence:
#
# PCOD9018278 Si02
#       7
#     2   2   2   2   2   2   2
#     4  11  21  43  66  96 133 171 222 285 335 402
#     4  11  24  46  66  96 140 179 220 282 342 406
#     4  10  24  47  68  97 143 181 221 287 344 398
#     4  10  23  44  69 101 133 177 237 275 338 406
#     4  10  23  42  64  99 133 172 227 282 340 409
#     4  10  21  43  69  94 134 178 225 279 345 406
#     4  12  24  41  70  99 131 178 225 272 348 406
#
# _framework density 24.405415000000001
#
# number of rings (size 3 to 8) (size 9 to 14) (size 15 to 20)
#    0.000    1.429    2.857    2.571    2.000    7.429 
#    7.714    2.857    0.000    0.000    0.000    0.000 
#    0.000    0.000    0.000    0.000    0.000    0.000 
#
# Total GULP energy -78014.673071 kJ/mol
# GULP energy per Si atom -5572.476648 kJ/mol
# Density = 2.434987 g / cm^3
# Si number density = 24.405415 Si / 1000 Ang^3
#
#
#
# Elastic Constant Matrix: (Units=GPa)
#
#
# Indices 1 2 3 4 5 6 
#
# 1 92.5845 48.6731 32.3634 0.4407 -2.9130 45.2304
# 2 48.6731 170.7166 44.8342 10.1072 -13.5497 25.4642
# 3 32.3634 44.8342 98.0916 -7.6395 -10.8639 16.6043
# 4 0.4407 10.1072 -7.6395 27.0526 8.1294 -1.7540
# 5 -2.9130 -13.5497 -10.8639 8.1294 48.5579 3.1858
# 6 45.2304 25.4642 16.6043 -1.7540 3.1858 53.2347
#
#
#
# Elastic Compliance Matrix: (Units=1/GPa)
#
#
# Indices 1 2 3 4 5 6 
#
# 1 0.020991 -0.002655 -0.003046 -0.001570 0.001132 -0.015735
# 2 -0.002655 0.007898 -0.002663 -0.004398 0.002249 -0.000971
# 3 -0.003046 -0.002663 0.012907 0.004308 0.001247 -0.000097
# 4 -0.001570 -0.004398 0.004308 0.042427 -0.007720 0.003954
# 5 0.001132 0.002249 0.001247 -0.007720 0.023127 -0.004065
# 6 -0.015735 -0.000971 -0.000097 0.003954 -0.004065 0.033022
#
#
# Mechanical properties :
#
#
# Convention : Reuss Voigt Hill
#
# Bulk Modulus (GPa) = 39.89101 68.12601 54.00851
# Shear Modulus (GPa) = 30.21975 41.47051 35.84513
#
# Velocity S-wave (km/s) = 3.52268 4.12665 3.83657
# Velocity P-wave (km/s) = 5.73815 7.11903 6.46556
#
# Compressibility (1/GPa) = 0.02506830
#
# Stress axis : x y z
#
# Youngs Moduli (GPa) = 47.63862 126.61940 77.48019
#
# Poissons Ratio (x) = 0.33620 0.23597
# Poissons Ratio (y) = 0.12649 0.20632
# Poissons Ratio (z) = 0.14509 0.33717
#
# Static dielectric constant tensor:
#      x y z
#    x 2.058510 -0.058030 0.034760 
#    y -0.058030 1.898720 0.002020 
#    z 0.034760 0.002020 1.929300 
# 
# From -- ./inp_files/226439.got.cif
#   From: 2010.05.17/outbox.cif.g08.bks.cpg/sg2_114_cif.got.tgz:226439.got - 2010.06.03 11:33:40.
