data_PCOD9018641
_publ_section_title
;
Structure prediction by ZEFSAII (Michael W. Deem and Ramdas Pophale) SiO2 
 PCOD9018641
Probable space group: P -1
;
_chemical_formula_sum "Si O2"
_cell_formula_units_Z 16
_cell_length_a 9.668241
_cell_length_b 7.556399
_cell_length_c 14.963617
_cell_angle_alpha 73.080504
_cell_angle_beta 98.484428
_cell_angle_gamma 47.766464
_cell_volume 677.448760
_symmetry_space_group_name_H-M "P -1"
_symmetry_group_IT_number 2
_symmetry_cell_setting 'triclinic'
loop_
_space_group_symop_operation_xyz
x,y,z
-x,-y,-z
loop_
_atom_site_type_symbol
_atom_site_label
_atom_site_fract_x
_atom_site_fract_y
_atom_site_fract_z
Si Si1 0.571879 0.636140 0.001774
Si Si2 0.132499 0.363735 0.247551
Si Si3 0.712802 0.857556 0.238271
Si Si4 0.559696 0.193055 0.839927
Si Si5 0.391074 0.996585 0.599802
Si Si6 0.377937 0.395080 0.476025
Si Si7 0.688220 0.210347 0.684113
Si Si8 0.981348 0.242195 0.980794
O O1 0.797939 0.446073 0.006575
O O2 0.396135 0.925302 0.886581
O O3 0.500000 0.500000 0.000000
O O4 0.575637 0.661001 0.104390
O O5 0.362224 0.192929 0.331646
O O6 0.080973 0.566108 0.136390
O O7 0.946384 0.565713 0.272835
O O8 0.160895 0.121065 0.255420
O O9 0.556643 0.835590 0.231043
O O10 0.700709 0.966763 0.317896
O O11 0.610284 0.316728 0.762877
O O12 0.792731 0.909604 0.940426
O O13 0.424365 0.831491 0.542297
O O14 0.282725 0.293636 0.510657
O O15 0.484820 0.368797 0.579160
O O16 0.222852 0.693026 0.366981
O O17 0.000000 0.000000 0.000000
#
# Coordination Sequence:
#
# PCOD9018641 Si02
#       8
#     2   2   2   2   2   2   2   2
#     4  12  25  42  63  96 137 177 217 267 324 399
#     4  11  23  42  65  99 136 175 219 269 327 403
#     4  12  24  42  65 100 136 173 226 263 333 400
#     4  12  25  41  67  97 134 182 207 278 323 394
#     4  10  21  43  73  93 131 175 216 283 334 382
#     4   9  20  43  72  93 125 175 225 278 334 386
#     4  10  22  42  68  97 129 173 226 272 337 389
#     4  12  25  43  66  98 138 176 225 265 326 404
#
# _framework density 23.618022
#
# number of rings (size 3 to 8) (size 9 to 14) (size 15 to 20)
#    0.000    1.000    6.250    0.375    5.250    1.000 
#    0.000    6.250    0.000    0.000    0.000    0.000 
#    0.000    0.000    0.000    0.000    0.000    0.000 
#
# Total GULP energy -89406.608490 kJ/mol
# GULP energy per Si atom -5587.913031 kJ/mol
# Density = 2.356427 g / cm^3
# Si number density = 23.618022 Si / 1000 Ang^3
#
#
#
# Elastic Constant Matrix: (Units=GPa)
#
#
# Indices 1 2 3 4 5 6 
#
# 1 61.8300 32.3519 22.5176 -10.9511 -4.6729 -7.5170
# 2 32.3519 120.3737 43.2472 14.5976 -14.2588 -15.2857
# 3 22.5176 43.2472 144.6001 11.1839 -31.8901 1.8173
# 4 -10.9511 14.5976 11.1839 47.6093 3.1098 -7.8591
# 5 -4.6729 -14.2588 -31.8901 3.1098 23.9864 -7.3571
# 6 -7.5170 -15.2857 1.8173 -7.8591 -7.3571 45.9862
#
#
#
# Elastic Compliance Matrix: (Units=1/GPa)
#
#
# Indices 1 2 3 4 5 6 
#
# 1 0.021871 -0.005858 -0.003129 0.008226 -0.003660 0.002572
# 2 -0.005858 0.011950 -0.000953 -0.004661 0.006301 0.003264
# 3 -0.003129 -0.000953 0.011123 -0.003914 0.014224 0.000339
# 4 0.008226 -0.004661 -0.003914 0.026324 -0.008854 0.003032
# 5 -0.003660 0.006301 0.014224 -0.008854 0.067938 0.010290
# 6 0.002572 0.003264 0.000339 0.003032 0.010290 0.025402
#
#
# Mechanical properties :
#
#
# Convention : Reuss Voigt Hill
#
# Bulk Modulus (GPa) = 39.89795 58.11526 49.00661
# Shear Modulus (GPa) = 25.92763 38.76219 32.34491
#
# Velocity S-wave (km/s) = 3.31689 4.05558 3.70469
# Velocity P-wave (km/s) = 5.62127 6.82569 6.25255
#
# Compressibility (1/GPa) = 0.02506394
#
# Stress axis : x y z
#
# Youngs Moduli (GPa) = 45.72179 83.67959 89.90165
#
# Poissons Ratio (x) = 0.49023 0.28135
# Poissons Ratio (y) = 0.26786 0.08565
# Poissons Ratio (z) = 0.14309 0.07972
#
# Static dielectric constant tensor:
#      x y z
#    x 1.938450 0.057870 -0.063280 
#    y 0.057870 1.935820 0.008580 
#    z -0.063280 0.008580 1.950740 
# 
# From -- ./inp_files/515377.got.cif
#   From: 2010.05.17/outbox.cif.g08.bks.cpg/sg2_258_cif.got.tgz:515377.got - 2010.06.03 11:33:40.
