data_PCOD9018076
_publ_section_title
;
Structure prediction by ZEFSAII (Michael W. Deem and Ramdas Pophale) SiO2 
 PCOD9018076
Probable space group: P -1
;
_chemical_formula_sum "Si O2"
_cell_formula_units_Z 14
_cell_length_a 11.915368
_cell_length_b 15.016131
_cell_length_c 4.965273
_cell_angle_alpha 61.313301
_cell_angle_beta 67.367088
_cell_angle_gamma 42.342713
_cell_volume 524.267489
_symmetry_space_group_name_H-M "P -1"
_symmetry_group_IT_number 2
_symmetry_cell_setting 'triclinic'
loop_
_space_group_symop_operation_xyz
x,y,z
-x,-y,-z
loop_
_atom_site_type_symbol
_atom_site_label
_atom_site_fract_x
_atom_site_fract_y
_atom_site_fract_z
Si Si1 0.450408 0.683433 0.575718
Si Si2 0.108850 0.366951 0.278575
Si Si3 0.437389 0.204721 0.334501
Si Si4 0.737380 0.362734 0.796249
Si Si5 0.896919 0.106918 0.692545
Si Si6 0.642221 0.962328 0.128429
Si Si7 0.976473 0.712218 0.017815
O O1 0.512753 0.756443 0.519704
O O2 0.605759 0.522569 0.577774
O O3 0.298052 0.793975 0.357062
O O4 0.369541 0.667124 0.924916
O O5 0.276004 0.342601 0.150191
O O6 0.049047 0.367463 0.630598
O O7 0.084340 0.283541 0.228088
O O8 0.000000 0.500000 0.000000
O O9 0.584641 0.088264 0.177030
O O10 0.350137 0.144319 0.546451
O O11 0.866821 0.240519 0.639181
O O12 0.847185 0.345689 0.964420
O O13 0.000000 0.000000 0.500000
O O14 0.000000 0.000000 0.000000
O O15 0.826654 0.877095 0.981821
O O16 0.500000 0.000000 0.000000
#
# Coordination Sequence:
#
# PCOD9018076 Si02
#       7
#     2   2   2   2   2   2   2
#     4  11  26  51  78 112 160 209 259 323 391 473
#     4  11  23  44  68 103 142 189 249 308 372 448
#     4  10  23  43  72 107 144 199 252 307 390 454
#     4  11  27  50  77 115 160 208 260 319 394 465
#     4  12  27  52  76 110 149 203 266 320 379 461
#     4  10  21  43  68 105 150 193 247 317 380 449
#     4  11  25  42  73 103 145 194 244 311 375 448
#
# _framework density 26.703925000000002
#
# number of rings (size 3 to 8) (size 9 to 14) (size 15 to 20)
#    0.000    1.143    2.857    1.714    4.000    3.429 
#    2.571    0.000    0.000    0.000    0.000    0.000 
#    0.000    0.000    0.000    0.000    0.000    0.000 
#
# Total GULP energy -78027.271231 kJ/mol
# GULP energy per Si atom -5573.376516 kJ/mol
# Density = 2.664315 g / cm^3
# Si number density = 26.703925 Si / 1000 Ang^3
#
#
#
# Elastic Constant Matrix: (Units=GPa)
#
#
# Indices 1 2 3 4 5 6 
#
# 1 140.6036 62.7032 53.7491 -10.1393 44.3701 3.8922
# 2 62.7032 150.3515 41.9925 -8.6133 28.8102 7.3734
# 3 53.7491 41.9925 102.2870 4.1935 28.9431 16.0028
# 4 -10.1393 -8.6133 4.1935 30.1345 -7.7013 18.7534
# 5 44.3701 28.8102 28.9431 -7.7013 62.1271 -8.1493
# 6 3.8922 7.3734 16.0028 18.7534 -8.1493 38.8168
#
#
#
# Elastic Compliance Matrix: (Units=1/GPa)
#
#
# Indices 1 2 3 4 5 6 
#
# 1 0.011514 -0.002544 -0.003302 0.003589 -0.005345 -0.002166
# 2 -0.002544 0.008728 -0.001561 0.003069 -0.001457 -0.002548
# 3 -0.003302 -0.001561 0.014360 -0.001178 -0.004497 -0.005667
# 4 0.003589 0.003069 -0.001178 0.050999 -0.000419 -0.025184
# 5 -0.005345 -0.001457 -0.004497 -0.000419 0.023660 0.007836
# 6 -0.002166 -0.002548 -0.005667 -0.025184 0.007836 0.042612
#
#
# Mechanical properties :
#
#
# Convention : Reuss Voigt Hill
#
# Bulk Modulus (GPa) = 50.53646 78.90352 64.71999
# Shear Modulus (GPa) = 28.85457 41.86884 35.36171
#
# Velocity S-wave (km/s) = 3.29072 3.96396 3.64292
# Velocity P-wave (km/s) = 5.77964 7.11072 6.47945
#
# Compressibility (1/GPa) = 0.01978769
#
# Stress axis : x y z
#
# Youngs Moduli (GPa) = 86.84923 114.57338 69.63787
#
# Poissons Ratio (x) = 0.29145 0.22995
# Poissons Ratio (y) = 0.22092 0.10873
# Poissons Ratio (z) = 0.28678 0.17890
#
# Static dielectric constant tensor:
#      x y z
#    x 3.690600 2.561820 -1.055120 
#    y 2.561820 4.455650 -0.331780 
#    z -1.055120 -0.331780 2.014320 
# 
# From -- ./inp_files/73942.got.cif
#   From: 2010.05.17/outbox.cif.g08.bks.cpg/sg2_37_cif.got.tgz:73942.got - 2010.06.03 11:33:40.
