data_PCOD9018559
_publ_section_title
;
Structure prediction by ZEFSAII (Michael W. Deem and Ramdas Pophale) SiO2 
 PCOD9018559
Probable space group: P -1
;
_chemical_formula_sum "Si O2"
_cell_formula_units_Z 16
_cell_length_a 6.720789
_cell_length_b 14.492143
_cell_length_c 17.191673
_cell_angle_alpha 28.429261
_cell_angle_beta 108.580821
_cell_angle_gamma 121.607060
_cell_volume 635.757516
_symmetry_space_group_name_H-M "P -1"
_symmetry_group_IT_number 2
_symmetry_cell_setting 'triclinic'
loop_
_space_group_symop_operation_xyz
x,y,z
-x,-y,-z
loop_
_atom_site_type_symbol
_atom_site_label
_atom_site_fract_x
_atom_site_fract_y
_atom_site_fract_z
Si Si1 0.970161 0.126452 0.150464
Si Si2 0.238015 0.756776 0.659667
Si Si3 0.457538 0.669923 0.420779
Si Si4 0.706418 0.083546 0.897844
Si Si5 0.671919 0.295419 0.452012
Si Si6 0.224546 0.276414 0.906253
Si Si7 0.532277 0.776765 0.817397
Si Si8 0.843853 0.479878 0.918962
O O1 0.195688 0.176523 0.198284
O O2 0.737970 0.874066 0.325080
O O3 0.856715 0.285277 0.017682
O O4 0.090022 0.157088 0.058321
O O5 0.145817 0.670211 0.624468
O O6 0.353141 0.655834 0.810037
O O7 0.002692 0.709664 0.716821
O O8 0.500000 0.000000 0.500000
O O9 0.500000 0.500000 0.500000
O O10 0.329772 0.760688 0.281380
O O11 0.307891 0.612170 0.526294
O O12 0.983636 0.218442 0.867436
O O13 0.500000 0.000000 0.000000
O O14 0.664181 0.859556 0.015774
O O15 0.581263 0.447504 0.283124
O O16 0.545685 0.018458 0.653718
O O17 0.420585 0.628046 0.992736
O O18 0.000000 0.500000 0.000000
#
# Coordination Sequence:
#
# PCOD9018559 Si02
#       8
#     2   2   2   2   2   2   2   2
#     4  12  24  45  67 107 136 185 245 281 358 427
#     4   9  20  41  70 102 143 180 226 288 354 420
#     4  12  27  45  72 100 143 190 242 299 356 426
#     4  11  24  47  67  97 137 179 240 294 360 419
#     4  11  22  44  66 100 138 181 233 290 354 416
#     4  11  25  41  71  98 133 185 231 298 356 418
#     4  10  23  42  73 101 142 183 234 293 348 427
#     4  10  21  43  71  98 139 188 225 284 349 422
#
# _framework density 25.166829
#
# number of rings (size 3 to 8) (size 9 to 14) (size 15 to 20)
#    0.000    1.250    3.750    1.500    3.500    2.500 
#    0.000    1.875    0.000    0.000    0.000    0.000 
#    0.000    0.000    0.000    0.000    0.000    0.000 
#
# Total GULP energy -89096.679850 kJ/mol
# GULP energy per Si atom -5568.542491 kJ/mol
# Density = 2.510955 g / cm^3
# Si number density = 25.166829 Si / 1000 Ang^3
#
#
#
# Elastic Constant Matrix: (Units=GPa)
#
#
# Indices 1 2 3 4 5 6 
#
# 1 129.1226 46.0557 43.8973 8.4625 -14.2323 -2.8600
# 2 46.0557 66.3872 20.3483 22.8891 -13.4979 -19.9029
# 3 43.8973 20.3483 124.3684 9.9582 -20.0118 -24.1927
# 4 8.4625 22.8891 9.9582 57.6079 -18.7797 -6.7011
# 5 -14.2323 -13.4979 -20.0118 -18.7797 49.0711 3.9186
# 6 -2.8600 -19.9029 -24.1927 -6.7011 3.9186 59.0526
#
#
#
# Elastic Compliance Matrix: (Units=1/GPa)
#
#
# Indices 1 2 3 4 5 6 
#
# 1 0.011999 -0.008961 -0.003550 0.002214 0.000709 -0.003689
# 2 -0.008961 0.026317 0.001281 -0.007952 0.001483 0.007960
# 3 -0.003550 0.001281 0.010447 -0.000271 0.003136 0.004301
# 4 0.002214 -0.007952 -0.000271 0.022446 0.006983 -0.000600
# 5 0.000709 0.001483 0.003136 0.006983 0.024867 0.000961
# 6 -0.003689 0.007960 0.004301 -0.000600 0.000961 0.021068
#
#
# Mechanical properties :
#
#
# Convention : Reuss Voigt Hill
#
# Bulk Modulus (GPa) = 38.01890 60.05342 49.03616
# Shear Modulus (GPa) = 33.69902 47.11812 40.40857
#
# Velocity S-wave (km/s) = 3.66324 4.33162 4.01138
# Velocity P-wave (km/s) = 5.74734 6.99508 6.40169
#
# Compressibility (1/GPa) = 0.02630271
#
# Stress axis : x y z
#
# Youngs Moduli (GPa) = 83.33938 37.99822 95.72202
#
# Poissons Ratio (x) = 0.34051 0.33980
# Poissons Ratio (y) = 0.74683 -0.12262
# Poissons Ratio (z) = 0.29584 -0.04867
#
# Static dielectric constant tensor:
#      x y z
#    x 2.029940 0.001700 -0.009770 
#    y 0.001700 2.156810 -0.117810 
#    z -0.009770 -0.117810 2.124210 
# 
# From -- ./inp_files/550042.got.cif
#   From: 2010.05.17/outbox.cif.g08.bks.cpg/sg2_276_cif.got.tgz:550042.got - 2010.06.03 11:33:40.
