data_PCOD9018027
_publ_section_title
;
Structure prediction by ZEFSAII (Michael W. Deem and Ramdas Pophale) SiO2 
 PCOD9018027
Probable space group: P -1
;
_chemical_formula_sum "Si O2"
_cell_formula_units_Z 16
_cell_length_a 16.912210
_cell_length_b 6.487168
_cell_length_c 13.975131
_cell_angle_alpha 74.527092
_cell_angle_beta 33.346251
_cell_angle_gamma 58.759040
_cell_volume 673.889347
_symmetry_space_group_name_H-M "P -1"
_symmetry_group_IT_number 2
_symmetry_cell_setting 'triclinic'
loop_
_space_group_symop_operation_xyz
x,y,z
-x,-y,-z
loop_
_atom_site_type_symbol
_atom_site_label
_atom_site_fract_x
_atom_site_fract_y
_atom_site_fract_z
Si Si1 0.550937 0.324642 0.876005
Si Si2 0.653584 0.679702 0.676332
Si Si3 0.990608 0.557888 0.733243
Si Si4 0.354095 0.227948 0.849063
Si Si5 0.777969 0.825044 0.213283
Si Si6 0.745546 0.733048 0.790964
Si Si7 0.615620 0.250843 0.478740
Si Si8 0.950538 0.242654 0.181122
O O1 0.629751 0.444854 0.715363
O O2 0.681352 0.029976 0.811134
O O3 0.500000 0.500000 0.000000
O O4 0.384580 0.321213 0.013926
O O5 0.725898 0.663954 0.711753
O O6 0.803514 0.651363 0.459752
O O7 0.465412 0.945606 0.821096
O O8 0.919676 0.603361 0.691308
O O9 0.978967 0.789361 0.777812
O O10 0.836784 0.557605 0.944156
O O11 0.317996 0.183279 0.782177
O O12 0.496622 0.292457 0.684249
O O13 0.878719 0.540839 0.192494
O O14 0.663441 0.020490 0.386973
O O15 0.903627 0.901142 0.029859
O O16 0.500000 0.500000 0.500000
O O17 0.795543 0.207637 0.333388
#
# Coordination Sequence:
#
# PCOD9018027 Si02
#       8
#     2   2   2   2   2   2   2   2
#     4   9  19  39  69  95 128 172 223 272 328 389
#     4  11  24  43  69  97 136 181 223 274 330 396
#     4  11  24  42  66  97 137 177 223 274 333 387
#     4  11  24  44  67  99 135 176 222 281 329 401
#     4  10  22  45  66  94 135 169 219 278 339 405
#     4  10  21  43  67  99 137 176 222 276 331 393
#     4  12  24  41  70  97 129 177 222 273 348 402
#     4  10  23  43  67  96 131 173 223 279 333 404
#
# _framework density 23.742768999999999
#
# number of rings (size 3 to 8) (size 9 to 14) (size 15 to 20)
#    0.000    1.500    1.250    4.125    1.750    2.500 
#    2.250    8.750    0.000    0.000    0.000    0.000 
#    0.000    0.000    0.000    0.000    0.000    0.000 
#
# Total GULP energy -89237.156385 kJ/mol
# GULP energy per Si atom -5577.322274 kJ/mol
# Density = 2.368873 g / cm^3
# Si number density = 23.742769 Si / 1000 Ang^3
#
#
#
# Elastic Constant Matrix: (Units=GPa)
#
#
# Indices 1 2 3 4 5 6 
#
# 1 119.4868 6.3183 13.3351 -7.0011 -0.7013 0.0217
# 2 6.3183 71.2931 21.5703 -11.0641 0.4375 3.3185
# 3 13.3351 21.5703 156.6390 -10.3848 -3.7954 -0.2005
# 4 -7.0011 -11.0641 -10.3848 28.3882 4.8908 0.3412
# 5 -0.7013 0.4375 -3.7954 4.8908 34.2231 3.2074
# 6 0.0217 3.3185 -0.2005 0.3412 3.2074 20.2685
#
#
#
# Elastic Compliance Matrix: (Units=1/GPa)
#
#
# Indices 1 2 3 4 5 6 
#
# 1 0.008554 -0.000306 -0.000570 0.001807 -0.000145 0.000028
# 2 -0.000306 0.015574 -0.001778 0.005539 -0.000959 -0.002509
# 3 -0.000570 -0.001778 0.006794 0.001560 0.000518 0.000251
# 4 0.001807 0.005539 0.001560 0.039343 -0.005418 -0.000698
# 5 -0.000145 -0.000959 0.000518 -0.005418 0.030489 -0.004571
# 6 0.000028 -0.002509 0.000251 -0.000698 -0.004571 0.050486
#
#
# Mechanical properties :
#
#
# Convention : Reuss Voigt Hill
#
# Bulk Modulus (GPa) = 39.03993 47.76292 43.40143
# Shear Modulus (GPa) = 30.28752 36.98897 33.63824
#
# Velocity S-wave (km/s) = 3.57550 3.95131 3.76810
# Velocity P-wave (km/s) = 5.79001 6.40138 6.10335
#
# Compressibility (1/GPa) = 0.02561480
#
# Stress axis : x y z
#
# Youngs Moduli (GPa) = 116.90596 64.20992 147.19517
#
# Poissons Ratio (x) = 0.01963 0.08387
# Poissons Ratio (y) = 0.03574 0.26169
# Poissons Ratio (z) = 0.06661 0.11415
#
# Static dielectric constant tensor:
#      x y z
#    x 1.795090 0.114440 -0.033070 
#    y 0.114440 1.781430 0.000560 
#    z -0.033070 0.000560 1.983980 
# 
# From -- ./inp_files/536307.got.cif
#   From: 2010.05.17/outbox.cif.g08.bks.cpg/sg2_269_cif.got.tgz:536307.got - 2010.06.03 11:33:40.
