data_PCOD9018611
_publ_section_title
;
Structure prediction by ZEFSAII (Michael W. Deem and Ramdas Pophale) SiO2 
 PCOD9018611
Probable space group: P -1
;
_chemical_formula_sum "Si O2"
_cell_formula_units_Z 15
_cell_length_a 15.974902
_cell_length_b 6.290382
_cell_length_c 10.162506
_cell_angle_alpha 118.642066
_cell_angle_beta 45.580076
_cell_angle_gamma 127.896598
_cell_volume 573.351341
_symmetry_space_group_name_H-M "P -1"
_symmetry_group_IT_number 2
_symmetry_cell_setting 'triclinic'
loop_
_space_group_symop_operation_xyz
x,y,z
-x,-y,-z
loop_
_atom_site_type_symbol
_atom_site_label
_atom_site_fract_x
_atom_site_fract_y
_atom_site_fract_z
Si Si1 0.592362 0.786111 0.595183
Si Si2 0.872441 0.836951 0.678961
Si Si3 0.762882 0.612053 0.475707
Si Si4 0.500000 0.500000 0.000000
Si Si5 0.762513 0.082904 0.265143
Si Si6 0.349305 0.888837 0.887553
Si Si7 0.982667 0.196271 0.901852
Si Si8 0.288164 0.701154 0.187950
O O1 0.656899 0.854518 0.401158
O O2 0.671478 0.041326 0.683417
O O3 0.623881 0.554447 0.552908
O O4 0.449368 0.756891 0.734792
O O5 0.763137 0.737046 0.655847
O O6 0.844785 0.556451 0.696930
O O7 0.888468 0.044807 0.837572
O O8 0.000000 0.000000 0.500000
O O9 0.791103 0.357367 0.393903
O O10 0.879319 0.786811 0.296384
O O11 0.596139 0.390963 0.947643
O O12 0.430478 0.207736 0.917534
O O13 0.712349 0.140882 0.197935
O O14 0.890875 0.042569 0.080548
O O15 0.273752 0.767527 0.072086
O O16 0.000000 0.500000 0.000000
#
# Coordination Sequence:
#
# PCOD9018611 Si02
#       8
#     2   2   2   1   2   2   2   2
#     4  11  24  41  67 102 141 184 234 284 354 419
#     4  10  21  43  72  99 136 186 232 287 352 415
#     4  10  23  42  67  99 140 180 230 294 347 418
#     4  10  22  42  68  94 142 182 228 286 342 412
#     4  11  23  43  68  99 144 182 230 294 347 417
#     4  11  26  42  69 107 140 189 236 291 349 422
#     4   9  21  42  68  98 132 183 232 280 353 411
#     4  11  24  41  70 105 138 184 240 285 352 421
#
# _framework density 26.161971000000001
#
# number of rings (size 3 to 8) (size 9 to 14) (size 15 to 20)
#    0.000    1.600    1.333    2.800    5.600    3.200 
#    0.000    9.333    0.000    0.000    0.000    0.000 
#    0.000    0.000    0.000    0.000    0.000    0.000 
#
# Total GULP energy -83564.459136 kJ/mol
# GULP energy per Si atom -5570.963942 kJ/mol
# Density = 2.610243 g / cm^3
# Si number density = 26.161971 Si / 1000 Ang^3
#
#
#
# Elastic Constant Matrix: (Units=GPa)
#
#
# Indices 1 2 3 4 5 6 
#
# 1 93.6545 23.4670 19.8361 8.7731 15.1902 -11.2838
# 2 23.4670 74.3090 35.9901 9.2729 20.7789 10.0214
# 3 19.8361 35.9901 138.1755 4.0511 13.1029 -7.6706
# 4 8.7731 9.2729 4.0511 50.4898 -6.3181 8.0858
# 5 15.1902 20.7789 13.1029 -6.3181 36.4754 11.2200
# 6 -11.2838 10.0214 -7.6706 8.0858 11.2200 34.2663
#
#
#
# Elastic Compliance Matrix: (Units=1/GPa)
#
#
# Indices 1 2 3 4 5 6 
#
# 1 0.014196 -0.003064 0.000137 -0.004361 -0.007796 0.009183
# 2 -0.003064 0.019462 -0.004083 -0.002933 -0.007476 -0.004474
# 3 0.000137 -0.004083 0.008762 -0.000938 -0.002328 0.004184
# 4 -0.004361 -0.002933 -0.000938 0.024196 0.011136 -0.010144
# 5 -0.007796 -0.007476 -0.002328 0.011136 0.043115 -0.017647
# 6 0.009183 -0.004474 0.004184 -0.010144 -0.017647 0.042624
#
#
# Mechanical properties :
#
#
# Convention : Reuss Voigt Hill
#
# Bulk Modulus (GPa) = 35.21074 51.63616 43.42345
# Shear Modulus (GPa) = 28.43487 39.36934 33.90211
#
# Velocity S-wave (km/s) = 3.30036 3.88342 3.60370
# Velocity P-wave (km/s) = 5.29255 6.31569 5.82662
#
# Compressibility (1/GPa) = 0.02840042
#
# Stress axis : x y z
#
# Youngs Moduli (GPa) = 70.44462 51.38116 114.13529
#
# Poissons Ratio (x) = 0.15741 -0.01564
# Poissons Ratio (y) = 0.21581 0.46601
# Poissons Ratio (z) = -0.00965 0.20979
#
# Static dielectric constant tensor:
#      x y z
#    x 2.150840 0.150850 -0.092740 
#    y 0.150850 2.606420 -0.136970 
#    z -0.092740 -0.136970 2.257490 
# 
# From -- ./inp_files/54977.got.cif
#   From: 2010.05.17/outbox.cif.g08.bks.cpg/sg2_28_cif.got.tgz:54977.got - 2010.06.03 11:33:40.
