data_PCOD9018105
_publ_section_title
;
Structure prediction by ZEFSAII (Michael W. Deem and Ramdas Pophale) SiO2 
 PCOD9018105
Probable space group: P -1
;
_chemical_formula_sum "Si O2"
_cell_formula_units_Z 15
_cell_length_a 6.807274
_cell_length_b 15.664673
_cell_length_c 11.882919
_cell_angle_alpha 142.014200
_cell_angle_beta 101.322520
_cell_angle_gamma 97.393611
_cell_volume 675.110834
_symmetry_space_group_name_H-M "P -1"
_symmetry_group_IT_number 2
_symmetry_cell_setting 'triclinic'
loop_
_space_group_symop_operation_xyz
x,y,z
-x,-y,-z
loop_
_atom_site_type_symbol
_atom_site_label
_atom_site_fract_x
_atom_site_fract_y
_atom_site_fract_z
Si Si1 0.598815 0.255653 0.482791
Si Si2 0.379664 0.927506 0.027442
Si Si3 0.655251 0.561495 0.269371
Si Si4 0.940353 0.353890 0.421659
Si Si5 0.472545 0.198833 0.895880
Si Si6 0.747215 0.089048 0.674300
Si Si7 0.002266 0.343984 0.788496
Si Si8 0.000000 0.000000 0.500000
O O1 0.499663 0.360457 0.635149
O O2 0.730122 0.322349 0.448842
O O3 0.789888 0.262767 0.596684
O O4 0.410314 0.075619 0.258345
O O5 0.517491 0.851153 0.027406
O O6 0.135035 0.794005 0.823919
O O7 0.500000 0.000000 0.000000
O O8 0.854466 0.616683 0.442143
O O9 0.772350 0.605297 0.205420
O O10 0.514559 0.374117 0.067688
O O11 0.000000 0.500000 0.500000
O O12 0.699443 0.192257 0.866177
O O13 0.243016 0.083855 0.687438
O O14 0.948160 0.205687 0.730353
O O15 0.847285 0.969453 0.572476
O O16 0.500000 0.000000 0.500000
O O17 0.000000 0.500000 0.000000
#
# Coordination Sequence:
#
# PCOD9018105 Si02
#       8
#     2   2   2   2   2   2   2   1
#     4  10  24  41  64  98 133 173 227 275 333 406
#     4  10  22  46  69  90 133 178 217 281 338 390
#     4  11  24  40  68 101 130 175 230 279 338 400
#     4  10  21  43  68  93 129 172 221 282 339 388
#     4  11  22  42  66  96 136 177 223 276 339 399
#     4  10  22  41  62  92 130 178 218 271 329 396
#     4  11  23  41  64  92 139 179 218 271 336 398
#     4  10  24  38  66  98 132 172 228 266 332 406
#
# _framework density 22.218575000000001
#
# number of rings (size 3 to 8) (size 9 to 14) (size 15 to 20)
#    0.000    1.600    2.667    1.600    1.867    4.800 
#    0.000    0.000    0.000    0.000    0.000    0.000 
#    0.000    0.000    0.000    0.000    0.000    0.000 
#
# Total GULP energy -83536.014597 kJ/mol
# GULP energy per Si atom -5569.067640 kJ/mol
# Density = 2.216800 g / cm^3
# Si number density = 22.218575 Si / 1000 Ang^3
#
#
#
# Elastic Constant Matrix: (Units=GPa)
#
#
# Indices 1 2 3 4 5 6 
#
# 1 121.9725 17.7913 17.9004 -0.0267 -10.8975 19.6095
# 2 17.7913 117.0708 20.1306 5.5877 4.2173 0.8390
# 3 17.9004 20.1306 118.7145 11.1476 2.6211 6.9624
# 4 -0.0267 5.5877 11.1476 32.6169 -4.8183 -2.3231
# 5 -10.8975 4.2173 2.6211 -4.8183 38.8975 -2.6250
# 6 19.6095 0.8390 6.9624 -2.3231 -2.6250 15.1424
#
#
#
# Elastic Compliance Matrix: (Units=1/GPa)
#
#
# Indices 1 2 3 4 5 6 
#
# 1 0.010862 -0.001524 -0.000640 -0.000113 0.002340 -0.013299
# 2 -0.001524 0.009086 -0.001262 -0.001212 -0.001367 0.001628
# 3 -0.000640 -0.001262 0.009335 -0.003476 -0.001383 -0.004166
# 4 -0.000113 -0.001212 -0.003476 0.033347 0.004991 0.007793
# 5 0.002340 -0.001367 -0.001383 0.004991 0.027440 0.003204
# 6 -0.013299 0.001628 -0.004166 0.007793 0.003204 0.086839
#
#
# Mechanical properties :
#
#
# Convention : Reuss Voigt Hill
#
# Bulk Modulus (GPa) = 44.58417 52.15582 48.36999
# Shear Modulus (GPa) = 26.14520 37.46040 31.80280
#
# Velocity S-wave (km/s) = 3.43407 4.11054 3.78744
# Velocity P-wave (km/s) = 5.98611 6.78628 6.39872
#
# Compressibility (1/GPa) = 0.02242949
#
# Stress axis : x y z
#
# Youngs Moduli (GPa) = 92.06379 110.05952 107.11818
#
# Poissons Ratio (x) = 0.16775 0.06861
# Poissons Ratio (y) = 0.14032 0.13522
# Poissons Ratio (z) = 0.05897 0.13893
#
# Static dielectric constant tensor:
#      x y z
#    x 1.583070 0.149760 0.204050 
#    y 0.149760 1.839000 -0.168250 
#    z 0.204050 -0.168250 1.523750 
# 
# From -- ./inp_files/369177.got.cif
#   From: 2010.05.17/outbox.cif.g08.bks.cpg/sg2_185_cif.got.tgz:369177.got - 2010.06.03 11:33:40.
