data_PCOD9018634
_publ_section_title
;
Structure prediction by ZEFSAII (Michael W. Deem and Ramdas Pophale) SiO2 
 PCOD9018634
Probable space group: P -1
;
_chemical_formula_sum "Si O2"
_cell_formula_units_Z 14
_cell_length_a 12.394309
_cell_length_b 7.003397
_cell_length_c 9.190584
_cell_angle_alpha 125.285182
_cell_angle_beta 58.671300
_cell_angle_gamma 100.739199
_cell_volume 548.771712
_symmetry_space_group_name_H-M "P -1"
_symmetry_group_IT_number 2
_symmetry_cell_setting 'triclinic'
loop_
_space_group_symop_operation_xyz
x,y,z
-x,-y,-z
loop_
_atom_site_type_symbol
_atom_site_label
_atom_site_fract_x
_atom_site_fract_y
_atom_site_fract_z
Si Si1 0.955075 0.805872 0.767507
Si Si2 0.618778 0.162837 0.308600
Si Si3 0.759274 0.362231 0.543914
Si Si4 0.654657 0.631821 0.312808
Si Si5 0.375464 0.646977 0.075676
Si Si6 0.313154 0.114791 0.145453
Si Si7 0.915140 0.729977 0.092612
O O1 0.090111 0.635259 0.572480
O O2 0.005759 0.056171 0.851364
O O3 0.098336 0.275256 0.076522
O O4 0.840367 0.858134 0.755323
O O5 0.714204 0.174192 0.381893
O O6 0.646142 0.398601 0.310355
O O7 0.474953 0.193712 0.482106
O O8 0.640636 0.957463 0.082997
O O9 0.729587 0.304561 0.704014
O O10 0.673574 0.623336 0.692727
O O11 0.784050 0.738097 0.279047
O O12 0.655836 0.528326 0.104566
O O13 0.377438 0.900605 0.108277
O O14 0.500000 0.500000 0.000000
O O15 0.000000 0.500000 0.000000
#
# Coordination Sequence:
#
# PCOD9018634 Si02
#       7
#     2   2   2   2   2   2   2
#     4  11  25  45  69 111 150 193 256 304 358 458
#     4  10  22  45  72 108 146 187 250 297 366 458
#     4  12  25  46  75 106 150 195 246 305 374 440
#     4  10  21  43  73 105 147 190 238 309 373 435
#     4  11  24  46  69 110 148 184 253 308 363 454
#     4  11  26  48  75 104 152 200 238 313 377 430
#     4  11  22  43  76 109 148 197 248 307 374 434
#
# _framework density 25.511519
#
# number of rings (size 3 to 8) (size 9 to 14) (size 15 to 20)
#    0.000    1.143    1.429    5.571    0.000    3.429 
#    2.571    3.571    0.000    0.000    0.000    0.000 
#    0.000    0.000    0.000    0.000    0.000    0.000 
#
# Total GULP energy -78392.512946 kJ/mol
# GULP energy per Si atom -5599.465210 kJ/mol
# Density = 2.545345 g / cm^3
# Si number density = 25.511519 Si / 1000 Ang^3
#
#
#
# Elastic Constant Matrix: (Units=GPa)
#
#
# Indices 1 2 3 4 5 6 
#
# 1 128.3867 40.2176 41.5639 -5.9140 -17.3875 0.1757
# 2 40.2176 166.1372 34.7553 1.3005 -21.4509 -22.0309
# 3 41.5639 34.7553 142.1647 -4.7371 -14.5992 3.8047
# 4 -5.9140 1.3005 -4.7371 47.6607 4.8937 -13.5471
# 5 -17.3875 -21.4509 -14.5992 4.8937 46.2459 -6.4730
# 6 0.1757 -22.0309 3.8047 -13.5471 -6.4730 41.3249
#
#
#
# Elastic Compliance Matrix: (Units=1/GPa)
#
#
# Indices 1 2 3 4 5 6 
#
# 1 0.009263 -0.001569 -0.002091 0.000743 0.001998 -0.000127
# 2 -0.001569 0.007718 -0.001209 0.000539 0.003239 0.004917
# 3 -0.002091 -0.001209 0.008082 0.000138 0.001026 -0.001174
# 4 0.000743 0.000539 0.000138 0.023375 -0.000808 0.007808
# 5 0.001998 0.003239 0.001026 -0.000808 0.025025 0.005279
# 6 -0.000127 0.004917 -0.001174 0.007808 0.005279 0.030315
#
#
# Mechanical properties :
#
#
# Convention : Reuss Voigt Hill
#
# Bulk Modulus (GPa) = 65.25706 74.41801 69.83753
# Shear Modulus (GPa) = 42.14962 48.38976 45.26969
#
# Velocity S-wave (km/s) = 4.06911 4.35993 4.21703
# Velocity P-wave (km/s) = 6.90738 7.38776 7.15160
#
# Compressibility (1/GPa) = 0.01532401
#
# Stress axis : x y z
#
# Youngs Moduli (GPa) = 107.96158 129.56761 123.72697
#
# Poissons Ratio (x) = 0.20335 0.25871
# Poissons Ratio (y) = 0.16944 0.14958
# Poissons Ratio (z) = 0.22575 0.15664
#
# Static dielectric constant tensor:
#      x y z
#    x 2.027240 -0.018080 -0.001590 
#    y -0.018080 2.006140 0.029970 
#    z -0.001590 0.029970 2.037840 
# 
# From -- ./inp_files/293370.got.cif
#   From: 2010.05.17/outbox.cif.g08.bks.cpg/sg2_147_cif.got.tgz:293370.got - 2010.06.03 11:33:40.
