data_PCOD9018996
_publ_section_title
;
Structure prediction by ZEFSAII (Michael W. Deem and Ramdas Pophale) SiO2 
 PCOD9018996
Probable space group: P -1
;
_chemical_formula_sum "Si O2"
_cell_formula_units_Z 15
_cell_length_a 12.342002
_cell_length_b 12.285959
_cell_length_c 12.594955
_cell_angle_alpha 33.192950
_cell_angle_beta 115.666914
_cell_angle_gamma 135.767028
_cell_volume 656.420785
_symmetry_space_group_name_H-M "P -1"
_symmetry_group_IT_number 2
_symmetry_cell_setting 'triclinic'
loop_
_space_group_symop_operation_xyz
x,y,z
-x,-y,-z
loop_
_atom_site_type_symbol
_atom_site_label
_atom_site_fract_x
_atom_site_fract_y
_atom_site_fract_z
Si Si1 0.960635 0.724196 0.983776
Si Si2 0.500000 0.500000 0.500000
Si Si3 0.485487 0.463263 0.897091
Si Si4 0.720018 0.916992 0.447747
Si Si5 0.841689 0.659916 0.203695
Si Si6 0.348622 0.711388 0.938965
Si Si7 0.805865 0.606524 0.463375
Si Si8 0.897093 0.526229 0.785432
O O1 0.884639 0.578465 0.186236
O O2 0.072116 0.673322 0.029835
O O3 0.798190 0.565029 0.969875
O O4 0.074312 0.055146 0.766761
O O5 0.649536 0.707653 0.489277
O O6 0.616168 0.463752 0.523709
O O7 0.640725 0.739220 0.668174
O O8 0.321397 0.394488 0.846439
O O9 0.485199 0.229704 0.053672
O O10 0.500000 0.500000 0.000000
O O11 0.928466 0.168851 0.342235
O O12 0.655730 0.068249 0.283104
O O13 0.816063 0.526931 0.414836
O O14 0.000000 0.000000 0.000000
O O15 0.271842 0.621181 0.098296
O O16 0.869231 0.547286 0.634570
#
# Coordination Sequence:
#
# PCOD9018996 Si02
#       8
#     2   1   2   2   2   2   2   2
#     4  10  21  44  67  92 136 175 226 280 315 400
#     4  12  22  42  64  94 144 166 208 286 340 380
#     4  12  24  45  71  99 130 180 226 273 338 397
#     4  11  25  44  69 102 137 175 220 285 332 395
#     4  10  23  44  65  94 134 178 221 276 333 390
#     4  11  23  43  71 102 134 171 232 278 324 403
#     4  11  23  41  65  95 134 178 219 274 333 389
#     4  11  24  42  71 102 127 185 229 259 338 404
#
# _framework density 22.851196000000002
#
# number of rings (size 3 to 8) (size 9 to 14) (size 15 to 20)
#    0.000    1.067    2.667    4.800    1.867    2.667 
#    4.800    2.000    0.000    0.000    0.000    0.000 
#    0.000    0.000    0.000    0.000    0.000    0.000 
#
# Total GULP energy -83644.655733 kJ/mol
# GULP energy per Si atom -5576.310382 kJ/mol
# Density = 2.279919 g / cm^3
# Si number density = 22.851196 Si / 1000 Ang^3
#
#
#
# Elastic Constant Matrix: (Units=GPa)
#
#
# Indices 1 2 3 4 5 6 
#
# 1 92.1339 7.5899 23.4569 13.5016 -12.3440 -18.0979
# 2 7.5899 66.5405 35.8895 33.2805 -3.3961 -5.2409
# 3 23.4569 35.8895 103.5229 32.5094 -8.4808 -6.7792
# 4 13.5016 33.2805 32.5094 33.4796 -13.1131 -10.5022
# 5 -12.3440 -3.3961 -8.4808 -13.1131 23.6740 11.4443
# 6 -18.0979 -5.2409 -6.7792 -10.5022 11.4443 18.9435
#
#
#
# Elastic Compliance Matrix: (Units=1/GPa)
#
#
# Indices 1 2 3 4 5 6 
#
# 1 0.013933 0.000582 -0.002663 0.000555 0.000708 0.012399
# 2 0.000582 0.035390 -0.000698 -0.042311 -0.016735 -0.003249
# 3 -0.002663 -0.000698 0.014654 -0.014706 -0.002338 -0.004233
# 4 0.000555 -0.042311 -0.014706 0.107383 0.038984 0.019544
# 5 0.000708 -0.016735 -0.002338 0.038984 0.074627 -0.028262
# 6 0.012399 -0.003249 -0.004233 0.019544 -0.028262 0.090129
#
#
# Mechanical properties :
#
#
# Convention : Reuss Voigt Hill
#
# Bulk Modulus (GPa) = 17.11754 44.00777 30.56265
# Shear Modulus (GPa) = 13.84475 28.23682 21.04078
#
# Velocity S-wave (km/s) = 2.46410 3.51904 3.03772
# Velocity P-wave (km/s) = 3.95005 5.98429 5.07024
#
# Compressibility (1/GPa) = 0.05841962
#
# Stress axis : x y z
#
# Youngs Moduli (GPa) = 71.77251 28.25633 68.23890
#
# Poissons Ratio (x) = -0.01645 0.18174
# Poissons Ratio (y) = -0.04179 0.04762
# Poissons Ratio (z) = 0.19115 0.01972
#
# Static dielectric constant tensor:
#      x y z
#    x 1.852100 -0.011070 -0.025180 
#    y -0.011070 1.865230 -0.020990 
#    z -0.025180 -0.020990 1.899580 
# 
# From -- ./inp_files/425127.got.cif
#   From: 2010.05.17/outbox.cif.g08.bks.cpg/sg2_213_cif.got.tgz:425127.got - 2010.06.03 11:33:40.
