data_PCOD9018492
_publ_section_title
;
Structure prediction by ZEFSAII (Michael W. Deem and Ramdas Pophale) SiO2 
 PCOD9018492
Probable space group: P -1
;
_chemical_formula_sum "Si O2"
_cell_formula_units_Z 14
_cell_length_a 5.540442
_cell_length_b 9.491162
_cell_length_c 15.582433
_cell_angle_alpha 61.375482
_cell_angle_beta 76.802372
_cell_angle_gamma 51.000946
_cell_volume 555.749969
_symmetry_space_group_name_H-M "P -1"
_symmetry_group_IT_number 2
_symmetry_cell_setting 'triclinic'
loop_
_space_group_symop_operation_xyz
x,y,z
-x,-y,-z
loop_
_atom_site_type_symbol
_atom_site_label
_atom_site_fract_x
_atom_site_fract_y
_atom_site_fract_z
Si Si1 0.938978 0.758660 0.758711
Si Si2 0.265256 0.380741 0.755205
Si Si3 0.207490 0.963662 0.588989
Si Si4 0.834947 0.394411 0.045695
Si Si5 0.366595 0.636702 0.557621
Si Si6 0.731142 0.930741 0.258377
Si Si7 0.837749 0.033502 0.911530
O O1 0.954548 0.584841 0.758058
O O2 0.995797 0.898106 0.660638
O O3 0.207875 0.641383 0.841624
O O4 0.617927 0.897461 0.794169
O O5 0.416999 0.477808 0.669957
O O6 0.486033 0.220831 0.858410
O O7 0.202628 0.276002 0.716882
O O8 0.448147 0.774358 0.560782
O O9 0.297959 0.019712 0.652641
O O10 0.987302 0.174725 0.494979
O O11 0.500000 0.500000 0.000000
O O12 0.086189 0.181032 0.043589
O O13 0.000000 0.500000 0.000000
O O14 0.500000 0.500000 0.500000
O O15 0.966321 0.950985 0.182831
O O16 0.000000 0.000000 0.000000
#
# Coordination Sequence:
#
# PCOD9018492 Si02
#       7
#     2   2   2   2   2   2   2
#     4  11  24  45  69 101 144 191 244 299 377 437
#     4  11  26  44  70 105 144 187 243 310 370 451
#     4  10  23  43  71 100 143 190 238 300 368 454
#     4  12  26  45  73 106 145 198 255 314 380 455
#     4  10  21  43  71 103 140 186 239 298 376 448
#     4  12  23  45  72 102 145 191 241 308 371 447
#     4  12  27  47  71 104 147 194 249 312 378 447
#
# _framework density 25.191188
#
# number of rings (size 3 to 8) (size 9 to 14) (size 15 to 20)
#    0.000    0.857    2.857    3.429    2.000    4.571 
#    0.000   11.429    0.000    0.000    0.000    0.000 
#    0.000    0.000    0.000    0.000    0.000    0.000 
#
# Total GULP energy -78160.109531 kJ/mol
# GULP energy per Si atom -5582.864966 kJ/mol
# Density = 2.513385 g / cm^3
# Si number density = 25.191188 Si / 1000 Ang^3
#
#
#
# Elastic Constant Matrix: (Units=GPa)
#
#
# Indices 1 2 3 4 5 6 
#
# 1 90.9203 33.1499 39.3835 -10.5573 3.0955 22.4218
# 2 33.1499 172.9680 30.9430 -11.2636 -7.1454 52.2059
# 3 39.3835 30.9430 131.1604 -6.7508 21.2753 13.7304
# 4 -10.5573 -11.2636 -6.7508 49.1220 13.3765 1.9295
# 5 3.0955 -7.1454 21.2753 13.3765 36.5122 14.8974
# 6 22.4218 52.2059 13.7304 1.9295 14.8974 50.8522
#
#
#
# Elastic Compliance Matrix: (Units=1/GPa)
#
#
# Indices 1 2 3 4 5 6 
#
# 1 0.014416 0.000151 -0.004092 0.001986 0.003067 -0.006380
# 2 0.000151 0.010350 -0.002548 0.000228 0.008517 -0.012508
# 3 -0.004092 -0.002548 0.010567 0.002219 -0.008776 0.004053
# 4 0.001986 0.000228 0.002219 0.023946 -0.010360 0.000418
# 5 0.003067 0.008517 -0.008776 -0.010360 0.046221 -0.020874
# 6 -0.006380 -0.012508 0.004053 0.000418 -0.020874 0.040324
#
#
# Mechanical properties :
#
#
# Convention : Reuss Voigt Hill
#
# Bulk Modulus (GPa) = 44.72955 66.88905 55.80930
# Shear Modulus (GPa) = 30.07464 46.73545 38.40505
#
# Velocity S-wave (km/s) = 3.45897 4.31191 3.90878
# Velocity P-wave (km/s) = 5.80923 7.16940 6.52486
#
# Compressibility (1/GPa) = 0.02235659
#
# Stress axis : x y z
#
# Youngs Moduli (GPa) = 69.36972 96.61675 94.63176
#
# Poissons Ratio (x) = -0.01458 0.38719
# Poissons Ratio (y) = -0.01047 0.24108
# Poissons Ratio (z) = 0.28383 0.24613
#
# Static dielectric constant tensor:
#      x y z
#    x 2.042110 -0.011490 -0.048460 
#    y -0.011490 2.049190 0.055590 
#    z -0.048460 0.055590 2.029390 
# 
# From -- ./inp_files/547883.got.cif
#   From: 2010.05.17/outbox.cif.g08.bks.cpg/sg2_274_cif.got.tgz:547883.got - 2010.06.03 11:33:40.
