data_PCOD9018235
_publ_section_title
;
Structure prediction by ZEFSAII (Michael W. Deem and Ramdas Pophale) SiO2 
 PCOD9018235
Probable space group: P -1
;
_chemical_formula_sum "Si O2"
_cell_formula_units_Z 14
_cell_length_a 20.378153
_cell_length_b 20.347925
_cell_length_c 9.831568
_cell_angle_alpha 43.611208
_cell_angle_beta 34.387477
_cell_angle_gamma 15.857669
_cell_volume 561.128278
_symmetry_space_group_name_H-M "P -1"
_symmetry_group_IT_number 2
_symmetry_cell_setting 'triclinic'
loop_
_space_group_symop_operation_xyz
x,y,z
-x,-y,-z
loop_
_atom_site_type_symbol
_atom_site_label
_atom_site_fract_x
_atom_site_fract_y
_atom_site_fract_z
Si Si1 0.838877 0.030466 0.796825
Si Si2 0.062267 0.678583 0.824925
Si Si3 0.814412 0.459650 0.681306
Si Si4 0.868837 0.705618 0.366696
Si Si5 0.781739 0.206386 0.264135
Si Si6 0.199413 0.440504 0.712007
Si Si7 0.966910 0.889303 0.294384
O O1 0.808039 0.958701 0.869936
O O2 0.088372 0.819092 0.810803
O O3 0.000000 0.000000 0.500000
O O4 0.500645 0.311996 0.028339
O O5 0.407981 0.468169 0.536238
O O6 0.012520 0.662487 0.792797
O O7 0.071255 0.597961 0.056673
O O8 0.101675 0.253575 0.607383
O O9 0.000000 0.500000 0.500000
O O10 0.796378 0.560543 0.457468
O O11 0.843253 0.354611 0.677159
O O12 0.500000 0.000000 0.500000
O O13 0.973020 0.957164 0.308215
O O14 0.866222 0.183986 0.007437
O O15 0.582478 0.159353 0.521808
O O16 0.000000 0.500000 0.000000
#
# Coordination Sequence:
#
# PCOD9018235 Si02
#       7
#     2   2   2   2   2   2   2
#     4  12  24  41  74 115 155 200 256 320 398 474
#     4  11  25  46  75 113 158 201 267 326 393 470
#     4  12  26  45  76 104 150 199 258 316 389 464
#     4  12  28  50  78 109 156 210 267 328 394 468
#     4  10  21  43  69 104 153 189 247 318 390 460
#     4  11  26  48  73 106 150 201 265 321 389 460
#     4  10  23  43  71 103 145 194 249 316 387 467
#
# _framework density 24.949732999999998
#
# number of rings (size 3 to 8) (size 9 to 14) (size 15 to 20)
#    0.000    0.857    1.429    4.714    6.000    1.143 
#    2.571    0.000    0.000    0.000    0.000    0.000 
#    0.000    0.000    0.000    0.000    0.000    0.000 
#
# Total GULP energy -78259.922792 kJ/mol
# GULP energy per Si atom -5589.994485 kJ/mol
# Density = 2.489295 g / cm^3
# Si number density = 24.949733 Si / 1000 Ang^3
#
#
#
# Elastic Constant Matrix: (Units=GPa)
#
#
# Indices 1 2 3 4 5 6 
#
# 1 121.3254 36.5644 34.1284 5.2922 6.5857 10.1625
# 2 36.5644 77.4523 58.1748 -1.6888 -2.2741 15.1415
# 3 34.1284 58.1748 171.6984 -7.2320 2.1915 -4.7489
# 4 5.2922 -1.6888 -7.2320 33.3530 -4.8166 -0.6494
# 5 6.5857 -2.2741 2.1915 -4.8166 36.8275 9.2401
# 6 10.1625 15.1415 -4.7489 -0.6494 9.2401 45.5441
#
#
#
# Elastic Compliance Matrix: (Units=1/GPa)
#
#
# Indices 1 2 3 4 5 6 
#
# 1 0.009955 -0.004262 -0.000614 -0.002253 -0.002187 -0.000457
# 2 -0.004262 0.021678 -0.006740 0.000821 0.004586 -0.007877
# 3 -0.000614 -0.006740 0.008408 0.001430 -0.001519 0.003583
# 4 -0.002253 0.000821 0.001430 0.031338 0.004489 -0.000085
# 5 -0.002187 0.004586 -0.001519 0.004489 0.030333 -0.007285
# 6 -0.000457 -0.007877 0.003583 -0.000085 -0.007285 0.026528
#
#
# Mechanical properties :
#
#
# Convention : Reuss Voigt Hill
#
# Bulk Modulus (GPa) = 59.49111 69.80127 64.64619
# Shear Modulus (GPa) = 31.83184 39.25216 35.54200
#
# Velocity S-wave (km/s) = 3.57576 3.97072 3.77841
# Velocity P-wave (km/s) = 6.39877 7.00426 6.70835
#
# Compressibility (1/GPa) = 0.01680923
#
# Stress axis : x y z
#
# Youngs Moduli (GPa) = 100.45334 46.12974 118.92817
#
# Poissons Ratio (x) = 0.19662 0.07304
# Poissons Ratio (y) = 0.42816 0.80152
# Poissons Ratio (z) = 0.06170 0.31089
#
# Static dielectric constant tensor:
#      x y z
#    x 1.846580 0.005230 0.094420 
#    y 0.005230 2.120500 0.014660 
#    z 0.094420 0.014660 2.146290 
# 
# From -- ./inp_files/349466.got.cif
#   From: 2010.05.17/outbox.cif.g08.bks.cpg/sg2_175_cif.got.tgz:349466.got - 2010.06.03 11:33:40.
