data_PCOD9018356
_publ_section_title
;
Structure prediction by ZEFSAII (Michael W. Deem and Ramdas Pophale) SiO2 
 PCOD9018356
Probable space group: P -1
;
_chemical_formula_sum "Si O2"
_cell_formula_units_Z 14
_cell_length_a 9.176833
_cell_length_b 12.026947
_cell_length_c 14.281266
_cell_angle_alpha 150.544847
_cell_angle_beta 119.526347
_cell_angle_gamma 48.616824
_cell_volume 566.715162
_symmetry_space_group_name_H-M "P -1"
_symmetry_group_IT_number 2
_symmetry_cell_setting 'triclinic'
loop_
_space_group_symop_operation_xyz
x,y,z
-x,-y,-z
loop_
_atom_site_type_symbol
_atom_site_label
_atom_site_fract_x
_atom_site_fract_y
_atom_site_fract_z
Si Si1 0.466252 0.725225 0.228701
Si Si2 0.038170 0.261023 0.522029
Si Si3 0.114829 0.143937 0.113768
Si Si4 0.430256 0.119932 0.908163
Si Si5 0.450071 0.569571 0.317596
Si Si6 0.735671 0.171291 0.255641
Si Si7 0.228269 0.173093 0.699129
O O1 0.514426 0.592895 0.249898
O O2 0.611592 0.817394 0.309674
O O3 0.243499 0.988975 0.355520
O O4 0.500000 0.500000 0.000000
O O5 0.042948 0.294755 0.660549
O O6 0.003109 0.537642 0.672932
O O7 0.872069 0.209696 0.397114
O O8 0.334038 0.010934 0.133845
O O9 0.151833 0.072577 0.962270
O O10 0.000000 0.000000 0.000000
O O11 0.270334 0.256408 0.873262
O O12 0.408266 0.893169 0.782285
O O13 0.381405 0.362012 0.138533
O O14 0.625295 0.434767 0.348982
O O15 0.290373 0.870654 0.514490
#
# Coordination Sequence:
#
# PCOD9018356 Si02
#       7
#     2   2   2   2   2   2   2
#     4  11  24  45  74 103 147 187 242 300 370 420
#     4  11  27  44  70 113 141 189 244 305 349 432
#     4  11  27  45  75 109 148 184 241 306 357 420
#     4  11  25  48  73 104 145 201 232 293 362 436
#     4  10  21  43  70 101 133 191 234 293 353 425
#     4  11  27  46  73 105 151 189 245 290 362 431
#     4  11  25  42  72 101 145 187 239 291 367 425
#
# _framework density 24.703769999999999
#
# number of rings (size 3 to 8) (size 9 to 14) (size 15 to 20)
#    0.000    1.143    1.429    4.286   12.000    4.571 
#    0.000    6.429    0.000    0.000    0.000    0.000 
#    0.000    0.000    0.000    0.000    0.000    0.000 
#
# Total GULP energy -78315.178797 kJ/mol
# GULP energy per Si atom -5593.941343 kJ/mol
# Density = 2.464754 g / cm^3
# Si number density = 24.703770 Si / 1000 Ang^3
#
#
#
# Elastic Constant Matrix: (Units=GPa)
#
#
# Indices 1 2 3 4 5 6 
#
# 1 111.2213 42.7863 31.6145 6.4234 19.6250 1.2345
# 2 42.7863 118.5937 50.9947 -16.8628 12.6303 -3.2222
# 3 31.6145 50.9947 121.7435 9.5827 20.0390 -17.7959
# 4 6.4234 -16.8628 9.5827 62.8116 2.1144 4.4306
# 5 19.6250 12.6303 20.0390 2.1144 37.6402 -2.9993
# 6 1.2345 -3.2222 -17.7959 4.4306 -2.9993 27.6697
#
#
#
# Elastic Compliance Matrix: (Units=1/GPa)
#
#
# Indices 1 2 3 4 5 6 
#
# 1 0.011517 -0.003611 -0.000868 -0.001749 -0.004367 -0.001686
# 2 -0.003611 0.012487 -0.004985 0.004651 -0.000101 -0.002347
# 3 -0.000868 -0.004985 0.012551 -0.003581 -0.003742 0.007698
# 4 -0.001749 0.004651 -0.003581 0.018225 -0.000134 -0.004616
# 5 -0.004367 -0.000101 -0.003742 -0.000134 0.030970 0.001155
# 6 -0.001686 -0.002347 0.007698 -0.004616 0.001155 0.041758
#
#
# Mechanical properties :
#
#
# Convention : Reuss Voigt Hill
#
# Bulk Modulus (GPa) = 56.73473 66.92774 61.83123
# Shear Modulus (GPa) = 32.82737 40.70185 36.76461
#
# Velocity S-wave (km/s) = 3.64928 4.06346 3.86193
# Velocity P-wave (km/s) = 6.38531 7.01189 6.70592
#
# Compressibility (1/GPa) = 0.01762589
#
# Stress axis : x y z
#
# Youngs Moduli (GPa) = 86.82507 80.08333 79.67759
#
# Poissons Ratio (x) = 0.28921 0.06917
# Poissons Ratio (y) = 0.31356 0.39720
# Poissons Ratio (z) = 0.07538 0.39922
#
# Static dielectric constant tensor:
#      x y z
#    x 1.994610 -0.031570 -0.031620 
#    y -0.031570 2.009470 -0.022270 
#    z -0.031620 -0.022270 1.975030 
# 
# From -- ./inp_files/501287.got.cif
#   From: 2010.05.17/outbox.cif.g08.bks.cpg/sg2_251_cif.got.tgz:501287.got - 2010.06.03 11:33:40.
