data_PCOD9018590
_publ_section_title
;
Structure prediction by ZEFSAII (Michael W. Deem and Ramdas Pophale) SiO2 
 PCOD9018590
Probable space group: P -1
;
_chemical_formula_sum "Si O2"
_cell_formula_units_Z 16
_cell_length_a 6.571661
_cell_length_b 10.938697
_cell_length_c 14.016096
_cell_angle_alpha 54.457337
_cell_angle_beta 82.675066
_cell_angle_gamma 108.092608
_cell_volume 714.828480
_symmetry_space_group_name_H-M "P -1"
_symmetry_group_IT_number 2
_symmetry_cell_setting 'triclinic'
loop_
_space_group_symop_operation_xyz
x,y,z
-x,-y,-z
loop_
_atom_site_type_symbol
_atom_site_label
_atom_site_fract_x
_atom_site_fract_y
_atom_site_fract_z
Si Si1 0.209665 0.760791 0.580426
Si Si2 0.430613 0.033886 0.301701
Si Si3 0.832386 0.241196 0.714240
Si Si4 0.937349 0.303120 0.081106
Si Si5 0.560583 0.463644 0.283933
Si Si6 0.829175 0.759910 0.733406
Si Si7 0.798311 0.569649 0.538352
Si Si8 0.990824 0.815878 0.076487
O O1 0.287216 0.634686 0.683425
O O2 0.067077 0.816554 0.635340
O O3 0.019509 0.659022 0.555994
O O4 0.423342 0.909590 0.443399
O O5 0.681802 0.185391 0.193269
O O6 0.256088 0.100437 0.319617
O O7 0.319090 0.926700 0.261499
O O8 0.733354 0.372152 0.638532
O O9 0.095292 0.340744 0.608644
O O10 0.853752 0.202428 0.839985
O O11 0.125400 0.282307 0.144250
O O12 0.000000 0.500000 0.000000
O O13 0.940755 0.233121 0.007046
O O14 0.373849 0.399248 0.238708
O O15 0.410987 0.409138 0.414962
O O16 0.728568 0.664249 0.178058
O O17 0.000000 0.000000 0.000000
#
# Coordination Sequence:
#
# PCOD9018590 Si02
#       8
#     2   2   2   2   2   2   2   2
#     4  10  21  43  72 108 137 170 231 294 355 422
#     4  11  25  43  72 104 139 184 225 290 359 410
#     4  10  22  45  68 104 142 169 230 292 349 418
#     4  12  29  48  68  97 144 192 243 287 333 421
#     4  11  24  43  74 100 137 187 226 286 362 405
#     4  11  24  45  70 100 138 180 234 288 352 415
#     4   9  21  42  72 103 136 174 222 292 358 418
#     4  12  27  45  68 104 144 188 241 286 338 426
#
# _framework density 22.382991000000001
#
# number of rings (size 3 to 8) (size 9 to 14) (size 15 to 20)
#    0.000    1.250    1.250    3.375    3.500   10.000 
#    0.000    0.000    0.000    0.000    0.000    0.000 
#    0.000    0.000    0.000    0.000    0.000    0.000 
#
# Total GULP energy -89523.994366 kJ/mol
# GULP energy per Si atom -5595.249648 kJ/mol
# Density = 2.233205 g / cm^3
# Si number density = 22.382991 Si / 1000 Ang^3
#
#
#
# Elastic Constant Matrix: (Units=GPa)
#
#
# Indices 1 2 3 4 5 6 
#
# 1 76.9578 37.3960 36.0019 -8.5261 -11.0131 -1.7065
# 2 37.3960 141.8157 65.9283 -3.3298 0.9378 -0.7393
# 3 36.0019 65.9283 115.7378 -6.4051 1.3917 3.8054
# 4 -8.5261 -3.3298 -6.4051 47.9853 3.3717 -1.5184
# 5 -11.0131 0.9378 1.3917 3.3717 30.2656 3.4823
# 6 -1.7065 -0.7393 3.8054 -1.5184 3.4823 37.8732
#
#
#
# Elastic Compliance Matrix: (Units=1/GPa)
#
#
# Indices 1 2 3 4 5 6 
#
# 1 0.017230 -0.002789 -0.003758 0.001947 0.006242 0.000604
# 2 -0.002789 0.010064 -0.004892 -0.000350 -0.001138 0.000653
# 3 -0.003758 -0.004892 0.012704 0.000767 -0.001730 -0.001351
# 4 0.001947 -0.000350 0.000767 0.021424 -0.001821 0.001030
# 5 0.006242 -0.001138 -0.001730 -0.001821 0.035969 -0.002947
# 6 0.000604 0.000653 -0.001351 0.001030 -0.002947 0.026892
#
#
# Mechanical properties :
#
#
# Convention : Reuss Voigt Hill
#
# Bulk Modulus (GPa) = 58.41495 68.12931 63.27213
# Shear Modulus (GPa) = 32.70798 36.23717 34.47257
#
# Velocity S-wave (km/s) = 3.82683 4.02800 3.92870
# Velocity P-wave (km/s) = 6.75875 7.22060 6.99349
#
# Compressibility (1/GPa) = 0.01711891
#
# Stress axis : x y z
#
# Youngs Moduli (GPa) = 58.03910 99.36483 78.71620
#
# Poissons Ratio (x) = 0.27710 0.29583
# Poissons Ratio (y) = 0.16185 0.38511
# Poissons Ratio (z) = 0.21812 0.48614
#
# Static dielectric constant tensor:
#      x y z
#    x 1.796730 -0.004440 -0.014370 
#    y -0.004440 1.871120 0.011760 
#    z -0.014370 0.011760 1.845130 
# 
# From -- ./inp_files/482649.got.cif
#   From: 2010.05.17/outbox.cif.g08.bks.cpg/sg2_242_cif.got.tgz:482649.got - 2010.06.03 11:33:40.
