data_PCOD9018995
_publ_section_title
;
Structure prediction by ZEFSAII (Michael W. Deem and Ramdas Pophale) SiO2 
 PCOD9018995
Probable space group: P -1
;
_chemical_formula_sum "Si O2"
_cell_formula_units_Z 16
_cell_length_a 21.590701
_cell_length_b 15.302609
_cell_length_c 6.848691
_cell_angle_alpha 80.219730
_cell_angle_beta 113.103376
_cell_angle_gamma 157.941085
_cell_volume 647.051868
_symmetry_space_group_name_H-M "P -1"
_symmetry_group_IT_number 2
_symmetry_cell_setting 'triclinic'
loop_
_space_group_symop_operation_xyz
x,y,z
-x,-y,-z
loop_
_atom_site_type_symbol
_atom_site_label
_atom_site_fract_x
_atom_site_fract_y
_atom_site_fract_z
Si Si1 0.123827 0.180149 0.278331
Si Si2 0.217793 0.666237 0.835710
Si Si3 0.436419 0.250291 0.019774
Si Si4 0.087187 0.233235 0.569000
Si Si5 0.130818 0.885382 0.440905
Si Si6 0.766978 0.169754 0.890911
Si Si7 0.430774 0.328620 0.356635
Si Si8 0.474912 0.035424 0.636909
O O1 0.052208 0.175942 0.315853
O O2 0.375503 0.498461 0.430644
O O3 0.071098 0.031828 0.413967
O O4 0.000000 0.000000 0.000000
O O5 0.309133 0.792191 0.685007
O O6 0.969469 0.336150 0.632413
O O7 0.287874 0.837584 0.985897
O O8 0.311853 0.701412 0.067613
O O9 0.669429 0.496206 0.201999
O O10 0.434612 0.334004 0.124943
O O11 0.270493 0.975484 0.023989
O O12 0.343282 0.151022 0.731301
O O13 0.036369 0.264835 0.584491
O O14 0.202638 0.016426 0.276846
O O15 0.615502 0.994231 0.581600
O O16 0.000000 0.500000 0.000000
O O17 0.500000 0.500000 0.500000
O O18 0.500000 0.000000 0.500000
#
# Coordination Sequence:
#
# PCOD9018995 Si02
#       8
#     2   2   2   2   2   2   2   2
#     4  10  21  44  67  92 129 173 221 276 338 393
#     4  10  23  42  67  98 128 177 223 263 336 393
#     4  11  27  44  66 101 138 172 226 277 334 395
#     4  10  24  42  64  99 131 170 224 276 333 392
#     4  12  25  43  70  98 137 177 224 274 333 398
#     4  11  23  44  66  97 138 174 217 277 333 392
#     4  11  24  45  65  99 130 173 226 271 333 404
#     4   9  21  41  66  92 130 170 219 272 319 390
#
# _framework density 24.727539
#
# number of rings (size 3 to 8) (size 9 to 14) (size 15 to 20)
#    0.000    1.500    1.250    2.250    7.000    4.500 
#    4.500    0.000    0.000    0.000    0.000    0.000 
#    0.000    0.000    0.000    0.000    0.000    0.000 
#
# Total GULP energy -89392.542425 kJ/mol
# GULP energy per Si atom -5587.033902 kJ/mol
# Density = 2.467126 g / cm^3
# Si number density = 24.727539 Si / 1000 Ang^3
#
#
#
# Elastic Constant Matrix: (Units=GPa)
#
#
# Indices 1 2 3 4 5 6 
#
# 1 87.2921 29.3608 32.4884 -8.5991 -23.3779 16.4182
# 2 29.3608 93.1296 18.5231 -10.0387 -20.0169 12.1589
# 3 32.4884 18.5231 125.4955 -14.7777 -24.0382 9.8041
# 4 -8.5991 -10.0387 -14.7777 38.9898 0.5310 -4.9475
# 5 -23.3779 -20.0169 -24.0382 0.5310 31.6049 -0.0960
# 6 16.4182 12.1589 9.8041 -4.9475 -0.0960 35.2868
#
#
#
# Elastic Compliance Matrix: (Units=1/GPa)
#
#
# Indices 1 2 3 4 5 6 
#
# 1 0.016667 -0.001775 -0.001412 0.001724 0.010082 -0.006482
# 2 -0.001775 0.013602 0.000520 0.002747 0.007640 -0.003600
# 3 -0.001412 0.000520 0.010119 0.003329 0.006919 -0.001848
# 4 0.001724 0.002747 0.003329 0.028090 0.005079 0.001279
# 5 0.010082 0.007640 0.006919 0.005079 0.049089 -0.008400
# 6 -0.006482 -0.003600 -0.001848 0.001279 -0.008400 0.033265
#
#
# Mechanical properties :
#
#
# Convention : Reuss Voigt Hill
#
# Bulk Modulus (GPa) = 28.52727 51.85132 40.18929
# Shear Modulus (GPa) = 29.78813 36.21262 33.00038
#
# Velocity S-wave (km/s) = 3.47458 3.83098 3.65713
# Velocity P-wave (km/s) = 5.25915 6.37049 5.84131
#
# Compressibility (1/GPa) = 0.03505418
#
# Stress axis : x y z
#
# Youngs Moduli (GPa) = 59.99751 73.51792 98.82336
#
# Poissons Ratio (x) = 0.13048 0.13958
# Poissons Ratio (y) = 0.10648 -0.05139
# Poissons Ratio (z) = 0.08474 -0.03823
#
# Static dielectric constant tensor:
#      x y z
#    x 2.058710 0.035110 0.037880 
#    y 0.035110 1.910490 0.027300 
#    z 0.037880 0.027300 1.994390 
# 
# From -- ./inp_files/124781.got.cif
#   From: 2010.05.17/outbox.cif.g08.bks.cpg/sg2_63_cif.got.tgz:124781.got - 2010.06.03 11:33:40.
