data_PCOD9018730
_publ_section_title
;
Structure prediction by ZEFSAII (Michael W. Deem and Ramdas Pophale) SiO2 
 PCOD9018730
Probable space group: P -1
;
_chemical_formula_sum "Si O2"
_cell_formula_units_Z 14
_cell_length_a 19.720682
_cell_length_b 12.435543
_cell_length_c 10.832644
_cell_angle_alpha 38.673872
_cell_angle_beta 146.256789
_cell_angle_gamma 153.617842
_cell_volume 648.786275
_symmetry_space_group_name_H-M "P -1"
_symmetry_group_IT_number 2
_symmetry_cell_setting 'triclinic'
loop_
_space_group_symop_operation_xyz
x,y,z
-x,-y,-z
loop_
_atom_site_type_symbol
_atom_site_label
_atom_site_fract_x
_atom_site_fract_y
_atom_site_fract_z
Si Si1 0.291711 0.718585 0.284243
Si Si2 0.169677 0.242920 0.099719
Si Si3 0.713492 0.623823 0.101683
Si Si4 0.407102 0.145706 0.214908
Si Si5 0.651265 0.402309 0.761504
Si Si6 0.011617 0.180719 0.442897
Si Si7 0.672093 0.808232 0.403766
O O1 0.461978 0.813411 0.527725
O O2 0.332982 0.732367 0.190944
O O3 0.119618 0.436617 0.307291
O O4 0.283991 0.898019 0.172159
O O5 0.268752 0.413854 0.977931
O O6 0.174351 0.393252 0.077548
O O7 0.249104 0.163161 0.368260
O O8 0.000000 0.000000 0.000000
O O9 0.537718 0.368043 0.118052
O O10 0.870321 0.735708 0.331259
O O11 0.698289 0.814000 0.911033
O O12 0.627732 0.566357 0.508892
O O13 0.494164 0.246301 0.762100
O O14 0.000000 0.000000 0.500000
O O15 0.818935 0.026818 0.340030
#
# Coordination Sequence:
#
# PCOD9018730 Si02
#       7
#     2   2   2   2   2   2   2
#     4  10  19  37  56  82 115 144 183 230 282 319
#     4  10  17  30  54  80 109 139 182 227 268 322
#     4  10  19  34  56  82 104 145 192 223 276 332
#     4   9  21  34  58  81 110 145 183 236 272 330
#     4   9  18  31  55  79 110 146 182 224 267 333
#     4  11  19  32  57  81 109 145 186 227 272 332
#     4   9  18  30  51  84 106 145 183 219 268 328
#
# _framework density 21.578755000000001
#
# number of rings (size 3 to 8) (size 9 to 14) (size 15 to 20)
#    0.857    1.429    2.857    0.857    0.000    1.143 
#    0.000    1.429    3.143    3.429    0.000    0.000 
#    0.000    0.000    0.000    0.000    0.000    0.000 
#
# Total GULP energy -77991.778962 kJ/mol
# GULP energy per Si atom -5570.841354 kJ/mol
# Density = 2.152964 g / cm^3
# Si number density = 21.578755 Si / 1000 Ang^3
#
#
#
# Elastic Constant Matrix: (Units=GPa)
#
#
# Indices 1 2 3 4 5 6 
#
# 1 93.4050 46.5840 4.9213 -5.1970 -18.3125 -16.8342
# 2 46.5840 120.6457 3.7769 1.0738 1.6330 -13.9363
# 3 4.9213 3.7769 20.9577 1.0099 -4.8658 -9.3383
# 4 -5.1970 1.0738 1.0099 14.7630 -6.8688 3.7769
# 5 -18.3125 1.6330 -4.8658 -6.8688 18.1086 3.8946
# 6 -16.8342 -13.9363 -9.3383 3.7769 3.8946 43.8238
#
#
#
# Elastic Compliance Matrix: (Units=1/GPa)
#
#
# Indices 1 2 3 4 5 6 
#
# 1 0.024089 -0.009939 0.003876 0.025014 0.035439 0.001614
# 2 -0.009939 0.012825 -0.002279 -0.012916 -0.017239 0.002420
# 3 0.003876 -0.002279 0.056084 0.003372 0.018149 0.010812
# 4 0.025014 -0.012916 0.003372 0.113600 0.072611 -0.010023
# 5 0.035439 -0.017239 0.018149 0.072611 0.126212 -0.005476
# 6 0.001614 0.002420 0.010812 -0.010023 -0.005476 0.027862
#
#
# Mechanical properties :
#
#
# Convention : Reuss Voigt Hill
#
# Bulk Modulus (GPa) = 13.10348 38.39698 25.75023
# Shear Modulus (GPa) = 12.41327 27.32082 19.86704
#
# Velocity S-wave (km/s) = 2.40105 3.56209 3.03756
# Velocity P-wave (km/s) = 3.71110 5.89495 4.92558
#
# Compressibility (1/GPa) = 0.07631561
#
# Stress axis : x y z
#
# Youngs Moduli (GPa) = 41.51247 77.96990 17.83027
#
# Poissons Ratio (x) = 0.77491 -0.06911
# Poissons Ratio (y) = 0.41258 0.04064
# Poissons Ratio (z) = -0.16091 0.17771
#
# Static dielectric constant tensor:
#      x y z
#    x 1.812670 0.081460 -0.018810 
#    y 0.081460 1.863500 -0.025290 
#    z -0.018810 -0.025290 1.845130 
# 
# From -- ./inp_files/463517.got.cif
#   From: 2010.05.17/outbox.cif.g08.bks.cpg/sg2_232_cif.got.tgz:463517.got - 2010.06.03 11:33:40.
