data_PCOD9018814
_publ_section_title
;
Structure prediction by ZEFSAII (Michael W. Deem and Ramdas Pophale) SiO2 
 PCOD9018814
Probable space group: P -1
;
_chemical_formula_sum "Si O2"
_cell_formula_units_Z 16
_cell_length_a 12.885606
_cell_length_b 16.295932
_cell_length_c 5.325365
_cell_angle_alpha 86.670628
_cell_angle_beta 75.158520
_cell_angle_gamma 132.846011
_cell_volume 748.753362
_symmetry_space_group_name_H-M "P -1"
_symmetry_group_IT_number 2
_symmetry_cell_setting 'triclinic'
loop_
_space_group_symop_operation_xyz
x,y,z
-x,-y,-z
loop_
_atom_site_type_symbol
_atom_site_label
_atom_site_fract_x
_atom_site_fract_y
_atom_site_fract_z
Si Si1 0.464127 0.913372 0.242090
Si Si2 0.560386 0.665199 0.944095
Si Si3 0.896269 0.863280 0.617253
Si Si4 0.370334 0.456844 0.779895
Si Si5 0.758398 0.157304 0.231053
Si Si6 0.176795 0.618565 0.950344
Si Si7 0.643692 0.322280 0.680381
Si Si8 0.056048 0.216579 0.896306
O O1 0.291805 0.838706 0.463500
O O2 0.459114 0.816312 0.187572
O O3 0.611438 0.014519 0.308341
O O4 0.500000 0.000000 0.000000
O O5 0.715815 0.790599 0.719604
O O6 0.428109 0.572436 0.842508
O O7 0.624500 0.611877 0.001137
O O8 0.473877 0.667021 0.213935
O O9 0.939067 0.824706 0.370251
O O10 0.922527 0.837516 0.880907
O O11 0.000000 0.000000 0.500000
O O12 0.500000 0.500000 0.500000
O O13 0.201500 0.359238 0.786835
O O14 0.785126 0.261944 0.067146
O O15 0.905209 0.184770 0.065919
O O16 0.279934 0.644245 0.645944
O O17 0.229442 0.608162 0.185334
O O18 0.000000 0.500000 0.000000
#
# Coordination Sequence:
#
# PCOD9018814 Si02
#       8
#     2   2   2   2   2   2   2   2
#     4  10  21  44  64  93 131 166 217 270 313 379
#     4  10  24  41  66  94 129 169 215 266 317 384
#     4  11  25  45  62  98 134 164 214 269 313 379
#     4  10  21  44  64  93 131 166 217 270 313 379
#     4  10  24  41  66  94 129 169 215 266 317 384
#     4  11  25  45  62  98 134 164 214 269 313 379
#     4  11  25  41  68  96 124 177 212 256 331 377
#     4  11  25  41  68  96 124 177 212 256 331 377
#
# _framework density 21.368853999999999
#
# number of rings (size 3 to 8) (size 9 to 14) (size 15 to 20)
#    0.000    1.500    2.500    0.750    7.000    0.000 
#    0.000    0.000    0.000    0.000    0.000    0.000 
#    0.000    0.000    0.000    0.000    0.000    0.000 
#
# Total GULP energy -89159.130663 kJ/mol
# GULP energy per Si atom -5572.445666 kJ/mol
# Density = 2.132022 g / cm^3
# Si number density = 21.368854 Si / 1000 Ang^3
#
#
#
# Elastic Constant Matrix: (Units=GPa)
#
#
# Indices 1 2 3 4 5 6 
#
# 1 55.0577 17.8053 15.6920 2.7628 -23.7071 4.3510
# 2 17.8053 108.2307 19.6921 -2.3856 -22.1903 16.5052
# 3 15.6920 19.6921 77.2524 2.1275 -16.6749 7.0729
# 4 2.7628 -2.3856 2.1275 37.7029 3.2245 -6.9081
# 5 -23.7071 -22.1903 -16.6749 3.2245 47.8709 -5.0163
# 6 4.3510 16.5052 7.0729 -6.9081 -5.0163 19.1660
#
#
#
# Elastic Compliance Matrix: (Units=1/GPa)
#
#
# Indices 1 2 3 4 5 6 
#
# 1 0.024002 -0.001162 -0.002018 -0.002995 0.010637 -0.001999
# 2 -0.001162 0.011697 -0.001133 -0.001035 0.003597 -0.008823
# 3 -0.002018 -0.001133 0.014756 -0.001731 0.003338 -0.003762
# 4 -0.002995 -0.001035 -0.001731 0.029234 -0.003289 0.011886
# 5 0.010637 0.003597 0.003338 -0.003289 0.029179 -0.000293
# 6 -0.001999 -0.008823 -0.003762 0.011886 -0.000293 0.065823
#
#
# Mechanical properties :
#
#
# Convention : Reuss Voigt Hill
#
# Bulk Modulus (GPa) = 23.90612 38.54661 31.22636
# Shear Modulus (GPa) = 25.34742 33.43806 29.39274
#
# Velocity S-wave (km/s) = 3.44784 3.96005 3.71279
# Velocity P-wave (km/s) = 5.20209 6.24397 5.74669
#
# Compressibility (1/GPa) = 0.04183030
#
# Stress axis : x y z
#
# Youngs Moduli (GPa) = 41.66302 85.49201 67.76980
#
# Poissons Ratio (x) = 0.09932 0.13674
# Poissons Ratio (y) = 0.04840 0.07678
# Poissons Ratio (z) = 0.08407 0.09685
#
# Static dielectric constant tensor:
#      x y z
#    x 1.812000 -0.054700 0.020520 
#    y -0.054700 1.842370 0.027420 
#    z 0.020520 0.027420 1.793650 
# 
# From -- ./inp_files/69013.got.cif
#   From: 2010.05.17/outbox.cif.g08.bks.cpg/sg2_35_cif.got.tgz:69013.got - 2010.06.03 11:33:40.
