data_PCOD9018240
_publ_section_title
;
Structure prediction by ZEFSAII (Michael W. Deem and Ramdas Pophale) SiO2 
 PCOD9018240
Probable space group: P -1
;
_chemical_formula_sum "Si O2"
_cell_formula_units_Z 15
_cell_length_a 6.524311
_cell_length_b 21.373695
_cell_length_c 11.561628
_cell_angle_alpha 29.051978
_cell_angle_beta 52.538818
_cell_angle_gamma 52.089662
_cell_volume 606.967962
_symmetry_space_group_name_H-M "P -1"
_symmetry_group_IT_number 2
_symmetry_cell_setting 'triclinic'
loop_
_space_group_symop_operation_xyz
x,y,z
-x,-y,-z
loop_
_atom_site_type_symbol
_atom_site_label
_atom_site_fract_x
_atom_site_fract_y
_atom_site_fract_z
Si Si1 0.433626 0.019267 0.856909
Si Si2 0.557858 0.357123 0.947151
Si Si3 0.996241 0.309462 0.215422
Si Si4 0.968969 0.743273 0.452239
Si Si5 0.500000 0.500000 0.500000
Si Si6 0.553166 0.715966 0.263867
Si Si7 0.823883 0.137172 0.373741
Si Si8 0.388160 0.405561 0.314629
O O1 0.143987 0.114294 0.794442
O O2 0.609823 0.106397 0.588880
O O3 0.496355 0.873050 0.014923
O O4 0.500000 0.000000 0.000000
O O5 0.237528 0.382913 0.018276
O O6 0.681456 0.213007 0.187770
O O7 0.618090 0.401463 0.727865
O O8 0.668301 0.449604 0.849409
O O9 0.025067 0.232789 0.452030
O O10 0.009272 0.215976 0.252213
O O11 0.691168 0.384322 0.203732
O O12 0.790751 0.641145 0.644359
O O13 0.264436 0.674819 0.421851
O O14 0.691919 0.607691 0.301101
O O15 0.637352 0.684717 0.417854
O O16 0.000000 0.000000 0.500000
#
# Coordination Sequence:
#
# PCOD9018240 Si02
#       8
#     2   2   2   2   1   2   2   2
#     4  12  22  45  71 103 142 185 246 299 352 418
#     4  11  25  47  71 101 145 191 238 296 362 435
#     4  11  22  43  71 101 137 184 235 295 360 431
#     4  11  21  42  71 104 136 184 238 301 358 417
#     4  10  26  48  68 104 140 190 242 290 366 444
#     4  10  23  41  69 101 141 183 237 294 360 432
#     4  12  29  47  69 107 149 196 241 296 362 439
#     4  10  21  43  69 106 137 175 238 305 360 418
#
# _framework density 24.713004000000002
#
# number of rings (size 3 to 8) (size 9 to 14) (size 15 to 20)
#    0.000    1.067    4.000    1.600    1.867    8.000 
#    0.000    2.000    0.000    0.000    0.000    0.000 
#    0.000    0.000    0.000    0.000    0.000    0.000 
#
# Total GULP energy -83666.681050 kJ/mol
# GULP energy per Si atom -5577.778737 kJ/mol
# Density = 2.465676 g / cm^3
# Si number density = 24.713004 Si / 1000 Ang^3
#
#
#
# Elastic Constant Matrix: (Units=GPa)
#
#
# Indices 1 2 3 4 5 6 
#
# 1 127.0338 29.8146 49.1551 2.3907 5.3953 12.4550
# 2 29.8146 56.4346 14.5757 4.2832 5.0626 24.8646
# 3 49.1551 14.5757 132.5262 2.3652 17.1048 12.4023
# 4 2.3907 4.2832 2.3652 29.1471 20.8396 2.3139
# 5 5.3953 5.0626 17.1048 20.8396 55.0379 3.5221
# 6 12.4550 24.8646 12.4023 2.3139 3.5221 44.1658
#
#
#
# Elastic Compliance Matrix: (Units=1/GPa)
#
#
# Indices 1 2 3 4 5 6 
#
# 1 0.010245 -0.004916 -0.003403 -0.000316 0.000573 0.000805
# 2 -0.004916 0.026337 0.000261 -0.002184 -0.000339 -0.013373
# 3 -0.003403 0.000261 0.009312 0.001904 -0.003200 -0.001647
# 4 -0.000316 -0.002184 0.001904 0.047673 -0.018395 -0.000247
# 5 0.000573 -0.000339 -0.003200 -0.018395 0.026116 -0.000191
# 6 0.000805 -0.013373 -0.001647 -0.000247 -0.000191 0.030434
#
#
# Mechanical properties :
#
#
# Convention : Reuss Voigt Hill
#
# Bulk Modulus (GPa) = 33.58050 55.89838 44.73944
# Shear Modulus (GPa) = 28.38328 40.50010 34.44169
#
# Velocity S-wave (km/s) = 3.39265 4.05262 3.73723
# Velocity P-wave (km/s) = 5.38187 6.67581 6.06345
#
# Compressibility (1/GPa) = 0.02977919
#
# Stress axis : x y z
#
# Youngs Moduli (GPa) = 97.60779 37.96875 107.38418
#
# Poissons Ratio (x) = 0.18664 0.36543
# Poissons Ratio (y) = 0.47980 -0.02800
# Poissons Ratio (z) = 0.33216 -0.00990
#
# Static dielectric constant tensor:
#      x y z
#    x 1.980690 -0.012600 -0.035100 
#    y -0.012600 1.403840 0.099630 
#    z -0.035100 0.099630 1.967570 
# 
# From -- ./inp_files/369934.got.cif
#   From: 2010.05.17/outbox.cif.g08.bks.cpg/sg2_185_cif.got.tgz:369934.got - 2010.06.03 11:33:40.
