data_PCOD9018854
_publ_section_title
;
Structure prediction by ZEFSAII (Michael W. Deem and Ramdas Pophale) SiO2 
 PCOD9018854
Probable space group: P -1
;
_chemical_formula_sum "Si O2"
_cell_formula_units_Z 14
_cell_length_a 8.812291
_cell_length_b 15.822175
_cell_length_c 16.191731
_cell_angle_alpha 153.269251
_cell_angle_beta 41.428139
_cell_angle_gamma 133.836106
_cell_volume 669.915864
_symmetry_space_group_name_H-M "P -1"
_symmetry_group_IT_number 2
_symmetry_cell_setting 'triclinic'
loop_
_space_group_symop_operation_xyz
x,y,z
-x,-y,-z
loop_
_atom_site_type_symbol
_atom_site_label
_atom_site_fract_x
_atom_site_fract_y
_atom_site_fract_z
Si Si1 0.455094 0.135762 0.560359
Si Si2 0.762996 0.401310 0.248524
Si Si3 0.029941 0.673637 0.076450
Si Si4 0.996561 0.217102 0.222673
Si Si5 0.531380 0.274698 0.381712
Si Si6 0.257662 0.988846 0.350310
Si Si7 0.100425 0.587893 0.409008
O O1 0.210578 0.227950 0.744520
O O2 0.662109 0.297942 0.612724
O O3 0.500000 0.000000 0.500000
O O4 0.429986 0.016651 0.381069
O O5 0.647847 0.238512 0.213776
O O6 0.555101 0.519687 0.408261
O O7 0.935002 0.530827 0.349975
O O8 0.898962 0.356393 0.072591
O O9 0.241670 0.796563 0.139605
O O10 0.000000 0.500000 0.000000
O O11 0.735230 0.264170 0.353535
O O12 0.026985 0.273893 0.355675
O O13 0.136523 0.384564 0.260057
O O14 0.000000 0.000000 0.000000
O O15 0.323058 0.143381 0.388705
O O16 0.000000 0.000000 0.500000
#
# Coordination Sequence:
#
# PCOD9018854 Si02
#       7
#     2   2   2   2   2   2   2
#     4  11  25  43  69  99 137 185 227 289 357 405
#     4  10  23  43  67  97 134 173 228 281 346 405
#     4  11  26  44  68  96 134 184 240 280 341 429
#     4  10  22  44  69 101 136 182 229 278 350 425
#     4  10  21  44  65  94 132 174 220 277 344 402
#     4  10  22  43  67  94 134 178 229 277 342 416
#     4  10  23  43  69  98 145 171 224 296 347 406
#
# _framework density 20.898147000000002
#
# number of rings (size 3 to 8) (size 9 to 14) (size 15 to 20)
#    0.000    1.714    1.429    1.714    6.000    4.571 
#    7.714    0.000    0.000    0.000    0.000    0.000 
#    0.000    0.000    0.000    0.000    0.000    0.000 
#
# Total GULP energy -78014.102252 kJ/mol
# GULP energy per Si atom -5572.435875 kJ/mol
# Density = 2.085058 g / cm^3
# Si number density = 20.898147 Si / 1000 Ang^3
#
#
#
# Elastic Constant Matrix: (Units=GPa)
#
#
# Indices 1 2 3 4 5 6 
#
# 1 107.6788 50.1122 59.3889 -6.7422 12.0755 -8.9302
# 2 50.1122 186.4679 47.3978 -0.4728 18.2348 -5.4535
# 3 59.3889 47.3978 102.5068 -3.7925 31.2394 -8.7822
# 4 -6.7422 -0.4728 -3.7925 32.7489 -5.3940 3.0562
# 5 12.0755 18.2348 31.2394 -5.3940 37.0572 -4.2657
# 6 -8.9302 -5.4535 -8.7822 3.0562 -4.2657 34.5080
#
#
#
# Elastic Compliance Matrix: (Units=1/GPa)
#
#
# Indices 1 2 3 4 5 6 
#
# 1 0.014886 -0.002148 -0.008630 0.002551 0.004036 0.001589
# 2 -0.002148 0.006413 -0.001300 -0.000743 -0.001466 0.000011
# 3 -0.008630 -0.001300 0.019338 -0.001793 -0.012992 0.001036
# 4 0.002551 -0.000743 -0.001793 0.031934 0.005456 -0.002067
# 5 0.004036 -0.001466 -0.012992 0.005456 0.038341 0.001763
# 6 0.001589 0.000011 0.001036 -0.002067 0.001763 0.030056
#
#
# Mechanical properties :
#
#
# Convention : Reuss Voigt Hill
#
# Bulk Modulus (GPa) = 60.68300 78.93900 69.81100
# Shear Modulus (GPa) = 29.30524 36.84645 33.07584
#
# Velocity S-wave (km/s) = 3.74878 4.20354 3.98265
# Velocity P-wave (km/s) = 6.91652 7.83676 7.39098
#
# Compressibility (1/GPa) = 0.01647908
#
# Stress axis : x y z
#
# Youngs Moduli (GPa) = 67.17942 155.94520 51.71053
#
# Poissons Ratio (x) = 0.33504 0.44627
# Poissons Ratio (y) = 0.14433 0.06722
# Poissons Ratio (z) = 0.57977 0.20273
#
# Static dielectric constant tensor:
#      x y z
#    x 1.735100 0.015820 0.034990 
#    y 0.015820 1.776460 0.026290 
#    z 0.034990 0.026290 1.813090 
# 
# From -- ./inp_files/419075.got.cif
#   From: 2010.05.17/outbox.cif.g08.bks.cpg/sg2_210_cif.got.tgz:419075.got - 2010.06.03 11:33:40.
