data_PCOD9018045
_publ_section_title
;
Structure prediction by ZEFSAII (Michael W. Deem and Ramdas Pophale) SiO2 
 PCOD9018045
Probable space group: P -1
;
_chemical_formula_sum "Si O2"
_cell_formula_units_Z 16
_cell_length_a 4.918516
_cell_length_b 24.890087
_cell_length_c 5.873113
_cell_angle_alpha 122.048365
_cell_angle_beta 85.832012
_cell_angle_gamma 94.038363
_cell_volume 607.381168
_symmetry_space_group_name_H-M "P -1"
_symmetry_group_IT_number 2
_symmetry_cell_setting 'triclinic'
loop_
_space_group_symop_operation_xyz
x,y,z
-x,-y,-z
loop_
_atom_site_type_symbol
_atom_site_label
_atom_site_fract_x
_atom_site_fract_y
_atom_site_fract_z
Si Si1 0.721346 0.919114 0.406895
Si Si2 0.905306 0.752466 0.740510
Si Si3 0.648253 0.408524 0.214928
Si Si4 0.840862 0.037529 0.901835
Si Si5 0.865169 0.632781 0.148535
Si Si6 0.677392 0.536202 0.260441
Si Si7 0.074170 0.845885 0.593026
Si Si8 0.409513 0.793648 0.096901
O O1 0.932677 0.939195 0.242261
O O2 0.895252 0.878746 0.485638
O O3 0.640754 0.985069 0.678903
O O4 0.484888 0.869248 0.231542
O O5 0.873652 0.693207 0.444380
O O6 0.682800 0.756080 0.961566
O O7 0.875281 0.812769 0.713110
O O8 0.199469 0.764702 0.861820
O O9 0.745475 0.481367 0.311305
O O10 0.503508 0.414065 0.478894
O O11 0.421532 0.382437 0.991549
O O12 0.909614 0.367590 0.064343
O O13 0.740595 0.099909 0.171798
O O14 0.000000 0.000000 0.000000
O O15 0.909599 0.575035 0.195741
O O16 0.500000 0.500000 0.000000
O O17 0.261122 0.794061 0.349602
#
# Coordination Sequence:
#
# PCOD9018045 Si02
#       8
#     2   2   2   2   2   2   2   2
#     4  10  21  43  68 101 131 169 224 276 341 412
#     4  12  28  44  68  96 136 180 230 276 331 393
#     4  10  22  41  67 102 132 174 223 268 330 392
#     4   9  19  39  70 101 132 168 217 278 345 409
#     4  11  24  43  64  96 135 178 224 272 323 389
#     4   9  21  40  70 100 138 173 214 275 332 384
#     4  11  23  43  68  95 134 178 218 279 343 402
#     4  12  25  45  68  97 129 176 229 275 334 402
#
# _framework density 26.342603
#
# number of rings (size 3 to 8) (size 9 to 14) (size 15 to 20)
#    0.000    1.500    2.500    1.125    1.750    9.000 
#    0.000    8.750    0.000    0.000    0.000    0.000 
#    0.000    0.000    0.000    0.000    0.000    0.000 
#
# Total GULP energy -89660.918690 kJ/mol
# GULP energy per Si atom -5603.807418 kJ/mol
# Density = 2.628265 g / cm^3
# Si number density = 26.342603 Si / 1000 Ang^3
#
#
#
# Elastic Constant Matrix: (Units=GPa)
#
#
# Indices 1 2 3 4 5 6 
#
# 1 102.0599 10.4659 32.0906 16.0046 9.9055 11.9345
# 2 10.4659 58.5868 24.0972 12.0415 8.2524 10.5834
# 3 32.0906 24.0972 161.9425 42.3693 -0.8690 19.4817
# 4 16.0046 12.0415 42.3693 50.2970 8.4886 2.3022
# 5 9.9055 8.2524 -0.8690 8.4886 50.9777 1.6219
# 6 11.9345 10.5834 19.4817 2.3022 1.6219 19.0450
#
#
#
# Elastic Compliance Matrix: (Units=1/GPa)
#
#
# Indices 1 2 3 4 5 6 
#
# 1 0.011278 0.000119 -0.000988 -0.002241 -0.001673 -0.005709
# 2 0.000119 0.020218 -0.001073 -0.003114 -0.002490 -0.009624
# 3 -0.000988 -0.001073 0.009376 -0.007311 0.001987 -0.007660
# 4 -0.002241 -0.003114 -0.007311 0.027837 -0.004062 0.007594
# 5 -0.001673 -0.002490 0.001987 -0.004062 0.021084 -0.000905
# 6 -0.005709 -0.009624 -0.007660 0.007594 -0.000905 0.068428
#
#
# Mechanical properties :
#
#
# Convention : Reuss Voigt Hill
#
# Bulk Modulus (GPa) = 27.03629 50.65519 38.84574
# Shear Modulus (GPa) = 28.66424 41.12631 34.89527
#
# Velocity S-wave (km/s) = 3.30226 3.95550 3.64355
# Velocity P-wave (km/s) = 4.98252 6.33502 5.69903
#
# Compressibility (1/GPa) = 0.03698732
#
# Stress axis : x y z
#
# Youngs Moduli (GPa) = 88.66719 49.46108 106.66019
#
# Poissons Ratio (x) = -0.00591 0.10543
# Poissons Ratio (y) = -0.01059 0.11445
# Poissons Ratio (z) = 0.08765 0.05308
#
# Static dielectric constant tensor:
#      x y z
#    x 2.026950 -0.023860 -0.004850 
#    y -0.023860 2.095450 0.024740 
#    z -0.004850 0.024740 2.042270 
# 
# From -- ./inp_files/14187.got.cif
#   From: 2010.05.17/outbox.cif.g08.bks.cpg/sg2_8_cif.got.tgz:14187.got - 2010.06.03 11:33:40.
