data_PCOD9018270
_publ_section_title
;
Structure prediction by ZEFSAII (Michael W. Deem and Ramdas Pophale) SiO2 
 PCOD9018270
Probable space group: P -1
;
_chemical_formula_sum "Si O2"
_cell_formula_units_Z 16
_cell_length_a 10.981632
_cell_length_b 12.305883
_cell_length_c 7.053598
_cell_angle_alpha 78.157101
_cell_angle_beta 86.232344
_cell_angle_gamma 55.532600
_cell_volume 767.643468
_symmetry_space_group_name_H-M "P -1"
_symmetry_group_IT_number 2
_symmetry_cell_setting 'triclinic'
loop_
_space_group_symop_operation_xyz
x,y,z
-x,-y,-z
loop_
_atom_site_type_symbol
_atom_site_label
_atom_site_fract_x
_atom_site_fract_y
_atom_site_fract_z
Si Si1 0.150563 0.952638 0.391603
Si Si2 0.706774 0.975301 0.333716
Si Si3 0.492893 0.236881 0.026448
Si Si4 0.951329 0.856704 0.026710
Si Si5 0.677800 0.738049 0.334588
Si Si6 0.977945 0.593618 0.141781
Si Si7 0.722225 0.283794 0.791337
Si Si8 0.307668 0.446014 0.290716
O O1 0.240287 0.795880 0.382279
O O2 0.249399 0.986163 0.491387
O O3 0.000000 0.000000 0.500000
O O4 0.105050 0.034833 0.170733
O O5 0.847604 0.919429 0.199092
O O6 0.676255 0.859618 0.389446
O O7 0.572120 0.106996 0.199049
O O8 0.374667 0.365575 0.116727
O O9 0.422383 0.213546 0.859954
O O10 0.612006 0.263106 0.926738
O O11 0.940653 0.734028 0.011213
O O12 0.120835 0.791183 0.087786
O O13 0.635399 0.661936 0.508798
O O14 0.843704 0.631342 0.278921
O O15 0.130396 0.524890 0.265382
O O16 0.000000 0.500000 0.000000
O O17 0.661953 0.439593 0.722676
#
# Coordination Sequence:
#
# PCOD9018270 Si02
#       8
#     2   2   2   2   2   2   2   2
#     4  12  23  40  70 102 130 176 222 275 333 378
#     4  11  25  43  69 100 131 173 225 274 329 391
#     4  12  25  46  67  94 139 181 216 269 336 393
#     4  10  22  43  67  96 134 169 220 280 323 383
#     4  11  26  45  69  98 132 174 224 276 332 392
#     4  10  21  43  69  94 129 171 217 276 332 385
#     4  11  24  46  66 100 139 171 224 273 323 400
#     4  11  26  45  68  99 132 175 223 272 331 396
#
# _framework density 20.843008000000001
#
# number of rings (size 3 to 8) (size 9 to 14) (size 15 to 20)
#    0.000    1.000    3.750    2.250    3.500    2.000 
#    2.250    0.000    0.000    0.000    0.000    0.000 
#    0.000    0.000    0.000    0.000    0.000    0.000 
#
# Total GULP energy -89535.797115 kJ/mol
# GULP energy per Si atom -5595.987320 kJ/mol
# Density = 2.079557 g / cm^3
# Si number density = 20.843008 Si / 1000 Ang^3
#
#
#
# Elastic Constant Matrix: (Units=GPa)
#
#
# Indices 1 2 3 4 5 6 
#
# 1 48.2848 21.6826 16.3048 -0.4768 9.4318 1.2794
# 2 21.6826 93.2601 34.6916 2.3243 11.2470 32.3748
# 3 16.3048 34.6916 65.0127 -2.5676 6.3624 21.8268
# 4 -0.4768 2.3243 -2.5676 24.6289 8.5078 11.1247
# 5 9.4318 11.2470 6.3624 8.5078 25.9400 3.7035
# 6 1.2794 32.3748 21.8268 11.1247 3.7035 32.7681
#
#
#
# Elastic Compliance Matrix: (Units=1/GPa)
#
#
# Indices 1 2 3 4 5 6 
#
# 1 0.026961 -0.007288 -0.006489 -0.002932 -0.005821 0.012124
# 2 -0.007288 0.021177 -0.000721 0.010394 -0.006487 -0.022953
# 3 -0.006489 -0.000721 0.024953 0.013078 -0.004948 -0.019536
# 4 -0.002932 0.010394 0.013078 0.066359 -0.022871 -0.038809
# 5 -0.005821 -0.006487 -0.004948 -0.022871 0.050482 0.011991
# 6 0.012124 -0.022953 -0.019536 -0.038809 0.011991 0.077555
#
#
# Mechanical properties :
#
#
# Convention : Reuss Voigt Hill
#
# Bulk Modulus (GPa) = 22.67825 39.10172 30.88999
# Shear Modulus (GPa) = 16.06774 25.59265 20.83019
#
# Velocity S-wave (km/s) = 2.77951 3.50791 3.16474
# Velocity P-wave (km/s) = 4.60489 5.93364 5.31098
#
# Compressibility (1/GPa) = 0.04409511
#
# Stress axis : x y z
#
# Youngs Moduli (GPa) = 37.09023 47.22174 40.07459
#
# Poissons Ratio (x) = 0.34416 0.26005
# Poissons Ratio (y) = 0.27032 0.02889
# Poissons Ratio (z) = 0.24068 0.03404
#
# Static dielectric constant tensor:
#      x y z
#    x 1.744140 -0.004910 0.000240 
#    y -0.004910 1.757070 0.006170 
#    z 0.000240 0.006170 1.715940 
# 
# From -- ./inp_files/69860.got.cif
#   From: 2010.05.17/outbox.cif.g08.bks.cpg/sg2_35_cif.got.tgz:69860.got - 2010.06.03 11:33:40.
