data_PCOD9018425
_publ_section_title
;
Structure prediction by ZEFSAII (Michael W. Deem and Ramdas Pophale) SiO2 
 PCOD9018425
Probable space group: P -1
;
_chemical_formula_sum "Si O2"
_cell_formula_units_Z 15
_cell_length_a 8.115852
_cell_length_b 15.982895
_cell_length_c 5.076656
_cell_angle_alpha 69.235372
_cell_angle_beta 85.951096
_cell_angle_gamma 110.340983
_cell_volume 563.057449
_symmetry_space_group_name_H-M "P -1"
_symmetry_group_IT_number 2
_symmetry_cell_setting 'triclinic'
loop_
_space_group_symop_operation_xyz
x,y,z
-x,-y,-z
loop_
_atom_site_type_symbol
_atom_site_label
_atom_site_fract_x
_atom_site_fract_y
_atom_site_fract_z
Si Si1 0.800853 0.949414 0.845500
Si Si2 0.642882 0.177044 0.304151
Si Si3 0.246396 0.632395 0.712570
Si Si4 0.860484 0.544208 0.724009
Si Si5 0.829888 0.659935 0.115254
Si Si6 0.555465 0.743644 0.175438
Si Si7 0.089588 0.880194 0.944332
Si Si8 0.500000 0.000000 0.500000
O O1 0.643891 0.954346 0.674704
O O2 0.879072 0.051130 0.882507
O O3 0.702535 0.848410 0.139506
O O4 0.962045 0.919620 0.746147
O O5 0.781696 0.268058 0.339444
O O6 0.544609 0.091312 0.615603
O O7 0.567444 0.231689 0.047783
O O8 0.712592 0.103790 0.213680
O O9 0.434304 0.674869 0.492849
O O10 0.072138 0.567244 0.638300
O O11 0.238735 0.565825 0.038596
O O12 0.791471 0.580761 0.438297
O O13 0.852888 0.610199 0.900750
O O14 0.663790 0.690619 0.074143
O O15 0.991771 0.761979 0.081259
#
# Coordination Sequence:
#
# PCOD9018425 Si02
#       8
#     2   2   2   2   2   2   2   1
#     4   9  22  43  66 104 138 190 233 301 354 443
#     4  11  24  41  66 102 135 187 231 298 356 435
#     4  11  26  44  71 101 139 188 238 303 358 433
#     4  11  27  47  74 102 143 188 249 294 366 424
#     4  11  25  48  72 107 141 193 237 304 355 435
#     4  10  25  44  69 100 149 179 239 294 373 419
#     4  10  21  43  70  95 147 186 243 285 367 428
#     4  10  24  38  64 102 136 176 238 288 364 414
#
# _framework density 26.640263999999998
#
# number of rings (size 3 to 8) (size 9 to 14) (size 15 to 20)
#    0.000    1.600    1.333    0.800    9.333    3.733 
#    0.000    0.000    0.000    0.000    0.000    0.000 
#    0.000    0.000    0.000    0.000    0.000    0.000 
#
# Total GULP energy -83608.088848 kJ/mol
# GULP energy per Si atom -5573.872590 kJ/mol
# Density = 2.657963 g / cm^3
# Si number density = 26.640264 Si / 1000 Ang^3
#
#
#
# Elastic Constant Matrix: (Units=GPa)
#
#
# Indices 1 2 3 4 5 6 
#
# 1 131.3717 28.7344 28.6787 -13.6953 5.6682 -18.2782
# 2 28.7344 181.9985 38.3722 -31.4523 -13.6091 -11.3666
# 3 28.6787 38.3722 84.6609 -21.5571 6.9182 7.7245
# 4 -13.6953 -31.4523 -21.5571 45.7836 -1.3886 -5.5691
# 5 5.6682 -13.6091 6.9182 -1.3886 25.9864 -5.5072
# 6 -18.2782 -11.3666 7.7245 -5.5691 -5.5072 40.7402
#
#
#
# Elastic Compliance Matrix: (Units=1/GPa)
#
#
# Indices 1 2 3 4 5 6 
#
# 1 0.009178 -0.000230 -0.002979 0.001766 -0.000211 0.004831
# 2 -0.000230 0.007646 -0.003128 0.004383 0.005975 0.004030
# 3 -0.002979 -0.003128 0.016213 0.003719 -0.006298 -0.005626
# 4 0.001766 0.004383 0.003719 0.027924 0.003602 0.005614
# 5 -0.000211 0.005975 -0.006298 0.003602 0.045521 0.009413
# 6 0.004831 0.004030 -0.005626 0.005614 0.009413 0.030944
#
#
# Mechanical properties :
#
#
# Convention : Reuss Voigt Hill
#
# Bulk Modulus (GPa) = 49.10361 65.51129 57.30745
# Shear Modulus (GPa) = 31.86987 42.65177 37.26082
#
# Velocity S-wave (km/s) = 3.46252 4.00562 3.74393
# Velocity P-wave (km/s) = 5.87005 6.78512 6.34410
#
# Compressibility (1/GPa) = 0.02036510
#
# Stress axis : x y z
#
# Youngs Moduli (GPa) = 108.95702 130.78358 61.67728
#
# Poissons Ratio (x) = 0.03006 0.18371
# Poissons Ratio (y) = 0.02504 0.19291
# Poissons Ratio (z) = 0.32454 0.40906
#
# Static dielectric constant tensor:
#      x y z
#    x 2.442440 0.213500 -0.256230 
#    y 0.213500 2.235890 -0.083460 
#    z -0.256230 -0.083460 2.121190 
# 
# From -- ./inp_files/34586.got.cif
#   From: 2010.05.17/outbox.cif.g08.bks.cpg/sg2_18_cif.got.tgz:34586.got - 2010.06.03 11:33:40.
