data_PCOD9018544
_publ_section_title
;
Structure prediction by ZEFSAII (Michael W. Deem and Ramdas Pophale) SiO2 
 PCOD9018544
Probable space group: P -1
;
_chemical_formula_sum "Si O2"
_cell_formula_units_Z 16
_cell_length_a 9.290964
_cell_length_b 26.142926
_cell_length_c 14.421891
_cell_angle_alpha 22.008354
_cell_angle_beta 132.713815
_cell_angle_gamma 141.676958
_cell_volume 795.686459
_symmetry_space_group_name_H-M "P -1"
_symmetry_group_IT_number 2
_symmetry_cell_setting 'triclinic'
loop_
_space_group_symop_operation_xyz
x,y,z
-x,-y,-z
loop_
_atom_site_type_symbol
_atom_site_label
_atom_site_fract_x
_atom_site_fract_y
_atom_site_fract_z
Si Si1 0.388888 0.843649 0.278801
Si Si2 0.550002 0.526631 0.589256
Si Si3 0.757256 0.449435 0.433604
Si Si4 0.361018 0.155499 0.186120
Si Si5 0.490868 0.984837 0.673411
Si Si6 0.063270 0.860973 0.257283
Si Si7 0.879613 0.935321 0.412723
Si Si8 0.990819 0.776862 0.875262
O O1 0.311252 0.695147 0.424645
O O2 0.189403 0.843908 0.250323
O O3 0.608354 0.867621 0.392422
O O4 0.500000 0.000000 0.000000
O O5 0.500000 0.500000 0.500000
O O6 0.411381 0.580947 0.502405
O O7 0.822993 0.678112 0.469188
O O8 0.461514 0.346455 0.894804
O O9 0.000000 0.500000 0.500000
O O10 0.814948 0.601933 0.138427
O O11 0.425105 0.105422 0.395741
O O12 0.482134 0.110848 0.236636
O O13 0.074690 0.026579 0.263150
O O14 0.734497 0.084390 0.668820
O O15 0.265868 0.842997 0.872452
O O16 0.000000 0.000000 0.000000
O O17 0.902627 0.797818 0.702539
O O18 0.988700 0.089627 0.270303
#
# Coordination Sequence:
#
# PCOD9018544 Si02
#       8
#     2   2   2   2   2   2   2   2
#     4  12  27  43  67  98 132 173 221 275 329 390
#     4  12  27  44  66  96 135 176 217 272 330 396
#     4  12  27  43  67  98 132 173 221 275 329 390
#     4  10  23  43  70  99 132 175 220 267 326 391
#     4  10  23  43  70  99 132 175 220 267 326 391
#     4  12  27  44  66  96 135 176 217 272 330 396
#     4  10  21  43  71  97 130 174 221 269 322 388
#     4  10  21  43  71  97 130 174 221 269 322 388
#
# _framework density 20.108423999999999
#
# number of rings (size 3 to 8) (size 9 to 14) (size 15 to 20)
#    0.000    1.000    2.500    3.000   10.500    1.000 
#    0.000    0.000    0.000    0.000    0.000    0.000 
#    0.000    0.000    0.000    0.000    0.000    0.000 
#
# Total GULP energy -89223.446682 kJ/mol
# GULP energy per Si atom -5576.465418 kJ/mol
# Density = 2.006266 g / cm^3
# Si number density = 20.108424 Si / 1000 Ang^3
#
#
#
# Elastic Constant Matrix: (Units=GPa)
#
#
# Indices 1 2 3 4 5 6 
#
# 1 156.8466 47.8499 50.3192 -7.5521 0.8874 18.1291
# 2 47.8499 100.3397 38.8266 -4.7774 6.3115 9.0372
# 3 50.3192 38.8266 91.6530 -7.8804 -3.3183 -5.3492
# 4 -7.5521 -4.7774 -7.8804 21.8002 -0.1449 3.5926
# 5 0.8874 6.3115 -3.3183 -0.1449 32.3120 -9.5138
# 6 18.1291 9.0372 -5.3492 3.5926 -9.5138 37.4742
#
#
#
# Elastic Compliance Matrix: (Units=1/GPa)
#
#
# Indices 1 2 3 4 5 6 
#
# 1 0.009077 -0.001969 -0.004348 0.001985 -0.001831 -0.005193
# 2 -0.001969 0.013532 -0.004956 0.001160 -0.004339 -0.004231
# 3 -0.004348 -0.004956 0.016140 0.002188 0.004693 0.006584
# 4 0.001985 0.001160 0.002188 0.048581 -0.001603 -0.005992
# 5 -0.001831 -0.004339 0.004693 -0.001603 0.035809 0.011847
# 6 -0.005193 -0.004231 0.006584 -0.005992 0.011847 0.034739
#
#
# Mechanical properties :
#
#
# Convention : Reuss Voigt Hill
#
# Bulk Modulus (GPa) = 61.71624 69.20340 65.45982
# Shear Modulus (GPa) = 26.90703 32.44020 29.67361
#
# Velocity S-wave (km/s) = 3.66197 4.02090 3.84563
# Velocity P-wave (km/s) = 6.97412 7.48644 7.23482
#
# Compressibility (1/GPa) = 0.01620319
#
# Stress axis : x y z
#
# Youngs Moduli (GPa) = 110.16331 73.89931 61.95889
#
# Poissons Ratio (x) = 0.14550 0.26942
# Poissons Ratio (y) = 0.21690 0.30705
# Poissons Ratio (z) = 0.47902 0.36623
#
# Static dielectric constant tensor:
#      x y z
#    x 1.844850 0.024150 -0.045590 
#    y 0.024150 1.719670 0.072790 
#    z -0.045590 0.072790 1.736800 
# 
# From -- ./inp_files/508984.got.cif
#   From: 2010.05.17/outbox.cif.g08.bks.cpg/sg2_255_cif.got.tgz:508984.got - 2010.06.03 11:33:40.
