data_PCOD9018956
_publ_section_title
;
Structure prediction by ZEFSAII (Michael W. Deem and Ramdas Pophale) SiO2 
 PCOD9018956
Probable space group: P -1
;
_chemical_formula_sum "Si O2"
_cell_formula_units_Z 12
_cell_length_a 9.305378
_cell_length_b 14.128871
_cell_length_c 13.049982
_cell_angle_alpha 149.592808
_cell_angle_beta 60.808762
_cell_angle_gamma 138.793354
_cell_volume 500.855829
_symmetry_space_group_name_H-M "P -1"
_symmetry_group_IT_number 2
_symmetry_cell_setting 'triclinic'
loop_
_space_group_symop_operation_xyz
x,y,z
-x,-y,-z
loop_
_atom_site_type_symbol
_atom_site_label
_atom_site_fract_x
_atom_site_fract_y
_atom_site_fract_z
Si Si1 0.081173 0.233177 0.982494
Si Si2 0.900951 0.798959 0.497152
Si Si3 0.595867 0.689674 0.317342
Si Si4 0.933756 0.412282 0.061143
Si Si5 0.588696 0.158916 0.348504
Si Si6 0.027823 0.800736 0.793963
O O1 0.353444 0.396011 0.075440
O O2 0.907019 0.913669 0.708774
O O3 0.110778 0.410708 0.048759
O O4 0.959458 0.237384 0.124798
O O5 0.676765 0.665685 0.374674
O O6 0.927279 0.600504 0.299405
O O7 0.156219 0.094105 0.632924
O O8 0.513306 0.832272 0.504265
O O9 0.000000 0.500000 0.000000
O O10 0.658325 0.088401 0.860585
O O11 0.738383 0.093121 0.243640
O O12 0.784557 0.481380 0.541354
O O13 0.000000 0.000000 0.000000
#
# Coordination Sequence:
#
# PCOD9018956 Si02
#       6
#     2   2   2   2   2   2
#     4  11  25  43  67 107 132 182 242 272 340 419
#     4  11  22  41  66 101 143 180 218 279 350 401
#     4  10  21  44  66  97 144 179 228 282 325 421
#     4  12  24  43  70 105 145 180 217 286 355 409
#     4  10  22  44  71  98 140 175 236 281 334 412
#     4  10  25  47  72  97 134 187 236 291 334 391
#
# _framework density 23.958988999999999
#
# number of rings (size 3 to 8) (size 9 to 14) (size 15 to 20)
#    0.000    1.333    3.333    1.500    4.667    5.333 
#    0.000    1.667    0.000    0.000    0.000    0.000 
#    0.000    0.000    0.000    0.000    0.000    0.000 
#
# Total GULP energy -67037.518591 kJ/mol
# GULP energy per Si atom -5586.459883 kJ/mol
# Density = 2.390446 g / cm^3
# Si number density = 23.958989 Si / 1000 Ang^3
#
#
#
# Elastic Constant Matrix: (Units=GPa)
#
#
# Indices 1 2 3 4 5 6 
#
# 1 129.9430 30.4247 71.6050 2.5035 -4.8972 14.9850
# 2 30.4247 41.5586 -1.3478 -11.4319 -3.0901 7.7823
# 3 71.6050 -1.3478 164.3597 -8.5364 -5.2085 -5.2115
# 4 2.5035 -11.4319 -8.5364 26.0440 12.2785 -3.8071
# 5 -4.8972 -3.0901 -5.2085 12.2785 51.0186 -2.4673
# 6 14.9850 7.7823 -5.2115 -3.8071 -2.4673 31.1750
#
#
#
# Elastic Compliance Matrix: (Units=1/GPa)
#
#
# Indices 1 2 3 4 5 6 
#
# 1 0.016909 -0.014706 -0.008313 -0.013134 0.002694 -0.007237
# 2 -0.014706 0.041277 0.007894 0.024043 -0.003857 0.000715
# 3 -0.008313 0.007894 0.010347 0.008905 -0.001177 0.004749
# 4 -0.013134 0.024043 0.008905 0.060478 -0.013056 0.008152
# 5 0.002694 -0.003857 -0.001177 -0.013056 0.022632 -0.000332
# 6 -0.007237 0.000715 0.004749 0.008152 -0.000332 0.037140
#
#
# Mechanical properties :
#
#
# Convention : Reuss Voigt Hill
#
# Bulk Modulus (GPa) = 26.12107 59.69170 42.90639
# Shear Modulus (GPa) = 21.57084 37.32615 29.44849
#
# Velocity S-wave (km/s) = 3.00379 3.95133 3.50969
# Velocity P-wave (km/s) = 4.79129 6.76650 5.86268
#
# Compressibility (1/GPa) = 0.03828327
#
# Stress axis : x y z
#
# Youngs Moduli (GPa) = 59.13938 24.22634 96.65018
#
# Poissons Ratio (x) = 0.35627 0.80350
# Poissons Ratio (y) = 0.86970 -0.76300
# Poissons Ratio (z) = 0.49165 -0.19125
#
# Static dielectric constant tensor:
#      x y z
#    x 1.933250 -0.033000 0.006870 
#    y -0.033000 1.966030 -0.002890 
#    z 0.006870 -0.002890 1.926250 
# 
# From -- ./inp_files/505765.got.cif
#   From: 2010.05.17/outbox.cif.g08.bks.cpg/sg2_253_cif.got.tgz:505765.got - 2010.06.03 11:33:40.
