data_PCOD9018396
_publ_section_title
;
Structure prediction by ZEFSAII (Michael W. Deem and Ramdas Pophale) SiO2 
 PCOD9018396
Probable space group: P -1
;
_chemical_formula_sum "Si O2"
_cell_formula_units_Z 14
_cell_length_a 9.480547
_cell_length_b 10.204554
_cell_length_c 9.270639
_cell_angle_alpha 68.318612
_cell_angle_beta 120.625572
_cell_angle_gamma 74.650976
_cell_volume 591.057889
_symmetry_space_group_name_H-M "P -1"
_symmetry_group_IT_number 2
_symmetry_cell_setting 'triclinic'
loop_
_space_group_symop_operation_xyz
x,y,z
-x,-y,-z
loop_
_atom_site_type_symbol
_atom_site_label
_atom_site_fract_x
_atom_site_fract_y
_atom_site_fract_z
Si Si1 0.555994 0.310774 0.592790
Si Si2 0.658795 0.298371 0.329779
Si Si3 0.888771 0.059093 0.069812
Si Si4 0.999604 0.813017 0.654945
Si Si5 0.710447 0.562531 0.120857
Si Si6 0.700579 0.875287 0.066777
Si Si7 0.567153 0.922782 0.408779
O O1 0.500000 0.500000 0.500000
O O2 0.668370 0.247327 0.520925
O O3 0.364572 0.520305 0.772052
O O4 0.396929 0.262676 0.512510
O O5 0.857719 0.175684 0.389881
O O6 0.468778 0.329276 0.131804
O O7 0.894856 0.393570 0.209627
O O8 0.969237 0.129315 0.198309
O O9 0.862646 0.913072 0.175508
O O10 0.674400 0.216051 0.838265
O O11 0.000000 0.000000 0.000000
O O12 0.766090 0.905558 0.469864
O O13 0.762381 0.682916 0.176534
O O14 0.626582 0.946954 0.838788
O O15 0.500000 0.000000 0.000000
O O16 0.500000 0.000000 0.500000
#
# Coordination Sequence:
#
# PCOD9018396 Si02
#       7
#     2   2   2   2   2   2   2
#     4  11  24  41  66  93 131 166 207 270 329 373
#     4   9  20  39  71  91 125 168 230 254 310 386
#     4  11  25  42  61  95 131 161 206 274 334 368
#     4  10  21  43  70  92 124 177 225 256 312 402
#     4   9  20  39  71  91 125 168 230 254 310 386
#     4  11  24  41  66  93 131 166 207 270 329 373
#     4  11  25  43  63  97 132 166 211 270 331 386
#
# _framework density 23.686343000000001
#
# number of rings (size 3 to 8) (size 9 to 14) (size 15 to 20)
#    0.857    0.857    0.000    4.286    4.000    2.286 
#    0.000   10.000    0.000    0.000    0.000    0.000 
#    0.000    0.000    0.000    0.000    0.000    0.000 
#
# Total GULP energy -78232.604639 kJ/mol
# GULP energy per Si atom -5588.043188 kJ/mol
# Density = 2.363243 g / cm^3
# Si number density = 23.686343 Si / 1000 Ang^3
#
#
#
# Elastic Constant Matrix: (Units=GPa)
#
#
# Indices 1 2 3 4 5 6 
#
# 1 96.8693 31.0124 -3.8561 12.3237 3.8283 1.7299
# 2 31.0124 179.7009 -0.0543 9.1764 5.0107 20.9431
# 3 -3.8561 -0.0543 71.3143 8.2379 -1.8288 -1.3083
# 4 12.3237 9.1764 8.2379 25.9392 -3.7140 -3.5372
# 5 3.8283 5.0107 -1.8288 -3.7140 38.0147 4.5892
# 6 1.7299 20.9431 -1.3083 -3.5372 4.5892 46.8846
#
#
#
# Elastic Compliance Matrix: (Units=1/GPa)
#
#
# Indices 1 2 3 4 5 6 
#
# 1 0.011676 -0.001702 0.001234 -0.005532 -0.001443 0.000088
# 2 -0.001702 0.006301 0.000067 -0.001901 -0.000498 -0.002845
# 3 0.001234 0.000067 0.014699 -0.005278 0.000067 -0.000070
# 4 -0.005532 -0.001901 -0.005278 0.044691 0.004456 0.003842
# 5 -0.001443 -0.000498 0.000067 0.004456 0.027203 -0.002049
# 6 0.000088 -0.002845 -0.000070 0.003842 -0.002049 0.023085
#
#
# Mechanical properties :
#
#
# Convention : Reuss Voigt Hill
#
# Bulk Modulus (GPa) = 31.37301 44.67649 38.02475
# Shear Modulus (GPa) = 35.94999 43.55318 39.75159
#
# Velocity S-wave (km/s) = 3.90006 4.29271 4.10109
# Velocity P-wave (km/s) = 5.79263 6.59337 6.20593
#
# Compressibility (1/GPa) = 0.03187453
#
# Stress axis : x y z
#
# Youngs Moduli (GPa) = 85.64229 158.70277 68.03023
#
# Poissons Ratio (x) = 0.27015 -0.08393
# Poissons Ratio (y) = 0.14578 -0.00458
# Poissons Ratio (z) = -0.10565 -0.01070
#
# Static dielectric constant tensor:
#      x y z
#    x 1.916980 0.012230 0.019020 
#    y 0.012230 1.974340 -0.034410 
#    z 0.019020 -0.034410 1.958930 
# 
# From -- ./inp_files/234405.got.cif
#   From: 2010.05.17/outbox.cif.g08.bks.cpg/sg2_118_cif.got.tgz:234405.got - 2010.06.03 11:33:40.
