data_PCOD9018519
_publ_section_title
;
Structure prediction by ZEFSAII (Michael W. Deem and Ramdas Pophale) SiO2 
 PCOD9018519
Probable space group: P -1
;
_chemical_formula_sum "Si O2"
_cell_formula_units_Z 16
_cell_length_a 16.307022
_cell_length_b 12.835492
_cell_length_c 8.627562
_cell_angle_alpha 104.087091
_cell_angle_beta 85.707706
_cell_angle_gamma 155.173158
_cell_volume 686.498040
_symmetry_space_group_name_H-M "P -1"
_symmetry_group_IT_number 2
_symmetry_cell_setting 'triclinic'
loop_
_space_group_symop_operation_xyz
x,y,z
-x,-y,-z
loop_
_atom_site_type_symbol
_atom_site_label
_atom_site_fract_x
_atom_site_fract_y
_atom_site_fract_z
Si Si1 0.629335 0.691712 0.303216
Si Si2 0.745005 0.473587 0.561316
Si Si3 0.772528 0.473103 0.889595
Si Si4 0.331505 0.839655 0.707756
Si Si5 0.786684 0.765457 0.617297
Si Si6 0.831884 0.770714 0.078250
Si Si7 0.952939 0.541999 0.131342
Si Si8 0.737917 0.060411 0.477191
O O1 0.710555 0.727215 0.457083
O O2 0.385310 0.419298 0.287733
O O3 0.690195 0.694369 0.145035
O O4 0.738500 0.939196 0.373505
O O5 0.865114 0.596121 0.749523
O O6 0.742235 0.362178 0.424350
O O7 0.814980 0.671341 0.556245
O O8 0.500277 0.200664 0.533765
O O9 0.578205 0.158772 0.782797
O O10 0.701273 0.508514 0.954588
O O11 0.922072 0.606783 0.048366
O O12 0.261120 0.748253 0.860037
O O13 0.223772 0.806527 0.614660
O O14 0.009890 0.074789 0.752212
O O15 0.000000 0.000000 0.000000
O O16 0.119170 0.755997 0.324070
O O17 0.000000 0.500000 0.000000
#
# Coordination Sequence:
#
# PCOD9018519 Si02
#       8
#     2   2   2   2   2   2   2   2
#     4  10  24  43  69  99 134 178 233 278 337 405
#     4  10  21  43  71  90 131 175 224 267 333 413
#     4  11  24  44  63 101 133 171 220 279 340 395
#     4  11  24  43  69  92 132 184 218 268 338 410
#     4  10  22  45  68 100 130 181 230 279 336 406
#     4  12  25  42  68 100 139 175 226 281 345 400
#     4  12  25  40  63 101 136 166 223 281 337 393
#     4  10  22  43  66  96 129 173 224 274 328 407
#
# _framework density 23.306692999999999
#
# number of rings (size 3 to 8) (size 9 to 14) (size 15 to 20)
#    0.000    1.250    1.250    4.875    3.500    1.500 
#    6.750    0.000    0.000    0.000    0.000    0.000 
#    0.000    0.000    0.000    0.000    0.000    0.000 
#
# Total GULP energy -89459.377665 kJ/mol
# GULP energy per Si atom -5591.211104 kJ/mol
# Density = 2.325365 g / cm^3
# Si number density = 23.306693 Si / 1000 Ang^3
#
#
#
# Elastic Constant Matrix: (Units=GPa)
#
#
# Indices 1 2 3 4 5 6 
#
# 1 150.6471 31.1838 74.3484 -18.6177 -16.1343 -21.6427
# 2 31.1838 49.4459 24.7041 -9.1201 -8.0743 0.1912
# 3 74.3484 24.7041 103.9998 -5.7978 -16.0081 2.3671
# 4 -18.6177 -9.1201 -5.7978 38.3129 7.0715 -3.8980
# 5 -16.1343 -8.0743 -16.0081 7.0715 68.5985 3.5218
# 6 -21.6427 0.1912 2.3671 -3.8980 3.5218 30.8901
#
#
#
# Elastic Compliance Matrix: (Units=1/GPa)
#
#
# Indices 1 2 3 4 5 6 
#
# 1 0.014375 -0.003335 -0.009482 0.006022 -0.000442 0.011629
# 2 -0.003335 0.024679 -0.003067 0.003377 0.001157 -0.001960
# 3 -0.009482 -0.003067 0.017458 -0.004017 0.002346 -0.008736
# 4 0.006022 0.003377 -0.004017 0.030609 -0.002725 0.008679
# 5 -0.000442 0.001157 0.002346 -0.002725 0.015572 -0.002616
# 6 0.011629 -0.001960 -0.008736 0.008679 -0.002616 0.042596
#
#
# Mechanical properties :
#
#
# Convention : Reuss Voigt Hill
#
# Bulk Modulus (GPa) = 40.41199 62.72949 51.57074
# Shear Modulus (GPa) = 26.98242 39.15073 33.06658
#
# Velocity S-wave (km/s) = 3.40621 4.10299 3.77073
# Velocity P-wave (km/s) = 5.73119 7.02988 6.41349
#
# Compressibility (1/GPa) = 0.02474513
#
# Stress axis : x y z
#
# Youngs Moduli (GPa) = 69.56309 40.51982 57.27991
#
# Poissons Ratio (x) = 0.13515 0.54310
# Poissons Ratio (y) = 0.23202 0.17567
# Poissons Ratio (z) = 0.65957 0.12427
#
# Static dielectric constant tensor:
#      x y z
#    x 1.917810 0.028630 0.004380 
#    y 0.028630 1.897210 -0.000540 
#    z 0.004380 -0.000540 1.887610 
# 
# From -- ./inp_files/308026.got.cif
#   From: 2010.05.17/outbox.cif.g08.bks.cpg/sg2_155_cif.got.tgz:308026.got - 2010.06.03 11:33:40.
