data_PCOD9018351
_publ_section_title
;
Structure prediction by ZEFSAII (Michael W. Deem and Ramdas Pophale) SiO2 
 PCOD9018351
Probable space group: P -1
;
_chemical_formula_sum "Si O2"
_cell_formula_units_Z 14
_cell_length_a 8.806324
_cell_length_b 11.126443
_cell_length_c 10.129892
_cell_angle_alpha 138.608244
_cell_angle_beta 70.740560
_cell_angle_gamma 125.045791
_cell_volume 527.869948
_symmetry_space_group_name_H-M "P -1"
_symmetry_group_IT_number 2
_symmetry_cell_setting 'triclinic'
loop_
_space_group_symop_operation_xyz
x,y,z
-x,-y,-z
loop_
_atom_site_type_symbol
_atom_site_label
_atom_site_fract_x
_atom_site_fract_y
_atom_site_fract_z
Si Si1 0.419648 0.890316 0.791735
Si Si2 0.324037 0.649547 0.965559
Si Si3 0.024963 0.034084 0.358042
Si Si4 0.912310 0.495251 0.849272
Si Si5 0.683878 0.999467 0.481085
Si Si6 0.036560 0.833059 0.925975
Si Si7 0.421830 0.362708 0.573053
O O1 0.448266 0.692020 0.597670
O O2 0.552172 0.097755 0.833860
O O3 0.500000 0.000000 0.000000
O O4 0.207228 0.832887 0.804701
O O5 0.460231 0.584085 0.801485
O O6 0.135470 0.596148 0.895725
O O7 0.222047 0.493816 0.991740
O O8 0.822305 0.982788 0.323710
O O9 0.216108 0.262639 0.480797
O O10 0.000000 0.000000 0.500000
O O11 0.071392 0.904231 0.131109
O O12 0.833254 0.244450 0.679618
O O13 0.883279 0.582671 0.791493
O O14 0.500000 0.000000 0.500000
O O15 0.616985 0.797989 0.427977
O O16 0.000000 0.000000 0.000000
#
# Coordination Sequence:
#
# PCOD9018351 Si02
#       7
#     2   2   2   2   2   2   2
#     4  12  24  45  70 108 150 192 244 309 367 442
#     4  11  23  42  80 110 138 191 267 306 357 438
#     4  10  21  43  70 100 138 195 243 294 360 427
#     4  11  22  44  73 108 141 198 253 306 367 445
#     4  11  24  40  70 108 145 187 249 310 357 442
#     4  12  28  47  72 106 160 194 235 314 391 442
#     4  11  22  43  71 105 145 188 249 309 358 432
#
# _framework density 26.521685000000002
#
# number of rings (size 3 to 8) (size 9 to 14) (size 15 to 20)
#    0.000    0.857    5.714    1.714    6.000    1.714 
#    2.571    2.857    0.000    0.000    0.000    0.000 
#    0.000    0.000    0.000    0.000    0.000    0.000 
#
# Total GULP energy -78014.965423 kJ/mol
# GULP energy per Si atom -5572.497530 kJ/mol
# Density = 2.646132 g / cm^3
# Si number density = 26.521685 Si / 1000 Ang^3
#
#
#
# Elastic Constant Matrix: (Units=GPa)
#
#
# Indices 1 2 3 4 5 6 
#
# 1 113.5312 49.1098 29.8615 -4.3042 -40.8434 11.3397
# 2 49.1098 166.7606 23.6969 0.3763 -20.7166 -15.0784
# 3 29.8615 23.6969 115.5249 -8.9239 -41.2774 -2.1187
# 4 -4.3042 0.3763 -8.9239 32.2235 2.7340 -6.3654
# 5 -40.8434 -20.7166 -41.2774 2.7340 45.7021 -3.7686
# 6 11.3397 -15.0784 -2.1187 -6.3654 -3.7686 38.5167
#
#
#
# Elastic Compliance Matrix: (Units=1/GPa)
#
#
# Indices 1 2 3 4 5 6 
#
# 1 0.014915 -0.003409 0.001288 0.000464 0.012561 -0.004349
# 2 -0.003409 0.007451 -0.000497 0.000078 0.000200 0.003926
# 3 0.001288 -0.000497 0.013326 0.003155 0.012933 0.001946
# 4 0.000464 0.000078 0.003155 0.032939 0.001798 0.005687
# 5 0.012561 0.000200 0.012933 0.001798 0.044918 0.001784
# 6 -0.004349 0.003926 0.001946 0.005687 0.001784 0.030001
#
#
# Mechanical properties :
#
#
# Convention : Reuss Voigt Hill
#
# Bulk Modulus (GPa) = 32.83596 66.79476 49.81536
# Shear Modulus (GPa) = 31.45879 42.83170 37.14525
#
# Velocity S-wave (km/s) = 3.44779 4.02303 3.74647
# Velocity P-wave (km/s) = 5.31577 6.84246 6.12685
#
# Compressibility (1/GPa) = 0.03045441
#
# Stress axis : x y z
#
# Youngs Moduli (GPa) = 67.04703 134.21015 75.04357
#
# Poissons Ratio (x) = 0.45755 -0.09667
# Poissons Ratio (y) = 0.22858 0.03733
# Poissons Ratio (z) = -0.08637 0.06676
#
# Static dielectric constant tensor:
#      x y z
#    x 2.194970 -0.022440 0.003500 
#    y -0.022440 2.301360 -0.075800 
#    z 0.003500 -0.075800 2.309910 
# 
# From -- ./inp_files/391553.got.cif
#   From: 2010.05.17/outbox.cif.g08.bks.cpg/sg2_196_cif.got.tgz:391553.got - 2010.06.03 11:33:40.
