data_PCOD9018393
_publ_section_title
;
Structure prediction by ZEFSAII (Michael W. Deem and Ramdas Pophale) SiO2 
 PCOD9018393
Probable space group: P -1
;
_chemical_formula_sum "Si O2"
_cell_formula_units_Z 16
_cell_length_a 12.387723
_cell_length_b 14.130456
_cell_length_c 8.038415
_cell_angle_alpha 78.926416
_cell_angle_beta 71.966029
_cell_angle_gamma 138.400508
_cell_volume 658.668416
_symmetry_space_group_name_H-M "P -1"
_symmetry_group_IT_number 2
_symmetry_cell_setting 'triclinic'
loop_
_space_group_symop_operation_xyz
x,y,z
-x,-y,-z
loop_
_atom_site_type_symbol
_atom_site_label
_atom_site_fract_x
_atom_site_fract_y
_atom_site_fract_z
Si Si1 0.985349 0.055653 0.151729
Si Si2 0.654101 0.135510 0.041527
Si Si3 0.941887 0.721731 0.194100
Si Si4 0.779400 0.937793 0.832825
Si Si5 0.316748 0.604804 0.369173
Si Si6 0.671404 0.212659 0.462176
Si Si7 0.442160 0.208211 0.357018
Si Si8 0.153530 0.506801 0.135363
O O1 0.150303 0.122975 0.179696
O O2 0.734971 0.870907 0.410282
O O3 0.050968 0.209525 0.000176
O O4 0.000000 0.000000 0.000000
O O5 0.493475 0.988258 0.319609
O O6 0.866811 0.220278 0.917914
O O7 0.740088 0.307868 0.951943
O O8 0.500000 0.000000 0.000000
O O9 0.719406 0.502903 0.437003
O O10 0.018620 0.851457 0.259162
O O11 0.705650 0.920612 0.694229
O O12 0.568003 0.793506 0.109353
O O13 0.259396 0.665504 0.457978
O O14 0.156998 0.466433 0.333001
O O15 0.537069 0.187747 0.419990
O O16 0.903297 0.337898 0.242302
O O17 0.672793 0.420272 0.093878
#
# Coordination Sequence:
#
# PCOD9018393 Si02
#       8
#     2   2   2   2   2   2   2   2
#     4  10  21  43  70  91 117 162 216 269 318 368
#     4  12  20  36  63  92 129 170 209 250 303 363
#     4  11  21  39  66  95 123 164 218 258 302 371
#     4  10  22  42  66  92 127 164 205 269 323 361
#     4  11  21  39  65  96 125 164 217 256 301 371
#     4  12  21  38  61  91 133 170 212 248 300 378
#     4  11  23  41  62  95 128 166 206 257 322 381
#     4  11  24  38  60  95 133 172 204 253 311 369
#
# _framework density 24.291433999999999
#
# number of rings (size 3 to 8) (size 9 to 14) (size 15 to 20)
#    0.000    1.000    5.000    3.375    0.000    1.000 
#    0.000    5.000    0.000   13.500    0.000    0.000 
#    0.000    0.000    0.000    0.000    0.000    0.000 
#
# Total GULP energy -89552.369495 kJ/mol
# GULP energy per Si atom -5597.023093 kJ/mol
# Density = 2.423615 g / cm^3
# Si number density = 24.291434 Si / 1000 Ang^3
#
#
#
# Elastic Constant Matrix: (Units=GPa)
#
#
# Indices 1 2 3 4 5 6 
#
# 1 91.0112 16.7588 24.7559 6.4054 9.5614 9.6974
# 2 16.7588 63.8777 33.8743 -2.5596 3.2252 1.3480
# 3 24.7559 33.8743 127.0920 11.6052 -4.9188 -4.5870
# 4 6.4054 -2.5596 11.6052 38.4603 -5.9114 6.7262
# 5 9.5614 3.2252 -4.9188 -5.9114 41.4325 4.7959
# 6 9.6974 1.3480 -4.5870 6.7262 4.7959 31.0200
#
#
#
# Elastic Compliance Matrix: (Units=1/GPa)
#
#
# Indices 1 2 3 4 5 6 
#
# 1 0.012686 -0.002110 -0.002005 -0.001484 -0.002818 -0.003413
# 2 -0.002110 0.019108 -0.005071 0.003263 -0.000966 -0.001479
# 3 -0.002005 -0.005071 0.010068 -0.003353 0.001242 0.002871
# 4 -0.001484 0.003263 -0.003353 0.029482 0.004742 -0.007299
# 5 -0.002818 -0.000966 0.001242 0.004742 0.026144 -0.003964
# 6 -0.003413 -0.001479 0.002871 -0.007299 -0.003964 0.035989
#
#
# Mechanical properties :
#
#
# Convention : Reuss Voigt Hill
#
# Bulk Modulus (GPa) = 42.57083 48.08432 45.32758
# Shear Modulus (GPa) = 31.31272 35.95535 33.63404
#
# Velocity S-wave (km/s) = 3.59422 3.85147 3.72506
# Velocity P-wave (km/s) = 5.89811 6.29413 6.09933
#
# Compressibility (1/GPa) = 0.02349026
#
# Stress axis : x y z
#
# Youngs Moduli (GPa) = 78.82795 52.33348 99.32155
#
# Poissons Ratio (x) = 0.11042 0.19918
# Poissons Ratio (y) = 0.16632 0.50363
# Poissons Ratio (z) = 0.15808 0.26537
#
# Static dielectric constant tensor:
#      x y z
#    x 1.945450 0.030480 0.031050 
#    y 0.030480 2.002070 0.068540 
#    z 0.031050 0.068540 1.954780 
# 
# From -- ./inp_files/272480.got.cif
#   From: 2010.05.17/outbox.cif.g08.bks.cpg/sg2_137_cif.got.tgz:272480.got - 2010.06.03 11:33:40.
