data_PCOD9018169
_publ_section_title
;
Structure prediction by ZEFSAII (Michael W. Deem and Ramdas Pophale) SiO2 
 PCOD9018169
Probable space group: P -1
;
_chemical_formula_sum "Si O2"
_cell_formula_units_Z 10
_cell_length_a 9.594368
_cell_length_b 8.397179
_cell_length_c 9.512382
_cell_angle_alpha 62.450891
_cell_angle_beta 137.687383
_cell_angle_gamma 131.474235
_cell_volume 385.977435
_symmetry_space_group_name_H-M "P -1"
_symmetry_group_IT_number 2
_symmetry_cell_setting 'triclinic'
loop_
_space_group_symop_operation_xyz
x,y,z
-x,-y,-z
loop_
_atom_site_type_symbol
_atom_site_label
_atom_site_fract_x
_atom_site_fract_y
_atom_site_fract_z
Si Si1 0.153253 0.839974 0.177988
Si Si2 0.134829 0.581553 0.716169
Si Si3 0.644690 0.930820 0.034954
Si Si4 0.608917 0.783001 0.593263
Si Si5 0.243742 0.298057 0.557386
O O1 0.382250 0.813485 0.389788
O O2 0.922880 0.620498 0.151710
O O3 0.169555 0.886004 0.006365
O O4 0.210312 0.041086 0.232432
O O5 0.422750 0.747726 0.848932
O O6 0.000000 0.500000 0.500000
O O7 0.995877 0.688418 0.635946
O O8 0.756563 0.827219 0.255878
O O9 0.500000 0.000000 0.000000
O O10 0.479967 0.538724 0.644158
O O11 0.722236 0.801235 0.517323
#
# Coordination Sequence:
#
# PCOD9018169 Si02
#       5
#     2   2   2   2   2
#     4  10  21  43  68  97 141 174 223 280 337 398
#     4  11  26  46  72 100 136 183 225 275 344 403
#     4  12  25  45  70 103 138 175 227 288 330 394
#     4   9  18  40  68  96 136 182 215 281 336 395
#     4  10  22  42  71  99 137 177 231 274 334 406
#
# _framework density 25.908249000000001
#
# number of rings (size 3 to 8) (size 9 to 14) (size 15 to 20)
#    0.000    1.600    2.000    3.600    0.000    4.800 
#    0.000    4.000    0.000    0.000    0.000    0.000 
#    0.000    0.000    0.000    0.000    0.000    0.000 
#
# Total GULP energy -56157.650336 kJ/mol
# GULP energy per Si atom -5615.765034 kJ/mol
# Density = 2.584928 g / cm^3
# Si number density = 25.908249 Si / 1000 Ang^3
#
#
#
# Elastic Constant Matrix: (Units=GPa)
#
#
# Indices 1 2 3 4 5 6 
#
# 1 96.9059 17.5377 12.4794 -0.4777 -14.0721 -9.9349
# 2 17.5377 107.0674 55.2364 -24.1732 -8.8646 6.9159
# 3 12.4794 55.2364 110.4729 -9.8705 -23.4283 12.3378
# 4 -0.4777 -24.1732 -9.8705 42.3711 17.8403 -14.7937
# 5 -14.0721 -8.8646 -23.4283 17.8403 40.7486 0.6915
# 6 -9.9349 6.9159 12.3378 -14.7937 0.6915 42.2873
#
#
#
# Elastic Compliance Matrix: (Units=1/GPa)
#
#
# Indices 1 2 3 4 5 6 
#
# 1 0.011591 -0.002430 0.000473 -0.002443 0.004780 0.002050
# 2 -0.002430 0.015907 -0.008607 0.011331 -0.007346 0.003423
# 3 0.000473 -0.008607 0.015551 -0.007910 0.010796 -0.005962
# 4 -0.002443 0.011331 -0.007910 0.042709 -0.021882 0.015180
# 5 0.004780 -0.007346 0.010796 -0.021882 0.040536 -0.009143
# 6 0.002050 0.003423 -0.005962 0.015180 -0.009143 0.030769
#
#
# Mechanical properties :
#
#
# Convention : Reuss Voigt Hill
#
# Bulk Modulus (GPa) = 45.62283 53.88370 49.75327
# Shear Modulus (GPa) = 26.95441 40.36091 33.65766
#
# Velocity S-wave (km/s) = 3.22899 3.95123 3.60823
# Velocity P-wave (km/s) = 5.61689 6.45440 6.05016
#
# Compressibility (1/GPa) = 0.02191885
#
# Stress axis : x y z
#
# Youngs Moduli (GPa) = 86.27677 62.86422 64.30584
#
# Poissons Ratio (x) = 0.15279 -0.03039
# Poissons Ratio (y) = 0.20970 0.55347
# Poissons Ratio (z) = -0.04077 0.54107
#
# Static dielectric constant tensor:
#      x y z
#    x 2.002280 -0.038990 0.017060 
#    y -0.038990 2.047760 0.031930 
#    z 0.017060 0.031930 2.003950 
# 
# From -- ./inp_files/143882.got.cif
#   From: 2010.05.17/outbox.cif.g08.bks.cpg/sg2_72_cif.got.tgz:143882.got - 2010.06.03 11:33:40.
