data_PCOD9018409
_publ_section_title
;
Structure prediction by ZEFSAII (Michael W. Deem and Ramdas Pophale) SiO2 
 PCOD9018409
Probable space group: P -1
;
_chemical_formula_sum "Si O2"
_cell_formula_units_Z 10
_cell_length_a 15.435982
_cell_length_b 11.945124
_cell_length_c 8.798989
_cell_angle_alpha 36.983995
_cell_angle_beta 40.708603
_cell_angle_gamma 27.025853
_cell_volume 437.044460
_symmetry_space_group_name_H-M "P -1"
_symmetry_group_IT_number 2
_symmetry_cell_setting 'triclinic'
loop_
_space_group_symop_operation_xyz
x,y,z
-x,-y,-z
loop_
_atom_site_type_symbol
_atom_site_label
_atom_site_fract_x
_atom_site_fract_y
_atom_site_fract_z
Si Si1 0.076501 0.447831 0.693469
Si Si2 0.308691 0.143555 0.413983
Si Si3 0.854012 0.002084 0.765132
Si Si4 0.660430 0.533119 0.518364
Si Si5 0.509214 0.792036 0.130001
O O1 0.235872 0.255856 0.557886
O O2 0.168584 0.495964 0.638789
O O3 0.880411 0.717106 0.584429
O O4 0.043237 0.278263 0.991406
O O5 0.470216 0.819301 0.534564
O O6 0.389147 0.253660 0.113083
O O7 0.728533 0.257782 0.771301
O O8 0.701528 0.068708 0.778679
O O9 0.000000 0.000000 0.500000
O O10 0.615463 0.563815 0.364054
O O11 0.500000 0.000000 0.000000
#
# Coordination Sequence:
#
# PCOD9018409 Si02
#       5
#     2   2   2   2   2
#     4  11  24  46  67 100 136 181 214 282 328 405
#     4  10  23  45  70  94 140 177 222 265 347 389
#     4  12  26  41  71 104 133 174 229 275 333 394
#     4  11  24  42  72  98 134 175 222 277 331 391
#     4  10  21  43  70  94 133 179 216 276 330 393
#
# _framework density 22.880967999999999
#
# number of rings (size 3 to 8) (size 9 to 14) (size 15 to 20)
#    0.000    1.200    4.000    2.400    5.600    2.400 
#    0.000    2.000    0.000    0.000    0.000    0.000 
#    0.000    0.000    0.000    0.000    0.000    0.000 
#
# Total GULP energy -55905.212395 kJ/mol
# GULP energy per Si atom -5590.521240 kJ/mol
# Density = 2.282889 g / cm^3
# Si number density = 22.880968 Si / 1000 Ang^3
#
#
#
# Elastic Constant Matrix: (Units=GPa)
#
#
# Indices 1 2 3 4 5 6 
#
# 1 103.2594 35.4429 41.0404 6.1451 -16.7933 -14.2963
# 2 35.4429 97.1680 0.8182 -3.6703 -14.4691 -1.5948
# 3 41.0404 0.8182 58.1990 18.4342 -9.7151 9.6587
# 4 6.1451 -3.6703 18.4342 49.5205 6.1803 -3.3902
# 5 -16.7933 -14.4691 -9.7151 6.1803 33.9984 4.6014
# 6 -14.2963 -1.5948 9.6587 -3.3902 4.6014 29.3176
#
#
#
# Elastic Compliance Matrix: (Units=1/GPa)
#
#
# Indices 1 2 3 4 5 6 
#
# 1 0.022741 -0.007849 -0.021210 0.005988 -0.001777 0.018622
# 2 -0.007849 0.013727 0.008123 -0.002206 0.005620 -0.006894
# 3 -0.021210 0.008123 0.044075 -0.016662 0.012434 -0.028300
# 4 0.005988 -0.002206 -0.016662 0.027564 -0.009508 0.012969
# 5 -0.001777 0.005620 0.012434 -0.009508 0.037790 -0.011688
# 6 0.018622 -0.006894 -0.028300 0.012969 -0.011688 0.055472
#
#
# Mechanical properties :
#
#
# Convention : Reuss Voigt Hill
#
# Bulk Modulus (GPa) = 25.85982 45.91437 35.88709
# Shear Modulus (GPa) = 19.52120 34.65562 27.08841
#
# Velocity S-wave (km/s) = 2.92406 3.89601 3.44449
# Velocity P-wave (km/s) = 4.76725 6.35207 5.61584
#
# Compressibility (1/GPa) = 0.03867003
#
# Stress axis : x y z
#
# Youngs Moduli (GPa) = 43.97295 72.85159 22.68869
#
# Poissons Ratio (x) = 0.57183 0.48123
# Poissons Ratio (y) = 0.34516 -0.18430
# Poissons Ratio (z) = 0.93267 -0.59178
#
# Static dielectric constant tensor:
#      x y z
#    x 1.831800 0.000510 0.046340 
#    y 0.000510 1.937070 -0.002260 
#    z 0.046340 -0.002260 1.920280 
# 
# From -- ./inp_files/249148.got.cif
#   From: 2010.05.17/outbox.cif.g08.bks.cpg/sg2_125_cif.got.tgz:249148.got - 2010.06.03 11:33:40.
