data_PCOD9018330
_publ_section_title
;
Structure prediction by ZEFSAII (Michael W. Deem and Ramdas Pophale) SiO2 
 PCOD9018330
Probable space group: P -1
;
_chemical_formula_sum "Si O2"
_cell_formula_units_Z 16
_cell_length_a 14.405679
_cell_length_b 10.098103
_cell_length_c 13.229357
_cell_angle_alpha 138.436636
_cell_angle_beta 151.051475
_cell_angle_gamma 50.199373
_cell_volume 617.355440
_symmetry_space_group_name_H-M "P -1"
_symmetry_group_IT_number 2
_symmetry_cell_setting 'triclinic'
loop_
_space_group_symop_operation_xyz
x,y,z
-x,-y,-z
loop_
_atom_site_type_symbol
_atom_site_label
_atom_site_fract_x
_atom_site_fract_y
_atom_site_fract_z
Si Si1 0.169595 0.632988 0.689224
Si Si2 0.516964 0.472474 0.208701
Si Si3 0.348793 0.612357 0.486073
Si Si4 0.938108 0.712878 0.014624
Si Si5 0.106296 0.984162 0.677180
Si Si6 0.691785 0.015207 0.829198
Si Si7 0.710197 0.158993 0.719227
Si Si8 0.383627 0.034680 0.827866
O O1 0.323641 0.492087 0.704522
O O2 0.000000 0.500000 0.500000
O O3 0.097447 0.777851 0.614162
O O4 0.261820 0.787875 0.947443
O O5 0.617378 0.425701 0.384972
O O6 0.379567 0.647019 0.203940
O O7 0.633927 0.009987 0.087028
O O8 0.500000 0.500000 0.500000
O O9 0.380034 0.849026 0.641568
O O10 0.143783 0.516425 0.203459
O O11 0.132426 0.770733 0.171976
O O12 0.906504 0.823158 0.153581
O O13 0.782154 0.829294 0.863705
O O14 0.133297 0.022304 0.598799
O O15 0.592980 0.733569 0.046297
O O16 0.779650 0.039479 0.814353
O O17 0.466262 0.968653 0.570870
#
# Coordination Sequence:
#
# PCOD9018330 Si02
#       8
#     2   2   2   2   2   2   2   2
#     4  11  26  47  78 109 152 213 259 318 410 468
#     4  11  24  44  73 107 154 199 255 323 386 465
#     4  11  23  41  75 104 149 197 247 312 394 455
#     4  11  24  46  75 110 150 202 255 322 394 462
#     4  11  25  46  72 110 149 199 258 324 382 465
#     4  10  25  46  75 104 156 198 259 321 389 455
#     4  11  25  46  74 115 149 202 263 318 390 467
#     4  10  21  43  69  98 146 196 244 301 392 444
#
# _framework density 25.916996000000001
#
# number of rings (size 3 to 8) (size 9 to 14) (size 15 to 20)
#    0.000    1.250    3.750    1.875    3.500    8.500 
#    0.000    1.875    0.000    0.000    0.000    0.000 
#    0.000    0.000    0.000    0.000    0.000    0.000 
#
# Total GULP energy -89642.478879 kJ/mol
# GULP energy per Si atom -5602.654930 kJ/mol
# Density = 2.585801 g / cm^3
# Si number density = 25.916996 Si / 1000 Ang^3
#
#
#
# Elastic Constant Matrix: (Units=GPa)
#
#
# Indices 1 2 3 4 5 6 
#
# 1 195.5945 47.8175 86.1634 17.9644 29.2524 -23.9121
# 2 47.8175 72.9385 50.9060 20.2561 1.3865 -36.1405
# 3 86.1634 50.9060 199.5215 11.0213 6.2884 -16.4996
# 4 17.9644 20.2561 11.0213 50.4975 -2.5442 -3.0489
# 5 29.2524 1.3865 6.2884 -2.5442 50.1317 -6.4012
# 6 -23.9121 -36.1405 -16.4996 -3.0489 -6.4012 52.5873
#
#
#
# Elastic Compliance Matrix: (Units=1/GPa)
#
#
# Indices 1 2 3 4 5 6 
#
# 1 0.007584 -0.002802 -0.002344 -0.001255 -0.004090 0.000217
# 2 -0.002802 0.029883 -0.004566 -0.008763 0.003198 0.017711
# 3 -0.002344 -0.004566 0.006960 0.001053 0.000431 -0.001907
# 4 -0.001255 -0.008763 0.001053 0.023320 0.001421 -0.004738
# 5 -0.004090 0.003198 0.000431 0.001421 0.022687 0.003318
# 6 0.000217 0.017711 -0.001907 -0.004738 0.003318 0.030817
#
#
# Mechanical properties :
#
#
# Convention : Reuss Voigt Hill
#
# Bulk Modulus (GPa) = 39.99761 93.09202 66.54482
# Shear Modulus (GPa) = 33.55490 49.52115 41.53803
#
# Velocity S-wave (km/s) = 3.60211 4.37597 4.00776
# Velocity P-wave (km/s) = 5.72422 7.84407 6.86644
#
# Compressibility (1/GPa) = 0.02500150
#
# Stress axis : x y z
#
# Youngs Moduli (GPa) = 131.86352 33.46405 143.68222
#
# Poissons Ratio (x) = 0.09377 0.33677
# Poissons Ratio (y) = 0.36951 0.65609
# Poissons Ratio (z) = 0.30907 0.15281
#
# Static dielectric constant tensor:
#      x y z
#    x 2.008900 0.028890 0.078800 
#    y 0.028890 2.194870 -0.233930 
#    z 0.078800 -0.233930 2.197590 
# 
# From -- ./inp_files/532083.got.cif
#   From: 2010.05.17/outbox.cif.g08.bks.cpg/sg2_267_cif.got.tgz:532083.got - 2010.06.03 11:33:40.
