data_PCOD9018790
_publ_section_title
;
Structure prediction by ZEFSAII (Michael W. Deem and Ramdas Pophale) SiO2 
 PCOD9018790
Probable space group: P -1
;
_chemical_formula_sum "Si O2"
_cell_formula_units_Z 16
_cell_length_a 6.826623
_cell_length_b 13.342012
_cell_length_c 12.893762
_cell_angle_alpha 56.194322
_cell_angle_beta 41.238002
_cell_angle_gamma 57.526712
_cell_volume 628.011255
_symmetry_space_group_name_H-M "P -1"
_symmetry_group_IT_number 2
_symmetry_cell_setting 'triclinic'
loop_
_space_group_symop_operation_xyz
x,y,z
-x,-y,-z
loop_
_atom_site_type_symbol
_atom_site_label
_atom_site_fract_x
_atom_site_fract_y
_atom_site_fract_z
Si Si1 0.802992 0.331907 0.160013
Si Si2 0.242385 0.928633 0.170748
Si Si3 0.047130 0.635310 0.577476
Si Si4 0.826292 0.259546 0.837218
Si Si5 0.738930 0.112232 0.157700
Si Si6 0.774195 0.912751 0.507066
Si Si7 0.265336 0.415506 0.065910
Si Si8 0.368726 0.383601 0.496214
O O1 0.784506 0.211881 0.170500
O O2 0.519572 0.370184 0.330127
O O3 0.087566 0.325112 0.127637
O O4 0.845020 0.442515 0.003625
O O5 0.326046 0.788848 0.175891
O O6 0.088574 0.952567 0.331592
O O7 0.959790 0.986796 0.175802
O O8 0.500000 0.000000 0.000000
O O9 0.178637 0.523011 0.512630
O O10 0.346046 0.645157 0.520807
O O11 0.886982 0.767584 0.518987
O O12 0.807786 0.602396 0.775272
O O13 0.144971 0.292878 0.663441
O O14 0.829385 0.163310 0.985152
O O15 0.603069 0.376618 0.910241
O O16 0.393892 0.093453 0.313422
O O17 0.500000 0.000000 0.500000
#
# Coordination Sequence:
#
# PCOD9018790 Si02
#       8
#     2   2   2   2   2   2   2   2
#     4  10  22  41  63  97 132 179 218 267 339 405
#     4  11  26  45  67  95 129 174 225 283 335 389
#     4  10  21  44  64 102 141 179 220 276 339 397
#     4  12  24  41  67 103 129 172 225 277 338 396
#     4  11  23  43  66  91 135 172 225 272 329 404
#     4  10  23  43  69  92 129 183 228 271 330 404
#     4  10  22  39  65  95 137 175 219 268 335 407
#     4  10  24  38  69 104 140 173 220 281 339 398
#
# _framework density 25.477250000000002
#
# number of rings (size 3 to 8) (size 9 to 14) (size 15 to 20)
#    0.000    1.500    1.250    2.625    5.250    2.500 
#    0.000    0.625    0.000    0.000    0.000    0.000 
#    0.000    0.000    0.000    0.000    0.000    0.000 
#
# Total GULP energy -89430.770728 kJ/mol
# GULP energy per Si atom -5589.423170 kJ/mol
# Density = 2.541926 g / cm^3
# Si number density = 25.477250 Si / 1000 Ang^3
#
#
#
# Elastic Constant Matrix: (Units=GPa)
#
#
# Indices 1 2 3 4 5 6 
#
# 1 75.1448 30.8888 41.6723 9.1210 -1.2513 26.5963
# 2 30.8888 106.0111 32.8379 12.4762 12.5911 2.3668
# 3 41.6723 32.8379 222.4184 8.9095 -9.3320 23.4052
# 4 9.1210 12.4762 8.9095 41.0742 0.3766 5.1954
# 5 -1.2513 12.5911 -9.3320 0.3766 44.1612 -4.8957
# 6 26.5963 2.3668 23.4052 5.1954 -4.8957 44.2869
#
#
#
# Elastic Compliance Matrix: (Units=1/GPa)
#
#
# Indices 1 2 3 4 5 6 
#
# 1 0.020390 -0.005025 -0.001875 -0.001233 0.000428 -0.010794
# 2 -0.005025 0.011905 -0.001164 -0.002586 -0.003437 0.002920
# 3 -0.001875 -0.001164 0.005228 -0.000196 0.001228 -0.001416
# 4 -0.001233 -0.002586 -0.000196 0.025700 0.000219 -0.002008
# 5 0.000428 -0.003437 0.001228 0.000219 0.024107 0.001917
# 6 -0.010794 0.002920 -0.001416 -0.002008 0.001917 0.030102
#
#
# Mechanical properties :
#
#
# Convention : Reuss Voigt Hill
#
# Bulk Modulus (GPa) = 46.74169 68.26360 57.50265
# Shear Modulus (GPa) = 35.53888 45.78281 40.66084
#
# Velocity S-wave (km/s) = 3.73892 4.24371 3.99929
# Velocity P-wave (km/s) = 6.08487 7.13192 6.62910
#
# Compressibility (1/GPa) = 0.02139418
#
# Stress axis : x y z
#
# Youngs Moduli (GPa) = 49.04316 83.99816 191.29271
#
# Poissons Ratio (x) = 0.42209 0.35872
# Poissons Ratio (y) = 0.24644 0.22268
# Poissons Ratio (z) = 0.09197 0.09778
#
# Static dielectric constant tensor:
#      x y z
#    x 2.071790 -0.017380 -0.002070 
#    y -0.017380 1.989420 0.002640 
#    z -0.002070 0.002640 2.026860 
# 
# From -- ./inp_files/505344.got.cif
#   From: 2010.05.17/outbox.cif.g08.bks.cpg/sg2_253_cif.got.tgz:505344.got - 2010.06.03 11:33:40.
