data_PCOD9018933
_publ_section_title
;
Structure prediction by ZEFSAII (Michael W. Deem and Ramdas Pophale) SiO2 
 PCOD9018933
Probable space group: P -1
;
_chemical_formula_sum "Si O2"
_cell_formula_units_Z 16
_cell_length_a 9.358779
_cell_length_b 8.450642
_cell_length_c 15.449261
_cell_angle_alpha 90.039390
_cell_angle_beta 120.732581
_cell_angle_gamma 129.892361
_cell_volume 698.773272
_symmetry_space_group_name_H-M "P -1"
_symmetry_group_IT_number 2
_symmetry_cell_setting 'triclinic'
loop_
_space_group_symop_operation_xyz
x,y,z
-x,-y,-z
loop_
_atom_site_type_symbol
_atom_site_label
_atom_site_fract_x
_atom_site_fract_y
_atom_site_fract_z
Si Si1 0.195227 0.712813 0.489564
Si Si2 0.155739 0.685550 0.893074
Si Si3 0.093905 0.891124 0.724176
Si Si4 0.531183 0.371935 0.947300
Si Si5 0.667338 0.244281 0.663476
Si Si6 0.916875 0.775916 0.931947
Si Si7 0.400398 0.440946 0.337361
Si Si8 0.046655 0.215664 0.505029
O O1 0.237595 0.678590 0.406871
O O2 0.000000 0.500000 0.500000
O O3 0.051064 0.777173 0.437288
O O4 0.469198 0.960827 0.608521
O O5 0.157604 0.788509 0.805571
O O6 0.900546 0.401820 0.801308
O O7 0.115823 0.790145 0.955272
O O8 0.380957 0.725235 0.976552
O O9 0.807014 0.738975 0.653843
O O10 0.108991 0.853591 0.629496
O O11 0.283050 0.159428 0.815185
O O12 0.750885 0.566075 0.949171
O O13 0.500000 0.500000 0.000000
O O14 0.551591 0.335564 0.645624
O O15 0.743964 0.695170 0.796159
O O16 0.000000 0.000000 0.000000
O O17 0.662834 0.539755 0.421982
O O18 0.000000 0.000000 0.500000
#
# Coordination Sequence:
#
# PCOD9018933 Si02
#       8
#     2   2   2   2   2   2   2   2
#     4  11  22  40  62  96 133 176 229 274 330 409
#     4  10  23  45  68  91 136 183 224 286 352 401
#     4  10  23  40  67  96 132 177 228 281 345 409
#     4  12  24  42  68 102 131 173 232 289 345 412
#     4   9  21  42  64  93 138 174 219 280 335 408
#     4  10  22  44  68  98 135 177 230 282 338 414
#     4  10  21  44  66  94 135 176 218 278 340 401
#     4  12  23  40  67  98 133 178 225 270 341 408
#
# _framework density 22.897271
#
# number of rings (size 3 to 8) (size 9 to 14) (size 15 to 20)
#    0.000    1.750    1.250    4.875    1.750    2.000 
#    4.500    1.250    0.000    0.000    0.000    0.000 
#    0.000    0.000    0.000    0.000    0.000    0.000 
#
# Total GULP energy -89317.003094 kJ/mol
# GULP energy per Si atom -5582.312693 kJ/mol
# Density = 2.284516 g / cm^3
# Si number density = 22.897271 Si / 1000 Ang^3
#
#
#
# Elastic Constant Matrix: (Units=GPa)
#
#
# Indices 1 2 3 4 5 6 
#
# 1 113.5859 10.4028 62.5227 6.8807 -15.2510 2.2848
# 2 10.4028 91.8576 17.9966 18.6898 -13.0773 16.4543
# 3 62.5227 17.9966 94.0799 29.7351 -23.9772 2.5155
# 4 6.8807 18.6898 29.7351 43.9048 1.9209 -6.0850
# 5 -15.2510 -13.0773 -23.9772 1.9209 40.5963 9.3236
# 6 2.2848 16.4543 2.5155 -6.0850 9.3236 28.8798
#
#
#
# Elastic Compliance Matrix: (Units=1/GPa)
#
#
# Indices 1 2 3 4 5 6 
#
# 1 0.015420 -0.002327 -0.013917 0.008855 -0.004674 0.004693
# 2 -0.002327 0.018253 0.007015 -0.015358 0.014154 -0.018632
# 3 -0.013917 0.007015 0.033146 -0.026797 0.022143 -0.018577
# 4 0.008855 -0.015358 -0.026797 0.051380 -0.026732 0.029840
# 5 -0.004674 0.014154 0.022143 -0.026732 0.048910 -0.031046
# 6 0.004693 -0.018632 -0.018577 0.029840 -0.031046 0.062799
#
#
# Mechanical properties :
#
#
# Convention : Reuss Voigt Hill
#
# Bulk Modulus (GPa) = 20.67893 53.48530 37.08211
# Shear Modulus (GPa) = 18.90447 36.58292 27.74370
#
# Velocity S-wave (km/s) = 2.87648 4.00146 3.48467
# Velocity P-wave (km/s) = 4.48140 6.69017 5.69392
#
# Compressibility (1/GPa) = 0.04835841
#
# Stress axis : x y z
#
# Youngs Moduli (GPa) = 64.85290 54.78516 30.16945
#
# Poissons Ratio (x) = 0.12750 0.41988
# Poissons Ratio (y) = 0.15093 -0.21163
# Poissons Ratio (z) = 0.90259 -0.38429
#
# Static dielectric constant tensor:
#      x y z
#    x 1.954700 -0.027190 0.013160 
#    y -0.027190 1.997070 0.014330 
#    z 0.013160 0.014330 1.874200 
# 
# From -- ./inp_files/495265.got.cif
#   From: 2010.05.17/outbox.cif.g08.bks.cpg/sg2_248_cif.got.tgz:495265.got - 2010.06.03 11:33:40.
