data_PCOD9018887
_publ_section_title
;
Structure prediction by ZEFSAII (Michael W. Deem and Ramdas Pophale) SiO2 
 PCOD9018887
Probable space group: P -1
;
_chemical_formula_sum "Si O2"
_cell_formula_units_Z 16
_cell_length_a 9.816184
_cell_length_b 16.182255
_cell_length_c 8.751720
_cell_angle_alpha 79.992228
_cell_angle_beta 107.948802
_cell_angle_gamma 143.512956
_cell_volume 779.679636
_symmetry_space_group_name_H-M "P -1"
_symmetry_group_IT_number 2
_symmetry_cell_setting 'triclinic'
loop_
_space_group_symop_operation_xyz
x,y,z
-x,-y,-z
loop_
_atom_site_type_symbol
_atom_site_label
_atom_site_fract_x
_atom_site_fract_y
_atom_site_fract_z
Si Si1 0.256691 0.082704 0.377526
Si Si2 0.494628 0.591980 0.907997
Si Si3 0.473736 0.397154 0.456514
Si Si4 0.018755 0.890410 0.630446
Si Si5 0.016704 0.590845 0.083924
Si Si6 0.213610 0.859805 0.941683
Si Si7 0.010736 0.103558 0.928981
Si Si8 0.238747 0.623389 0.445375
O O1 0.536298 0.237470 0.420408
O O2 0.088146 0.086427 0.305653
O O3 0.210841 0.023754 0.547614
O O4 0.146068 0.966708 0.256904
O O5 0.532762 0.607037 0.731290
O O6 0.242559 0.512747 0.897201
O O7 0.500000 0.500000 0.000000
O O8 0.709982 0.741975 0.017201
O O9 0.500000 0.500000 0.500000
O O10 0.681066 0.431171 0.562763
O O11 0.228157 0.247980 0.492829
O O12 0.117395 0.852670 0.751730
O O13 0.188853 0.654152 0.267940
O O14 0.111729 0.719551 0.989783
O O15 0.000000 0.500000 0.000000
O O16 0.109384 0.881503 0.012690
O O17 0.500000 0.000000 0.000000
O O18 0.000000 0.000000 0.000000
O O19 0.000000 0.500000 0.500000
#
# Coordination Sequence:
#
# PCOD9018887 Si02
#       8
#     2   2   2   2   2   2   2   2
#     4  10  23  42  73 105 132 186 232 286 354 419
#     4  12  25  47  71 105 144 179 246 294 340 441
#     4  11  24  42  72  98 136 184 229 293 355 412
#     4  10  21  44  66 100 140 173 238 283 339 427
#     4  12  29  46  72 106 144 195 235 297 368 415
#     4  12  26  46  66 103 148 180 234 299 348 429
#     4  12  24  44  75 102 138 189 235 285 358 416
#     4  11  24  46  69  99 146 180 239 292 350 428
#
# _framework density 20.521249000000001
#
# number of rings (size 3 to 8) (size 9 to 14) (size 15 to 20)
#    0.000    0.750    5.000    1.500    7.000    2.000 
#    0.000    1.250    0.000    0.000    0.000    0.000 
#    0.000    0.000    0.000    0.000    0.000    0.000 
#
# Total GULP energy -89257.444298 kJ/mol
# GULP energy per Si atom -5578.590269 kJ/mol
# Density = 2.047454 g / cm^3
# Si number density = 20.521249 Si / 1000 Ang^3
#
#
#
# Elastic Constant Matrix: (Units=GPa)
#
#
# Indices 1 2 3 4 5 6 
#
# 1 112.2315 66.0389 35.2321 6.6502 21.3881 -0.1879
# 2 66.0389 159.9951 41.9225 0.9180 4.2766 -1.3329
# 3 35.2321 41.9225 85.9716 -2.0554 18.3888 -3.7393
# 4 6.6502 0.9180 -2.0554 36.9498 -10.8951 7.2297
# 5 21.3881 4.2766 18.3888 -10.8951 32.7688 2.2374
# 6 -0.1879 -1.3329 -3.7393 7.2297 2.2374 47.1342
#
#
#
# Elastic Compliance Matrix: (Units=1/GPa)
#
#
# Indices 1 2 3 4 5 6 
#
# 1 0.014846 -0.005466 -0.001309 -0.005871 -0.010275 0.001189
# 2 -0.005466 0.009219 -0.003292 0.002151 0.004968 -0.000588
# 3 -0.001309 -0.003292 0.015539 -0.001540 -0.008067 0.001754
# 4 -0.005871 0.002151 -0.001540 0.033914 0.016105 -0.006051
# 5 -0.010275 0.004968 -0.008067 0.016105 0.046814 -0.005233
# 6 0.001189 -0.000588 0.001754 -0.006051 -0.005233 0.022520
#
#
# Mechanical properties :
#
#
# Convention : Reuss Voigt Hill
#
# Bulk Modulus (GPa) = 51.36620 71.62057 61.49339
# Shear Modulus (GPa) = 29.50282 37.70421 33.60351
#
# Velocity S-wave (km/s) = 3.79578 4.29105 4.05099
# Velocity P-wave (km/s) = 6.65550 7.71539 7.20496
#
# Compressibility (1/GPa) = 0.01946805
#
# Stress axis : x y z
#
# Youngs Moduli (GPa) = 67.35997 108.47162 64.35591
#
# Poissons Ratio (x) = 0.59294 0.08426
# Poissons Ratio (y) = 0.36821 0.21186
# Poissons Ratio (z) = 0.08819 0.35709
#
# Static dielectric constant tensor:
#      x y z
#    x 1.851250 -0.318000 -0.324820 
#    y -0.318000 2.588640 0.789000 
#    z -0.324820 0.789000 2.569280 
# 
# From -- ./inp_files/207097.got.cif
#   From: 2010.05.17/outbox.cif.g08.bks.cpg/sg2_104_cif.got.tgz:207097.got - 2010.06.03 11:33:40.
