data_PCOD9018504
_publ_section_title
;
Structure prediction by ZEFSAII (Michael W. Deem and Ramdas Pophale) SiO2 
 PCOD9018504
Probable space group: P -1
;
_chemical_formula_sum "Si O2"
_cell_formula_units_Z 13
_cell_length_a 15.173214
_cell_length_b 8.387353
_cell_length_c 5.338965
_cell_angle_alpha 111.233723
_cell_angle_beta 110.682533
_cell_angle_gamma 59.430476
_cell_volume 533.075219
_symmetry_space_group_name_H-M "P -1"
_symmetry_group_IT_number 2
_symmetry_cell_setting 'triclinic'
loop_
_space_group_symop_operation_xyz
x,y,z
-x,-y,-z
loop_
_atom_site_type_symbol
_atom_site_label
_atom_site_fract_x
_atom_site_fract_y
_atom_site_fract_z
Si Si1 0.281811 0.764233 0.656632
Si Si2 0.134211 0.063724 0.310098
Si Si3 0.931545 0.529989 0.196428
Si Si4 0.500000 0.500000 0.500000
Si Si5 0.909235 0.206408 0.234175
Si Si6 0.754282 0.847929 0.929938
Si Si7 0.536541 0.872673 0.713524
O O1 0.391225 0.590114 0.613062
O O2 0.191604 0.710085 0.641889
O O3 0.228597 0.886577 0.427096
O O4 0.292385 0.925527 0.934281
O O5 0.027919 0.142368 0.416268
O O6 0.180859 0.189603 0.283470
O O7 0.094878 0.979516 0.988781
O O8 0.894913 0.363064 0.097739
O O9 0.832676 0.731605 0.164780
O O10 0.000000 0.500000 0.500000
O O11 0.000000 0.500000 0.000000
O O12 0.494725 0.713881 0.591484
O O13 0.662095 0.785835 0.789134
O O14 0.500000 0.000000 0.500000
O O15 0.500000 0.000000 0.000000
#
# Coordination Sequence:
#
# PCOD9018504 Si02
#       7
#     2   2   2   1   2   2   2
#     4  11  24  46  73 110 150 212 265 336 400 486
#     4  10  21  43  71 105 149 201 256 329 403 484
#     4  12  27  44  72 113 160 205 257 321 405 495
#     4  12  28  52  82 116 162 216 290 336 422 490
#     4  10  23  40  69 107 149 199 261 322 402 488
#     4  11  25  46  77 111 158 206 263 334 414 477
#     4  12  29  55  84 118 162 214 282 352 413 481
#
# _framework density 24.386801999999999
#
# number of rings (size 3 to 8) (size 9 to 14) (size 15 to 20)
#    0.000    0.923    3.077    2.308    4.308    1.846 
#    2.769    0.000    0.000    0.000    0.000    0.000 
#    0.000    0.000    0.000    0.000    0.000    0.000 
#
# Total GULP energy -72410.670784 kJ/mol
# GULP energy per Si atom -5570.051599 kJ/mol
# Density = 2.433130 g / cm^3
# Si number density = 24.386802 Si / 1000 Ang^3
#
#
#
# Elastic Constant Matrix: (Units=GPa)
#
#
# Indices 1 2 3 4 5 6 
#
# 1 184.7160 38.4386 42.5180 -4.9026 -17.5414 7.2418
# 2 38.4386 104.7996 29.0346 17.6192 -23.7521 7.9791
# 3 42.5180 29.0346 88.7884 -14.9680 -21.8866 5.5844
# 4 -4.9026 17.6192 -14.9680 31.4912 3.2567 -7.9201
# 5 -17.5414 -23.7521 -21.8866 3.2567 39.4931 6.8720
# 6 7.2418 7.9791 5.5844 -7.9201 6.8720 58.4354
#
#
#
# Elastic Compliance Matrix: (Units=1/GPa)
#
#
# Indices 1 2 3 4 5 6 
#
# 1 0.006360 -0.001695 -0.002203 0.000753 0.000577 -0.000312
# 2 -0.001695 0.015681 -0.004226 -0.012954 0.008142 -0.004240
# 3 -0.002203 -0.004226 0.016470 0.009342 0.004841 -0.000027
# 4 0.000753 -0.012954 0.009342 0.046332 -0.007482 0.007942
# 5 0.000577 0.008142 0.004841 -0.007482 0.034952 -0.006770
# 6 -0.000312 -0.004240 -0.000027 0.007942 -0.006770 0.019606
#
#
# Mechanical properties :
#
#
# Convention : Reuss Voigt Hill
#
# Bulk Modulus (GPa) = 44.91698 66.47626 55.69662
# Shear Modulus (GPa) = 30.66187 43.77146 37.21666
#
# Velocity S-wave (km/s) = 3.54971 4.24120 3.91077
# Velocity P-wave (km/s) = 5.93794 7.16254 6.57880
#
# Compressibility (1/GPa) = 0.02226330
#
# Stress axis : x y z
#
# Youngs Moduli (GPa) = 157.22162 63.77318 60.71766
#
# Poissons Ratio (x) = 0.10807 0.13375
# Poissons Ratio (y) = 0.26643 0.25661
# Poissons Ratio (z) = 0.34632 0.26953
#
# Static dielectric constant tensor:
#      x y z
#    x 1.969270 -0.018580 0.010550 
#    y -0.018580 2.002790 0.106770 
#    z 0.010550 0.106770 2.092600 
# 
# From -- ./inp_files/88001.got.cif
#   From: 2010.05.17/outbox.cif.g08.bks.cpg/sg2_45_cif.got.tgz:88001.got - 2010.06.03 11:33:40.
