data_PCOD9018163
_publ_section_title
;
Structure prediction by ZEFSAII (Michael W. Deem and Ramdas Pophale) SiO2 
 PCOD9018163
Probable space group: P -1
;
_chemical_formula_sum "Si O2"
_cell_formula_units_Z 15
_cell_length_a 9.199114
_cell_length_b 9.279304
_cell_length_c 12.829706
_cell_angle_alpha 37.160767
_cell_angle_beta 93.529253
_cell_angle_gamma 105.608148
_cell_volume 614.754083
_symmetry_space_group_name_H-M "P -1"
_symmetry_group_IT_number 2
_symmetry_cell_setting 'triclinic'
loop_
_space_group_symop_operation_xyz
x,y,z
-x,-y,-z
loop_
_atom_site_type_symbol
_atom_site_label
_atom_site_fract_x
_atom_site_fract_y
_atom_site_fract_z
Si Si1 0.637303 0.935611 0.339163
Si Si2 0.742766 0.645552 0.133455
Si Si3 0.861997 0.897341 0.211621
Si Si4 0.564942 0.308785 0.828127
Si Si5 0.500000 0.500000 0.500000
Si Si6 0.141615 0.095698 0.231227
Si Si7 0.312133 0.927259 0.521162
Si Si8 0.183874 0.599868 0.048009
O O1 0.692978 0.792686 0.325264
O O2 0.465694 0.730513 0.446541
O O3 0.722660 0.952273 0.441778
O O4 0.685307 0.221250 0.132526
O O5 0.837645 0.801108 0.148952
O O6 0.563690 0.609597 0.166504
O O7 0.764483 0.376242 0.291591
O O8 0.779661 0.786844 0.942739
O O9 0.901867 0.204832 0.038840
O O10 0.987797 0.865346 0.314992
O O11 0.579384 0.408853 0.656004
O O12 0.723379 0.413897 0.837766
O O13 0.500000 0.000000 0.000000
O O14 0.248998 0.021366 0.361943
O O15 0.099470 0.321694 0.157276
O O16 0.500000 0.000000 0.500000
#
# Coordination Sequence:
#
# PCOD9018163 Si02
#       8
#     2   2   2   2   1   2   2   2
#     4  10  22  42  68  96 136 168 223 279 321 394
#     4  12  24  46  66 100 141 167 226 282 322 416
#     4  10  23  45  70 100 128 183 230 272 328 397
#     4  12  22  40  69  99 132 168 223 279 338 384
#     4  12  20  38  66  98 134 164 220 274 320 394
#     4  12  26  44  72  92 139 186 217 272 346 390
#     4  12  28  44  66 105 137 178 219 277 345 395
#     4  10  21  43  68  97 130 174 224 278 324 390
#
# _framework density 24.400002000000001
#
# number of rings (size 3 to 8) (size 9 to 14) (size 15 to 20)
#    0.800    0.000    5.333    3.200    1.867    3.200 
#    0.000    1.333    0.000    0.000    0.000    0.000 
#    0.000    0.000    0.000    0.000    0.000    0.000 
#
# Total GULP energy -83585.516081 kJ/mol
# GULP energy per Si atom -5572.367739 kJ/mol
# Density = 2.434447 g / cm^3
# Si number density = 24.400002 Si / 1000 Ang^3
#
#
#
# Elastic Constant Matrix: (Units=GPa)
#
#
# Indices 1 2 3 4 5 6 
#
# 1 42.3297 34.8950 22.8746 16.0905 8.2366 16.8684
# 2 34.8950 205.1493 68.8039 42.4121 29.4387 21.1766
# 3 22.8746 68.8039 154.5579 37.1739 18.6399 10.1458
# 4 16.0905 42.4121 37.1739 59.1581 6.5589 14.9872
# 5 8.2366 29.4387 18.6399 6.5589 28.4287 8.7587
# 6 16.8684 21.1766 10.1458 14.9872 8.7587 40.1405
#
#
#
# Elastic Compliance Matrix: (Units=1/GPa)
#
#
# Indices 1 2 3 4 5 6 
#
# 1 0.032599 -0.003100 -0.001992 -0.002651 -0.001136 -0.010322
# 2 -0.003100 0.007187 -0.001462 -0.002849 -0.004935 0.000021
# 3 -0.001992 -0.001462 0.008626 -0.003877 -0.003152 0.001563
# 4 -0.002651 -0.002849 -0.003877 0.023244 0.002641 -0.005658
# 5 -0.001136 -0.004935 -0.003152 0.002641 0.044150 -0.006742
# 6 -0.010322 0.000021 0.001563 -0.005658 -0.006742 0.032427
#
#
# Mechanical properties :
#
#
# Convention : Reuss Voigt Hill
#
# Bulk Modulus (GPa) = 28.32589 72.79820 50.56204
# Shear Modulus (GPa) = 28.88364 43.90968 36.39666
#
# Velocity S-wave (km/s) = 3.44431 4.24674 3.86640
# Velocity P-wave (km/s) = 5.23945 7.34483 6.37959
#
# Compressibility (1/GPa) = 0.03530340
#
# Stress axis : x y z
#
# Youngs Moduli (GPa) = 30.67625 139.14001 115.93437
#
# Poissons Ratio (x) = 0.43134 0.23097
# Poissons Ratio (y) = 0.09510 0.16944
# Poissons Ratio (z) = 0.06112 0.20336
#
# Static dielectric constant tensor:
#      x y z
#    x 2.161620 -0.040880 -0.097470 
#    y -0.040880 2.090330 -0.158970 
#    z -0.097470 -0.158970 2.067430 
# 
# From -- ./inp_files/416192.got.cif
#   From: 2010.05.17/outbox.cif.g08.bks.cpg/sg2_209_cif.got.tgz:416192.got - 2010.06.03 11:33:40.
