data_PCOD9018830
_publ_section_title
;
Structure prediction by ZEFSAII (Michael W. Deem and Ramdas Pophale) SiO2 
 PCOD9018830
Probable space group: P -1
;
_chemical_formula_sum "Si O2"
_cell_formula_units_Z 16
_cell_length_a 10.052229
_cell_length_b 14.700284
_cell_length_c 9.864254
_cell_angle_alpha 70.622830
_cell_angle_beta 106.639990
_cell_angle_gamma 52.758195
_cell_volume 833.131485
_symmetry_space_group_name_H-M "P -1"
_symmetry_group_IT_number 2
_symmetry_cell_setting 'triclinic'
loop_
_space_group_symop_operation_xyz
x,y,z
-x,-y,-z
loop_
_atom_site_type_symbol
_atom_site_label
_atom_site_fract_x
_atom_site_fract_y
_atom_site_fract_z
Si Si1 0.462050 0.945609 0.137468
Si Si2 0.439775 0.620215 0.121439
Si Si3 0.457652 0.646399 0.808837
Si Si4 0.223992 0.391632 0.704825
Si Si5 0.977541 0.913959 0.951185
Si Si6 0.549975 0.031751 0.364687
Si Si7 0.799291 0.612622 0.985987
Si Si8 0.160023 0.962100 0.456727
O O1 0.596970 0.778395 0.219237
O O2 0.211368 0.050837 0.051966
O O3 0.564663 0.945581 0.294710
O O4 0.500000 0.000000 0.000000
O O5 0.531180 0.464523 0.196897
O O6 0.634355 0.584771 0.251586
O O7 0.358094 0.697651 0.907599
O O8 0.222005 0.737988 0.092638
O O9 0.690486 0.566849 0.952589
O O10 0.353654 0.778691 0.609976
O O11 0.000000 0.500000 0.500000
O O12 0.159037 0.400243 0.835955
O O13 0.902244 0.982810 0.742782
O O14 0.000000 0.000000 0.000000
O O15 0.363388 0.211530 0.186060
O O16 0.764354 0.979305 0.481145
O O17 0.500000 0.000000 0.500000
O O18 0.000000 0.500000 0.000000
O O19 0.000000 0.000000 0.500000
#
# Coordination Sequence:
#
# PCOD9018830 Si02
#       8
#     2   2   2   2   2   2   2   2
#     4  12  26  46  68  99 140 180 226 279 347 403
#     4  10  21  44  64  99 130 174 225 270 337 394
#     4   9  21  39  68  94 130 166 220 280 322 392
#     4  11  25  44  65  95 138 182 220 280 339 404
#     4  12  25  43  72  97 139 179 220 283 339 403
#     4  11  24  42  66 100 130 172 228 276 326 405
#     4  10  23  41  65  94 132 170 219 278 337 394
#     4  11  23  41  67 101 132 170 226 275 331 397
#
# _framework density 19.204650999999998
#
# number of rings (size 3 to 8) (size 9 to 14) (size 15 to 20)
#    0.000    1.250    5.000    0.000    5.250    1.000 
#    0.000    0.625    0.000    0.000    0.000    0.000 
#    0.000    0.000    0.000    0.000    0.000    0.000 
#
# Total GULP energy -89171.209784 kJ/mol
# GULP energy per Si atom -5573.200611 kJ/mol
# Density = 1.916094 g / cm^3
# Si number density = 19.204651 Si / 1000 Ang^3
#
#
#
# Elastic Constant Matrix: (Units=GPa)
#
#
# Indices 1 2 3 4 5 6 
#
# 1 156.8260 65.1646 50.7646 22.2936 8.8223 -1.7884
# 2 65.1646 113.2612 28.2828 26.9776 21.3925 0.6768
# 3 50.7646 28.2828 97.3807 25.8800 8.9073 -0.1493
# 4 22.2936 26.9776 25.8800 28.4694 0.2407 2.6364
# 5 8.8223 21.3925 8.9073 0.2407 25.3697 6.4611
# 6 -1.7884 0.6768 -0.1493 2.6364 6.4611 50.8930
#
#
#
# Elastic Compliance Matrix: (Units=1/GPa)
#
#
# Indices 1 2 3 4 5 6 
#
# 1 0.009537 -0.005211 -0.003961 0.001046 0.002451 0.000027
# 2 -0.005211 0.017395 0.003029 -0.015240 -0.014337 0.002204
# 3 -0.003961 0.003029 0.015897 -0.014299 -0.007004 0.001497
# 4 0.001046 -0.015240 -0.014299 0.062086 0.018278 -0.005339
# 5 0.002451 -0.014337 -0.007004 0.018278 0.054890 -0.007659
# 6 0.000027 0.002204 0.001497 -0.005339 -0.007659 0.020874
#
#
# Mechanical properties :
#
#
# Convention : Reuss Voigt Hill
#
# Bulk Modulus (GPa) = 32.73833 72.87686 52.80760
# Shear Modulus (GPa) = 24.61280 35.83015 30.22148
#
# Velocity S-wave (km/s) = 3.58384 4.32406 3.97123
# Velocity P-wave (km/s) = 5.84887 7.93473 6.97026
#
# Compressibility (1/GPa) = 0.03054523
#
# Stress axis : x y z
#
# Youngs Moduli (GPa) = 104.85058 57.48672 62.90454
#
# Poissons Ratio (x) = 0.29954 0.24915
# Poissons Ratio (y) = 0.54633 -0.19053
# Poissons Ratio (z) = 0.41528 -0.17412
#
# Static dielectric constant tensor:
#      x y z
#    x 1.654890 -0.062240 0.043580 
#    y -0.062240 1.658330 -0.006790 
#    z 0.043580 -0.006790 1.636540 
# 
# From -- ./inp_files/206400.got.cif
#   From: 2010.05.17/outbox.cif.g08.bks.cpg/sg2_104_cif.got.tgz:206400.got - 2010.06.03 11:33:40.
