data_PCOD9018768
_publ_section_title
;
Structure prediction by ZEFSAII (Michael W. Deem and Ramdas Pophale) SiO2 
 PCOD9018768
Probable space group: P -1
;
_chemical_formula_sum "Si O2"
_cell_formula_units_Z 16
_cell_length_a 16.785431
_cell_length_b 25.766157
_cell_length_c 13.653970
_cell_angle_alpha 158.920356
_cell_angle_beta 30.110281
_cell_angle_gamma 160.811105
_cell_volume 691.532082
_symmetry_space_group_name_H-M "P -1"
_symmetry_group_IT_number 2
_symmetry_cell_setting 'triclinic'
loop_
_space_group_symop_operation_xyz
x,y,z
-x,-y,-z
loop_
_atom_site_type_symbol
_atom_site_label
_atom_site_fract_x
_atom_site_fract_y
_atom_site_fract_z
Si Si1 0.516855 0.431090 0.549823
Si Si2 0.514918 0.890540 0.463534
Si Si3 0.434053 0.697139 0.534830
Si Si4 0.258620 0.545099 0.968085
Si Si5 0.569822 0.855101 0.013605
Si Si6 0.838259 0.197011 0.929305
Si Si7 0.820824 0.506173 0.736461
Si Si8 0.063839 0.876472 0.722422
O O1 0.476216 0.347532 0.555285
O O2 0.436172 0.537896 0.801149
O O3 0.372712 0.229095 0.272469
O O4 0.807461 0.617745 0.549847
O O5 0.416103 0.716056 0.344289
O O6 0.774267 0.052692 0.419547
O O7 0.325452 0.725361 0.284693
O O8 0.479254 0.027819 0.779876
O O9 0.276789 0.502557 0.278226
O O10 0.649667 0.936693 0.676445
O O11 0.280374 0.725945 0.794846
O O12 0.331409 0.639869 0.949387
O O13 0.990503 0.307849 0.862655
O O14 0.773663 0.021786 0.173128
O O15 0.021302 0.301659 0.011859
O O16 0.000000 0.500000 0.500000
O O17 0.000000 0.000000 0.000000
#
# Coordination Sequence:
#
# PCOD9018768 Si02
#       8
#     2   2   2   2   2   2   2   2
#     4  12  26  40  64  98 130 170 209 257 325 385
#     4  10  22  41  69  97 123 171 215 258 321 378
#     4  10  23  39  62  95 122 164 220 259 310 376
#     4  10  21  44  63  90 135 166 204 264 326 376
#     4  11  25  41  66  96 129 164 213 259 318 379
#     4   9  21  40  64  86 127 165 210 269 309 365
#     4   9  20  39  64  90 124 162 210 266 310 361
#     4  11  23  43  67  92 137 167 203 266 323 378
#
# _framework density 23.137032000000001
#
# number of rings (size 3 to 8) (size 9 to 14) (size 15 to 20)
#    0.000    1.750    2.500    1.875   12.250    2.000 
#    0.000    2.500    0.000    0.000    0.000    0.000 
#    0.000    0.000    0.000    0.000    0.000    0.000 
#
# Total GULP energy -89417.333181 kJ/mol
# GULP energy per Si atom -5588.583324 kJ/mol
# Density = 2.308437 g / cm^3
# Si number density = 23.137032 Si / 1000 Ang^3
#
#
#
# Elastic Constant Matrix: (Units=GPa)
#
#
# Indices 1 2 3 4 5 6 
#
# 1 40.5871 1.9554 25.9099 -4.9509 29.3396 -12.6643
# 2 1.9554 42.2631 -22.5680 1.2353 -9.2846 36.8333
# 3 25.9099 -22.5680 62.8716 0.1063 0.8288 20.4839
# 4 -4.9509 1.2353 0.1063 8.5149 -3.5635 5.3268
# 5 29.3396 -9.2846 0.8288 -3.5635 26.0920 6.3417
# 6 -12.6643 36.8333 20.4839 5.3268 6.3417 2.4985
#
#
#
# Elastic Compliance Matrix: (Units=1/GPa)
#
#
# Indices 1 2 3 4 5 6 
#
# 1 0.037636 0.015835 -0.000422 0.026050 -0.026325 -0.027935
# 2 0.015835 0.010837 -0.004722 -0.003416 -0.015984 0.007067
# 3 -0.000422 -0.004722 0.010878 -0.008875 -0.005444 0.011030
# 4 0.026050 -0.003416 -0.008875 0.135411 -0.009351 -0.009799
# 5 -0.026325 -0.015984 -0.005444 -0.009351 0.053778 0.030271
# 6 -0.027935 0.007067 0.011030 -0.009799 0.030271 0.008091
#
#
# Mechanical properties :
#
#
# Convention : Reuss Voigt Hill
#
# Bulk Modulus (GPa) = 12.38658 17.36849 14.87754
# Shear Modulus (GPa) = 19.07241 16.78272 17.92756
#
# Velocity S-wave (km/s) = 2.87422 2.69618 2.78662
# Velocity P-wave (km/s) = 4.04723 4.14917 4.09851
#
# Compressibility (1/GPa) = 0.08073252
#
# Stress axis : x y z
#
# Youngs Moduli (GPa) = 26.57057 92.27759 91.93258
#
# Poissons Ratio (x) = -1.46119 0.03878
# Poissons Ratio (y) = -0.42074 0.43407
# Poissons Ratio (z) = 0.01121 0.43570
#
# Static dielectric constant tensor:
#      x y z
#    x 1.875490 0.024940 0.019220 
#    y 0.024940 1.901520 -0.000560 
#    z 0.019220 -0.000560 1.815300 
# 
# From -- ./inp_files/539406.got.cif
#   From: 2010.05.17/outbox.cif.g08.bks.cpg/sg2_270_cif.got.tgz:539406.got - 2010.06.03 11:33:40.
