data_PCOD9018873
_publ_section_title
;
Structure prediction by ZEFSAII (Michael W. Deem and Ramdas Pophale) SiO2 
 PCOD9018873
Probable space group: P -1
;
_chemical_formula_sum "Si O2"
_cell_formula_units_Z 14
_cell_length_a 11.425096
_cell_length_b 11.888343
_cell_length_c 17.571636
_cell_angle_alpha 149.742541
_cell_angle_beta 148.288798
_cell_angle_gamma 37.312525
_cell_volume 615.413248
_symmetry_space_group_name_H-M "P -1"
_symmetry_group_IT_number 2
_symmetry_cell_setting 'triclinic'
loop_
_space_group_symop_operation_xyz
x,y,z
-x,-y,-z
loop_
_atom_site_type_symbol
_atom_site_label
_atom_site_fract_x
_atom_site_fract_y
_atom_site_fract_z
Si Si1 0.161097 0.680555 0.689368
Si Si2 0.219783 0.862134 0.221311
Si Si3 0.888581 0.269356 0.475496
Si Si4 0.147529 0.559335 0.875637
Si Si5 0.370803 0.943307 0.508811
Si Si6 0.398240 0.785779 0.025163
Si Si7 0.453630 0.772506 0.622462
O O1 0.245713 0.672733 0.644394
O O2 0.000000 0.500000 0.500000
O O3 0.351796 0.660870 0.848604
O O4 0.988830 0.921219 0.754713
O O5 0.327431 0.798366 0.326771
O O6 0.421304 0.939812 0.330509
O O7 0.124821 0.677362 0.013729
O O8 0.763703 0.137651 0.389039
O O9 0.940580 0.480930 0.675258
O O10 0.136598 0.131433 0.503773
O O11 0.356260 0.337363 0.875179
O O12 0.221425 0.730919 0.956688
O O13 0.415201 0.809785 0.533563
O O14 0.384025 0.055332 0.165918
O O15 0.500000 0.500000 0.500000
#
# Coordination Sequence:
#
# PCOD9018873 Si02
#       7
#     2   2   2   2   2   2   2
#     4  11  25  41  67 103 140 174 222 289 343 389
#     4  10  23  38  73 101 129 170 234 291 327 384
#     4  11  24  44  69  97 135 184 220 275 345 400
#     4  11  21  41  73 100 125 176 240 283 326 391
#     4  10  21  44  65  97 132 177 229 276 333 399
#     4  11  24  42  68 101 138 174 229 284 336 398
#     4  12  27  42  68 100 147 183 217 271 351 417
#
# _framework density 22.748940999999999
#
# number of rings (size 3 to 8) (size 9 to 14) (size 15 to 20)
#    0.000    1.143    4.286    1.286    8.000    1.143 
#    0.000    0.714    0.000    0.000    0.000    0.000 
#    0.000    0.000    0.000    0.000    0.000    0.000 
#
# Total GULP energy -78247.379232 kJ/mol
# GULP energy per Si atom -5589.098517 kJ/mol
# Density = 2.269716 g / cm^3
# Si number density = 22.748941 Si / 1000 Ang^3
#
#
#
# Elastic Constant Matrix: (Units=GPa)
#
#
# Indices 1 2 3 4 5 6 
#
# 1 137.8315 25.0238 56.5795 -14.1536 -16.7949 29.7816
# 2 25.0238 47.5830 34.7995 3.1797 -7.2122 11.2078
# 3 56.5795 34.7995 143.3516 0.5541 -30.6066 24.7266
# 4 -14.1536 3.1797 0.5541 34.1778 7.6827 -6.9384
# 5 -16.7949 -7.2122 -30.6066 7.6827 46.1281 -10.1388
# 6 29.7816 11.2078 24.7266 -6.9384 -10.1388 40.2543
#
#
#
# Elastic Compliance Matrix: (Units=1/GPa)
#
#
# Indices 1 2 3 4 5 6 
#
# 1 0.010147 -0.002595 -0.002608 0.003566 -0.000042 -0.004579
# 2 -0.002595 0.027064 -0.004970 -0.004171 -0.000040 -0.003291
# 3 -0.002608 -0.004970 0.010766 -0.002469 0.005302 -0.002390
# 4 0.003566 -0.004171 -0.002469 0.033306 -0.005578 0.004376
# 5 -0.000042 -0.000040 0.005302 -0.005578 0.026663 0.002539
# 6 -0.004579 -0.003291 -0.002390 0.004376 0.002539 0.032008
#
#
# Mechanical properties :
#
#
# Convention : Reuss Voigt Hill
#
# Bulk Modulus (GPa) = 36.19318 62.39684 49.29501
# Shear Modulus (GPa) = 29.49692 38.26960 33.88326
#
# Velocity S-wave (km/s) = 3.60478 4.10598 3.86352
# Velocity P-wave (km/s) = 5.76804 7.06872 6.45124
#
# Compressibility (1/GPa) = 0.02762951
#
# Stress axis : x y z
#
# Youngs Moduli (GPa) = 98.54739 36.95000 92.88839
#
# Poissons Ratio (x) = 0.09590 0.24225
# Poissons Ratio (y) = 0.25576 0.46168
# Poissons Ratio (z) = 0.25701 0.18365
#
# Static dielectric constant tensor:
#      x y z
#    x 1.856940 -0.048290 -0.028520 
#    y -0.048290 1.925930 -0.012570 
#    z -0.028520 -0.012570 1.840970 
# 
# From -- ./inp_files/157588.got.cif
#   From: 2010.05.17/outbox.cif.g08.bks.cpg/sg2_79_cif.got.tgz:157588.got - 2010.06.03 11:33:40.
