data_PCOD9018708
_publ_section_title
;
Structure prediction by ZEFSAII (Michael W. Deem and Ramdas Pophale) SiO2 
 PCOD9018708
Probable space group: P -1
;
_chemical_formula_sum "Si O2"
_cell_formula_units_Z 16
_cell_length_a 18.800462
_cell_length_b 8.963528
_cell_length_c 5.274842
_cell_angle_alpha 100.560569
_cell_angle_beta 116.263894
_cell_angle_gamma 111.049532
_cell_volume 678.915118
_symmetry_space_group_name_H-M "P -1"
_symmetry_group_IT_number 2
_symmetry_cell_setting 'triclinic'
loop_
_space_group_symop_operation_xyz
x,y,z
-x,-y,-z
loop_
_atom_site_type_symbol
_atom_site_label
_atom_site_fract_x
_atom_site_fract_y
_atom_site_fract_z
Si Si1 0.260264 0.680768 0.863212
Si Si2 0.987671 0.093497 0.757877
Si Si3 0.820869 0.153607 0.598154
Si Si4 0.373104 0.123358 0.772918
Si Si5 0.411767 0.329750 0.414112
Si Si6 0.328909 0.545052 0.535182
Si Si7 0.137198 0.490407 0.005014
Si Si8 0.422828 0.887962 0.544537
O O1 0.227453 0.789958 0.676853
O O2 0.322706 0.603108 0.827325
O O3 0.165598 0.517189 0.763364
O O4 0.326275 0.813856 0.220491
O O5 0.891186 0.090613 0.610897
O O6 0.000000 0.000000 0.500000
O O7 0.059665 0.301729 0.909824
O O8 0.000000 0.000000 0.000000
O O9 0.871621 0.338332 0.890406
O O10 0.732263 0.985099 0.520505
O O11 0.431054 0.254337 0.677325
O O12 0.413637 0.992609 0.799273
O O13 0.376089 0.202891 0.076072
O O14 0.500000 0.500000 0.500000
O O15 0.339681 0.383746 0.424819
O O16 0.231597 0.517815 0.282211
O O17 0.413366 0.711280 0.585386
O O18 0.500000 0.000000 0.500000
#
# Coordination Sequence:
#
# PCOD9018708 Si02
#       8
#     2   2   2   2   2   2   2   2
#     4  10  21  43  76 102 142 193 253 291 379 419
#     4  12  32  48  76 116 148 187 240 303 370 448
#     4  11  25  48  75 106 143 195 243 303 368 442
#     4  12  26  45  72 105 141 195 244 299 365 432
#     4  12  29  45  67 101 152 197 239 298 372 435
#     4  10  24  42  69  99 139 195 238 298 368 436
#     4  10  24  48  75 103 144 189 244 298 372 435
#     4  11  23  41  71 106 143 186 255 312 349 430
#
# _framework density 23.567011000000001
#
# number of rings (size 3 to 8) (size 9 to 14) (size 15 to 20)
#    0.000    1.000    3.750    2.250   14.000    1.000 
#    0.000    0.000    0.000    0.000    0.000    0.000 
#    0.000    0.000    0.000    0.000    0.000    0.000 
#
# Total GULP energy -89317.576751 kJ/mol
# GULP energy per Si atom -5582.348547 kJ/mol
# Density = 2.351337 g / cm^3
# Si number density = 23.567011 Si / 1000 Ang^3
#
#
#
# Elastic Constant Matrix: (Units=GPa)
#
#
# Indices 1 2 3 4 5 6 
#
# 1 160.2923 46.8981 44.1011 12.5263 -19.6897 -25.0314
# 2 46.8981 116.3112 27.3548 3.1920 -14.2354 9.1773
# 3 44.1011 27.3548 80.7625 10.0650 -32.2439 -9.5032
# 4 12.5263 3.1920 10.0650 31.3693 3.3752 -3.4103
# 5 -19.6897 -14.2354 -32.2439 3.3752 46.5725 15.7496
# 6 -25.0314 9.1773 -9.5032 -3.4103 15.7496 55.7322
#
#
#
# Elastic Compliance Matrix: (Units=1/GPa)
#
#
# Indices 1 2 3 4 5 6 
#
# 1 0.008716 -0.003093 -0.003383 -0.001556 -0.000839 0.003989
# 2 -0.003093 0.010812 -0.001510 -0.000077 0.002341 -0.004094
# 3 -0.003383 -0.001510 0.020835 -0.006875 0.013712 -0.002014
# 4 -0.001556 -0.000077 -0.006875 0.036000 -0.009030 0.002896
# 5 -0.000839 0.002341 0.013712 -0.009030 0.034977 -0.008861
# 6 0.003989 -0.004094 -0.002014 0.002896 -0.008861 0.022747
#
#
# Mechanical properties :
#
#
# Convention : Reuss Voigt Hill
#
# Bulk Modulus (GPa) = 41.00178 66.00824 53.50501
# Shear Modulus (GPa) = 31.60740 42.66892 37.13816
#
# Velocity S-wave (km/s) = 3.66617 4.25966 3.97401
# Velocity P-wave (km/s) = 5.94616 7.22928 6.61888
#
# Compressibility (1/GPa) = 0.02438918
#
# Stress axis : x y z
#
# Youngs Moduli (GPa) = 114.73141 92.49181 47.99510
#
# Poissons Ratio (x) = 0.28612 0.16239
# Poissons Ratio (y) = 0.35491 0.07248
# Poissons Ratio (z) = 0.38819 0.13967
#
# Static dielectric constant tensor:
#      x y z
#    x 1.950630 0.069170 -0.084900 
#    y 0.069170 2.002780 -0.041070 
#    z -0.084900 -0.041070 2.027050 
# 
# From -- ./inp_files/107405.got.cif
#   From: 2010.05.17/outbox.cif.g08.bks.cpg/sg2_54_cif.got.tgz:107405.got - 2010.06.03 11:33:40.
