data_PCOD9018457
_publ_section_title
;
Structure prediction by ZEFSAII (Michael W. Deem and Ramdas Pophale) SiO2 
 PCOD9018457
Probable space group: P -1
;
_chemical_formula_sum "Si O2"
_cell_formula_units_Z 16
_cell_length_a 10.484906
_cell_length_b 8.849186
_cell_length_c 7.927025
_cell_angle_alpha 119.284306
_cell_angle_beta 94.279829
_cell_angle_gamma 84.174003
_cell_volume 637.920818
_symmetry_space_group_name_H-M "P -1"
_symmetry_group_IT_number 2
_symmetry_cell_setting 'triclinic'
loop_
_space_group_symop_operation_xyz
x,y,z
-x,-y,-z
loop_
_atom_site_type_symbol
_atom_site_label
_atom_site_fract_x
_atom_site_fract_y
_atom_site_fract_z
Si Si1 0.020010 0.843232 0.546272
Si Si2 0.852148 0.046665 0.060379
Si Si3 0.873296 0.512421 0.798323
Si Si4 0.407185 0.430244 0.228618
Si Si5 0.236350 0.266896 0.555415
Si Si6 0.851998 0.388506 0.103409
Si Si7 0.517681 0.228571 0.434651
Si Si8 0.668211 0.864018 0.158205
O O1 0.881321 0.812072 0.593316
O O2 0.126784 0.867495 0.707357
O O3 0.062388 0.668629 0.358752
O O4 0.000000 0.000000 0.500000
O O5 0.800635 0.200269 0.015041
O O6 0.751658 0.909768 0.026739
O O7 0.000000 0.000000 0.000000
O O8 0.741244 0.564880 0.720695
O O9 0.992607 0.631427 0.869811
O O10 0.833379 0.472561 0.964116
O O11 0.507092 0.334850 0.316195
O O12 0.431802 0.635528 0.348080
O O13 0.408870 0.302167 0.996116
O O14 0.208133 0.473485 0.692026
O O15 0.372250 0.207906 0.461754
O O16 0.240794 0.192253 0.706768
O O17 0.587928 0.039983 0.305507
#
# Coordination Sequence:
#
# PCOD9018457 Si02
#       8
#     2   2   2   2   2   2   2   2
#     4  11  23  41  68 107 147 185 228 299 369 429
#     4  12  26  41  71 109 145 185 240 296 369 437
#     4  10  21  43  70  98 145 187 229 294 365 427
#     4  11  25  47  74 103 144 192 243 307 354 419
#     4  11  25  45  72 104 145 189 245 293 361 435
#     4  10  23  41  70 106 140 182 236 292 366 438
#     4  11  28  47  73 105 143 194 255 294 353 422
#     4  12  25  51  73 104 147 192 241 302 358 429
#
# _framework density 25.081482000000001
#
# number of rings (size 3 to 8) (size 9 to 14) (size 15 to 20)
#    0.000    1.000    2.500    3.000   10.500    1.500 
#    0.000    0.000    0.000    0.000    0.000    0.000 
#    0.000    0.000    0.000    0.000    0.000    0.000 
#
# Total GULP energy -89464.708943 kJ/mol
# GULP energy per Si atom -5591.544309 kJ/mol
# Density = 2.502440 g / cm^3
# Si number density = 25.081482 Si / 1000 Ang^3
#
#
#
# Elastic Constant Matrix: (Units=GPa)
#
#
# Indices 1 2 3 4 5 6 
#
# 1 101.1611 15.2922 30.1477 20.7919 -10.9355 -3.4677
# 2 15.2922 81.3115 24.5116 19.3954 -8.8238 -11.9923
# 3 30.1477 24.5116 100.6308 27.1446 8.7391 0.3234
# 4 20.7919 19.3954 27.1446 43.2909 -5.0471 -6.2257
# 5 -10.9355 -8.8238 8.7391 -5.0471 40.9563 -1.7391
# 6 -3.4677 -11.9923 0.3234 -6.2257 -1.7391 31.0212
#
#
#
# Elastic Compliance Matrix: (Units=1/GPa)
#
#
# Indices 1 2 3 4 5 6 
#
# 1 0.011847 -0.000057 -0.002945 -0.003296 0.003410 0.000863
# 2 -0.000057 0.015314 -0.003052 -0.003710 0.003708 0.005409
# 3 -0.002945 -0.003052 0.013959 -0.007092 -0.005440 -0.003383
# 4 -0.003296 -0.003710 -0.007092 0.031962 0.003981 0.004909
# 5 0.003410 0.003708 -0.005440 0.003981 0.027957 0.004238
# 6 0.000863 0.005409 -0.003383 0.004909 0.004238 0.035682
#
#
# Mechanical properties :
#
#
# Convention : Reuss Voigt Hill
#
# Bulk Modulus (GPa) = 34.46713 47.00074 40.73394
# Shear Modulus (GPa) = 31.54589 37.26380 34.40484
#
# Velocity S-wave (km/s) = 3.55030 3.85867 3.70770
# Velocity P-wave (km/s) = 5.52975 6.21549 5.88262
#
# Compressibility (1/GPa) = 0.02901315
#
# Stress axis : x y z
#
# Youngs Moduli (GPa) = 84.40821 65.29913 71.63689
#
# Poissons Ratio (x) = 0.00370 0.21099
# Poissons Ratio (y) = 0.00479 0.21862
# Poissons Ratio (z) = 0.24860 0.19928
#
# Static dielectric constant tensor:
#      x y z
#    x 1.999340 0.046490 0.015770 
#    y 0.046490 1.997000 0.011770 
#    z 0.015770 0.011770 2.056120 
# 
# From -- ./inp_files/246066.got.cif
#   From: 2010.05.17/outbox.cif.g08.bks.cpg/sg2_124_cif.got.tgz:246066.got - 2010.06.03 11:33:40.
