data_PCOD9018386
_publ_section_title
;
Structure prediction by ZEFSAII (Michael W. Deem and Ramdas Pophale) SiO2 
 PCOD9018386
Probable space group: P -1
;
_chemical_formula_sum "Si O2"
_cell_formula_units_Z 16
_cell_length_a 11.788688
_cell_length_b 13.751234
_cell_length_c 7.384317
_cell_angle_alpha 60.285762
_cell_angle_beta 91.262558
_cell_angle_gamma 45.607076
_cell_volume 597.495637
_symmetry_space_group_name_H-M "P -1"
_symmetry_group_IT_number 2
_symmetry_cell_setting 'triclinic'
loop_
_space_group_symop_operation_xyz
x,y,z
-x,-y,-z
loop_
_atom_site_type_symbol
_atom_site_label
_atom_site_fract_x
_atom_site_fract_y
_atom_site_fract_z
Si Si1 0.569143 0.840748 0.020895
Si Si2 0.242256 0.963730 0.327313
Si Si3 0.328745 0.422290 0.438276
Si Si4 0.643804 0.368870 0.874006
Si Si5 0.894084 0.977771 0.110960
Si Si6 0.705960 0.888208 0.537088
Si Si7 0.002904 0.522479 0.263131
Si Si8 0.195992 0.748901 0.625139
O O1 0.382882 0.971960 0.765914
O O2 0.627535 0.686448 0.283144
O O3 0.770354 0.710137 0.040238
O O4 0.500000 0.000000 0.000000
O O5 0.479640 0.755335 0.515007
O O6 0.206921 0.094762 0.335295
O O7 0.164254 0.908921 0.454031
O O8 0.167597 0.044402 0.044782
O O9 0.133186 0.528771 0.245602
O O10 0.033858 0.822889 0.421079
O O11 0.683787 0.434789 0.670395
O O12 0.413992 0.552833 0.736671
O O13 0.769546 0.305518 0.112977
O O14 0.708729 0.193357 0.986385
O O15 0.000000 0.000000 0.000000
O O16 0.500000 0.000000 0.500000
O O17 0.869848 0.671224 0.664804
O O18 0.000000 0.500000 0.500000
#
# Coordination Sequence:
#
# PCOD9018386 Si02
#       8
#     2   2   2   2   2   2   2   2
#     4  11  22  44  75 103 151 193 250 318 378 454
#     4  10  22  42  69 106 147 204 246 302 376 444
#     4  10  21  43  70 110 145 194 249 303 386 441
#     4  10  21  43  72 106 156 184 248 319 360 443
#     4  10  22  43  70 101 145 196 246 297 366 442
#     4  12  23  45  73 109 158 194 246 323 374 445
#     4  10  21  44  73 110 145 194 249 310 382 452
#     4   9  21  43  73 108 147 196 249 307 371 433
#
# _framework density 26.778438000000001
#
# number of rings (size 3 to 8) (size 9 to 14) (size 15 to 20)
#    0.000    1.750    3.750    0.375    0.000    6.000 
#   11.250   11.250    0.000    3.000    0.000    0.875 
#    0.000    0.000    0.000    0.000    0.000    0.000 
#
# Total GULP energy -89693.414278 kJ/mol
# GULP energy per Si atom -5605.838392 kJ/mol
# Density = 2.671749 g / cm^3
# Si number density = 26.778438 Si / 1000 Ang^3
#
#
#
# Elastic Constant Matrix: (Units=GPa)
#
#
# Indices 1 2 3 4 5 6 
#
# 1 95.4748 48.9734 46.4795 -3.3875 3.0344 -3.5496
# 2 48.9734 185.3157 85.1031 -7.1559 16.8260 21.0813
# 3 46.4795 85.1031 212.7518 0.7164 14.5513 21.9826
# 4 -3.3875 -7.1559 0.7164 63.6443 -8.1816 13.5394
# 5 3.0344 16.8260 14.5513 -8.1816 48.9629 2.4232
# 6 -3.5496 21.0813 21.9826 13.5394 2.4232 33.4661
#
#
#
# Elastic Compliance Matrix: (Units=1/GPa)
#
#
# Indices 1 2 3 4 5 6 
#
# 1 0.013315 -0.003157 -0.002205 -0.000626 0.000560 0.005062
# 2 -0.003157 0.007791 -0.001866 0.001504 -0.001452 -0.004521
# 3 -0.002205 -0.001866 0.006322 0.000168 -0.000914 -0.003213
# 4 -0.000626 0.001504 0.000168 0.018060 0.002918 -0.008642
# 5 0.000560 -0.001452 -0.000914 0.002918 0.021705 -0.001177
# 6 0.005062 -0.004521 -0.003213 -0.008642 -0.001177 0.038958
#
#
# Mechanical properties :
#
#
# Convention : Reuss Voigt Hill
#
# Bulk Modulus (GPa) = 77.08247 94.96158 86.02202
# Shear Modulus (GPa) = 40.02174 50.08043 45.05109
#
# Velocity S-wave (km/s) = 3.87014 4.32925 4.10611
# Velocity P-wave (km/s) = 6.98701 7.78002 7.39416
#
# Compressibility (1/GPa) = 0.01297312
#
# Stress axis : x y z
#
# Youngs Moduli (GPa) = 75.10253 128.34578 158.16901
#
# Poissons Ratio (x) = 0.40518 0.34882
# Poissons Ratio (y) = 0.23709 0.29508
# Poissons Ratio (z) = 0.16563 0.23944
#
# Static dielectric constant tensor:
#      x y z
#    x 2.162300 -0.069760 -0.031000 
#    y -0.069760 2.123350 0.015960 
#    z -0.031000 0.015960 2.134020 
# 
# From -- ./inp_files/335439.got.cif
#   From: 2010.05.17/outbox.cif.g08.bks.cpg/sg2_168_cif.got.tgz:335439.got - 2010.06.03 11:33:40.
