data_PCOD9018515
_publ_section_title
;
Structure prediction by ZEFSAII (Michael W. Deem and Ramdas Pophale) SiO2 
 PCOD9018515
Probable space group: P -1
;
_chemical_formula_sum "Si O2"
_cell_formula_units_Z 12
_cell_length_a 5.529647
_cell_length_b 6.708576
_cell_length_c 17.241840
_cell_angle_alpha 50.070058
_cell_angle_beta 101.084027
_cell_angle_gamma 77.336242
_cell_volume 428.536649
_symmetry_space_group_name_H-M "P -1"
_symmetry_group_IT_number 2
_symmetry_cell_setting 'triclinic'
loop_
_space_group_symop_operation_xyz
x,y,z
-x,-y,-z
loop_
_atom_site_type_symbol
_atom_site_label
_atom_site_fract_x
_atom_site_fract_y
_atom_site_fract_z
Si Si1 0.486106 0.936851 0.169731
Si Si2 0.570492 0.655796 0.788108
Si Si3 0.805685 0.538798 0.095417
Si Si4 0.823675 0.326615 0.544668
Si Si5 0.352013 0.909151 0.546453
Si Si6 0.025007 0.901752 0.221787
O O1 0.473896 0.109967 0.205368
O O2 0.811164 0.783704 0.213734
O O3 0.311003 0.769706 0.224875
O O4 0.333935 0.168811 0.035904
O O5 0.419901 0.468755 0.856741
O O6 0.409924 0.829186 0.658525
O O7 0.903288 0.498599 0.843798
O O8 0.880299 0.257077 0.112944
O O9 0.664599 0.778656 0.557027
O O10 0.831921 0.176961 0.499147
O O11 0.000000 0.500000 0.500000
O O12 0.930734 0.120762 0.677341
O O13 0.500000 0.500000 0.500000
#
# Coordination Sequence:
#
# PCOD9018515 Si02
#       6
#     2   2   2   2   2   2
#     4  10  17  30  53  88 117 144 188 256 312 352
#     4  10  18  29  48  79 115 145 179 238 305 353
#     4  10  18  30  52  88 119 144 187 255 313 354
#     4  12  26  43  61  89 128 173 212 247 304 381
#     4  12  23  40  64  91 121 161 212 269 311 353
#     4  10  18  32  52  77 112 151 194 241 291 353
#
# _framework density 28.002271
#
# number of rings (size 3 to 8) (size 9 to 14) (size 15 to 20)
#    0.000    1.333    0.000   12.000    0.000    0.000 
#    0.000    0.000    0.000    0.000    0.000   39.667 
#    0.000    0.000    0.000    0.000    0.000    0.000 
#
# Total GULP energy -67211.622396 kJ/mol
# GULP energy per Si atom -5600.968533 kJ/mol
# Density = 2.793854 g / cm^3
# Si number density = 28.002271 Si / 1000 Ang^3
#
#
#
# Elastic Constant Matrix: (Units=GPa)
#
#
# Indices 1 2 3 4 5 6 
#
# 1 285.2926 40.6370 101.9213 18.8959 -6.0443 21.7955
# 2 40.6370 84.7268 17.6901 15.3816 2.2476 7.9381
# 3 101.9213 17.6901 189.6207 10.5290 -7.9922 8.0610
# 4 18.8959 15.3816 10.5290 31.4547 -1.4644 2.8107
# 5 -6.0443 2.2476 -7.9922 -1.4644 66.1600 5.7197
# 6 21.7955 7.9381 8.0610 2.8107 5.7197 63.5526
#
#
#
# Elastic Compliance Matrix: (Units=1/GPa)
#
#
# Indices 1 2 3 4 5 6 
#
# 1 0.004692 -0.001457 -0.002259 -0.001238 0.000274 -0.001111
# 2 -0.001457 0.013672 -0.000166 -0.005708 -0.000668 -0.000874
# 3 -0.002259 -0.000166 0.006571 -0.000729 0.000582 -0.000058
# 4 -0.001238 -0.005708 -0.000729 0.035646 0.000818 -0.000420
# 5 0.000274 -0.000668 0.000582 0.000818 0.015381 -0.001505
# 6 -0.001111 -0.000874 -0.000058 -0.000420 -0.001505 0.016386
#
#
# Mechanical properties :
#
#
# Convention : Reuss Voigt Hill
#
# Bulk Modulus (GPa) = 58.23897 97.79300 78.01599
# Shear Modulus (GPa) = 47.24237 58.85957 53.05097
#
# Velocity S-wave (km/s) = 4.11188 4.58968 4.35733
# Velocity P-wave (km/s) = 6.58684 7.94267 7.29632
#
# Compressibility (1/GPa) = 0.01717063
#
# Stress axis : x y z
#
# Youngs Moduli (GPa) = 213.11351 73.14113 152.19057
#
# Poissons Ratio (x) = 0.10660 0.34375
# Poissons Ratio (y) = 0.31059 0.02530
# Poissons Ratio (z) = 0.48135 0.01216
#
# Static dielectric constant tensor:
#      x y z
#    x 2.360380 -0.210020 0.011340 
#    y -0.210020 2.422310 0.014780 
#    z 0.011340 0.014780 2.058660 
# 
# From -- ./inp_files/54143.got.cif
#   From: 2010.05.17/outbox.cif.g08.bks.cpg/sg2_28_cif.got.tgz:54143.got - 2010.06.03 11:33:40.
