data_PCOD9018994
_publ_section_title
;
Structure prediction by ZEFSAII (Michael W. Deem and Ramdas Pophale) SiO2 
 PCOD9018994
Probable space group: P -1
;
_chemical_formula_sum "Si O2"
_cell_formula_units_Z 16
_cell_length_a 15.097341
_cell_length_b 14.574812
_cell_length_c 6.915251
_cell_angle_alpha 63.322178
_cell_angle_beta 89.749382
_cell_angle_gamma 139.082171
_cell_volume 720.860761
_symmetry_space_group_name_H-M "P -1"
_symmetry_group_IT_number 2
_symmetry_cell_setting 'triclinic'
loop_
_space_group_symop_operation_xyz
x,y,z
-x,-y,-z
loop_
_atom_site_type_symbol
_atom_site_label
_atom_site_fract_x
_atom_site_fract_y
_atom_site_fract_z
Si Si1 0.575402 0.762605 0.586111
Si Si2 0.280590 0.453234 0.155681
Si Si3 0.383384 0.652761 0.350119
Si Si4 0.361189 0.951368 0.510488
Si Si5 0.122996 0.094071 0.584887
Si Si6 0.065798 0.269919 0.959411
Si Si7 0.917956 0.331200 0.918796
Si Si8 0.262069 0.746757 0.362434
O O1 0.526489 0.732555 0.390003
O O2 0.736576 0.850975 0.525104
O O3 0.588919 0.889107 0.560154
O O4 0.424438 0.563263 0.898108
O O5 0.354583 0.605058 0.168549
O O6 0.215349 0.292007 0.432333
O O7 0.135799 0.348970 0.106599
O O8 0.214586 0.444926 0.650340
O O9 0.388135 0.777616 0.290333
O O10 0.332230 0.912845 0.319104
O O11 0.500000 0.000000 0.500000
O O12 0.185679 0.755239 0.804324
O O13 0.000000 0.000000 0.500000
O O14 0.006152 0.914247 0.900120
O O15 0.923260 0.214995 0.986635
O O16 0.817890 0.296256 0.794185
O O17 0.110740 0.552791 0.679087
#
# Coordination Sequence:
#
# PCOD9018994 Si02
#       8
#     2   2   2   2   2   2   2   2
#     4  11  23  43  63  91 129 160 207 252 306 369
#     4  10  23  40  68  89 123 166 202 253 318 361
#     4  10  22  40  62  93 126 163 206 250 302 373
#     4  12  24  39  63  92 125 171 199 250 311 363
#     4  10  21  44  67  92 119 159 209 263 308 362
#     4   9  20  41  64  91 126 158 207 260 303 361
#     4  10  22  40  62  89 128 163 205 257 298 363
#     4  10  23  40  61  93 125 164 211 247 299 370
#
# _framework density 22.195685999999998
#
# number of rings (size 3 to 8) (size 9 to 14) (size 15 to 20)
#    0.000    1.750    2.500    0.750    1.750    5.500 
#    0.000    0.000    0.000    0.000    0.000    0.000 
#    0.000    0.000    0.000    0.000    0.000    0.000 
#
# Total GULP energy -89267.362291 kJ/mol
# GULP energy per Si atom -5579.210143 kJ/mol
# Density = 2.214517 g / cm^3
# Si number density = 22.195686 Si / 1000 Ang^3
#
#
#
# Elastic Constant Matrix: (Units=GPa)
#
#
# Indices 1 2 3 4 5 6 
#
# 1 100.3292 10.3337 4.0019 -0.5840 0.1467 17.4518
# 2 10.3337 52.5175 3.4232 5.8329 -7.8147 -11.1203
# 3 4.0019 3.4232 71.0454 1.1627 -1.6732 2.4925
# 4 -0.5840 5.8329 1.1627 23.8238 -4.4757 -4.8696
# 5 0.1467 -7.8147 -1.6732 -4.4757 23.9254 -9.8428
# 6 17.4518 -11.1203 2.4925 -4.8696 -9.8428 32.8703
#
#
#
# Elastic Compliance Matrix: (Units=1/GPa)
#
#
# Indices 1 2 3 4 5 6 
#
# 1 0.012388 -0.005462 -0.000187 -0.001762 -0.006581 -0.010643
# 2 -0.005462 0.025888 -0.001150 -0.000282 0.015022 0.016202
# 3 -0.000187 -0.001150 0.014204 -0.000756 -0.000149 -0.001523
# 4 -0.001762 -0.000282 -0.000756 0.047025 0.013569 0.011927
# 5 -0.006581 0.015022 -0.000149 0.013569 0.061166 0.028914
# 6 -0.010643 0.016202 -0.001523 0.011927 0.028914 0.052095
#
#
# Mechanical properties :
#
#
# Convention : Reuss Voigt Hill
#
# Bulk Modulus (GPa) = 25.71960 28.82330 27.27145
# Shear Modulus (GPa) = 20.89208 29.86613 25.37911
#
# Velocity S-wave (km/s) = 3.07134 3.67220 3.38513
# Velocity P-wave (km/s) = 4.91836 5.56725 5.25283
#
# Compressibility (1/GPa) = 0.03888086
#
# Stress axis : x y z
#
# Youngs Moduli (GPa) = 80.72415 38.62747 70.40395
#
# Poissons Ratio (x) = 0.21100 0.01319
# Poissons Ratio (y) = 0.44095 0.08095
# Poissons Ratio (z) = 0.01513 0.04441
#
# Static dielectric constant tensor:
#      x y z
#    x 1.772160 -0.020590 0.026810 
#    y -0.020590 1.865280 -0.067900 
#    z 0.026810 -0.067900 1.836090 
# 
# From -- ./inp_files/97745.got.cif
#   From: 2010.05.17/outbox.cif.g08.bks.cpg/sg2_49_cif.got.tgz:97745.got - 2010.06.03 11:33:40.
