data_PCOD9018633
_publ_section_title
;
Structure prediction by ZEFSAII (Michael W. Deem and Ramdas Pophale) SiO2 
 PCOD9018633
Probable space group: P -1
;
_chemical_formula_sum "Si O2"
_cell_formula_units_Z 16
_cell_length_a 22.300404
_cell_length_b 11.460853
_cell_length_c 16.862766
_cell_angle_alpha 26.928823
_cell_angle_beta 159.548974
_cell_angle_gamma 150.043235
_cell_volume 668.748391
_symmetry_space_group_name_H-M "P -1"
_symmetry_group_IT_number 2
_symmetry_cell_setting 'triclinic'
loop_
_space_group_symop_operation_xyz
x,y,z
-x,-y,-z
loop_
_atom_site_type_symbol
_atom_site_label
_atom_site_fract_x
_atom_site_fract_y
_atom_site_fract_z
Si Si1 0.994555 0.834454 0.174009
Si Si2 0.215512 0.805400 0.895274
Si Si3 0.631748 0.504358 0.534621
Si Si4 0.088533 0.769881 0.591779
Si Si5 0.520335 0.269802 0.945298
Si Si6 0.175048 0.902346 0.971771
Si Si7 0.698629 0.755920 0.632571
Si Si8 0.620092 0.820717 0.802743
O O1 0.004071 0.531771 0.354980
O O2 0.808520 0.848925 0.974947
O O3 0.163242 0.981140 0.341717
O O4 0.000000 0.000000 0.000000
O O5 0.089788 0.834267 0.648370
O O6 0.183620 0.866446 0.909706
O O7 0.393980 0.008273 0.974819
O O8 0.229649 0.499765 0.093309
O O9 0.560556 0.631853 0.294177
O O10 0.663655 0.691186 0.536681
O O11 0.479850 0.269191 0.523222
O O12 0.800530 0.383433 0.793799
O O13 0.287474 0.776068 0.809005
O O14 0.994953 0.970668 0.306912
O O15 0.532667 0.514535 0.872128
O O16 0.326661 0.090759 0.095553
O O17 0.500000 0.000000 0.500000
#
# Coordination Sequence:
#
# PCOD9018633 Si02
#       8
#     2   2   2   2   2   2   2   2
#     4  11  23  44  76 101 135 191 234 289 342 418
#     4  11  23  45  74 103 143 183 234 289 352 416
#     4  10  21  44  71 102 143 184 235 283 346 424
#     4  11  24  46  70 105 143 177 239 290 348 413
#     4  11  23  44  76 100 136 194 231 289 347 416
#     4  11  26  47  67 106 145 182 224 298 352 414
#     4  10  21  43  73 105 135 185 245 280 342 422
#     4  11  25  48  69 103 144 185 237 286 351 420
#
# _framework density 23.925291000000001
#
# number of rings (size 3 to 8) (size 9 to 14) (size 15 to 20)
#    0.000    1.250    3.750    1.500    0.000    4.500 
#   15.750    3.125    0.000    0.000    0.000    0.000 
#    0.000    0.000    0.000    0.000    0.000    0.000 
#
# Total GULP energy -89539.234942 kJ/mol
# GULP energy per Si atom -5596.202184 kJ/mol
# Density = 2.387084 g / cm^3
# Si number density = 23.925291 Si / 1000 Ang^3
#
#
#
# Elastic Constant Matrix: (Units=GPa)
#
#
# Indices 1 2 3 4 5 6 
#
# 1 66.7926 39.5350 24.1139 -4.6332 -1.3754 -18.1555
# 2 39.5350 146.4825 31.9234 9.2508 9.7915 -3.2198
# 3 24.1139 31.9234 172.5101 -13.9893 -5.7165 -7.0626
# 4 -4.6332 9.2508 -13.9893 33.9822 -7.2239 -4.5552
# 5 -1.3754 9.7915 -5.7165 -7.2239 25.0918 1.8241
# 6 -18.1555 -3.2198 -7.0626 -4.5552 1.8241 35.9312
#
#
#
# Elastic Compliance Matrix: (Units=1/GPa)
#
#
# Indices 1 2 3 4 5 6 
#
# 1 0.022810 -0.006508 -0.000778 0.007123 0.004831 0.011447
# 2 -0.006508 0.009653 -0.001685 -0.005908 -0.005975 -0.003200
# 3 -0.000778 -0.001685 0.006687 0.003932 0.003190 0.001107
# 4 0.007123 -0.005908 0.003932 0.037630 0.013850 0.007910
# 5 0.004831 -0.005975 0.003190 0.013850 0.047026 0.001901
# 6 0.011447 -0.003200 0.001107 0.007910 0.001901 0.034452
#
#
# Mechanical properties :
#
#
# Convention : Reuss Voigt Hill
#
# Bulk Modulus (GPa) = 47.15038 64.10332 55.62685
# Shear Modulus (GPa) = 27.28258 38.34858 32.81558
#
# Velocity S-wave (km/s) = 3.38053 4.00790 3.70751
# Velocity P-wave (km/s) = 5.91502 6.94759 6.45199
#
# Compressibility (1/GPa) = 0.02120874
#
# Stress axis : x y z
#
# Youngs Moduli (GPa) = 43.84111 103.60008 149.54203
#
# Poissons Ratio (x) = 0.67422 0.11631
# Poissons Ratio (y) = 0.28531 0.25192
# Poissons Ratio (z) = 0.03410 0.17453
#
# Static dielectric constant tensor:
#      x y z
#    x 1.905400 -0.027430 0.021340 
#    y -0.027430 1.915330 0.008160 
#    z 0.021340 0.008160 1.977280 
# 
# From -- ./inp_files/579227.got.cif
#   From: 2010.05.17/outbox.cif.g08.bks.cpg/sg2_290_cif.got.tgz:579227.got - 2010.06.03 11:33:40.
