data_PCOD9018168
_publ_section_title
;
Structure prediction by ZEFSAII (Michael W. Deem and Ramdas Pophale) SiO2 
 PCOD9018168
Probable space group: P -1
;
_chemical_formula_sum "Si O2"
_cell_formula_units_Z 14
_cell_length_a 18.117836
_cell_length_b 6.676901
_cell_length_c 4.880179
_cell_angle_alpha 72.282997
_cell_angle_beta 121.564086
_cell_angle_gamma 100.966937
_cell_volume 478.813367
_symmetry_space_group_name_H-M "P -1"
_symmetry_group_IT_number 2
_symmetry_cell_setting 'triclinic'
loop_
_space_group_symop_operation_xyz
x,y,z
-x,-y,-z
loop_
_atom_site_type_symbol
_atom_site_label
_atom_site_fract_x
_atom_site_fract_y
_atom_site_fract_z
Si Si1 0.576083 0.116864 0.652267
Si Si2 0.044426 0.840497 0.367112
Si Si3 0.761223 0.071436 0.333130
Si Si4 0.313308 0.612523 0.602687
Si Si5 0.203221 0.343011 0.135764
Si Si6 0.455343 0.411035 0.231721
Si Si7 0.914414 0.611165 0.602205
O O1 0.614840 0.203681 0.403312
O O2 0.460741 0.138305 0.335832
O O3 0.543407 0.362084 0.638165
O O4 0.668669 0.078190 0.999269
O O5 0.142555 0.916929 0.616249
O O6 0.055669 0.620717 0.317343
O O7 0.986912 0.773882 0.547806
O O8 0.000000 0.000000 0.000000
O O9 0.761832 0.274216 0.441517
O O10 0.758466 0.873766 0.610105
O O11 0.274885 0.517117 0.290127
O O12 0.355253 0.433676 0.939158
O O13 0.121425 0.376256 0.165161
O O14 0.168380 0.340826 0.766925
O O15 0.500000 0.500000 0.000000
#
# Coordination Sequence:
#
# PCOD9018168 Si02
#       7
#     2   2   2   2   2   2   2
#     4  11  25  46  72 108 147 198 259 320 392 469
#     4  11  24  50  78 116 156 210 261 323 387 469
#     4  12  25  47  75 113 148 205 259 318 387 466
#     4  11  25  47  75 107 153 199 259 324 389 468
#     4  12  27  49  78 115 156 207 260 319 393 464
#     4  10  21  43  68  97 140 187 235 307 375 441
#     4  11  27  51  77 113 164 207 259 327 390 459
#
# _framework density 29.238945000000001
#
# number of rings (size 3 to 8) (size 9 to 14) (size 15 to 20)
#    0.000    0.857    4.286    1.714    2.000    3.429 
#   10.286    0.000    0.000    0.000    0.000    0.000 
#    0.000    0.000    0.000    0.000    0.000    0.000 
#
# Total GULP energy -78330.220624 kJ/mol
# GULP energy per Si atom -5595.015759 kJ/mol
# Density = 2.917240 g / cm^3
# Si number density = 29.238945 Si / 1000 Ang^3
#
#
#
# Elastic Constant Matrix: (Units=GPa)
#
#
# Indices 1 2 3 4 5 6 
#
# 1 168.4476 63.9726 53.6163 -2.8712 24.7284 14.6903
# 2 63.9726 184.9171 70.9034 -21.9172 18.0695 27.4579
# 3 53.6163 70.9034 207.6994 -18.0908 44.4772 4.1474
# 4 -2.8712 -21.9172 -18.0908 66.6738 -1.6979 6.9179
# 5 24.7284 18.0695 44.4772 -1.6979 63.4948 3.3505
# 6 14.6903 27.4579 4.1474 6.9179 3.3505 59.5247
#
#
#
# Elastic Compliance Matrix: (Units=1/GPa)
#
#
# Indices 1 2 3 4 5 6 
#
# 1 0.007256 -0.001980 -0.000885 -0.000551 -0.001623 -0.000661
# 2 -0.001980 0.007503 -0.001825 0.002212 0.000137 -0.003110
# 3 -0.000885 -0.001825 0.006534 0.000967 -0.003724 0.000702
# 4 -0.000551 0.002212 0.000967 0.016243 -0.000510 -0.002811
# 5 -0.001623 0.000137 -0.003724 -0.000510 0.018959 -0.000411
# 6 -0.000661 -0.003110 0.000702 -0.002811 -0.000411 0.018698
#
#
# Mechanical properties :
#
#
# Convention : Reuss Voigt Hill
#
# Bulk Modulus (GPa) = 83.93175 104.22762 94.07969
# Shear Modulus (GPa) = 56.46915 62.77677 59.62296
#
# Velocity S-wave (km/s) = 4.39942 4.63863 4.52061
# Velocity P-wave (km/s) = 7.38744 8.02580 7.71323
#
# Compressibility (1/GPa) = 0.01191444
#
# Stress axis : x y z
#
# Youngs Moduli (GPa) = 137.80749 133.27832 153.05261
#
# Poissons Ratio (x) = 0.26387 0.13540
# Poissons Ratio (y) = 0.27284 0.27931
# Poissons Ratio (z) = 0.12191 0.24322
#
# Static dielectric constant tensor:
#      x y z
#    x 2.300190 -0.049020 0.095160 
#    y -0.049020 2.508760 0.017350 
#    z 0.095160 0.017350 2.250440 
# 
# From -- ./inp_files/116759.got.cif
#   From: 2010.05.17/outbox.cif.g08.bks.cpg/sg2_59_cif.got.tgz:116759.got - 2010.06.03 11:33:40.
