data_PCOD9018007
_publ_section_title
;
Structure prediction by ZEFSAII (Michael W. Deem and Ramdas Pophale) SiO2 
 PCOD9018007
Probable space group: P -1
;
_chemical_formula_sum "Si O2"
_cell_formula_units_Z 16
_cell_length_a 8.021510
_cell_length_b 15.436018
_cell_length_c 8.612495
_cell_angle_alpha 41.523165
_cell_angle_beta 73.619687
_cell_angle_gamma 82.307497
_cell_volume 673.221519
_symmetry_space_group_name_H-M "P -1"
_symmetry_group_IT_number 2
_symmetry_cell_setting 'triclinic'
loop_
_space_group_symop_operation_xyz
x,y,z
-x,-y,-z
loop_
_atom_site_type_symbol
_atom_site_label
_atom_site_fract_x
_atom_site_fract_y
_atom_site_fract_z
Si Si1 0.441807 0.355655 0.132076
Si Si2 0.366902 0.564504 0.336227
Si Si3 0.821690 0.196391 0.867992
Si Si4 0.925957 0.126958 0.583107
Si Si5 0.703253 0.916963 0.350967
Si Si6 0.656130 0.915648 0.016697
Si Si7 0.830910 0.684463 0.217177
Si Si8 0.932923 0.624474 0.927871
O O1 0.441556 0.207535 0.403534
O O2 0.237333 0.354875 0.153882
O O3 0.500000 0.500000 0.000000
O O4 0.544274 0.366588 0.929622
O O5 0.500000 0.500000 0.500000
O O6 0.269436 0.672911 0.300116
O O7 0.228754 0.439288 0.490738
O O8 0.880911 0.162249 0.725146
O O9 0.992754 0.230339 0.884021
O O10 0.688653 0.074375 0.137035
O O11 0.120872 0.086562 0.590301
O O12 0.924761 0.250092 0.306799
O O13 0.777797 0.009118 0.744464
O O14 0.742935 0.892045 0.192987
O O15 0.668506 0.772410 0.131804
O O16 0.500000 0.000000 0.000000
O O17 0.875472 0.622643 0.123536
O O18 0.000000 0.500000 0.000000
#
# Coordination Sequence:
#
# PCOD9018007 Si02
#       8
#     2   2   2   2   2   2   2   2
#     4  11  26  46  68  96 140 185 231 295 354 412
#     4  12  27  44  66 102 141 178 232 297 347 411
#     4  11  23  44  76  95 135 190 233 286 351 430
#     4  10  21  43  67  98 135 182 229 280 348 419
#     4  10  21  46  69 100 135 182 236 278 351 430
#     4  11  23  40  72 105 138 179 226 294 355 414
#     4  12  24  45  68 105 138 179 243 284 350 430
#     4  11  26  42  67  99 142 185 235 292 346 415
#
# _framework density 23.766323
#
# number of rings (size 3 to 8) (size 9 to 14) (size 15 to 20)
#    0.000    1.000    3.750    2.625    7.000    2.000 
#    0.000    0.000    0.000    0.000    0.000    0.000 
#    0.000    0.000    0.000    0.000    0.000    0.000 
#
# Total GULP energy -89235.866860 kJ/mol
# GULP energy per Si atom -5577.241679 kJ/mol
# Density = 2.371223 g / cm^3
# Si number density = 23.766323 Si / 1000 Ang^3
#
#
#
# Elastic Constant Matrix: (Units=GPa)
#
#
# Indices 1 2 3 4 5 6 
#
# 1 54.3398 16.0037 17.8011 -15.2356 -5.1653 -4.8060
# 2 16.0037 91.3436 30.5370 -25.3279 5.0627 -23.2160
# 3 17.8011 30.5370 176.4224 -36.7060 -30.1816 -17.9843
# 4 -15.2356 -25.3279 -36.7060 39.4694 4.0513 0.4625
# 5 -5.1653 5.0627 -30.1816 4.0513 31.5682 -12.5118
# 6 -4.8060 -23.2160 -17.9843 0.4625 -12.5118 28.3256
#
#
#
# Elastic Compliance Matrix: (Units=1/GPa)
#
#
# Indices 1 2 3 4 5 6 
#
# 1 0.021790 -0.000432 0.001674 0.008885 0.007011 0.007358
# 2 -0.000432 0.018192 0.002209 0.012874 0.004637 0.018078
# 3 0.001674 0.002209 0.012075 0.011378 0.016728 0.016965
# 4 0.008885 0.012874 0.011378 0.045859 0.014217 0.024815
# 5 0.007011 0.004637 0.016728 0.014217 0.063455 0.043408
# 6 0.007358 0.018078 0.016965 0.024815 0.043408 0.080909
#
#
# Mechanical properties :
#
#
# Convention : Reuss Voigt Hill
#
# Bulk Modulus (GPa) = 16.96058 50.08773 33.52415
# Shear Modulus (GPa) = 19.60549 37.05690 28.33119
#
# Velocity S-wave (km/s) = 2.87527 3.95298 3.45639
# Velocity P-wave (km/s) = 4.26319 6.47731 5.48317
#
# Compressibility (1/GPa) = 0.05896026
#
# Stress axis : x y z
#
# Youngs Moduli (GPa) = 45.89286 54.96838 82.81291
#
# Poissons Ratio (x) = 0.02377 -0.13865
# Poissons Ratio (y) = 0.01984 -0.18297
# Poissons Ratio (z) = -0.07684 -0.12145
#
# Static dielectric constant tensor:
#      x y z
#    x 2.044050 -0.073740 0.002420 
#    y -0.073740 2.150260 -0.122280 
#    z 0.002420 -0.122280 1.960500 
# 
# From -- ./inp_files/205072.got.cif
#   From: 2010.05.17/outbox.cif.g08.bks.cpg/sg2_103_cif.got.tgz:205072.got - 2010.06.03 11:33:40.
