data_PCOD9018616
_publ_section_title
;
Structure prediction by ZEFSAII (Michael W. Deem and Ramdas Pophale) SiO2 
 PCOD9018616
Probable space group: P -1
;
_chemical_formula_sum "Si O2"
_cell_formula_units_Z 16
_cell_length_a 7.083542
_cell_length_b 19.473554
_cell_length_c 5.460454
_cell_angle_alpha 80.240777
_cell_angle_beta 105.454768
_cell_angle_gamma 113.553175
_cell_volume 663.811125
_symmetry_space_group_name_H-M "P -1"
_symmetry_group_IT_number 2
_symmetry_cell_setting 'triclinic'
loop_
_space_group_symop_operation_xyz
x,y,z
-x,-y,-z
loop_
_atom_site_type_symbol
_atom_site_label
_atom_site_fract_x
_atom_site_fract_y
_atom_site_fract_z
Si Si1 0.586629 0.714784 0.224726
Si Si2 0.094530 0.455772 0.241319
Si Si3 0.595493 0.192823 0.205786
Si Si4 0.939146 0.797843 0.638466
Si Si5 0.717692 0.642841 0.941367
Si Si6 0.791966 0.920767 0.622805
Si Si7 0.647814 0.952856 0.052155
Si Si8 0.304074 0.594510 0.549013
O O1 0.782036 0.783784 0.360635
O O2 0.409584 0.669877 0.383615
O O3 0.464295 0.738683 0.951973
O O4 0.699500 0.657706 0.211836
O O5 0.161085 0.402747 0.119192
O O6 0.267245 0.521145 0.416259
O O7 0.914031 0.411743 0.400063
O O8 0.000000 0.500000 0.000000
O O9 0.437029 0.149024 0.391795
O O10 0.834368 0.205129 0.338830
O O11 0.514895 0.132719 0.992655
O O12 0.821236 0.727052 0.815741
O O13 0.951457 0.876530 0.711874
O O14 0.476043 0.599320 0.808029
O O15 0.787349 0.959218 0.338753
O O16 0.778793 0.967289 0.832511
O O17 0.500000 0.000000 0.000000
#
# Coordination Sequence:
#
# PCOD9018616 Si02
#       8
#     2   2   2   2   2   2   2   2
#     4  11  23  46  67  98 138 174 229 297 342 417
#     4  11  25  44  64  93 129 173 223 275 352 428
#     4  10  24  41  71  98 141 179 226 282 350 406
#     4  11  23  42  66 101 132 181 226 280 350 408
#     4  11  24  42  65  94 127 174 222 285 345 413
#     4  10  21  44  65 101 144 176 234 288 335 414
#     4  10  21  43  72  99 144 190 226 284 347 406
#     4  10  25  43  65  89 131 169 222 279 354 412
#
# _framework density 24.103238999999999
#
# number of rings (size 3 to 8) (size 9 to 14) (size 15 to 20)
#    0.750    0.750    2.500    1.500    3.500    7.000 
#    0.000    1.250    0.000    0.000    0.000    0.000 
#    0.000    0.000    0.000    0.000    0.000    0.000 
#
# Total GULP energy -89417.077721 kJ/mol
# GULP energy per Si atom -5588.567358 kJ/mol
# Density = 2.404838 g / cm^3
# Si number density = 24.103239 Si / 1000 Ang^3
#
#
#
# Elastic Constant Matrix: (Units=GPa)
#
#
# Indices 1 2 3 4 5 6 
#
# 1 125.6243 40.1366 27.0946 3.4209 -0.1180 -21.4540
# 2 40.1366 85.1867 21.4840 16.0787 -2.9542 -25.5347
# 3 27.0946 21.4840 92.6229 10.0309 -9.8491 -15.5777
# 4 3.4209 16.0787 10.0309 23.7387 -6.9942 -8.3878
# 5 -0.1180 -2.9542 -9.8491 -6.9942 26.3099 3.7674
# 6 -21.4540 -25.5347 -15.5777 -8.3878 3.7674 52.3795
#
#
#
# Elastic Compliance Matrix: (Units=1/GPa)
#
#
# Indices 1 2 3 4 5 6 
#
# 1 0.009975 -0.004142 -0.001997 0.002687 -0.000734 0.001955
# 2 -0.004142 0.017155 -0.001104 -0.009297 -0.001689 0.004971
# 3 -0.001997 -0.001104 0.012594 -0.002609 0.003643 0.001709
# 4 0.002687 -0.009297 -0.002609 0.053877 0.011803 0.003571
# 5 -0.000734 -0.001689 0.003643 0.011803 0.042490 -0.001206
# 6 0.001955 0.004971 0.001709 0.003571 -0.001206 0.023482
#
#
# Mechanical properties :
#
#
# Convention : Reuss Voigt Hill
#
# Bulk Modulus (GPa) = 39.62490 53.42936 46.52713
# Shear Modulus (GPa) = 27.40126 34.80020 31.10073
#
# Velocity S-wave (km/s) = 3.37535 3.80386 3.59599
# Velocity P-wave (km/s) = 5.62725 6.44263 6.04869
#
# Compressibility (1/GPa) = 0.02523666
#
# Stress axis : x y z
#
# Youngs Moduli (GPa) = 100.25546 58.29064 79.40144
#
# Poissons Ratio (x) = 0.24147 0.15858
# Poissons Ratio (y) = 0.41530 0.08767
# Poissons Ratio (z) = 0.20022 0.06436
#
# Static dielectric constant tensor:
#      x y z
#    x 2.006030 -0.089300 -0.160840 
#    y -0.089300 2.033690 0.151740 
#    z -0.160840 0.151740 2.171700 
# 
# From -- ./inp_files/11195.got.cif
#   From: 2010.05.17/outbox.cif.g08.bks.cpg/sg2_6_cif.got.tgz:11195.got - 2010.06.03 11:33:40.
