data_PCOD9018333
_publ_section_title
;
Structure prediction by ZEFSAII (Michael W. Deem and Ramdas Pophale) SiO2 
 PCOD9018333
Probable space group: P -1
;
_chemical_formula_sum "Si O2"
_cell_formula_units_Z 16
_cell_length_a 9.261525
_cell_length_b 14.354192
_cell_length_c 15.209519
_cell_angle_alpha 32.086070
_cell_angle_beta 83.701006
_cell_angle_gamma 105.625142
_cell_volume 776.575743
_symmetry_space_group_name_H-M "P -1"
_symmetry_group_IT_number 2
_symmetry_cell_setting 'triclinic'
loop_
_space_group_symop_operation_xyz
x,y,z
-x,-y,-z
loop_
_atom_site_type_symbol
_atom_site_label
_atom_site_fract_x
_atom_site_fract_y
_atom_site_fract_z
Si Si1 0.081961 0.037867 0.064482
Si Si2 0.893211 0.370179 0.016259
Si Si3 0.868915 0.427819 0.448610
Si Si4 0.266123 0.835275 0.160492
Si Si5 0.855365 0.926091 0.337495
Si Si6 0.072113 0.798681 0.522926
Si Si7 0.449078 0.986817 0.414179
Si Si8 0.387307 0.582639 0.650764
O O1 0.216886 0.978176 0.094134
O O2 0.232486 0.298093 0.893513
O O3 0.904262 0.892498 0.263445
O O4 0.000000 0.000000 0.000000
O O5 0.920120 0.184971 0.138031
O O6 0.654189 0.189633 0.187700
O O7 0.000000 0.500000 0.000000
O O8 0.959584 0.566797 0.780526
O O9 0.811786 0.370201 0.600141
O O10 0.873782 0.255305 0.529064
O O11 0.687965 0.394855 0.452617
O O12 0.097319 0.685988 0.214762
O O13 0.500000 0.000000 0.000000
O O14 0.616702 0.721442 0.528721
O O15 0.958732 0.881602 0.436953
O O16 0.285067 0.998455 0.396912
O O17 0.357270 0.721943 0.605533
O O18 0.500000 0.000000 0.500000
#
# Coordination Sequence:
#
# PCOD9018333 Si02
#       8
#     2   2   2   2   2   2   2   2
#     4  12  25  43  66 100 135 181 228 281 338 405
#     4  11  24  44  73  98 132 181 225 280 354 405
#     4  10  22  43  60  95 134 180 215 287 336 399
#     4  11  25  39  65  94 131 175 235 269 341 405
#     4  11  26  45  68 103 139 178 233 286 334 409
#     4  11  23  43  70  96 140 175 230 281 340 410
#     4  10  21  43  69  99 135 176 221 285 351 405
#     4  10  24  41  67  93 135 177 222 278 348 398
#
# _framework density 20.603269999999998
#
# number of rings (size 3 to 8) (size 9 to 14) (size 15 to 20)
#    0.000    1.250    3.750    1.500    3.500    4.000 
#    0.000    0.625    0.000    0.000    0.000    0.000 
#    0.000    0.000    0.000    0.000    0.000    0.000 
#
# Total GULP energy -89078.393036 kJ/mol
# GULP energy per Si atom -5567.399565 kJ/mol
# Density = 2.055638 g / cm^3
# Si number density = 20.603270 Si / 1000 Ang^3
#
#
#
# Elastic Constant Matrix: (Units=GPa)
#
#
# Indices 1 2 3 4 5 6 
#
# 1 170.8013 32.1974 47.3722 6.6307 -7.6185 27.2731
# 2 32.1974 72.5763 22.4085 3.2141 -5.1428 20.4708
# 3 47.3722 22.4085 67.7043 3.7495 -7.0471 9.2906
# 4 6.6307 3.2141 3.7495 31.8385 4.0985 -5.3189
# 5 -7.6185 -5.1428 -7.0471 4.0985 29.1462 -1.4259
# 6 27.2731 20.4708 9.2906 -5.3189 -1.4259 29.2531
#
#
#
# Elastic Compliance Matrix: (Units=1/GPa)
#
#
# Indices 1 2 3 4 5 6 
#
# 1 0.008372 -0.000260 -0.004634 -0.002398 0.001039 -0.006537
# 2 -0.000260 0.018907 -0.003948 -0.003733 0.002237 -0.012305
# 3 -0.004634 -0.003948 0.019594 -0.001203 0.003037 0.000790
# 4 -0.002398 -0.003733 -0.001203 0.035084 -0.005956 0.011318
# 5 0.001039 0.002237 0.003037 -0.005956 0.036411 -0.002807
# 6 -0.006537 -0.012305 0.000790 0.011318 -0.002807 0.050560
#
#
# Mechanical properties :
#
#
# Convention : Reuss Voigt Hill
#
# Bulk Modulus (GPa) = 34.25883 57.22647 45.74265
# Shear Modulus (GPa) = 25.46584 31.98784 28.72684
#
# Velocity S-wave (km/s) = 3.51951 3.94453 3.73806
# Velocity P-wave (km/s) = 5.76020 6.97004 6.39380
#
# Compressibility (1/GPa) = 0.02918956
#
# Stress axis : x y z
#
# Youngs Moduli (GPa) = 119.44171 52.88960 51.03704
#
# Poissons Ratio (x) = 0.01373 0.23651
# Poissons Ratio (y) = 0.03101 0.20150
# Poissons Ratio (z) = 0.55349 0.20882
#
# Static dielectric constant tensor:
#      x y z
#    x 1.828330 0.053610 0.048280 
#    y 0.053610 1.792030 -0.000650 
#    z 0.048280 -0.000650 1.826970 
# 
# From -- ./inp_files/505038.got.cif
#   From: 2010.05.17/outbox.cif.g08.bks.cpg/sg2_253_cif.got.tgz:505038.got - 2010.06.03 11:33:40.
