data_PCOD9018485
_publ_section_title
;
Structure prediction by ZEFSAII (Michael W. Deem and Ramdas Pophale) SiO2 
 PCOD9018485
Probable space group: P -1
;
_chemical_formula_sum "Si O2"
_cell_formula_units_Z 16
_cell_length_a 8.998012
_cell_length_b 10.542431
_cell_length_c 11.898113
_cell_angle_alpha 74.952525
_cell_angle_beta 49.327735
_cell_angle_gamma 54.218398
_cell_volume 680.799078
_symmetry_space_group_name_H-M "P -1"
_symmetry_group_IT_number 2
_symmetry_cell_setting 'triclinic'
loop_
_space_group_symop_operation_xyz
x,y,z
-x,-y,-z
loop_
_atom_site_type_symbol
_atom_site_label
_atom_site_fract_x
_atom_site_fract_y
_atom_site_fract_z
Si Si1 0.734529 0.324380 0.664859
Si Si2 0.148663 0.073772 0.387833
Si Si3 0.356778 0.270338 0.861784
Si Si4 0.065413 0.489742 0.144056
Si Si5 0.079803 0.195284 0.156597
Si Si6 0.623785 0.300836 0.204545
Si Si7 0.429350 0.981804 0.664506
Si Si8 0.117333 0.734158 0.147121
O O1 0.974599 0.247924 0.491996
O O2 0.580538 0.261795 0.705755
O O3 0.572074 0.516337 0.706369
O O4 0.808769 0.248817 0.770382
O O5 0.162035 0.077251 0.246142
O O6 0.404828 0.998424 0.336506
O O7 0.000000 0.000000 0.500000
O O8 0.147299 0.365553 0.854044
O O9 0.286459 0.396005 0.971317
O O10 0.296932 0.154653 0.977539
O O11 0.004052 0.361246 0.216886
O O12 0.118815 0.574004 0.192917
O O13 0.858540 0.229695 0.184470
O O14 0.532689 0.187232 0.293072
O O15 0.712842 0.289574 0.034561
O O16 0.500000 0.000000 0.500000
O O17 0.147862 0.115107 0.784014
#
# Coordination Sequence:
#
# PCOD9018485 Si02
#       8
#     2   2   2   2   2   2   2   2
#     4  12  25  43  74 108 136 186 229 288 345 413
#     4  12  30  49  67  97 141 190 237 276 348 419
#     4   9  17  40  67 105 137 161 235 281 339 391
#     4   9  17  38  70 104 132 169 222 281 345 392
#     4  10  21  43  71 102 137 176 229 288 341 403
#     4  12  24  46  75 109 138 175 238 291 344 412
#     4  12  29  51  63  98 149 193 223 279 354 417
#     4  12  24  44  75 104 145 180 226 291 349 411
#
# _framework density 23.501797
#
# number of rings (size 3 to 8) (size 9 to 14) (size 15 to 20)
#    0.750    0.250    5.000    1.500    5.250    2.000 
#    0.000    1.250    0.000    0.000    0.000    0.000 
#    0.000    0.000    0.000    0.000    0.000    0.000 
#
# Total GULP energy -89330.632310 kJ/mol
# GULP energy per Si atom -5583.164519 kJ/mol
# Density = 2.344831 g / cm^3
# Si number density = 23.501797 Si / 1000 Ang^3
#
#
#
# Elastic Constant Matrix: (Units=GPa)
#
#
# Indices 1 2 3 4 5 6 
#
# 1 96.5948 26.7808 25.5678 -11.1267 -7.3702 6.6860
# 2 26.7808 76.7082 34.5128 1.0675 -14.9100 10.8506
# 3 25.5678 34.5128 87.9309 5.3982 -2.2294 -11.6940
# 4 -11.1267 1.0675 5.3982 51.7954 -5.7820 -12.2824
# 5 -7.3702 -14.9100 -2.2294 -5.7820 34.0020 -3.4507
# 6 6.6860 10.8506 -11.6940 -12.2824 -3.4507 43.5436
#
#
#
# Elastic Compliance Matrix: (Units=1/GPa)
#
#
# Indices 1 2 3 4 5 6 
#
# 1 0.012373 -0.002584 -0.002860 0.002956 0.001758 -0.001051
# 2 -0.002584 0.019512 -0.007507 -0.000895 0.006722 -0.006201
# 3 -0.002860 -0.007507 0.015964 -0.000935 -0.002400 0.006143
# 4 0.002956 -0.000895 -0.000935 0.022009 0.004547 0.006086
# 5 0.001758 0.006722 -0.002400 0.004547 0.033491 0.001347
# 6 -0.001051 -0.006201 0.006143 0.006086 0.001347 0.028145
#
#
# Mechanical properties :
#
#
# Convention : Reuss Voigt Hill
#
# Bulk Modulus (GPa) = 45.56177 48.32851 46.94514
# Shear Modulus (GPa) = 30.35591 37.49301 33.92446
#
# Velocity S-wave (km/s) = 3.59784 3.99849 3.80344
# Velocity P-wave (km/s) = 6.05705 6.47500 6.26951
#
# Compressibility (1/GPa) = 0.02194822
#
# Stress axis : x y z
#
# Youngs Moduli (GPa) = 80.81859 51.25024 62.64051
#
# Poissons Ratio (x) = 0.13242 0.17918
# Poissons Ratio (y) = 0.20881 0.47021
# Poissons Ratio (z) = 0.23118 0.38471
#
# Static dielectric constant tensor:
#      x y z
#    x 1.845360 0.039350 0.007070 
#    y 0.039350 2.002910 0.069460 
#    z 0.007070 0.069460 1.899650 
# 
# From -- ./inp_files/392445.got.cif
#   From: 2010.05.17/outbox.cif.g08.bks.cpg/sg2_197_cif.got.tgz:392445.got - 2010.06.03 11:33:40.
