data_PCOD9018412
_publ_section_title
;
Structure prediction by ZEFSAII (Michael W. Deem and Ramdas Pophale) SiO2 
 PCOD9018412
Probable space group: P -1
;
_chemical_formula_sum "Si O2"
_cell_formula_units_Z 12
_cell_length_a 11.892690
_cell_length_b 11.226970
_cell_length_c 9.425478
_cell_angle_alpha 46.412875
_cell_angle_beta 112.764951
_cell_angle_gamma 145.302807
_cell_volume 466.893574
_symmetry_space_group_name_H-M "P -1"
_symmetry_group_IT_number 2
_symmetry_cell_setting 'triclinic'
loop_
_space_group_symop_operation_xyz
x,y,z
-x,-y,-z
loop_
_atom_site_type_symbol
_atom_site_label
_atom_site_fract_x
_atom_site_fract_y
_atom_site_fract_z
Si Si1 0.245928 0.687705 0.084357
Si Si2 0.293196 0.067022 0.659644
Si Si3 0.446426 0.759362 0.611842
Si Si4 0.608542 0.486794 0.730407
Si Si5 0.241231 0.210744 0.998178
Si Si6 0.964996 0.627594 0.464288
O O1 0.274141 0.547276 0.128408
O O2 0.101736 0.484560 0.316862
O O3 0.500000 0.000000 0.000000
O O4 0.169210 0.777419 0.911402
O O5 0.359473 0.069264 0.539114
O O6 0.495857 0.320633 0.659911
O O7 0.227577 0.179318 0.498591
O O8 0.365527 0.513011 0.869662
O O9 0.247241 0.543249 0.580051
O O10 0.500000 0.000000 0.500000
O O11 0.406479 0.324370 0.864413
O O12 0.000000 0.000000 0.000000
O O13 0.167124 0.978451 0.253957
O O14 0.000000 0.500000 0.500000
#
# Coordination Sequence:
#
# PCOD9018412 Si02
#       6
#     2   2   2   2   2   2
#     4  10  17  30  53  84 106 138 192 238 266 330
#     4   9  17  29  53  81 101 138 194 229 266 319
#     4  10  20  37  56  81 115 153 186 223 283 360
#     4   9  16  30  53  78 109 139 190 238 270 326
#     4   9  20  33  53  84 112 141 185 239 284 321
#     4  11  20  34  57  88 115 139 186 248 288 314
#
# _framework density 25.701789999999999
#
# number of rings (size 3 to 8) (size 9 to 14) (size 15 to 20)
#    0.000    2.333    3.333    2.000    2.333    0.000 
#    0.000    0.833    0.000   10.000    0.000    0.000 
#    0.000    0.000    0.000    0.000    0.000    0.000 
#
# Total GULP energy -66961.514181 kJ/mol
# GULP energy per Si atom -5580.126182 kJ/mol
# Density = 2.564329 g / cm^3
# Si number density = 25.701790 Si / 1000 Ang^3
#
#
#
# Elastic Constant Matrix: (Units=GPa)
#
#
# Indices 1 2 3 4 5 6 
#
# 1 146.2747 43.7106 84.9400 -1.5736 22.5319 -20.2683
# 2 43.7106 94.3372 64.1653 -26.3248 -8.7076 -3.6086
# 3 84.9400 64.1653 271.6445 -28.3102 34.8759 -22.4093
# 4 -1.5736 -26.3248 -28.3102 44.1967 -10.7648 2.2199
# 5 22.5319 -8.7076 34.8759 -10.7648 54.8857 -8.5276
# 6 -20.2683 -3.6086 -22.4093 2.2199 -8.5276 48.9390
#
#
#
# Elastic Compliance Matrix: (Units=1/GPa)
#
#
# Indices 1 2 3 4 5 6 
#
# 1 0.010512 -0.005523 -0.001713 -0.005297 -0.004742 0.002576
# 2 -0.005523 0.019186 -0.002864 0.011706 0.009256 -0.001102
# 3 -0.001713 -0.002864 0.005447 0.000974 -0.002861 0.001031
# 4 -0.005297 0.011706 0.000974 0.032422 0.009668 -0.000671
# 5 -0.004742 0.009256 -0.002861 0.009668 0.025571 0.001426
# 6 0.002576 -0.001102 0.001031 -0.000671 0.001426 0.022170
#
#
# Mechanical properties :
#
#
# Convention : Reuss Voigt Hill
#
# Bulk Modulus (GPa) = 66.91116 99.76535 83.33826
# Shear Modulus (GPa) = 35.58964 50.90030 43.24497
#
# Velocity S-wave (km/s) = 3.72521 4.45502 4.10636
# Velocity P-wave (km/s) = 6.67781 8.08478 7.41474
#
# Compressibility (1/GPa) = 0.01494519
#
# Stress axis : x y z
#
# Youngs Moduli (GPa) = 95.13022 52.12085 183.57127
#
# Poissons Ratio (x) = 0.28784 0.31450
# Poissons Ratio (y) = 0.52536 0.52582
# Poissons Ratio (z) = 0.16298 0.14930
#
# Static dielectric constant tensor:
#      x y z
#    x 1.981920 -0.058830 0.046350 
#    y -0.058830 1.872240 -0.069200 
#    z 0.046350 -0.069200 2.029930 
# 
# From -- ./inp_files/159197.got.cif
#   From: 2010.05.17/outbox.cif.g08.bks.cpg/sg2_80_cif.got.tgz:159197.got - 2010.06.03 11:33:40.
