data_PCOD9018156
_publ_section_title
;
Structure prediction by ZEFSAII (Michael W. Deem and Ramdas Pophale) SiO2 
 PCOD9018156
Probable space group: P -1
;
_chemical_formula_sum "Si O2"
_cell_formula_units_Z 16
_cell_length_a 19.585270
_cell_length_b 29.423277
_cell_length_c 8.883883
_cell_angle_alpha 28.966481
_cell_angle_beta 148.278921
_cell_angle_gamma 163.282537
_cell_volume 710.221790
_symmetry_space_group_name_H-M "P -1"
_symmetry_group_IT_number 2
_symmetry_cell_setting 'triclinic'
loop_
_space_group_symop_operation_xyz
x,y,z
-x,-y,-z
loop_
_atom_site_type_symbol
_atom_site_label
_atom_site_fract_x
_atom_site_fract_y
_atom_site_fract_z
Si Si1 0.507404 0.600455 0.823619
Si Si2 0.997707 0.870813 0.976689
Si Si3 0.759418 0.412792 0.815336
Si Si4 0.815215 0.587698 0.673392
Si Si5 0.328456 0.894030 0.845517
Si Si6 0.435421 0.055945 0.129928
Si Si7 0.628210 0.694035 0.132941
Si Si8 0.176430 0.007209 0.216379
O O1 0.297933 0.541034 0.548077
O O2 0.500000 0.500000 0.000000
O O3 0.529290 0.619030 0.994057
O O4 0.775625 0.794850 0.719795
O O5 0.122882 0.008718 0.941751
O O6 0.895373 0.718138 0.326452
O O7 0.161066 0.919758 0.018189
O O8 0.757032 0.463036 0.823643
O O9 0.559837 0.215479 0.986469
O O10 0.000000 0.500000 0.000000
O O11 0.577628 0.464170 0.680382
O O12 0.045134 0.702453 0.874413
O O13 0.446752 0.892210 0.959014
O O14 0.320297 0.999026 0.481870
O O15 0.500000 0.000000 0.000000
O O16 0.500000 0.000000 0.500000
O O17 0.903034 0.822976 0.298431
O O18 0.683604 0.836846 0.866069
#
# Coordination Sequence:
#
# PCOD9018156 Si02
#       8
#     2   2   2   2   2   2   2   2
#     4  11  25  45  68 104 141 172 233 293 332 417
#     4  10  21  43  68  96 138 178 234 284 341 406
#     4  12  25  45  73  99 140 182 230 284 355 415
#     4  11  22  44  68 103 133 183 234 281 344 420
#     4  11  25  42  62  96 138 176 229 284 340 414
#     4  12  23  44  72  95 137 190 227 284 354 407
#     4  10  23  41  73  99 135 179 228 287 347 405
#     4   9  20  42  66  94 137 175 222 277 348 405
#
# _framework density 22.528175000000001
#
# number of rings (size 3 to 8) (size 9 to 14) (size 15 to 20)
#    0.000    1.250    5.000    0.750    1.750    6.000 
#    2.250    1.250    0.000    0.000    0.000    0.000 
#    0.000    0.000    0.000    0.000    0.000    0.000 
#
# Total GULP energy -89127.238561 kJ/mol
# GULP energy per Si atom -5570.452410 kJ/mol
# Density = 2.247690 g / cm^3
# Si number density = 22.528175 Si / 1000 Ang^3
#
#
#
# Elastic Constant Matrix: (Units=GPa)
#
#
# Indices 1 2 3 4 5 6 
#
# 1 161.6871 74.0507 37.1778 7.2930 26.1999 1.6864
# 2 74.0507 113.7861 37.4807 16.0448 -10.1121 -5.1543
# 3 37.1778 37.4807 66.9340 17.0285 8.0197 -3.7289
# 4 7.2930 16.0448 17.0285 42.7186 -1.1533 8.5353
# 5 26.1999 -10.1121 8.0197 -1.1533 28.8722 3.3638
# 6 1.6864 -5.1543 -3.7289 8.5353 3.3638 67.2227
#
#
#
# Elastic Compliance Matrix: (Units=1/GPa)
#
#
# Indices 1 2 3 4 5 6 
#
# 1 0.013390 -0.010241 -0.000204 0.001326 -0.015567 -0.000522
# 2 -0.010241 0.019673 -0.006751 -0.002634 0.017856 0.000832
# 3 -0.000204 -0.006751 0.021693 -0.006707 -0.008703 0.001978
# 4 0.001326 -0.002634 -0.006707 0.027719 0.001333 -0.004193
# 5 -0.015567 0.017856 -0.008703 0.001333 0.057693 -0.001779
# 6 -0.000522 0.000832 0.001978 -0.004193 -0.001779 0.015684
#
#
# Mechanical properties :
#
#
# Convention : Reuss Voigt Hill
#
# Bulk Modulus (GPa) = 49.10611 71.09172 60.09892
# Shear Modulus (GPa) = 25.37659 40.67591 33.02625
#
# Velocity S-wave (km/s) = 3.35989 4.25379 3.83299
# Velocity P-wave (km/s) = 6.07427 7.46670 6.80619
#
# Compressibility (1/GPa) = 0.02036406
#
# Stress axis : x y z
#
# Youngs Moduli (GPa) = 74.68244 50.83184 46.09794
#
# Poissons Ratio (x) = 0.52056 0.00940
# Poissons Ratio (y) = 0.76481 0.31120
# Poissons Ratio (z) = 0.01524 0.34316
#
# Static dielectric constant tensor:
#      x y z
#    x 1.909880 -0.003470 0.016800 
#    y -0.003470 2.027680 0.035150 
#    z 0.016800 0.035150 1.938840 
# 
# From -- ./inp_files/338738.got.cif
#   From: 2010.05.17/outbox.cif.g08.bks.cpg/sg2_170_cif.got.tgz:338738.got - 2010.06.03 11:33:40.
