data_PCOD9018893
_publ_section_title
;
Structure prediction by ZEFSAII (Michael W. Deem and Ramdas Pophale) SiO2 
 PCOD9018893
Probable space group: P -1
;
_chemical_formula_sum "Si O2"
_cell_formula_units_Z 16
_cell_length_a 17.335923
_cell_length_b 22.445784
_cell_length_c 6.425828
_cell_angle_alpha 106.384057
_cell_angle_beta 66.880429
_cell_angle_gamma 163.314925
_cell_volume 616.943286
_symmetry_space_group_name_H-M "P -1"
_symmetry_group_IT_number 2
_symmetry_cell_setting 'triclinic'
loop_
_space_group_symop_operation_xyz
x,y,z
-x,-y,-z
loop_
_atom_site_type_symbol
_atom_site_label
_atom_site_fract_x
_atom_site_fract_y
_atom_site_fract_z
Si Si1 0.671900 0.238359 0.029665
Si Si2 0.550047 0.101517 0.434082
Si Si3 0.086937 0.323752 0.278509
Si Si4 0.020389 0.422551 0.508147
Si Si5 0.454369 0.411337 0.619569
Si Si6 0.539639 0.798342 0.606503
Si Si7 0.906718 0.004380 0.062911
Si Si8 0.475136 0.645790 0.818293
O O1 0.543510 0.097613 0.189266
O O2 0.435881 0.127042 0.188755
O O3 0.000000 0.500000 0.000000
O O4 0.738435 0.249779 0.761811
O O5 0.909848 0.366701 0.348399
O O6 0.500000 0.000000 0.500000
O O7 0.264027 0.941360 0.636645
O O8 0.073118 0.386519 0.425751
O O9 0.273450 0.418325 0.348648
O O10 0.249523 0.445241 0.002144
O O11 0.317444 0.662016 0.523767
O O12 0.500000 0.500000 0.500000
O O13 0.366483 0.291021 0.441897
O O14 0.185336 0.236081 0.889560
O O15 0.812076 0.965378 0.347053
O O16 0.374984 0.627135 0.742666
O O17 0.656256 0.815210 0.964350
O O18 0.000000 0.000000 0.000000
#
# Coordination Sequence:
#
# PCOD9018893 Si02
#       8
#     2   2   2   2   2   2   2   2
#     4  10  25  41  66 102 140 180 243 286 342 414
#     4  10  25  41  68  97 141 193 229 288 351 413
#     4  11  24  45  69 103 143 184 241 282 355 434
#     4  10  21  44  66 102 142 185 232 279 349 413
#     4  12  28  47  73 109 144 184 232 307 367 424
#     4  11  24  41  72 105 140 183 241 292 342 424
#     4  12  23  47  74 103 135 187 246 287 354 437
#     4  12  23  44  77 100 142 191 239 290 365 418
#
# _framework density 25.934311000000001
#
# number of rings (size 3 to 8) (size 9 to 14) (size 15 to 20)
#    0.000    1.000    5.000    0.375    7.000    8.500 
#    0.000    0.000    0.000    0.000    0.000    0.000 
#    0.000    0.000    0.000    0.000    0.000    0.000 
#
# Total GULP energy -89270.156153 kJ/mol
# GULP energy per Si atom -5579.384760 kJ/mol
# Density = 2.587528 g / cm^3
# Si number density = 25.934311 Si / 1000 Ang^3
#
#
#
# Elastic Constant Matrix: (Units=GPa)
#
#
# Indices 1 2 3 4 5 6 
#
# 1 149.3926 32.9514 61.7743 -11.2520 21.1133 -0.7042
# 2 32.9514 80.0701 7.3355 -10.2563 12.7105 16.3280
# 3 61.7743 7.3355 153.1885 -19.2920 -9.3149 -4.1761
# 4 -11.2520 -10.2563 -19.2920 35.8582 -11.4432 -3.1327
# 5 21.1133 12.7105 -9.3149 -11.4432 52.3462 2.7553
# 6 -0.7042 16.3280 -4.1761 -3.1327 2.7553 39.5014
#
#
#
# Elastic Compliance Matrix: (Units=1/GPa)
#
#
# Indices 1 2 3 4 5 6 
#
# 1 0.009628 -0.003367 -0.004111 -0.001369 -0.004166 0.001311
# 2 -0.003367 0.015639 0.000715 0.002828 -0.001371 -0.006129
# 3 -0.004111 0.000715 0.009082 0.005203 0.004201 0.000711
# 4 -0.001369 0.002828 0.005203 0.033779 0.008098 0.001471
# 5 -0.004166 -0.001371 0.004201 0.008098 0.023638 -0.000070
# 6 0.001311 -0.006129 0.000711 0.001471 -0.000070 0.028069
#
#
# Mechanical properties :
#
#
# Convention : Reuss Voigt Hill
#
# Bulk Modulus (GPa) = 48.02770 65.19706 56.61238
# Shear Modulus (GPa) = 35.63705 44.24718 39.94211
#
# Velocity S-wave (km/s) = 3.71094 4.13501 3.92870
# Velocity P-wave (km/s) = 6.07624 6.92760 6.51584
#
# Compressibility (1/GPa) = 0.02082132
#
# Stress axis : x y z
#
# Youngs Moduli (GPa) = 103.86017 63.94282 110.11156
#
# Poissons Ratio (x) = 0.21530 0.45271
# Poissons Ratio (y) = 0.34970 -0.07868
# Poissons Ratio (z) = 0.42701 -0.04569
#
# Static dielectric constant tensor:
#      x y z
#    x 2.073710 -0.010120 -0.021950 
#    y -0.010120 2.248630 0.002220 
#    z -0.021950 0.002220 2.063160 
# 
# From -- ./inp_files/112891.got.cif
#   From: 2010.05.17/outbox.cif.g08.bks.cpg/sg2_57_cif.got.tgz:112891.got - 2010.06.03 11:33:40.
