data_PCOD9018807
_publ_section_title
;
Structure prediction by ZEFSAII (Michael W. Deem and Ramdas Pophale) SiO2 
 PCOD9018807
Probable space group: P -1
;
_chemical_formula_sum "Si O2"
_cell_formula_units_Z 16
_cell_length_a 8.946330
_cell_length_b 8.748646
_cell_length_c 21.255862
_cell_angle_alpha 124.208808
_cell_angle_beta 128.286244
_cell_angle_gamma 96.315360
_cell_volume 764.724890
_symmetry_space_group_name_H-M "P -1"
_symmetry_group_IT_number 2
_symmetry_cell_setting 'triclinic'
loop_
_space_group_symop_operation_xyz
x,y,z
-x,-y,-z
loop_
_atom_site_type_symbol
_atom_site_label
_atom_site_fract_x
_atom_site_fract_y
_atom_site_fract_z
Si Si1 0.303591 0.534866 0.942044
Si Si2 0.613801 0.270364 0.120828
Si Si3 0.147081 0.624231 0.133317
Si Si4 0.301448 0.805320 0.619104
Si Si5 0.736349 0.125980 0.231292
Si Si6 0.274551 0.294584 0.123243
Si Si7 0.721410 0.631159 0.532836
Si Si8 0.826157 0.751939 0.447445
O O1 0.244420 0.522766 0.850260
O O2 0.030514 0.357950 0.867984
O O3 0.500000 0.500000 0.000000
O O4 0.471744 0.830228 0.076311
O O5 0.783771 0.313749 0.234311
O O6 0.388915 0.257255 0.084939
O O7 0.500000 0.000000 0.000000
O O8 0.180653 0.440498 0.124778
O O9 0.440781 0.908107 0.270039
O O10 0.000000 0.500000 0.000000
O O11 0.309802 0.821881 0.700397
O O12 0.309218 0.602891 0.550677
O O13 0.039412 0.734951 0.511708
O O14 0.986750 0.159022 0.309623
O O15 0.540688 0.493773 0.283162
O O16 0.000000 0.000000 0.000000
O O17 0.500000 0.500000 0.500000
O O18 0.745640 0.757491 0.500785
O O19 0.000000 0.000000 0.500000
#
# Coordination Sequence:
#
# PCOD9018807 Si02
#       8
#     2   2   2   2   2   2   2   2
#     4  11  24  40  64  97 139 178 213 293 355 403
#     4  10  22  40  63  98 135 173 222 282 351 399
#     4  12  25  41  68 102 137 175 238 285 346 415
#     4  11  23  46  70  96 139 189 228 285 344 430
#     4  10  21  44  64  92 132 180 229 267 345 417
#     4  12  25  43  74 103 134 181 240 290 336 424
#     4  11  26  42  71 100 133 185 236 289 344 417
#     4  11  24  48  72 102 140 186 235 284 358 420
#
# _framework density 20.922557000000001
#
# number of rings (size 3 to 8) (size 9 to 14) (size 15 to 20)
#    0.000    1.000    2.500    5.250    3.500    3.000 
#    0.000    0.625    0.000    0.000    0.000    0.000 
#    0.000    0.000    0.000    0.000    0.000    0.000 
#
# Total GULP energy -89219.887560 kJ/mol
# GULP energy per Si atom -5576.242973 kJ/mol
# Density = 2.087494 g / cm^3
# Si number density = 20.922557 Si / 1000 Ang^3
#
#
#
# Elastic Constant Matrix: (Units=GPa)
#
#
# Indices 1 2 3 4 5 6 
#
# 1 143.6356 46.7596 25.3610 -10.5200 14.8308 23.0525
# 2 46.7596 133.6873 42.8990 -10.3149 3.7497 16.6007
# 3 25.3610 42.8990 116.8472 2.2051 21.4162 14.2283
# 4 -10.5200 -10.3149 2.2051 41.5199 7.4197 3.9327
# 5 14.8308 3.7497 21.4162 7.4197 30.3085 5.0525
# 6 23.0525 16.6007 14.2283 3.9327 5.0525 40.5767
#
#
#
# Elastic Compliance Matrix: (Units=1/GPa)
#
#
# Indices 1 2 3 4 5 6 
#
# 1 0.008980 -0.002355 0.000113 0.002809 -0.004216 -0.003925
# 2 -0.002355 0.009653 -0.003221 0.001776 0.002119 -0.001918
# 3 0.000113 -0.003221 0.011281 0.000114 -0.007357 -0.001797
# 4 0.002809 0.001776 0.000114 0.026973 -0.007606 -0.004030
# 5 -0.004216 0.002119 -0.007357 -0.007606 0.041918 -0.000374
# 6 -0.003925 -0.001918 -0.001797 -0.004030 -0.000374 0.028727
#
#
# Mechanical properties :
#
#
# Convention : Reuss Voigt Hill
#
# Bulk Modulus (GPa) = 52.66346 69.35661 61.01003
# Shear Modulus (GPa) = 34.53360 41.09105 37.81232
#
# Velocity S-wave (km/s) = 4.06710 4.43647 4.25579
# Velocity P-wave (km/s) = 6.87607 7.71130 7.30563
#
# Compressibility (1/GPa) = 0.01898850
#
# Stress axis : x y z
#
# Youngs Moduli (GPa) = 111.36238 103.59295 88.64189
#
# Poissons Ratio (x) = 0.24393 -0.01003
# Poissons Ratio (y) = 0.26223 0.28555
# Poissons Ratio (z) = -0.01261 0.33371
#
# Static dielectric constant tensor:
#      x y z
#    x 1.863780 0.007960 -0.025120 
#    y 0.007960 1.819460 0.010670 
#    z -0.025120 0.010670 1.794580 
# 
# From -- ./inp_files/588071.got.cif
#   From: 2010.05.17/outbox.cif.g08.bks.cpg/sg2_295_cif.got.tgz:588071.got - 2010.06.03 11:33:40.
