data_PCOD9018199
_publ_section_title
;
Structure prediction by ZEFSAII (Michael W. Deem and Ramdas Pophale) SiO2 
 PCOD9018199
Probable space group: P -1
;
_chemical_formula_sum "Si O2"
_cell_formula_units_Z 12
_cell_length_a 9.499818
_cell_length_b 4.909064
_cell_length_c 11.457792
_cell_angle_alpha 91.800597
_cell_angle_beta 107.251497
_cell_angle_gamma 84.195731
_cell_volume 507.681177
_symmetry_space_group_name_H-M "P -1"
_symmetry_group_IT_number 2
_symmetry_cell_setting 'triclinic'
loop_
_space_group_symop_operation_xyz
x,y,z
-x,-y,-z
loop_
_atom_site_type_symbol
_atom_site_label
_atom_site_fract_x
_atom_site_fract_y
_atom_site_fract_z
Si Si1 0.816079 0.390120 0.157788
Si Si2 0.579896 0.113717 0.409734
Si Si3 0.557493 0.826891 0.169213
Si Si4 0.125538 0.152439 0.972142
Si Si5 0.894567 0.267249 0.443498
Si Si6 0.609687 0.643313 0.832273
O O1 0.672580 0.613097 0.130292
O O2 0.923172 0.583963 0.118287
O O3 0.859317 0.305865 0.298309
O O4 0.799616 0.101460 0.089158
O O5 0.733439 0.251270 0.465511
O O6 0.453198 0.308363 0.313080
O O7 0.500000 0.000000 0.500000
O O8 0.618720 0.879369 0.316361
O O9 0.413234 0.663858 0.145808
O O10 0.502708 0.134078 0.122123
O O11 0.232142 0.269144 0.095892
O O12 0.000000 0.000000 0.000000
O O13 0.000000 0.500000 0.500000
O O14 0.000000 0.000000 0.500000
#
# Coordination Sequence:
#
# PCOD9018199 Si02
#       6
#     2   2   2   2   2   2
#     4  12  24  47  72  97 145 186 233 299 353 431
#     4  10  24  46  72 104 144 185 244 303 351 425
#     4  10  21  43  69 100 135 172 249 272 364 409
#     4  12  27  45  69 106 144 187 238 293 364 436
#     4  12  26  47  71 108 141 192 243 294 365 436
#     4  10  23  42  69 101 139 175 241 284 350 426
#
# _framework density 23.636879
#
# number of rings (size 3 to 8) (size 9 to 14) (size 15 to 20)
#    1.000    0.000    1.667    5.500    0.000    7.333 
#    3.000    0.000    0.000    0.000    0.000    0.000 
#    0.000    0.000    0.000    0.000    0.000    0.000 
#
# Total GULP energy -66985.994312 kJ/mol
# GULP energy per Si atom -5582.166193 kJ/mol
# Density = 2.358308 g / cm^3
# Si number density = 23.636879 Si / 1000 Ang^3
#
#
#
# Elastic Constant Matrix: (Units=GPa)
#
#
# Indices 1 2 3 4 5 6 
#
# 1 131.0727 37.7258 53.7347 -0.3331 11.5201 40.3051
# 2 37.7258 174.0289 33.4858 -9.1727 5.3165 29.2076
# 3 53.7347 33.4858 97.7119 -26.0999 15.7731 13.6405
# 4 -0.3331 -9.1727 -26.0999 51.2481 9.7439 6.3043
# 5 11.5201 5.3165 15.7731 9.7439 22.5999 2.6223
# 6 40.3051 29.2076 13.6405 6.3043 2.6223 53.3052
#
#
#
# Elastic Compliance Matrix: (Units=1/GPa)
#
#
# Indices 1 2 3 4 5 6 
#
# 1 0.012649 -0.000383 -0.006405 -0.002330 -0.000019 -0.007438
# 2 -0.000383 0.006672 -0.001267 0.001042 -0.000575 -0.003137
# 3 -0.006405 -0.001267 0.020469 0.013335 -0.016417 -0.000470
# 4 -0.002330 0.001042 0.013335 0.031106 -0.021212 -0.004857
# 5 -0.000019 -0.000575 -0.016417 -0.021212 0.064549 0.003864
# 6 -0.007438 -0.003137 -0.000470 -0.004857 0.003864 0.026608
#
#
# Mechanical properties :
#
#
# Convention : Reuss Voigt Hill
#
# Bulk Modulus (GPa) = 42.23220 72.52289 57.37755
# Shear Modulus (GPa) = 26.87373 43.95512 35.41442
#
# Velocity S-wave (km/s) = 3.37551 4.31699 3.87495
# Velocity P-wave (km/s) = 5.75309 7.45635 6.65940
#
# Compressibility (1/GPa) = 0.02367861
#
# Stress axis : x y z
#
# Youngs Moduli (GPa) = 79.05935 149.88199 48.85546
#
# Poissons Ratio (x) = 0.05745 0.31294
# Poissons Ratio (y) = 0.03030 0.06188
# Poissons Ratio (z) = 0.50641 0.18984
#
# Static dielectric constant tensor:
#      x y z
#    x 2.031580 -0.000660 -0.033360 
#    y -0.000660 1.875060 0.009680 
#    z -0.033360 0.009680 1.944760 
# 
# From -- ./inp_files/371852.got.cif
#   From: 2010.05.17/outbox.cif.g08.bks.cpg/sg2_186_cif.got.tgz:371852.got - 2010.06.03 11:33:40.
