data_PCOD9018543
_publ_section_title
;
Structure prediction by ZEFSAII (Michael W. Deem and Ramdas Pophale) SiO2 
 PCOD9018543
Probable space group: P -1
;
_chemical_formula_sum "Si O2"
_cell_formula_units_Z 14
_cell_length_a 6.786694
_cell_length_b 15.771083
_cell_length_c 11.232975
_cell_angle_alpha 55.869690
_cell_angle_beta 64.968709
_cell_angle_gamma 32.796059
_cell_volume 535.896462
_symmetry_space_group_name_H-M "P -1"
_symmetry_group_IT_number 2
_symmetry_cell_setting 'triclinic'
loop_
_space_group_symop_operation_xyz
x,y,z
-x,-y,-z
loop_
_atom_site_type_symbol
_atom_site_label
_atom_site_fract_x
_atom_site_fract_y
_atom_site_fract_z
Si Si1 0.612182 0.542797 0.534065
Si Si2 0.188511 0.240928 0.098598
Si Si3 0.891853 0.088385 0.085334
Si Si4 0.547516 0.419865 0.844509
Si Si5 0.123880 0.426398 0.770757
Si Si6 0.406125 0.769108 0.590921
Si Si7 0.677031 0.045472 0.704624
O O1 0.500000 0.500000 0.500000
O O2 0.764994 0.416964 0.705886
O O3 0.780512 0.570490 0.389736
O O4 0.317161 0.719284 0.549441
O O5 0.499228 0.185517 0.136501
O O6 0.350715 0.065232 0.191809
O O7 0.783297 0.405967 0.130514
O O8 0.161166 0.305290 0.926054
O O9 0.234610 0.939970 0.201502
O O10 0.813573 0.239772 0.984593
O O11 0.000000 0.000000 0.000000
O O12 0.338972 0.422743 0.804514
O O13 0.697547 0.614189 0.729551
O O14 0.062407 0.920673 0.639631
O O15 0.573668 0.802394 0.448233
#
# Coordination Sequence:
#
# PCOD9018543 Si02
#       7
#     2   2   2   2   2   2   2
#     4  10  22  39  66  95 131 173 218 279 332 392
#     4  11  23  46  72  99 129 182 232 272 333 404
#     4  11  26  44  67 102 142 172 223 288 338 396
#     4  10  21  43  71  97 128 180 232 272 331 405
#     4  10  22  39  68  98 129 169 227 281 325 395
#     4  11  23  44  62 100 139 170 225 274 333 412
#     4  11  26  43  68  97 139 181 217 277 343 404
#
# _framework density 26.124448000000001
#
# number of rings (size 3 to 8) (size 9 to 14) (size 15 to 20)
#    0.000    1.429    1.429    3.857    8.000    2.857 
#    2.571    2.143    0.000    0.000    0.000    0.000 
#    0.000    0.000    0.000    0.000    0.000    0.000 
#
# Total GULP energy -78131.716548 kJ/mol
# GULP energy per Si atom -5580.836896 kJ/mol
# Density = 2.606499 g / cm^3
# Si number density = 26.124448 Si / 1000 Ang^3
#
#
#
# Elastic Constant Matrix: (Units=GPa)
#
#
# Indices 1 2 3 4 5 6 
#
# 1 82.4724 -6.9113 58.2781 -2.8263 -24.4487 14.4751
# 2 -6.9113 60.5424 13.0384 17.7912 -12.0522 8.1593
# 3 58.2781 13.0384 191.8745 -18.3960 -26.9143 5.4669
# 4 -2.8263 17.7912 -18.3960 59.4507 -0.6409 0.5835
# 5 -24.4487 -12.0522 -26.9143 -0.6409 46.2551 2.2218
# 6 14.4751 8.1593 5.4669 0.5835 2.2218 39.2889
#
#
#
# Elastic Compliance Matrix: (Units=1/GPa)
#
#
# Indices 1 2 3 4 5 6 
#
# 1 0.021335 0.007798 -0.005547 -0.002832 0.010487 -0.009259
# 2 0.007798 0.022967 -0.003226 -0.007335 0.008491 -0.007565
# 3 -0.005547 -0.003226 0.007429 0.002990 0.000515 0.001606
# 4 -0.002832 -0.007335 0.002990 0.019771 -0.001487 0.001941
# 5 0.010487 0.008491 0.000515 -0.001487 0.030007 -0.007373
# 6 -0.009259 -0.007565 0.001606 0.001941 -0.007373 0.030599
#
#
# Mechanical properties :
#
#
# Convention : Reuss Voigt Hill
#
# Bulk Modulus (GPa) = 20.08784 51.52221 35.80502
# Shear Modulus (GPa) = 33.18893 47.03120 40.11007
#
# Velocity S-wave (km/s) = 3.56816 4.24757 3.92260
# Velocity P-wave (km/s) = 4.96806 6.61970 5.85244
#
# Compressibility (1/GPa) = 0.04978136
#
# Stress axis : x y z
#
# Youngs Moduli (GPa) = 46.87139 43.53994 134.61273
#
# Poissons Ratio (x) = -0.33951 0.74665
# Poissons Ratio (y) = -0.36548 0.43423
# Poissons Ratio (z) = 0.25998 0.14045
#
# Static dielectric constant tensor:
#      x y z
#    x 2.072420 0.015680 -0.040230 
#    y 0.015680 2.123160 -0.068030 
#    z -0.040230 -0.068030 2.150110 
# 
# From -- ./inp_files/402959.got.cif
#   From: 2010.05.17/outbox.cif.g08.bks.cpg/sg2_202_cif.got.tgz:402959.got - 2010.06.03 11:33:40.
