data_PCOD9018735
_publ_section_title
;
Structure prediction by ZEFSAII (Michael W. Deem and Ramdas Pophale) SiO2 
 PCOD9018735
Probable space group: P -1
;
_chemical_formula_sum "Si O2"
_cell_formula_units_Z 16
_cell_length_a 7.123139
_cell_length_b 5.343096
_cell_length_c 24.347889
_cell_angle_alpha 100.282900
_cell_angle_beta 125.271412
_cell_angle_gamma 91.952917
_cell_volume 733.475940
_symmetry_space_group_name_H-M "P -1"
_symmetry_group_IT_number 2
_symmetry_cell_setting 'triclinic'
loop_
_space_group_symop_operation_xyz
x,y,z
-x,-y,-z
loop_
_atom_site_type_symbol
_atom_site_label
_atom_site_fract_x
_atom_site_fract_y
_atom_site_fract_z
Si Si1 0.080411 0.348570 0.338005
Si Si2 0.246867 0.319519 0.666162
Si Si3 0.509212 0.048839 0.068372
Si Si4 0.737768 0.462394 0.931092
Si Si5 0.620750 0.473441 0.416452
Si Si6 0.284302 0.721172 0.205169
Si Si7 0.000967 0.841270 0.559149
Si Si8 0.963189 0.796371 0.796489
O O1 0.358343 0.432847 0.391310
O O2 0.008731 0.238112 0.381597
O O3 0.038302 0.184706 0.269275
O O4 0.910824 0.559723 0.312734
O O5 0.389237 0.493310 0.649714
O O6 0.447007 0.202589 0.726405
O O7 0.059095 0.144947 0.588304
O O8 0.363371 0.274885 0.066442
O O9 0.773963 0.144906 0.135293
O O10 0.409098 0.781668 0.071602
O O11 0.500000 0.000000 0.000000
O O12 0.728585 0.394712 0.862534
O O13 0.000000 0.500000 0.000000
O O14 0.768663 0.707960 0.484796
O O15 0.779254 0.249476 0.437745
O O16 0.153423 0.489069 0.212906
O O17 0.170731 0.978085 0.196533
#
# Coordination Sequence:
#
# PCOD9018735 Si02
#       8
#     2   2   2   2   2   2   2   2
#     4  11  24  39  64  95 132 174 230 282 348 408
#     4  11  24  39  64  94 130 176 227 284 347 412
#     4  12  25  45  72 105 142 180 234 280 340 407
#     4  12  25  45  72 104 143 183 230 281 342 404
#     4  10  21  44  59  95 126 176 221 288 346 416
#     4  12  26  45  70  98 139 182 229 282 349 402
#     4  10  23  38  67  88 132 171 228 283 348 417
#     4  12  26  45  70  99 138 183 228 286 345 402
#
# _framework density 21.813939000000001
#
# number of rings (size 3 to 8) (size 9 to 14) (size 15 to 20)
#    0.000    0.750    1.250    6.000    5.250    1.500 
#    0.000    0.000    0.000    0.000    0.000    0.000 
#    0.000    0.000    0.000    0.000    0.000    0.000 
#
# Total GULP energy -89387.925776 kJ/mol
# GULP energy per Si atom -5586.745361 kJ/mol
# Density = 2.176429 g / cm^3
# Si number density = 21.813939 Si / 1000 Ang^3
#
#
#
# Elastic Constant Matrix: (Units=GPa)
#
#
# Indices 1 2 3 4 5 6 
#
# 1 92.5029 4.8419 26.1580 -2.4913 3.0349 -1.1072
# 2 4.8419 42.5060 -12.0923 1.0243 -3.4614 -0.6172
# 3 26.1580 -12.0923 134.3407 0.6239 1.5410 -2.7182
# 4 -2.4913 1.0243 0.6239 32.3741 -4.2940 -0.9408
# 5 3.0349 -3.4614 1.5410 -4.2940 48.6440 2.1214
# 6 -1.1072 -0.6172 -2.7182 -0.9408 2.1214 37.0880
#
#
#
# Elastic Compliance Matrix: (Units=1/GPa)
#
#
# Indices 1 2 3 4 5 6 
#
# 1 0.011665 -0.002105 -0.002453 0.000921 -0.000727 0.000198
# 2 -0.002105 0.024677 0.002623 -0.000753 0.001719 0.000423
# 3 -0.002453 0.002623 0.008170 -0.000410 0.000020 0.000558
# 4 0.000921 -0.000753 -0.000410 0.031360 0.002643 0.000629
# 5 -0.000727 0.001719 0.000020 0.002643 0.021007 -0.001126
# 6 0.000198 0.000423 0.000558 0.000629 -0.001126 0.027097
#
#
# Mechanical properties :
#
#
# Convention : Reuss Voigt Hill
#
# Bulk Modulus (GPa) = 24.60434 34.12940 29.36687
# Shear Modulus (GPa) = 35.36233 40.31737 37.83985
#
# Velocity S-wave (km/s) = 4.03064 4.30378 4.16945
# Velocity P-wave (km/s) = 5.74152 6.35424 6.05564
#
# Compressibility (1/GPa) = 0.04064324
#
# Stress axis : x y z
#
# Youngs Moduli (GPa) = 85.72430 40.52438 122.39231
#
# Poissons Ratio (x) = 0.08531 0.30020
# Poissons Ratio (y) = 0.18046 -0.32109
# Poissons Ratio (z) = 0.21026 -0.10631
#
# Static dielectric constant tensor:
#      x y z
#    x 1.772090 0.034420 -0.004990 
#    y 0.034420 1.905550 -0.024360 
#    z -0.004990 -0.024360 1.760370 
# 
# From -- ./inp_files/11189.got.cif
#   From: 2010.05.17/outbox.cif.g08.bks.cpg/sg2_6_cif.got.tgz:11189.got - 2010.06.03 11:33:40.
