data_PCOD9018364
_publ_section_title
;
Structure prediction by ZEFSAII (Michael W. Deem and Ramdas Pophale) SiO2 
 PCOD9018364
Probable space group: P -1
;
_chemical_formula_sum "Si O2"
_cell_formula_units_Z 14
_cell_length_a 17.371392
_cell_length_b 6.712927
_cell_length_c 9.886456
_cell_angle_alpha 91.692231
_cell_angle_beta 136.495697
_cell_angle_gamma 59.608847
_cell_volume 563.350318
_symmetry_space_group_name_H-M "P -1"
_symmetry_group_IT_number 2
_symmetry_cell_setting 'triclinic'
loop_
_space_group_symop_operation_xyz
x,y,z
-x,-y,-z
loop_
_atom_site_type_symbol
_atom_site_label
_atom_site_fract_x
_atom_site_fract_y
_atom_site_fract_z
Si Si1 0.499189 0.203231 0.916875
Si Si2 0.108945 0.521716 0.218122
Si Si3 0.179713 0.058965 0.606232
Si Si4 0.967463 0.676929 0.315143
Si Si5 0.237981 0.739342 0.438259
Si Si6 0.397665 0.901907 0.511121
Si Si7 0.334022 0.157517 0.139129
O O1 0.330033 0.501657 0.668889
O O2 0.572292 0.078202 0.860039
O O3 0.500000 0.000000 0.000000
O O4 0.630786 0.177081 0.153466
O O5 0.163074 0.671362 0.239467
O O6 0.273740 0.196651 0.442207
O O7 0.009574 0.714348 0.225924
O O8 0.000000 0.500000 0.000000
O O9 0.102017 0.094860 0.651859
O O10 0.124765 0.359320 0.546917
O O11 0.130974 0.015327 0.403296
O O12 0.845257 0.650944 0.124889
O O13 0.352100 0.739419 0.496827
O O14 0.579726 0.736999 0.755883
O O15 0.359278 0.018073 0.311807
#
# Coordination Sequence:
#
# PCOD9018364 Si02
#       7
#     2   2   2   2   2   2   2
#     4  11  22  42  71 100 142 189 234 294 353 412
#     4  12  24  45  71  98 144 192 231 297 356 413
#     4  10  22  40  67 104 139 184 237 288 345 423
#     4  10  21  43  70 101 149 182 227 291 361 408
#     4  12  25  43  75 107 139 189 245 287 351 429
#     4  11  23  45  71 103 142 184 242 286 354 424
#     4  10  22  43  71 103 144 189 222 297 359 409
#
# _framework density 24.851324000000002
#
# number of rings (size 3 to 8) (size 9 to 14) (size 15 to 20)
#    0.000    1.143    4.286    2.143    0.000    1.714 
#    0.000    2.857    0.000    0.000    0.000    0.000 
#    0.000    0.000    0.000    0.000    0.000    0.000 
#
# Total GULP energy -78049.751249 kJ/mol
# GULP energy per Si atom -5574.982232 kJ/mol
# Density = 2.479476 g / cm^3
# Si number density = 24.851324 Si / 1000 Ang^3
#
#
#
# Elastic Constant Matrix: (Units=GPa)
#
#
# Indices 1 2 3 4 5 6 
#
# 1 137.7326 46.2054 23.4967 23.9372 7.0945 12.5797
# 2 46.2054 81.0192 28.8416 22.0013 5.7541 20.1164
# 3 23.4967 28.8416 87.2829 16.0934 20.2431 16.2987
# 4 23.9372 22.0013 16.0934 46.3149 -1.6259 8.4586
# 5 7.0945 5.7541 20.2431 -1.6259 35.5242 5.6952
# 6 12.5797 20.1164 16.2987 8.4586 5.6952 37.8892
#
#
#
# Elastic Compliance Matrix: (Units=1/GPa)
#
#
# Indices 1 2 3 4 5 6 
#
# 1 0.009307 -0.004432 -0.000325 -0.002660 -0.001104 0.000162
# 2 -0.004432 0.018668 -0.003117 -0.004348 0.000432 -0.006193
# 3 -0.000325 -0.003117 0.015641 -0.003525 -0.008028 -0.002972
# 4 -0.002660 -0.004348 -0.003525 0.026789 0.004790 -0.001992
# 5 -0.001104 0.000432 -0.008028 0.004790 0.033497 -0.002514
# 6 0.000162 -0.006193 -0.002972 -0.001992 -0.002514 0.031728
#
#
# Mechanical properties :
#
#
# Convention : Reuss Voigt Hill
#
# Bulk Modulus (GPa) = 35.88335 55.90243 45.89289
# Shear Modulus (GPa) = 31.12024 37.77840 34.44932
#
# Velocity S-wave (km/s) = 3.54256 3.90317 3.72723
# Velocity P-wave (km/s) = 5.58601 6.54650 6.08523
#
# Compressibility (1/GPa) = 0.02786808
#
# Stress axis : x y z
#
# Youngs Moduli (GPa) = 107.44684 53.56878 63.93264
#
# Poissons Ratio (x) = 0.23739 0.02077
# Poissons Ratio (y) = 0.47616 0.19931
# Poissons Ratio (z) = 0.03491 0.16700
#
# Static dielectric constant tensor:
#      x y z
#    x 2.060490 0.011380 -0.027450 
#    y 0.011380 2.010070 0.043850 
#    z -0.027450 0.043850 2.112180 
# 
# From -- ./inp_files/459187.got.cif
#   From: 2010.05.17/outbox.cif.g08.bks.cpg/sg2_230_cif.got.tgz:459187.got - 2010.06.03 11:33:40.
