data_PCOD9018905
_publ_section_title
;
Structure prediction by ZEFSAII (Michael W. Deem and Ramdas Pophale) SiO2 
 PCOD9018905
Probable space group: P -1
;
_chemical_formula_sum "Si O2"
_cell_formula_units_Z 14
_cell_length_a 17.937152
_cell_length_b 5.529457
_cell_length_c 8.949228
_cell_angle_alpha 122.560782
_cell_angle_beta 129.898812
_cell_angle_gamma 66.912289
_cell_volume 572.409244
_symmetry_space_group_name_H-M "P -1"
_symmetry_group_IT_number 2
_symmetry_cell_setting 'triclinic'
loop_
_space_group_symop_operation_xyz
x,y,z
-x,-y,-z
loop_
_atom_site_type_symbol
_atom_site_label
_atom_site_fract_x
_atom_site_fract_y
_atom_site_fract_z
Si Si1 0.908927 0.114681 0.722352
Si Si2 0.224317 0.585930 0.528018
Si Si3 0.793994 0.656531 0.269562
Si Si4 0.118304 0.836849 0.945545
Si Si5 0.697178 0.864516 0.752699
Si Si6 0.613627 0.017097 0.186845
Si Si7 0.393905 0.655861 0.399867
O O1 0.874938 0.419728 0.711091
O O2 0.880530 0.114111 0.858430
O O3 0.833569 0.965193 0.465188
O O4 0.014759 0.962383 0.793562
O O5 0.179493 0.527101 0.610464
O O6 0.282742 0.313871 0.432749
O O7 0.320555 0.768038 0.747467
O O8 0.677543 0.717576 0.140516
O O9 0.853547 0.498190 0.162163
O O10 0.204892 0.992804 0.031981
O O11 0.670365 0.620098 0.753705
O O12 0.624151 0.137060 0.697872
O O13 0.623059 0.141940 0.408345
O O14 0.500000 0.000000 0.000000
O O15 0.500000 0.500000 0.500000
#
# Coordination Sequence:
#
# PCOD9018905 Si02
#       7
#     2   2   2   2   2   2   2
#     4  10  23  46  64  98 140 178 229 288 353 407
#     4  10  21  44  66  88 144 178 215 298 347 403
#     4  11  22  44  65  97 135 174 231 287 347 410
#     4  11  23  41  72  99 130 186 234 282 344 428
#     4  11  22  45  65 101 136 182 229 289 352 412
#     4  10  23  41  62  94 133 176 227 286 345 415
#     4  11  24  43  70  95 139 184 229 290 352 409
#
# _framework density 24.458027000000001
#
# number of rings (size 3 to 8) (size 9 to 14) (size 15 to 20)
#    0.000    1.429    2.857    2.571    2.000    2.857 
#   10.286    0.000    0.000    0.000    0.000    0.000 
#    0.000    0.000    0.000    0.000    0.000    0.000 
#
# Total GULP energy -78002.327703 kJ/mol
# GULP energy per Si atom -5571.594836 kJ/mol
# Density = 2.440236 g / cm^3
# Si number density = 24.458027 Si / 1000 Ang^3
#
#
#
# Elastic Constant Matrix: (Units=GPa)
#
#
# Indices 1 2 3 4 5 6 
#
# 1 99.9685 208.5167 92.4018 52.4598 73.1853 14.6489
# 2 208.5167 795.9288 322.6561 219.8127 245.1054 147.6387
# 3 92.4018 322.6561 185.0882 97.0585 120.7213 62.0055
# 4 52.4598 219.8127 97.0585 130.4323 67.4735 69.9818
# 5 73.1853 245.1054 120.7213 67.4735 108.7706 51.0144
# 6 14.6489 147.6387 62.0055 69.9818 51.0144 90.7931
#
#
#
# Elastic Compliance Matrix: (Units=1/GPa)
#
#
# Indices 1 2 3 4 5 6 
#
# 1 0.031600 -0.006485 -0.000377 -0.003820 -0.010749 0.014689
# 2 -0.006485 0.007353 -0.004444 -0.002354 -0.004034 -0.003795
# 3 -0.000377 -0.004444 0.025523 -0.003938 -0.016677 0.002263
# 4 -0.003820 -0.002354 -0.003938 0.018929 0.005432 -0.010509
# 5 -0.010749 -0.004034 -0.016677 0.005432 0.045334 -0.009976
# 6 0.014689 -0.003795 0.002263 -0.010509 -0.009976 0.026975
#
#
# Mechanical properties :
#
#
# Convention : Reuss Voigt Hill
#
# Bulk Modulus (GPa) = 23.88759 258.68164 141.28462
# Shear Modulus (GPa) = 26.00351 96.49325 61.24838
#
# Velocity S-wave (km/s) = 3.26420 6.28794 5.00965
# Velocity P-wave (km/s) = 4.89843 12.59813 9.55791
#
# Compressibility (1/GPa) = 0.04186273
#
# Stress axis : x y z
#
# Youngs Moduli (GPa) = 31.64560 135.99613 39.18019
#
# Poissons Ratio (x) = 0.88196 0.01478
# Poissons Ratio (y) = 0.20523 0.17413
# Poissons Ratio (z) = 0.01194 0.60441
#
# Static dielectric constant tensor:
#      x y z
#    x 1.970930 0.266560 -0.013020 
#    y 0.266560 3.976290 0.124470 
#    z -0.013020 0.124470 2.038260 
# 
# From -- ./inp_files/322582.got.cif
#   From: 2010.05.17/outbox.cif.g08.bks.cpg/sg2_162_cif.got.tgz:322582.got - 2010.06.03 11:33:40.
