data_PCOD9018453
_publ_section_title
;
Structure prediction by ZEFSAII (Michael W. Deem and Ramdas Pophale) SiO2 
 PCOD9018453
Probable space group: P -1
;
_chemical_formula_sum "Si O2"
_cell_formula_units_Z 14
_cell_length_a 20.565417
_cell_length_b 8.542123
_cell_length_c 6.952310
_cell_angle_alpha 101.365415
_cell_angle_beta 76.633473
_cell_angle_gamma 38.574278
_cell_volume 579.681358
_symmetry_space_group_name_H-M "P -1"
_symmetry_group_IT_number 2
_symmetry_cell_setting 'triclinic'
loop_
_space_group_symop_operation_xyz
x,y,z
-x,-y,-z
loop_
_atom_site_type_symbol
_atom_site_label
_atom_site_fract_x
_atom_site_fract_y
_atom_site_fract_z
Si Si1 0.010503 0.606404 0.794602
Si Si2 0.335314 0.918507 0.000136
Si Si3 0.404398 0.478301 0.126490
Si Si4 0.364154 0.338361 0.778544
Si Si5 0.723429 0.182090 0.302514
Si Si6 0.903626 0.304940 0.002671
Si Si7 0.024699 0.659810 0.395935
O O1 0.043095 0.364838 0.632592
O O2 0.115527 0.489473 0.816125
O O3 0.970553 0.795999 0.680579
O O4 0.881478 0.846122 0.072468
O O5 0.444938 0.819683 0.964459
O O6 0.342082 0.838899 0.757149
O O7 0.369638 0.696135 0.058406
O O8 0.183750 0.292280 0.223770
O O9 0.314240 0.696852 0.427271
O O10 0.384984 0.359450 0.986386
O O11 0.322048 0.576105 0.737049
O O12 0.240675 0.471146 0.885337
O O13 0.500000 0.000000 0.500000
O O14 0.980332 0.194355 0.726415
O O15 0.000000 0.000000 0.000000
#
# Coordination Sequence:
#
# PCOD9018453 Si02
#       7
#     2   2   2   2   2   2   2
#     4  10  23  46  68 106 134 179 230 291 348 409
#     4   9  21  41  67 109 129 181 233 287 354 406
#     4  10  22  42  69  96 144 183 223 294 351 408
#     4  11  27  45  64 102 139 182 243 279 342 426
#     4  10  21  43  70  98 138 178 231 286 349 409
#     4  12  26  47  69 100 139 191 229 287 355 414
#     4  10  24  43  74 103 138 173 241 293 340 417
#
# _framework density 24.151202000000001
#
# number of rings (size 3 to 8) (size 9 to 14) (size 15 to 20)
#    0.000    1.714    1.429    0.857    4.000    9.143 
#    2.571    0.000    0.000    0.000    0.000    0.000 
#    0.000    0.000    0.000    0.000    0.000    0.000 
#
# Total GULP energy -78356.092355 kJ/mol
# GULP energy per Si atom -5596.863740 kJ/mol
# Density = 2.409623 g / cm^3
# Si number density = 24.151202 Si / 1000 Ang^3
#
#
#
# Elastic Constant Matrix: (Units=GPa)
#
#
# Indices 1 2 3 4 5 6 
#
# 1 203.4539 56.7696 80.3470 -4.9985 20.2609 -48.2933
# 2 56.7696 89.4120 27.9895 -9.3215 -2.7734 -17.3165
# 3 80.3470 27.9895 167.8699 -25.7703 25.3286 -26.6431
# 4 -4.9985 -9.3215 -25.7703 44.0839 -1.6288 -7.0348
# 5 20.2609 -2.7734 25.3286 -1.6288 39.9958 -9.4393
# 6 -48.2933 -17.3165 -26.6431 -7.0348 -9.4393 32.5947
#
#
#
# Elastic Compliance Matrix: (Units=1/GPa)
#
#
# Indices 1 2 3 4 5 6 
#
# 1 0.009076 -0.003178 -0.001923 0.000785 -0.001206 0.010007
# 2 -0.003178 0.014711 -0.000230 0.003542 0.004067 0.004861
# 3 -0.001923 -0.000230 0.009034 0.005626 -0.003441 0.004630
# 4 0.000785 0.003542 0.005626 0.029100 0.000812 0.014159
# 5 -0.001206 0.004067 -0.003441 0.000812 0.029596 0.006307
# 6 0.010007 0.004861 0.004630 0.014159 0.006307 0.056756
#
#
# Mechanical properties :
#
#
# Convention : Reuss Voigt Hill
#
# Bulk Modulus (GPa) = 45.13214 87.88313 66.50764
# Shear Modulus (GPa) = 30.06221 43.04353 36.55287
#
# Velocity S-wave (km/s) = 3.53193 4.22625 3.89459
# Velocity P-wave (km/s) = 5.94648 7.76419 6.91532
#
# Compressibility (1/GPa) = 0.02215716
#
# Stress axis : x y z
#
# Youngs Moduli (GPa) = 110.17724 67.97710 110.69862
#
# Poissons Ratio (x) = 0.21604 0.21293
# Poissons Ratio (y) = 0.35015 0.02548
# Poissons Ratio (z) = 0.21192 0.01565
#
# Static dielectric constant tensor:
#      x y z
#    x 1.951040 0.003600 0.016240 
#    y 0.003600 1.987470 -0.008720 
#    z 0.016240 -0.008720 1.918620 
# 
# From -- ./inp_files/117011.got.cif
#   From: 2010.05.17/outbox.cif.g08.bks.cpg/sg2_59_cif.got.tgz:117011.got - 2010.06.03 11:33:40.
