data_PCOD9018516
_publ_section_title
;
Structure prediction by ZEFSAII (Michael W. Deem and Ramdas Pophale) SiO2 
 PCOD9018516
Probable space group: P -1
;
_chemical_formula_sum "Si O2"
_cell_formula_units_Z 12
_cell_length_a 13.468376
_cell_length_b 15.271120
_cell_length_c 4.976391
_cell_angle_alpha 66.313125
_cell_angle_beta 58.239030
_cell_angle_gamma 30.742798
_cell_volume 441.829779
_symmetry_space_group_name_H-M "P -1"
_symmetry_group_IT_number 2
_symmetry_cell_setting 'triclinic'
loop_
_space_group_symop_operation_xyz
x,y,z
-x,-y,-z
loop_
_atom_site_type_symbol
_atom_site_label
_atom_site_fract_x
_atom_site_fract_y
_atom_site_fract_z
Si Si1 0.528714 0.070615 0.176966
Si Si2 0.661370 0.158642 0.221902
Si Si3 0.741452 0.505276 0.273862
Si Si4 0.071839 0.376568 0.322559
Si Si5 0.518663 0.417509 0.825811
Si Si6 0.920093 0.831075 0.519648
O O1 0.553407 0.145072 0.237659
O O2 0.318832 0.225912 0.106352
O O3 0.500000 0.000000 0.500000
O O4 0.730240 0.935113 0.865348
O O5 0.483943 0.316847 0.488240
O O6 0.862756 0.970765 0.299243
O O7 0.701832 0.217829 0.886361
O O8 0.673050 0.526503 0.042037
O O9 0.863795 0.327940 0.431170
O O10 0.912207 0.468101 0.184236
O O11 0.077486 0.262106 0.568408
O O12 0.000000 0.500000 0.500000
O O13 0.500000 0.500000 0.500000
O O14 0.500000 0.500000 0.000000
#
# Coordination Sequence:
#
# PCOD9018516 Si02
#       6
#     2   2   2   2   2   2
#     4  12  22  41  70 112 165 211 248 312 376 472
#     4  12  24  46  81 109 155 206 263 324 390 468
#     4  10  24  47  75 115 151 206 263 326 387 475
#     4  10  21  43  71 109 160 211 251 302 379 467
#     4  12  27  53  85 112 151 203 267 344 415 455
#     4  10  25  45  71 113 162 204 269 307 381 464
#
# _framework density 27.159779
#
# number of rings (size 3 to 8) (size 9 to 14) (size 15 to 20)
#    1.000    0.000    5.000    1.500    0.000    2.667 
#    3.000    6.667    0.000    0.000    0.000    0.000 
#    0.000    0.000    0.000    0.000    0.000    0.000 
#
# Total GULP energy -67070.190798 kJ/mol
# GULP energy per Si atom -5589.182567 kJ/mol
# Density = 2.709796 g / cm^3
# Si number density = 27.159779 Si / 1000 Ang^3
#
#
#
# Elastic Constant Matrix: (Units=GPa)
#
#
# Indices 1 2 3 4 5 6 
#
# 1 180.3150 60.8437 35.1744 -8.0303 34.1748 5.8424
# 2 60.8437 198.0755 66.1534 -39.2457 7.4908 6.5260
# 3 35.1744 66.1534 128.0687 -28.9052 5.5743 18.5367
# 4 -8.0303 -39.2457 -28.9052 72.5988 -3.3535 -3.4817
# 5 34.1748 7.4908 5.5743 -3.3535 39.9407 -5.2912
# 6 5.8424 6.5260 18.5367 -3.4817 -5.2912 60.6652
#
#
#
# Elastic Compliance Matrix: (Units=1/GPa)
#
#
# Indices 1 2 3 4 5 6 
#
# 1 0.007519 -0.001932 -0.000880 -0.000886 -0.006134 -0.000833
# 2 -0.001932 0.006969 -0.002595 0.002588 0.000987 0.000464
# 3 -0.000880 -0.002595 0.010354 0.002477 -0.000354 -0.002689
# 4 -0.000886 0.002588 0.002477 0.016126 0.001293 0.000088
# 5 -0.006134 0.000987 -0.000354 0.001293 0.030701 0.003345
# 6 -0.000833 0.000464 -0.002689 0.000088 0.003345 0.017633
#
#
# Mechanical properties :
#
#
# Convention : Reuss Voigt Hill
#
# Bulk Modulus (GPa) = 71.28269 92.31134 81.79702
# Shear Modulus (GPa) = 47.71371 57.59347 52.65359
#
# Velocity S-wave (km/s) = 4.19594 4.60993 4.40780
# Velocity P-wave (km/s) = 7.05530 7.89920 7.48914
#
# Compressibility (1/GPa) = 0.01402865
#
# Stress axis : x y z
#
# Youngs Moduli (GPa) = 132.98869 143.49242 96.58115
#
# Poissons Ratio (x) = 0.27725 0.08495
# Poissons Ratio (y) = 0.25696 0.25064
# Poissons Ratio (z) = 0.11698 0.37238
#
# Static dielectric constant tensor:
#      x y z
#    x 2.144020 0.023170 -0.031080 
#    y 0.023170 2.184060 -0.089000 
#    z -0.031080 -0.089000 2.291950 
# 
# From -- ./inp_files/96762.got.cif
#   From: 2010.05.17/outbox.cif.g08.bks.cpg/sg2_49_cif.got.tgz:96762.got - 2010.06.03 11:33:40.
