data_PCOD9018668
_publ_section_title
;
Structure prediction by ZEFSAII (Michael W. Deem and Ramdas Pophale) SiO2 
 PCOD9018668
Probable space group: P -1
;
_chemical_formula_sum "Si O2"
_cell_formula_units_Z 14
_cell_length_a 9.119125
_cell_length_b 7.976178
_cell_length_c 9.635445
_cell_angle_alpha 102.900297
_cell_angle_beta 91.410958
_cell_angle_gamma 55.377224
_cell_volume 557.589498
_symmetry_space_group_name_H-M "P -1"
_symmetry_group_IT_number 2
_symmetry_cell_setting 'triclinic'
loop_
_space_group_symop_operation_xyz
x,y,z
-x,-y,-z
loop_
_atom_site_type_symbol
_atom_site_label
_atom_site_fract_x
_atom_site_fract_y
_atom_site_fract_z
Si Si1 0.680808 0.143397 0.293519
Si Si2 0.435846 0.243523 0.533859
Si Si3 0.894410 0.625488 0.880686
Si Si4 0.000584 0.167983 0.293885
Si Si5 0.901203 0.714198 0.394032
Si Si6 0.477347 0.258964 0.047746
Si Si7 0.352764 0.725558 0.212827
O O1 0.487428 0.275803 0.389272
O O2 0.641089 0.125541 0.131926
O O3 0.799994 0.232892 0.316328
O O4 0.794695 0.924291 0.337708
O O5 0.230814 0.358820 0.594867
O O6 0.553854 0.281930 0.643880
O O7 0.500000 0.000000 0.500000
O O8 0.964706 0.751655 0.832795
O O9 0.684181 0.761692 0.933417
O O10 0.936105 0.460591 0.728201
O O11 0.000000 0.500000 0.000000
O O12 0.054901 0.234512 0.446734
O O13 0.143053 0.913271 0.246846
O O14 0.395368 0.503770 0.126619
O O15 0.549141 0.218099 0.886576
#
# Coordination Sequence:
#
# PCOD9018668 Si02
#       7
#     2   2   2   2   2   2   2
#     4  11  25  43  74 107 138 185 235 288 358 412
#     4  10  21  43  74 102 138 182 239 287 348 412
#     4  12  29  48  72 103 144 188 240 291 360 421
#     4  12  26  46  72 105 141 189 236 298 349 418
#     4  11  24  48  71 105 145 182 237 292 353 424
#     4  11  28  46  71 105 144 189 234 293 351 430
#     4  11  25  47  73 100 147 184 243 286 358 418
#
# _framework density 25.108076000000001
#
# number of rings (size 3 to 8) (size 9 to 14) (size 15 to 20)
#    0.000    0.857    2.857    3.429   12.000    1.714 
#    0.000    0.000    0.000    0.000    0.000    0.000 
#    0.000    0.000    0.000    0.000    0.000    0.000 
#
# Total GULP energy -78481.683185 kJ/mol
# GULP energy per Si atom -5605.834513 kJ/mol
# Density = 2.505093 g / cm^3
# Si number density = 25.108076 Si / 1000 Ang^3
#
#
#
# Elastic Constant Matrix: (Units=GPa)
#
#
# Indices 1 2 3 4 5 6 
#
# 1 127.0429 16.5850 -2.5527 -5.5714 -24.4755 6.2368
# 2 16.5850 88.5172 21.9950 -21.8066 5.7639 9.0030
# 3 -2.5527 21.9950 73.8135 0.9919 -8.4095 0.2920
# 4 -5.5714 -21.8066 0.9919 38.2448 -2.3995 0.8514
# 5 -24.4755 5.7639 -8.4095 -2.3995 42.2304 -2.9492
# 6 6.2368 9.0030 0.2920 0.8514 -2.9492 36.8851
#
#
#
# Elastic Compliance Matrix: (Units=1/GPa)
#
#
# Indices 1 2 3 4 5 6 
#
# 1 0.009455 -0.002480 0.001764 0.000315 0.006151 -0.000523
# 2 -0.002480 0.015954 -0.005452 0.008684 -0.004486 -0.003991
# 3 0.001764 -0.005452 0.015820 -0.002988 0.004842 0.001363
# 4 0.000315 0.008684 -0.002988 0.031285 -0.000021 -0.002873
# 5 0.006151 -0.004486 0.004842 -0.000021 0.028983 0.002334
# 6 -0.000523 -0.003991 0.001363 -0.002873 0.002334 0.028416
#
#
# Mechanical properties :
#
#
# Convention : Reuss Voigt Hill
#
# Bulk Modulus (GPa) = 34.60817 40.15871 37.38344
# Shear Modulus (GPa) = 32.92122 40.36180 36.64151
#
# Velocity S-wave (km/s) = 3.62495 4.01374 3.82429
# Velocity P-wave (km/s) = 5.59767 6.12448 5.86699
#
# Compressibility (1/GPa) = 0.02889491
#
# Stress axis : x y z
#
# Youngs Moduli (GPa) = 105.76351 62.68077 63.21265
#
# Poissons Ratio (x) = 0.15543 -0.11154
# Poissons Ratio (y) = 0.26226 0.34461
# Poissons Ratio (z) = -0.18662 0.34171
#
# Static dielectric constant tensor:
#      x y z
#    x 1.920700 0.012780 -0.018690 
#    y 0.012780 2.069070 0.049730 
#    z -0.018690 0.049730 1.887010 
# 
# From -- ./inp_files/158153.got.cif
#   From: 2010.05.17/outbox.cif.g08.bks.cpg/sg2_80_cif.got.tgz:158153.got - 2010.06.03 11:33:40.
