data_PCOD9018388
_publ_section_title
;
Structure prediction by ZEFSAII (Michael W. Deem and Ramdas Pophale) SiO2 
 PCOD9018388
Probable space group: P -1
;
_chemical_formula_sum "Si O2"
_cell_formula_units_Z 12
_cell_length_a 9.155233
_cell_length_b 7.291653
_cell_length_c 10.103985
_cell_angle_alpha 73.853994
_cell_angle_beta 69.655240
_cell_angle_gamma 50.129094
_cell_volume 483.955089
_symmetry_space_group_name_H-M "P -1"
_symmetry_group_IT_number 2
_symmetry_cell_setting 'triclinic'
loop_
_space_group_symop_operation_xyz
x,y,z
-x,-y,-z
loop_
_atom_site_type_symbol
_atom_site_label
_atom_site_fract_x
_atom_site_fract_y
_atom_site_fract_z
Si Si1 0.587971 0.183703 0.667691
Si Si2 0.954374 0.713398 0.728263
Si Si3 0.291445 0.436062 0.130026
Si Si4 0.743305 0.156746 0.085501
Si Si5 0.240092 0.272187 0.904326
Si Si6 0.715553 0.264357 0.363877
O O1 0.416303 0.167621 0.764396
O O2 0.662675 0.131094 0.504000
O O3 0.479358 0.467526 0.659422
O O4 0.774500 0.994354 0.735632
O O5 0.066968 0.536399 0.853468
O O6 0.132129 0.706644 0.614201
O O7 0.847660 0.598277 0.731248
O O8 0.506932 0.316836 0.137962
O O9 0.211309 0.697805 0.051890
O O10 0.317239 0.294177 0.014356
O O11 0.807543 0.138225 0.220495
O O12 0.811429 0.909706 0.050209
#
# Coordination Sequence:
#
# PCOD9018388 Si02
#       6
#     2   2   2   2   2   2
#     4  10  21  43  70  87 132 171 208 265 313 381
#     4  11  22  41  66  95 127 171 207 264 321 372
#     4  11  23  42  65  96 131 167 211 259 323 378
#     4  11  23  41  66  98 127 167 215 260 315 385
#     4  11  23  42  65  98 130 168 206 264 325 370
#     4  10  23  43  67  97 122 172 219 255 320 369
#
# _framework density 24.795691999999999
#
# number of rings (size 3 to 8) (size 9 to 14) (size 15 to 20)
#    0.000    1.333    5.000    1.500    0.000    1.333 
#    3.000    0.833    0.000    0.000    0.000    0.000 
#    0.000    0.000    0.000    0.000    0.000    0.000 
#
# Total GULP energy -67003.241194 kJ/mol
# GULP energy per Si atom -5583.603433 kJ/mol
# Density = 2.473926 g / cm^3
# Si number density = 24.795692 Si / 1000 Ang^3
#
#
#
# Elastic Constant Matrix: (Units=GPa)
#
#
# Indices 1 2 3 4 5 6 
#
# 1 109.2213 44.1969 35.3864 -0.7942 -24.6496 -12.0846
# 2 44.1969 129.1775 55.2860 -13.0626 -1.0037 -3.0857
# 3 35.3864 55.2860 91.2262 -18.3976 -24.3159 5.0398
# 4 -0.7942 -13.0626 -18.3976 27.8442 -2.9034 -8.0216
# 5 -24.6496 -1.0037 -24.3159 -2.9034 31.6170 -1.3716
# 6 -12.0846 -3.0857 5.0398 -8.0216 -1.3716 56.3698
#
#
#
# Elastic Compliance Matrix: (Units=1/GPa)
#
#
# Indices 1 2 3 4 5 6 
#
# 1 0.013742 -0.004646 0.000342 0.000448 0.011000 0.002992
# 2 -0.004646 0.013015 -0.009028 -0.001023 -0.010241 0.000129
# 3 0.000342 -0.009028 0.024491 0.014015 0.020097 -0.000127
# 4 0.000448 -0.001023 0.014015 0.048084 0.015772 0.006013
# 5 0.011000 -0.010241 0.020097 0.015772 0.056941 0.003631
# 6 0.002992 0.000129 -0.000127 0.006013 0.003631 0.019344
#
#
# Mechanical properties :
#
#
# Convention : Reuss Voigt Hill
#
# Bulk Modulus (GPa) = 40.67832 66.59594 53.63713
# Shear Modulus (GPa) = 23.75582 36.14992 29.95287
#
# Velocity S-wave (km/s) = 3.09862 3.82240 3.47938
# Velocity P-wave (km/s) = 5.40767 6.81155 6.14980
#
# Compressibility (1/GPa) = 0.02458312
#
# Stress axis : x y z
#
# Youngs Moduli (GPa) = 72.77123 76.83532 40.83191
#
# Poissons Ratio (x) = 0.35696 -0.01397
# Poissons Ratio (y) = 0.33808 0.36864
# Poissons Ratio (z) = -0.02489 0.69369
#
# Static dielectric constant tensor:
#      x y z
#    x 1.975350 -0.066000 -0.063580 
#    y -0.066000 1.966750 0.023100 
#    z -0.063580 0.023100 2.023780 
# 
# From -- ./inp_files/223282.got.cif
#   From: 2010.05.17/outbox.cif.g08.bks.cpg/sg2_112_cif.got.tgz:223282.got - 2010.06.03 11:33:40.
