data_PCOD9018582
_publ_section_title
;
Structure prediction by ZEFSAII (Michael W. Deem and Ramdas Pophale) SiO2 
 PCOD9018582
Probable space group: P -1
;
_chemical_formula_sum "Si O2"
_cell_formula_units_Z 16
_cell_length_a 17.341531
_cell_length_b 7.270386
_cell_length_c 7.575194
_cell_angle_alpha 78.488191
_cell_angle_beta 60.469197
_cell_angle_gamma 49.613050
_cell_volume 622.537369
_symmetry_space_group_name_H-M "P -1"
_symmetry_group_IT_number 2
_symmetry_cell_setting 'triclinic'
loop_
_space_group_symop_operation_xyz
x,y,z
-x,-y,-z
loop_
_atom_site_type_symbol
_atom_site_label
_atom_site_fract_x
_atom_site_fract_y
_atom_site_fract_z
Si Si1 0.884453 0.949889 0.790861
Si Si2 0.150390 0.715347 0.512897
Si Si3 0.484456 0.144015 0.252447
Si Si4 0.723473 0.772475 0.372100
Si Si5 0.089217 0.039218 0.836389
Si Si6 0.609336 0.285195 0.306005
Si Si7 0.865518 0.556513 0.888577
Si Si8 0.344102 0.396811 0.008996
O O1 0.654657 0.409907 0.136132
O O2 0.867381 0.959357 0.019471
O O3 0.862563 0.771473 0.780041
O O4 0.015579 0.841741 0.638973
O O5 0.207471 0.433695 0.517772
O O6 0.183368 0.808382 0.298255
O O7 0.169079 0.821573 0.646247
O O8 0.395990 0.182301 0.491576
O O9 0.563993 0.201328 0.225503
O O10 0.405167 0.325690 0.145255
O O11 0.567159 0.867459 0.140275
O O12 0.804835 0.638642 0.134981
O O13 0.689729 0.036298 0.382209
O O14 0.000514 0.310798 0.798058
O O15 0.000000 0.000000 0.000000
O O16 0.500000 0.500000 0.500000
O O17 0.781495 0.532142 0.883278
#
# Coordination Sequence:
#
# PCOD9018582 Si02
#       8
#     2   2   2   2   2   2   2   2
#     4  10  23  46  73 104 157 198 244 318 369 440
#     4  10  24  47  73 109 151 197 251 312 372 448
#     4  11  25  49  73 108 150 188 256 312 374 455
#     4  12  24  45  72 109 145 189 255 301 368 459
#     4  10  21  43  72 102 148 197 245 300 374 441
#     4  12  24  47  78 102 144 200 243 311 379 437
#     4  12  24  45  71 110 148 197 251 302 376 450
#     4  11  26  49  74 107 152 193 244 319 378 450
#
# _framework density 25.701270000000001
#
# number of rings (size 3 to 8) (size 9 to 14) (size 15 to 20)
#    0.000    1.000    5.000    1.875    0.000    6.500 
#    9.000    0.000    0.000    0.000    0.000    0.000 
#    0.000    0.000    0.000    0.000    0.000    0.000 
#
# Total GULP energy -89506.846152 kJ/mol
# GULP energy per Si atom -5594.177885 kJ/mol
# Density = 2.564277 g / cm^3
# Si number density = 25.701270 Si / 1000 Ang^3
#
#
#
# Elastic Constant Matrix: (Units=GPa)
#
#
# Indices 1 2 3 4 5 6 
#
# 1 103.3940 68.2019 24.3882 -28.2125 3.1229 33.2426
# 2 68.2019 253.7414 54.3201 -19.9118 -2.5872 15.0883
# 3 24.3882 54.3201 94.0619 -16.8140 2.5821 4.6482
# 4 -28.2125 -19.9118 -16.8140 42.8668 2.7415 -8.2717
# 5 3.1229 -2.5872 2.5821 2.7415 24.9953 -1.0991
# 6 33.2426 15.0883 4.6482 -8.2717 -1.0991 47.1413
#
#
#
# Elastic Compliance Matrix: (Units=1/GPa)
#
#
# Indices 1 2 3 4 5 6 
#
# 1 0.017563 -0.003420 -0.000538 0.008092 -0.003816 -0.009906
# 2 -0.003420 0.005276 -0.002354 -0.000640 0.001325 0.000874
# 3 -0.000538 -0.002354 0.012838 0.003804 -0.001898 0.000490
# 4 0.008092 -0.000640 0.003804 0.030016 -0.004794 -0.000721
# 5 -0.003816 0.001325 -0.001898 -0.004794 0.041457 0.002579
# 6 -0.009906 0.000874 0.000490 -0.000721 0.002579 0.027804
#
#
# Mechanical properties :
#
#
# Convention : Reuss Voigt Hill
#
# Bulk Modulus (GPa) = 43.37881 82.77977 63.07929
# Shear Modulus (GPa) = 32.20384 43.28649 37.74516
#
# Velocity S-wave (km/s) = 3.54362 4.10837 3.83640
# Velocity P-wave (km/s) = 5.80153 7.40158 6.64985
#
# Compressibility (1/GPa) = 0.02305273
#
# Stress axis : x y z
#
# Youngs Moduli (GPa) = 56.93790 189.55282 77.89441
#
# Poissons Ratio (x) = 0.64835 0.04189
# Poissons Ratio (y) = 0.19475 0.18334
# Poissons Ratio (z) = 0.03062 0.44615
#
# Static dielectric constant tensor:
#      x y z
#    x 2.055580 -0.131360 -0.005560 
#    y -0.131360 2.315410 0.178560 
#    z -0.005560 0.178560 2.165710 
# 
# From -- ./inp_files/329009.got.cif
#   From: 2010.05.17/outbox.cif.g08.bks.cpg/sg2_165_cif.got.tgz:329009.got - 2010.06.03 11:33:40.
