data_PCOD9018914
_publ_section_title
;
Structure prediction by ZEFSAII (Michael W. Deem and Ramdas Pophale) SiO2 
 PCOD9018914
Probable space group: P -1
;
_chemical_formula_sum "Si O2"
_cell_formula_units_Z 16
_cell_length_a 9.129618
_cell_length_b 15.788036
_cell_length_c 19.659113
_cell_angle_alpha 19.759344
_cell_angle_beta 130.955962
_cell_angle_gamma 122.777718
_cell_volume 691.112391
_symmetry_space_group_name_H-M "P -1"
_symmetry_group_IT_number 2
_symmetry_cell_setting 'triclinic'
loop_
_space_group_symop_operation_xyz
x,y,z
-x,-y,-z
loop_
_atom_site_type_symbol
_atom_site_label
_atom_site_fract_x
_atom_site_fract_y
_atom_site_fract_z
Si Si1 0.111163 0.318391 0.732995
Si Si2 0.022129 0.297106 0.220941
Si Si3 0.547885 0.073467 0.034738
Si Si4 0.608950 0.150648 0.368844
Si Si5 0.509473 0.829560 0.339597
Si Si6 0.050528 0.150803 0.981157
Si Si7 0.425261 0.730432 0.880841
Si Si8 0.819545 0.408052 0.837022
O O1 0.345857 0.306311 0.818159
O O2 0.000000 0.500000 0.500000
O O3 0.022494 0.351257 0.757750
O O4 0.104194 0.022847 0.938168
O O5 0.134995 0.398827 0.239386
O O6 0.800519 0.293500 0.177898
O O7 0.160823 0.021311 0.442847
O O8 0.000000 0.500000 0.000000
O O9 0.744194 0.174931 0.021856
O O10 0.556984 0.840988 0.266036
O O11 0.500000 0.000000 0.000000
O O12 0.512524 0.183681 0.238519
O O13 0.500000 0.000000 0.500000
O O14 0.572710 0.445994 0.159733
O O15 0.269200 0.933870 0.202552
O O16 0.582860 0.058483 0.224069
O O17 0.633622 0.564695 0.613708
O O18 0.012357 0.294665 0.932580
#
# Coordination Sequence:
#
# PCOD9018914 Si02
#       8
#     2   2   2   2   2   2   2   2
#     4  10  21  44  66  91 132 170 220 276 335 394
#     4  12  25  45  69 103 139 181 230 281 337 406
#     4  11  24  44  66 100 134 172 221 277 333 405
#     4  11  24  43  69  96 133 183 223 282 337 392
#     4  11  26  44  68 101 138 174 226 276 332 401
#     4  10  24  41  66  99 126 173 224 272 329 402
#     4  11  25  45  70  98 139 184 229 272 340 405
#     4  12  26  43  70  98 138 176 225 279 336 392
#
# _framework density 23.151081999999999
#
# number of rings (size 3 to 8) (size 9 to 14) (size 15 to 20)
#    0.000    1.000    3.750    1.875    5.250    0.500 
#    0.000    2.500    0.000    0.000    0.000    0.000 
#    0.000    0.000    0.000    0.000    0.000    0.000 
#
# Total GULP energy -89503.968161 kJ/mol
# GULP energy per Si atom -5593.998010 kJ/mol
# Density = 2.309839 g / cm^3
# Si number density = 23.151082 Si / 1000 Ang^3
#
#
#
# Elastic Constant Matrix: (Units=GPa)
#
#
# Indices 1 2 3 4 5 6 
#
# 1 136.4662 24.5145 36.6584 4.0660 -14.2483 -5.8504
# 2 24.5145 53.7546 -9.1076 4.8729 -3.1136 7.1657
# 3 36.6584 -9.1076 97.7766 6.2887 -6.8460 -6.1835
# 4 4.0660 4.8729 6.2887 29.8359 -7.3267 1.1595
# 5 -14.2483 -3.1136 -6.8460 -7.3267 43.1752 4.8113
# 6 -5.8504 7.1657 -6.1835 1.1595 4.8113 28.0759
#
#
#
# Elastic Compliance Matrix: (Units=1/GPa)
#
#
# Indices 1 2 3 4 5 6 
#
# 1 0.009593 -0.005261 -0.003859 0.000793 0.002075 0.002103
# 2 -0.005261 0.022829 0.003985 -0.003465 0.000624 -0.006009
# 3 -0.003859 0.003985 0.012304 -0.002653 0.000411 0.000928
# 4 0.000793 -0.003465 -0.002653 0.036072 0.005940 -0.002043
# 5 0.002075 0.000624 0.000411 0.005940 0.025437 -0.004241
# 6 0.002103 -0.006009 0.000928 -0.002043 -0.004241 0.038605
#
#
# Mechanical properties :
#
#
# Convention : Reuss Voigt Hill
#
# Bulk Modulus (GPa) = 29.02287 43.56976 36.29632
# Shear Modulus (GPa) = 30.01327 35.94621 32.97974
#
# Velocity S-wave (km/s) = 3.60447 3.94468 3.77841
# Velocity P-wave (km/s) = 5.46685 6.29348 5.89468
#
# Compressibility (1/GPa) = 0.03445558
#
# Stress axis : x y z
#
# Youngs Moduli (GPa) = 104.24628 43.80479 81.27698
#
# Poissons Ratio (x) = 0.23044 0.31367
# Poissons Ratio (y) = 0.54840 -0.32391
# Poissons Ratio (z) = 0.40231 -0.17457
#
# Static dielectric constant tensor:
#      x y z
#    x 1.990250 0.000130 -0.037860 
#    y 0.000130 1.873860 0.017930 
#    z -0.037860 0.017930 1.905320 
# 
# From -- ./inp_files/590912.got.cif
#   From: 2010.05.17/outbox.cif.g08.bks.cpg/sg2_296_cif.got.tgz:590912.got - 2010.06.03 11:33:40.
