data_PCOD9018692
_publ_section_title
;
Structure prediction by ZEFSAII (Michael W. Deem and Ramdas Pophale) SiO2 
 PCOD9018692
Probable space group: P -1
;
_chemical_formula_sum "Si O2"
_cell_formula_units_Z 14
_cell_length_a 19.375714
_cell_length_b 14.774412
_cell_length_c 9.024441
_cell_angle_alpha 150.835252
_cell_angle_beta 149.362235
_cell_angle_gamma 32.074980
_cell_volume 591.662873
_symmetry_space_group_name_H-M "P -1"
_symmetry_group_IT_number 2
_symmetry_cell_setting 'triclinic'
loop_
_space_group_symop_operation_xyz
x,y,z
-x,-y,-z
loop_
_atom_site_type_symbol
_atom_site_label
_atom_site_fract_x
_atom_site_fract_y
_atom_site_fract_z
Si Si1 0.875916 0.165830 0.343240
Si Si2 0.423923 0.195148 0.243723
Si Si3 0.855400 0.208784 0.695055
Si Si4 0.257249 0.427094 0.763829
Si Si5 0.841715 0.567503 0.731838
Si Si6 0.557857 0.426769 0.342260
Si Si7 0.382274 0.990456 0.394770
O O1 0.916784 0.225383 0.667625
O O2 0.807943 0.367153 0.410348
O O3 0.027594 0.999304 0.324953
O O4 0.753182 0.069773 0.984870
O O5 0.268862 0.243179 0.108943
O O6 0.399800 0.401882 0.409173
O O7 0.532533 0.157535 0.529232
O O8 0.500000 0.000000 0.000000
O O9 0.695280 0.229957 0.370170
O O10 0.825573 0.385622 0.013179
O O11 0.170441 0.404158 0.426407
O O12 0.308361 0.217351 0.645758
O O13 0.413967 0.426261 0.994774
O O14 0.000000 0.500000 0.000000
O O15 0.500000 0.500000 0.500000
O O16 0.500000 0.000000 0.500000
#
# Coordination Sequence:
#
# PCOD9018692 Si02
#       7
#     2   2   2   2   2   2   2
#     4  11  26  45  70 103 144 191 240 300 365 430
#     4  12  26  45  73 107 146 192 246 305 362 433
#     4  10  23  42  73 100 143 186 241 287 366 432
#     4  11  25  45  71 106 142 192 238 299 360 434
#     4  12  29  47  71 105 151 191 246 304 365 434
#     4  10  21  43  75 105 141 186 241 298 359 431
#     4  12  26  44  74 108 145 186 245 297 368 433
#
# _framework density 23.662123000000001
#
# number of rings (size 3 to 8) (size 9 to 14) (size 15 to 20)
#    0.000    0.857    2.857    3.429    4.000    8.000 
#    0.000    0.000    0.000    0.000    0.000    0.000 
#    0.000    0.000    0.000    0.000    0.000    0.000 
#
# Total GULP energy -78029.107374 kJ/mol
# GULP energy per Si atom -5573.507670 kJ/mol
# Density = 2.360827 g / cm^3
# Si number density = 23.662123 Si / 1000 Ang^3
#
#
#
# Elastic Constant Matrix: (Units=GPa)
#
#
# Indices 1 2 3 4 5 6 
#
# 1 70.0215 47.6673 41.9656 2.7918 -19.2814 -16.6185
# 2 47.6673 128.1631 37.4306 -18.0477 -7.1148 -28.0087
# 3 41.9656 37.4306 106.9986 -15.2550 -1.1668 -25.6748
# 4 2.7918 -18.0477 -15.2550 39.4088 2.5844 -1.6915
# 5 -19.2814 -7.1148 -1.1668 2.5844 36.2593 8.1486
# 6 -16.6185 -28.0087 -25.6748 -1.6915 8.1486 54.4468
#
#
#
# Elastic Compliance Matrix: (Units=1/GPa)
#
#
# Indices 1 2 3 4 5 6 
#
# 1 0.032600 -0.010429 -0.011712 -0.012879 0.016692 -0.003836
# 2 -0.010429 0.013196 0.001877 0.008050 -0.004693 0.005442
# 3 -0.011712 0.001877 0.015936 0.008611 -0.007371 0.006276
# 4 -0.012879 0.008050 0.008611 0.034179 -0.008926 0.006668
# 5 0.016692 -0.004693 -0.007371 -0.008926 0.037434 -0.006675
# 6 -0.003836 0.005442 0.006276 0.006668 -0.006675 0.024161
#
#
# Mechanical properties :
#
#
# Convention : Reuss Voigt Hill
#
# Bulk Modulus (GPa) = 47.16438 62.14556 54.65497
# Shear Modulus (GPa) = 24.37807 37.89764 31.13786
#
# Velocity S-wave (km/s) = 3.21324 4.00636 3.63152
# Velocity P-wave (km/s) = 5.80881 6.90811 6.38217
#
# Compressibility (1/GPa) = 0.02120244
#
# Stress axis : x y z
#
# Youngs Moduli (GPa) = 30.67490 75.78145 62.75024
#
# Poissons Ratio (x) = 0.79036 0.73493
# Poissons Ratio (y) = 0.31992 -0.11776
# Poissons Ratio (z) = 0.35927 -0.14222
#
# Static dielectric constant tensor:
#      x y z
#    x 1.994340 -0.086860 0.096220 
#    y -0.086860 1.958670 -0.025740 
#    z 0.096220 -0.025740 1.821520 
# 
# From -- ./inp_files/347738.got.cif
#   From: 2010.05.17/outbox.cif.g08.bks.cpg/sg2_174_cif.got.tgz:347738.got - 2010.06.03 11:33:40.
