data_PCOD9018461
_publ_section_title
;
Structure prediction by ZEFSAII (Michael W. Deem and Ramdas Pophale) SiO2 
 PCOD9018461
Probable space group: P -1
;
_chemical_formula_sum "Si O2"
_cell_formula_units_Z 16
_cell_length_a 9.229571
_cell_length_b 15.030034
_cell_length_c 7.489033
_cell_angle_alpha 58.785469
_cell_angle_beta 50.212705
_cell_angle_gamma 58.390098
_cell_volume 652.794223
_symmetry_space_group_name_H-M "P -1"
_symmetry_group_IT_number 2
_symmetry_cell_setting 'triclinic'
loop_
_space_group_symop_operation_xyz
x,y,z
-x,-y,-z
loop_
_atom_site_type_symbol
_atom_site_label
_atom_site_fract_x
_atom_site_fract_y
_atom_site_fract_z
Si Si1 0.200594 0.728362 0.604548
Si Si2 0.230476 0.150909 0.882884
Si Si3 0.518711 0.813440 0.643355
Si Si4 0.357436 0.428812 0.136525
Si Si5 0.005430 0.393007 0.846860
Si Si6 0.117402 0.923436 0.752059
Si Si7 0.183889 0.146397 0.346015
Si Si8 0.402263 0.403617 0.710995
O O1 0.145951 0.634506 0.860470
O O2 0.158156 0.834729 0.651622
O O3 0.421117 0.697789 0.392369
O O4 0.024930 0.760035 0.566208
O O5 0.425950 0.129058 0.636341
O O6 0.252203 0.148174 0.083334
O O7 0.098467 0.274373 0.808382
O O8 0.099704 0.072333 0.016805
O O9 0.570192 0.684825 0.699076
O O10 0.290824 0.866771 0.810087
O O11 0.656255 0.833047 0.670052
O O12 0.500000 0.500000 0.000000
O O13 0.136496 0.507054 0.252640
O O14 0.375481 0.394183 0.951748
O O15 0.193414 0.418573 0.763123
O O16 0.139994 0.034979 0.546533
O O17 0.500000 0.500000 0.500000
#
# Coordination Sequence:
#
# PCOD9018461 Si02
#       8
#     2   2   2   2   2   2   2   2
#     4  10  21  43  70  99 134 173 226 278 338 407
#     4  10  23  44  69  96 135 181 222 279 345 400
#     4  12  26  42  67 101 140 174 230 284 337 406
#     4  12  26  44  64 100 142 182 226 280 339 403
#     4  10  22  43  65  95 138 174 225 275 327 410
#     4  10  22  46  70 100 138 173 227 286 338 405
#     4  10  23  45  73 100 134 180 225 288 342 399
#     4  12  25  40  71  97 128 183 228 270 339 403
#
# _framework density 24.510020000000001
#
# number of rings (size 3 to 8) (size 9 to 14) (size 15 to 20)
#    0.000    1.500    1.250    6.000    3.500    3.500 
#    0.000    6.250    0.000    0.750    0.000    0.000 
#    0.000    0.000    0.000    0.000    0.000    0.000 
#
# Total GULP energy -89580.782109 kJ/mol
# GULP energy per Si atom -5598.798882 kJ/mol
# Density = 2.445423 g / cm^3
# Si number density = 24.510020 Si / 1000 Ang^3
#
#
#
# Elastic Constant Matrix: (Units=GPa)
#
#
# Indices 1 2 3 4 5 6 
#
# 1 139.7174 14.8128 32.6340 10.5545 -25.6860 -6.9161
# 2 14.8128 53.0895 27.5134 -14.9154 0.8383 4.2587
# 3 32.6340 27.5134 109.2558 -10.6228 -18.7048 6.2446
# 4 10.5545 -14.9154 -10.6228 37.0899 0.9501 -4.3190
# 5 -25.6860 0.8383 -18.7048 0.9501 29.9986 -9.8313
# 6 -6.9161 4.2587 6.2446 -4.3190 -9.8313 26.0741
#
#
#
# Elastic Compliance Matrix: (Units=1/GPa)
#
#
# Indices 1 2 3 4 5 6 
#
# 1 0.010603 -0.004473 -0.000996 -0.004546 0.011090 0.007210
# 2 -0.004473 0.026561 -0.005855 0.009791 -0.010671 -0.006524
# 3 -0.000996 -0.005855 0.012234 0.001328 0.007114 0.000665
# 4 -0.004546 0.009791 0.001328 0.032766 -0.004131 0.000747
# 5 0.011090 -0.010671 0.007114 -0.004131 0.055279 0.023139
# 6 0.007210 -0.006524 0.000665 0.000747 0.023139 0.050020
#
#
# Mechanical properties :
#
#
# Convention : Reuss Voigt Hill
#
# Bulk Modulus (GPa) = 37.38252 50.22031 43.80142
# Shear Modulus (GPa) = 22.82832 33.77267 28.30049
#
# Velocity S-wave (km/s) = 3.05517 3.71605 3.40170
# Velocity P-wave (km/s) = 5.26598 6.24069 5.77394
#
# Compressibility (1/GPa) = 0.02675047
#
# Stress axis : x y z
#
# Youngs Moduli (GPa) = 94.31064 37.64943 81.73988
#
# Poissons Ratio (x) = 0.16840 0.08144
# Poissons Ratio (y) = 0.42183 0.47856
# Poissons Ratio (z) = 0.09396 0.22043
#
# Static dielectric constant tensor:
#      x y z
#    x 1.958320 -0.003040 0.015540 
#    y -0.003040 1.979550 0.001550 
#    z 0.015540 0.001550 1.951160 
# 
# From -- ./inp_files/214232.got.cif
#   From: 2010.05.17/outbox.cif.g08.bks.cpg/sg2_108_cif.got.tgz:214232.got - 2010.06.03 11:33:40.
