data_PCOD9018256
_publ_section_title
;
Structure prediction by ZEFSAII (Michael W. Deem and Ramdas Pophale) SiO2 
 PCOD9018256
Probable space group: P -1
;
_chemical_formula_sum "Si O2"
_cell_formula_units_Z 12
_cell_length_a 5.629159
_cell_length_b 16.753453
_cell_length_c 15.123151
_cell_angle_alpha 152.299826
_cell_angle_beta 125.408963
_cell_angle_gamma 72.639761
_cell_volume 445.284060
_symmetry_space_group_name_H-M "P -1"
_symmetry_group_IT_number 2
_symmetry_cell_setting 'triclinic'
loop_
_space_group_symop_operation_xyz
x,y,z
-x,-y,-z
loop_
_atom_site_type_symbol
_atom_site_label
_atom_site_fract_x
_atom_site_fract_y
_atom_site_fract_z
Si Si1 0.308351 0.455751 0.009322
Si Si2 0.089608 0.861053 0.259775
Si Si3 0.681366 0.450272 0.654297
Si Si4 0.806056 0.031883 0.910367
Si Si5 0.089193 0.378243 0.548227
Si Si6 0.250304 0.064380 0.892108
O O1 0.107165 0.218946 0.767648
O O2 0.500000 0.500000 0.000000
O O3 0.627712 0.568735 0.260164
O O4 0.000000 0.500000 0.000000
O O5 0.965961 0.975402 0.283729
O O6 0.500000 0.000000 0.500000
O O7 0.966362 0.648183 0.969190
O O8 0.520544 0.211933 0.422779
O O9 0.335966 0.456160 0.592130
O O10 0.855250 0.457171 0.606553
O O11 0.637119 0.151228 0.025278
O O12 0.082130 0.146336 0.002646
O O13 0.000000 0.000000 0.000000
O O14 0.834731 0.131478 0.259500
#
# Coordination Sequence:
#
# PCOD9018256 Si02
#       6
#     2   2   2   2   2   2
#     4  11  22  37  57  82 118 174 223 249 303 384
#     4  11  24  42  64  99 140 177 216 276 329 378
#     4   9  20  38  60  87 123 165 212 254 314 395
#     4  10  21  43  69  92 124 172 219 270 333 399
#     4   9  18  36  55  78 117 162 203 257 305 371
#     4  10  22  38  63  98 128 160 220 276 321 387
#
# _framework density 26.949089000000001
#
# number of rings (size 3 to 8) (size 9 to 14) (size 15 to 20)
#    0.000    2.000    0.000    3.500    0.000    6.667 
#    0.000   15.000    0.000    0.000    0.000    0.000 
#    0.000    0.000    0.000    0.000    0.000    0.000 
#
# Total GULP energy -66993.215797 kJ/mol
# GULP energy per Si atom -5582.767983 kJ/mol
# Density = 2.688775 g / cm^3
# Si number density = 26.949089 Si / 1000 Ang^3
#
#
#
# Elastic Constant Matrix: (Units=GPa)
#
#
# Indices 1 2 3 4 5 6 
#
# 1 315.4088 71.3731 39.2729 13.5025 37.9457 20.0150
# 2 71.3731 96.2573 44.6911 2.9449 12.8636 7.0010
# 3 39.2729 44.6911 124.4400 -2.2296 14.3027 -5.9936
# 4 13.5025 2.9449 -2.2296 41.1566 -14.7893 1.3085
# 5 37.9457 12.8636 14.3027 -14.7893 36.6866 13.6479
# 6 20.0150 7.0010 -5.9936 1.3085 13.6479 52.7529
#
#
#
# Elastic Compliance Matrix: (Units=1/GPa)
#
#
# Indices 1 2 3 4 5 6 
#
# 1 0.004481 -0.002577 0.000030 -0.003077 -0.004988 0.000012
# 2 -0.002577 0.014526 -0.004428 -0.000545 -0.000427 -0.001329
# 3 0.000030 -0.004428 0.010157 -0.000543 -0.003658 0.002690
# 4 -0.003077 -0.000545 -0.000543 0.031941 0.018055 -0.004285
# 5 -0.004988 -0.000427 -0.003658 0.018055 0.045219 -0.010613
# 6 0.000012 -0.001329 0.002690 -0.004285 -0.010613 0.022286
#
#
# Mechanical properties :
#
#
# Convention : Reuss Voigt Hill
#
# Bulk Modulus (GPa) = 65.72964 94.08672 79.90818
# Shear Modulus (GPa) = 33.86834 51.50383 42.68608
#
# Velocity S-wave (km/s) = 3.54892 4.37642 3.98421
# Velocity P-wave (km/s) = 6.42155 7.77984 7.13310
#
# Compressibility (1/GPa) = 0.01521384
#
# Stress axis : x y z
#
# Youngs Moduli (GPa) = 223.17507 68.84342 98.45270
#
# Poissons Ratio (x) = 0.17738 -0.00294
# Poissons Ratio (y) = 0.57502 0.43598
# Poissons Ratio (z) = -0.00667 0.30486
#
# Static dielectric constant tensor:
#      x y z
#    x 2.223810 0.021160 -0.008410 
#    y 0.021160 2.171800 0.075960 
#    z -0.008410 0.075960 2.273590 
# 
# From -- ./inp_files/550766.got.cif
#   From: 2010.05.17/outbox.cif.g08.bks.cpg/sg2_276_cif.got.tgz:550766.got - 2010.06.03 11:33:40.
