data_PCOD9018931
_publ_section_title
;
Structure prediction by ZEFSAII (Michael W. Deem and Ramdas Pophale) SiO2 
 PCOD9018931
Probable space group: P -1
;
_chemical_formula_sum "Si O2"
_cell_formula_units_Z 14
_cell_length_a 16.342025
_cell_length_b 15.424816
_cell_length_c 7.212065
_cell_angle_alpha 115.483677
_cell_angle_beta 79.238876
_cell_angle_gamma 154.083862
_cell_volume 617.969281
_symmetry_space_group_name_H-M "P -1"
_symmetry_group_IT_number 2
_symmetry_cell_setting 'triclinic'
loop_
_space_group_symop_operation_xyz
x,y,z
-x,-y,-z
loop_
_atom_site_type_symbol
_atom_site_label
_atom_site_fract_x
_atom_site_fract_y
_atom_site_fract_z
Si Si1 0.954335 0.189241 0.953555
Si Si2 0.705247 0.319980 0.364870
Si Si3 0.695022 0.090508 0.128277
Si Si4 0.415189 0.709861 0.226664
Si Si5 0.922877 0.739997 0.636036
Si Si6 0.522636 0.636686 0.643271
Si Si7 0.395772 0.285766 0.884629
O O1 0.868958 0.200103 0.078551
O O2 0.178319 0.443757 0.984383
O O3 0.032830 0.208946 0.114544
O O4 0.741050 0.910804 0.708142
O O5 0.776077 0.285359 0.295710
O O6 0.628999 0.271713 0.557785
O O7 0.889770 0.591616 0.475726
O O8 0.500270 0.114443 0.127039
O O9 0.587466 0.939318 0.225334
O O10 0.499792 0.695375 0.239680
O O11 0.699955 0.552098 0.500111
O O12 0.138248 0.013141 0.707815
O O13 0.500000 0.500000 0.500000
O O14 0.560786 0.693469 0.898211
O O15 0.500000 0.500000 0.000000
#
# Coordination Sequence:
#
# PCOD9018931 Si02
#       7
#     2   2   2   2   2   2   2
#     4  10  23  42  69  97 139 178 226 292 329 415
#     4  10  23  41  74  96 137 185 224 284 347 405
#     4  11  21  48  64 105 141 172 239 281 334 417
#     4  11  23  45  66 100 139 181 226 283 345 402
#     4  10  21  44  66  94 133 184 214 284 345 392
#     4  11  24  43  68  95 134 181 229 285 348 400
#     4  11  26  43  64 100 138 174 232 287 332 420
#
# _framework density 22.654848000000001
#
# number of rings (size 3 to 8) (size 9 to 14) (size 15 to 20)
#    0.000    1.429    4.286    0.429    6.000    4.000 
#   10.286    1.429    0.000    0.000    0.000    0.000 
#    0.000    0.000    0.000    0.000    0.000    0.000 
#
# Total GULP energy -78290.884575 kJ/mol
# GULP energy per Si atom -5592.206041 kJ/mol
# Density = 2.260328 g / cm^3
# Si number density = 22.654848 Si / 1000 Ang^3
#
#
#
# Elastic Constant Matrix: (Units=GPa)
#
#
# Indices 1 2 3 4 5 6 
#
# 1 119.3416 25.7220 48.2043 30.3587 -4.9216 -7.1821
# 2 25.7220 73.0107 26.7592 24.1456 3.3606 -7.5990
# 3 48.2043 26.7592 106.0974 27.1766 6.1486 1.6593
# 4 30.3587 24.1456 27.1766 47.7681 -2.1394 -0.2612
# 5 -4.9216 3.3606 6.1486 -2.1394 53.8143 11.4816
# 6 -7.1821 -7.5990 1.6593 -0.2612 11.4816 26.2000
#
#
#
# Elastic Compliance Matrix: (Units=1/GPa)
#
#
# Indices 1 2 3 4 5 6 
#
# 1 0.011520 -0.000840 -0.003929 -0.004611 0.000780 0.002775
# 2 -0.000840 0.018010 -0.002216 -0.007390 -0.002561 0.006182
# 3 -0.003929 -0.002216 0.012847 -0.003766 -0.001423 -0.001947
# 4 -0.004611 -0.007390 -0.003766 0.029833 0.002503 -0.003968
# 5 0.000780 -0.002561 -0.001423 0.002503 0.021141 -0.009679
# 6 0.002775 0.006182 -0.001947 -0.003968 -0.009679 0.045047
#
#
# Mechanical properties :
#
#
# Convention : Reuss Voigt Hill
#
# Bulk Modulus (GPa) = 35.20479 55.53564 45.37022
# Shear Modulus (GPa) = 30.89510 38.74075 34.81793
#
# Velocity S-wave (km/s) = 3.69688 4.13975 3.92457
# Velocity P-wave (km/s) = 5.81342 6.88601 6.37232
#
# Compressibility (1/GPa) = 0.02840523
#
# Stress axis : x y z
#
# Youngs Moduli (GPa) = 86.80768 55.52436 77.83875
#
# Poissons Ratio (x) = 0.04666 0.30586
# Poissons Ratio (y) = 0.07296 0.17249
# Poissons Ratio (z) = 0.34111 0.12304
#
# Static dielectric constant tensor:
#      x y z
#    x 1.832100 -0.007590 0.020170 
#    y -0.007590 1.884450 -0.023400 
#    z 0.020170 -0.023400 1.909850 
# 
# From -- ./inp_files/313857.got.cif
#   From: 2010.05.17/outbox.cif.g08.bks.cpg/sg2_157_cif.got.tgz:313857.got - 2010.06.03 11:33:40.
