data_PCOD9018934
_publ_section_title
;
Structure prediction by ZEFSAII (Michael W. Deem and Ramdas Pophale) SiO2 
 PCOD9018934
Probable space group: P -1
;
_chemical_formula_sum "Si O2"
_cell_formula_units_Z 16
_cell_length_a 27.690783
_cell_length_b 5.164493
_cell_length_c 7.703320
_cell_angle_alpha 73.955496
_cell_angle_beta 144.742801
_cell_angle_gamma 112.859070
_cell_volume 584.249246
_symmetry_space_group_name_H-M "P -1"
_symmetry_group_IT_number 2
_symmetry_cell_setting 'triclinic'
loop_
_space_group_symop_operation_xyz
x,y,z
-x,-y,-z
loop_
_atom_site_type_symbol
_atom_site_label
_atom_site_fract_x
_atom_site_fract_y
_atom_site_fract_z
Si Si1 0.712779 0.436195 0.633743
Si Si2 0.203072 0.952196 0.856766
Si Si3 0.638009 0.824950 0.165363
Si Si4 0.800779 0.319340 0.565476
Si Si5 0.383396 0.407489 0.223485
Si Si6 0.064704 0.823874 0.775356
Si Si7 0.074414 0.567902 0.346231
Si Si8 0.450181 0.901845 0.605456
O O1 0.682625 0.717185 0.479864
O O2 0.770033 0.442635 0.627128
O O3 0.617040 0.207558 0.413289
O O4 0.765344 0.330084 0.958063
O O5 0.140667 0.943156 0.836412
O O6 0.136627 0.874144 0.516825
O O7 0.288073 0.211779 0.039846
O O8 0.711572 0.106789 0.270956
O O9 0.623487 0.602870 0.004460
O O10 0.545770 0.874145 0.925216
O O11 0.851752 0.532041 0.526257
O O12 0.870846 0.163858 0.872000
O O13 0.411919 0.689214 0.370204
O O14 0.446288 0.211925 0.488504
O O15 0.985483 0.534956 0.638801
O O16 0.000000 0.000000 0.500000
O O17 0.000000 0.500000 0.000000
#
# Coordination Sequence:
#
# PCOD9018934 Si02
#       8
#     2   2   2   2   2   2   2   2
#     4  10  26  41  70 100 143 189 235 298 355 434
#     4  10  22  45  67 102 139 190 236 297 363 435
#     4  12  25  43  72 103 148 185 248 294 362 430
#     4  10  24  45  65 105 138 189 234 296 366 426
#     4  11  26  47  76 107 147 193 244 295 363 432
#     4  10  23  40  70  97 138 182 239 297 363 435
#     4  10  21  44  66  94 136 179 234 295 360 428
#     4  11  27  47  73 109 145 197 243 299 357 429
#
# _framework density 27.385567999999999
#
# number of rings (size 3 to 8) (size 9 to 14) (size 15 to 20)
#    0.000    1.500    1.250    1.500   10.500    2.500 
#    0.000    1.250    0.000    0.000    0.000    0.000 
#    0.000    0.000    0.000    0.000    0.000    0.000 
#
# Total GULP energy -89264.597223 kJ/mol
# GULP energy per Si atom -5579.037326 kJ/mol
# Density = 2.732324 g / cm^3
# Si number density = 27.385568 Si / 1000 Ang^3
#
#
#
# Elastic Constant Matrix: (Units=GPa)
#
#
# Indices 1 2 3 4 5 6 
#
# 1 147.3302 -1.7562 40.4522 0.3620 25.2998 10.7506
# 2 -1.7562 74.2766 42.2259 -5.0515 5.7730 -20.3639
# 3 40.4522 42.2259 180.7291 -5.2327 33.9355 -11.8791
# 4 0.3620 -5.0515 -5.2327 53.8094 1.9168 6.7420
# 5 25.2998 5.7730 33.9355 1.9168 42.6582 14.9935
# 6 10.7506 -20.3639 -11.8791 6.7420 14.9935 32.2529
#
#
#
# Elastic Compliance Matrix: (Units=1/GPa)
#
#
# Indices 1 2 3 4 5 6 
#
# 1 0.007830 0.000984 -0.001427 0.000145 -0.003292 -0.001014
# 2 0.000984 0.019170 -0.002744 0.000050 -0.005710 0.013409
# 3 -0.001427 -0.002744 0.008142 0.000171 -0.007012 0.004966
# 4 0.000145 0.000050 0.000171 0.019107 0.000358 -0.004115
# 5 -0.003292 -0.005710 -0.007012 0.000358 0.040097 -0.023806
# 6 -0.001014 0.013409 0.004966 -0.004115 -0.023806 0.053565
#
#
# Mechanical properties :
#
#
# Convention : Reuss Voigt Hill
#
# Bulk Modulus (GPa) = 34.76147 62.68662 48.72404
# Shear Modulus (GPa) = 30.51137 47.17171 38.84154
#
# Velocity S-wave (km/s) = 3.34150 4.15481 3.77015
# Velocity P-wave (km/s) = 5.25437 6.77913 6.06486
#
# Compressibility (1/GPa) = 0.02876748
#
# Stress axis : x y z
#
# Youngs Moduli (GPa) = 127.71564 52.16523 122.82433
#
# Poissons Ratio (x) = -0.05133 0.17524
# Poissons Ratio (y) = -0.12566 0.33705
# Poissons Ratio (z) = 0.18222 0.14315
#
# Static dielectric constant tensor:
#      x y z
#    x 2.342340 -0.077090 0.023120 
#    y -0.077090 2.191020 -0.058370 
#    z 0.023120 -0.058370 2.182040 
# 
# From -- ./inp_files/358220.got.cif
#   From: 2010.05.17/outbox.cif.g08.bks.cpg/sg2_180_cif.got.tgz:358220.got - 2010.06.03 11:33:40.
