data_PCOD9018565
_publ_section_title
;
Structure prediction by ZEFSAII (Michael W. Deem and Ramdas Pophale) SiO2 
 PCOD9018565
Probable space group: P -1
;
_chemical_formula_sum "Si O2"
_cell_formula_units_Z 15
_cell_length_a 13.923640
_cell_length_b 4.900930
_cell_length_c 13.991481
_cell_angle_alpha 89.817049
_cell_angle_beta 38.672298
_cell_angle_gamma 87.501274
_cell_volume 595.302162
_symmetry_space_group_name_H-M "P -1"
_symmetry_group_IT_number 2
_symmetry_cell_setting 'triclinic'
loop_
_space_group_symop_operation_xyz
x,y,z
-x,-y,-z
loop_
_atom_site_type_symbol
_atom_site_label
_atom_site_fract_x
_atom_site_fract_y
_atom_site_fract_z
Si Si1 0.456311 0.646179 0.340831
Si Si2 0.325857 0.801480 0.256401
Si Si3 0.771214 0.474679 0.312730
Si Si4 0.044540 0.820356 0.371822
Si Si5 0.037065 0.350730 0.249848
Si Si6 0.624159 0.446752 0.036272
Si Si7 0.500000 0.000000 0.000000
Si Si8 0.350733 0.009416 0.684603
O O1 0.331398 0.792979 0.364783
O O2 0.364776 0.534860 0.501257
O O3 0.581058 0.856295 0.275086
O O4 0.546243 0.430732 0.201154
O O5 0.195172 0.663343 0.302766
O O6 0.388274 0.826679 0.011913
O O7 0.344344 0.089617 0.192606
O O8 0.771915 0.776096 0.270085
O O9 0.926446 0.368142 0.244018
O O10 0.718972 0.281622 0.267615
O O11 0.963795 0.574723 0.383322
O O12 0.049659 0.051182 0.286045
O O13 0.000000 0.000000 0.500000
O O14 0.205573 0.452054 0.093748
O O15 0.502659 0.688872 0.084410
O O16 0.500000 0.000000 0.500000
#
# Coordination Sequence:
#
# PCOD9018565 Si02
#       8
#     2   2   2   2   2   2   1   2
#     4   9  22  41  65  99 128 168 228 278 328 403
#     4  10  23  38  63  91 132 171 229 263 324 389
#     4  11  23  44  70  97 134 174 217 285 343 394
#     4  12  26  42  65  94 137 181 227 273 330 400
#     4  12  26  45  64  98 138 177 225 269 347 394
#     4  10  25  40  64  96 134 177 229 273 332 395
#     4  12  20  38  66  90 130 190 218 274 322 398
#     4  10  21  43  72 100 128 169 225 282 339 397
#
# _framework density 25.197288
#
# number of rings (size 3 to 8) (size 9 to 14) (size 15 to 20)
#    0.800    0.533    1.333    4.800    1.867    5.333 
#    0.000    1.333    0.000    0.000    0.000    0.000 
#    0.000    0.000    0.000    0.000    0.000    0.000 
#
# Total GULP energy -83590.230350 kJ/mol
# GULP energy per Si atom -5572.682023 kJ/mol
# Density = 2.513994 g / cm^3
# Si number density = 25.197288 Si / 1000 Ang^3
#
#
#
# Elastic Constant Matrix: (Units=GPa)
#
#
# Indices 1 2 3 4 5 6 
#
# 1 152.9249 33.7597 7.0883 9.2984 1.4303 7.5415
# 2 33.7597 125.8142 18.5999 11.6546 -0.6152 -4.7152
# 3 7.0883 18.5999 44.2704 13.2126 2.7344 9.2572
# 4 9.2984 11.6546 13.2126 29.4154 0.4233 4.0093
# 5 1.4303 -0.6152 2.7344 0.4233 37.8848 5.5092
# 6 7.5415 -4.7152 9.2572 4.0093 5.5092 41.2172
#
#
#
# Elastic Compliance Matrix: (Units=1/GPa)
#
#
# Indices 1 2 3 4 5 6 
#
# 1 0.007098 -0.001882 0.000405 -0.001481 -0.000101 -0.001448
# 2 -0.001882 0.009232 -0.003543 -0.001794 0.000155 0.002350
# 3 0.000405 -0.003543 0.028472 -0.010723 -0.001183 -0.005673
# 4 -0.001481 -0.001794 -0.010723 0.040189 0.000571 -0.001512
# 5 -0.000101 0.000155 -0.001183 0.000571 0.026970 -0.003359
# 6 -0.001448 0.002350 -0.005673 -0.001512 -0.003359 0.026665
#
#
# Mechanical properties :
#
#
# Convention : Reuss Voigt Hill
#
# Bulk Modulus (GPa) = 28.76678 49.10061 38.93369
# Shear Modulus (GPa) = 31.20063 39.27425 35.23744
#
# Velocity S-wave (km/s) = 3.52270 3.95228 3.74366
# Velocity P-wave (km/s) = 5.29030 6.35265 5.84566
#
# Compressibility (1/GPa) = 0.03476232
#
# Stress axis : x y z
#
# Youngs Moduli (GPa) = 140.87947 108.31835 35.12265
#
# Poissons Ratio (x) = 0.20387 -0.01423
# Poissons Ratio (y) = 0.26515 0.12444
# Poissons Ratio (z) = -0.05709 0.38377
#
# Static dielectric constant tensor:
#      x y z
#    x 2.085460 -0.124070 -0.106940 
#    y -0.124070 2.177370 -0.088360 
#    z -0.106940 -0.088360 2.328580 
# 
# From -- ./inp_files/410720.got.cif
#   From: 2010.05.17/outbox.cif.g08.bks.cpg/sg2_206_cif.got.tgz:410720.got - 2010.06.03 11:33:40.
