data_PCOD9018020
_publ_section_title
;
Structure prediction by ZEFSAII (Michael W. Deem and Ramdas Pophale) SiO2 
 PCOD9018020
Probable space group: P -1
;
_chemical_formula_sum "Si O2"
_cell_formula_units_Z 16
_cell_length_a 20.081454
_cell_length_b 12.105337
_cell_length_c 13.597188
_cell_angle_alpha 51.004012
_cell_angle_beta 149.191861
_cell_angle_gamma 149.075892
_cell_volume 794.069199
_symmetry_space_group_name_H-M "P -1"
_symmetry_group_IT_number 2
_symmetry_cell_setting 'triclinic'
loop_
_space_group_symop_operation_xyz
x,y,z
-x,-y,-z
loop_
_atom_site_type_symbol
_atom_site_label
_atom_site_fract_x
_atom_site_fract_y
_atom_site_fract_z
Si Si1 0.106394 0.949983 0.959373
Si Si2 0.730706 0.290808 0.394818
Si Si3 0.915874 0.750956 0.156839
Si Si4 0.574669 0.745341 0.211365
Si Si5 0.833198 0.211079 0.382240
Si Si6 0.702556 0.989984 0.648184
Si Si7 0.379694 0.467121 0.458695
Si Si8 0.595717 0.736526 0.016603
O O1 0.857518 0.690634 0.784873
O O2 0.117369 0.114260 0.933142
O O3 0.249828 0.973610 0.196412
O O4 0.206093 0.054714 0.919574
O O5 0.715400 0.211858 0.309426
O O6 0.661587 0.109289 0.484784
O O7 0.587788 0.305698 0.211398
O O8 0.985153 0.548219 0.584136
O O9 0.028206 0.772475 0.379914
O O10 0.079154 0.873937 0.205281
O O11 0.684674 0.482794 0.991239
O O12 0.642590 0.675070 0.407838
O O13 0.672556 0.975551 0.248487
O O14 0.650406 0.786552 0.173031
O O15 0.519591 0.718901 0.536567
O O16 0.500000 0.500000 0.500000
O O17 0.500000 0.500000 0.000000
#
# Coordination Sequence:
#
# PCOD9018020 Si02
#       8
#     2   2   2   2   2   2   2   2
#     4  12  23  41  63  96 138 173 218 266 321 396
#     4  10  23  45  66  95 137 172 215 275 331 386
#     4  11  19  40  67 101 132 161 225 280 326 372
#     4  12  23  39  72 102 129 175 218 274 332 377
#     4  10  21  43  67  99 132 164 223 283 320 379
#     4  11  23  41  66  94 132 177 213 275 331 376
#     4  12  22  39  67 101 129 165 226 276 317 385
#     4  12  25  45  67  94 137 177 219 268 324 405
#
# _framework density 20.149377000000001
#
# number of rings (size 3 to 8) (size 9 to 14) (size 15 to 20)
#    0.000    0.750    6.250    1.875    0.000    1.500 
#    4.500    0.625    0.000    0.000    0.000    0.000 
#    0.000    0.000    0.000    0.000    0.000    0.000 
#
# Total GULP energy -89523.781152 kJ/mol
# GULP energy per Si atom -5595.236322 kJ/mol
# Density = 2.010352 g / cm^3
# Si number density = 20.149377 Si / 1000 Ang^3
#
#
#
# Elastic Constant Matrix: (Units=GPa)
#
#
# Indices 1 2 3 4 5 6 
#
# 1 78.8923 53.5714 37.2930 0.9911 -10.4168 1.3230
# 2 53.5714 130.8244 49.3877 10.0205 -14.0185 -7.3875
# 3 37.2930 49.3877 81.8599 8.2402 -12.0354 -12.5663
# 4 0.9911 10.0205 8.2402 51.4831 -11.1223 -3.1541
# 5 -10.4168 -14.0185 -12.0354 -11.1223 26.7910 -2.8348
# 6 1.3230 -7.3875 -12.5663 -3.1541 -2.8348 34.2190
#
#
#
# Elastic Compliance Matrix: (Units=1/GPa)
#
#
# Indices 1 2 3 4 5 6 
#
# 1 0.019912 -0.006059 -0.005861 0.002009 0.002366 -0.003849
# 2 -0.006059 0.011939 -0.003834 -0.001101 0.001866 0.001457
# 3 -0.005861 -0.003834 0.018983 -0.000770 0.004631 0.006683
# 4 0.002009 -0.001101 -0.000770 0.021833 0.009153 0.002173
# 5 0.002366 0.001866 0.004631 0.009153 0.045806 0.006650
# 6 -0.003849 0.001457 0.006683 0.002173 0.006650 0.032892
#
#
# Mechanical properties :
#
#
# Convention : Reuss Voigt Hill
#
# Bulk Modulus (GPa) = 51.74292 63.56454 57.65373
# Shear Modulus (GPa) = 26.41088 32.58690 29.49889
#
# Velocity S-wave (km/s) = 3.62436 4.02589 3.83039
# Velocity P-wave (km/s) = 6.57648 7.29558 6.94534
#
# Compressibility (1/GPa) = 0.01932632
#
# Stress axis : x y z
#
# Youngs Moduli (GPa) = 50.22076 83.76084 52.67755
#
# Poissons Ratio (x) = 0.50750 0.30876
# Poissons Ratio (y) = 0.30428 0.20196
# Poissons Ratio (z) = 0.29436 0.32112
#
# Static dielectric constant tensor:
#      x y z
#    x 1.707010 0.021900 -0.002190 
#    y 0.021900 1.718820 -0.025640 
#    z -0.002190 -0.025640 1.719510 
# 
# From -- ./inp_files/541111.got.cif
#   From: 2010.05.17/outbox.cif.g08.bks.cpg/sg2_271_cif.got.tgz:541111.got - 2010.06.03 11:33:40.
