data_PCOD9018178
_publ_section_title
;
Structure prediction by ZEFSAII (Michael W. Deem and Ramdas Pophale) SiO2 
 PCOD9018178
Probable space group: P -1
;
_chemical_formula_sum "Si O2"
_cell_formula_units_Z 16
_cell_length_a 5.847722
_cell_length_b 15.676464
_cell_length_c 15.095794
_cell_angle_alpha 142.468751
_cell_angle_beta 113.143255
_cell_angle_gamma 86.663853
_cell_volume 691.281440
_symmetry_space_group_name_H-M "P -1"
_symmetry_group_IT_number 2
_symmetry_cell_setting 'triclinic'
loop_
_space_group_symop_operation_xyz
x,y,z
-x,-y,-z
loop_
_atom_site_type_symbol
_atom_site_label
_atom_site_fract_x
_atom_site_fract_y
_atom_site_fract_z
Si Si1 0.812494 0.511363 0.562395
Si Si2 0.845832 0.806067 0.882703
Si Si3 0.376561 0.191819 0.959941
Si Si4 0.568405 0.956648 0.877238
Si Si5 0.193689 0.619931 0.055302
Si Si6 0.108901 0.478456 0.739485
Si Si7 0.909900 0.103492 0.674963
Si Si8 0.224440 0.232905 0.655307
O O1 0.500000 0.500000 0.500000
O O2 0.960598 0.696044 0.764669
O O3 0.000000 0.500000 0.500000
O O4 0.867113 0.428712 0.588910
O O5 0.765526 0.778393 0.949846
O O6 0.574755 0.795163 0.778113
O O7 0.123301 0.970485 0.058821
O O8 0.633041 0.362912 0.125046
O O9 0.195972 0.148626 0.808135
O O10 0.422466 0.037607 0.861291
O O11 0.500000 0.000000 0.000000
O O12 0.506857 0.653415 0.153446
O O13 0.205852 0.790170 0.206286
O O14 0.059364 0.537907 0.875516
O O15 0.000000 0.500000 0.000000
O O16 0.175234 0.334776 0.655856
O O17 0.974774 0.158104 0.627512
O O18 0.740715 0.915746 0.498692
#
# Coordination Sequence:
#
# PCOD9018178 Si02
#       8
#     2   2   2   2   2   2   2   2
#     4  12  28  47  71 103 147 194 240 315 379 441
#     4  10  21  43  68  98 134 183 248 296 358 439
#     4  11  21  40  73 105 140 192 247 301 361 453
#     4   9  20  38  68  96 129 174 238 298 349 421
#     4  12  23  43  75 101 136 194 249 298 356 448
#     4  12  24  47  71 105 140 192 251 296 367 455
#     4  11  24  42  68 102 149 181 231 301 372 434
#     4  11  25  46  65 106 147 185 229 307 372 437
#
# _framework density 23.145420999999999
#
# number of rings (size 3 to 8) (size 9 to 14) (size 15 to 20)
#    0.000    1.000    3.750    3.000    1.750    2.000 
#    4.500    0.000    0.000    0.000    0.000    0.000 
#    0.000    0.000    0.000    0.000    0.000    0.000 
#
# Total GULP energy -89083.893838 kJ/mol
# GULP energy per Si atom -5567.743365 kJ/mol
# Density = 2.309274 g / cm^3
# Si number density = 23.145421 Si / 1000 Ang^3
#
#
#
# Elastic Constant Matrix: (Units=GPa)
#
#
# Indices 1 2 3 4 5 6 
#
# 1 87.0662 60.9702 24.1992 -7.1955 -14.2885 5.2844
# 2 60.9702 153.1715 36.3804 -7.5813 -1.8108 -14.6453
# 3 24.1992 36.3804 69.7386 -8.3739 -15.5763 -7.5756
# 4 -7.1955 -7.5813 -8.3739 37.2062 -16.4752 -10.4176
# 5 -14.2885 -1.8108 -15.5763 -16.4752 49.8410 2.3922
# 6 5.2844 -14.6453 -7.5756 -10.4176 2.3922 54.5683
#
#
#
# Elastic Compliance Matrix: (Units=1/GPa)
#
#
# Indices 1 2 3 4 5 6 
#
# 1 0.018230 -0.007035 -0.001308 0.003430 0.005861 -0.003437
# 2 -0.007035 0.010358 -0.003360 -0.000483 -0.002996 0.003034
# 3 -0.001308 -0.003360 0.019655 0.007957 0.008126 0.003116
# 4 0.003430 -0.000483 0.007957 0.038235 0.015743 0.007252
# 5 0.005861 -0.002996 0.008126 0.015743 0.029308 0.001477
# 6 -0.003437 0.003034 0.003116 0.007252 0.001477 0.021225
#
#
# Mechanical properties :
#
#
# Convention : Reuss Voigt Hill
#
# Bulk Modulus (GPa) = 40.26405 61.45287 50.85846
# Shear Modulus (GPa) = 29.63942 40.88487 35.26214
#
# Velocity S-wave (km/s) = 3.58239 4.20746 3.90744
# Velocity P-wave (km/s) = 5.87752 7.08604 6.50989
#
# Compressibility (1/GPa) = 0.02483605
#
# Stress axis : x y z
#
# Youngs Moduli (GPa) = 54.85602 96.54651 50.87813
#
# Poissons Ratio (x) = 0.67922 0.06655
# Poissons Ratio (y) = 0.38592 0.17094
# Poissons Ratio (z) = 0.07176 0.32437
#
# Static dielectric constant tensor:
#      x y z
#    x 1.813250 -0.325880 0.092440 
#    y -0.325880 0.942180 0.325080 
#    z 0.092440 0.325080 1.955910 
# 
# From -- ./inp_files/484538.got.cif
#   From: 2010.05.17/outbox.cif.g08.bks.cpg/sg2_243_cif.got.tgz:484538.got - 2010.06.03 11:33:40.
