data_PCOD9018778
_publ_section_title
;
Structure prediction by ZEFSAII (Michael W. Deem and Ramdas Pophale) SiO2 
 PCOD9018778
Probable space group: P -1
;
_chemical_formula_sum "Si O2"
_cell_formula_units_Z 16
_cell_length_a 14.318083
_cell_length_b 11.797110
_cell_length_c 18.249495
_cell_angle_alpha 126.129148
_cell_angle_beta 147.432452
_cell_angle_gamma 30.497789
_cell_volume 729.363063
_symmetry_space_group_name_H-M "P -1"
_symmetry_group_IT_number 2
_symmetry_cell_setting 'triclinic'
loop_
_space_group_symop_operation_xyz
x,y,z
-x,-y,-z
loop_
_atom_site_type_symbol
_atom_site_label
_atom_site_fract_x
_atom_site_fract_y
_atom_site_fract_z
Si Si1 0.699113 0.733526 0.683349
Si Si2 0.898820 0.216160 0.820293
Si Si3 0.466522 0.730127 0.767277
Si Si4 0.132120 0.004054 0.501364
Si Si5 0.619261 0.116446 0.754555
Si Si6 0.304493 0.753368 0.008178
Si Si7 0.190645 0.258977 0.936863
Si Si8 0.292893 0.443400 0.519993
O O1 0.803764 0.600597 0.623192
O O2 0.963579 0.506084 0.829966
O O3 0.369127 0.886920 0.550009
O O4 0.638851 0.940163 0.720508
O O5 0.719460 0.439402 0.845037
O O6 0.619344 0.295268 0.650288
O O7 0.006779 0.249696 0.842271
O O8 0.199217 0.937740 0.948150
O O9 0.146999 0.916895 0.673503
O O10 0.337893 0.799841 0.626104
O O11 0.652558 0.748717 0.900670
O O12 0.957000 0.262247 0.516270
O O13 0.537034 0.271595 0.828570
O O14 0.381338 0.308439 0.603252
O O15 0.971976 0.918581 0.883276
O O16 0.500000 0.500000 0.000000
O O17 0.500000 0.000000 0.000000
#
# Coordination Sequence:
#
# PCOD9018778 Si02
#       8
#     2   2   2   2   2   2   2   2
#     4  12  25  42  70  99 139 180 225 278 333 402
#     4  10  22  42  66  96 130 176 218 277 339 401
#     4  10  21  44  63  94 140 170 223 275 339 408
#     4  10  23  41  68  94 132 188 217 276 342 400
#     4  10  24  44  65 101 133 176 226 281 333 393
#     4  10  23  43  71  97 135 175 222 280 341 403
#     4  12  26  38  65 104 134 172 220 283 336 405
#     4  10  24  44  65  95 139 179 231 276 326 405
#
# _framework density 21.936948999999998
#
# number of rings (size 3 to 8) (size 9 to 14) (size 15 to 20)
#    0.000    1.500    1.250    2.250    5.250    5.000 
#    0.000    0.000    0.000    0.000    0.000    0.000 
#    0.000    0.000    0.000    0.000    0.000    0.000 
#
# Total GULP energy -89391.109462 kJ/mol
# GULP energy per Si atom -5586.944341 kJ/mol
# Density = 2.188702 g / cm^3
# Si number density = 21.936949 Si / 1000 Ang^3
#
#
#
# Elastic Constant Matrix: (Units=GPa)
#
#
# Indices 1 2 3 4 5 6 
#
# 1 79.3117 56.7937 35.6727 -6.0620 -5.0160 21.6057
# 2 56.7937 116.7731 43.5456 -9.7943 -17.2030 4.8024
# 3 35.6727 43.5456 63.0337 -3.6912 -16.7670 -0.7136
# 4 -6.0620 -9.7943 -3.6912 32.9416 -3.3748 -4.3910
# 5 -5.0160 -17.2030 -16.7670 -3.3748 25.7996 -2.6824
# 6 21.6057 4.8024 -0.7136 -4.3910 -2.6824 41.4758
#
#
#
# Elastic Compliance Matrix: (Units=1/GPa)
#
#
# Indices 1 2 3 4 5 6 
#
# 1 0.029150 -0.010835 -0.012385 -0.002442 -0.011500 -0.015146
# 2 -0.010835 0.016113 -0.002602 0.003941 0.007947 0.004665
# 3 -0.012385 -0.002602 0.029243 0.003028 0.016155 0.008622
# 4 -0.002442 0.003941 0.003028 0.032994 0.008951 0.004940
# 5 -0.011500 0.007947 0.016155 0.008951 0.054514 0.009822
# 6 -0.015146 0.004665 0.008622 0.004940 0.009822 0.032767
#
#
# Mechanical properties :
#
#
# Convention : Reuss Voigt Hill
#
# Bulk Modulus (GPa) = 43.74129 59.01584 51.37857
# Shear Modulus (GPa) = 19.68151 28.25050 23.96601
#
# Velocity S-wave (km/s) = 2.99856 3.59249 3.30888
# Velocity P-wave (km/s) = 5.65432 6.64597 6.17010
#
# Compressibility (1/GPa) = 0.02286169
#
# Stress axis : x y z
#
# Youngs Moduli (GPa) = 34.30578 62.06146 34.19576
#
# Poissons Ratio (x) = 0.67242 0.42352
# Poissons Ratio (y) = 0.37170 0.08898
# Poissons Ratio (z) = 0.42488 0.16149
#
# Static dielectric constant tensor:
#      x y z
#    x 1.820140 -0.025990 0.005990 
#    y -0.025990 1.834760 0.061870 
#    z 0.005990 0.061870 1.863910 
# 
# From -- ./inp_files/538393.got.cif
#   From: 2010.05.17/outbox.cif.g08.bks.cpg/sg2_270_cif.got.tgz:538393.got - 2010.06.03 11:33:40.
