data_PCOD9018262
_publ_section_title
;
Structure prediction by ZEFSAII (Michael W. Deem and Ramdas Pophale) SiO2 
 PCOD9018262
Probable space group: P -1
;
_chemical_formula_sum "Si O2"
_cell_formula_units_Z 16
_cell_length_a 9.978831
_cell_length_b 14.366580
_cell_length_c 8.861716
_cell_angle_alpha 60.806440
_cell_angle_beta 79.072647
_cell_angle_gamma 117.723475
_cell_volume 826.962362
_symmetry_space_group_name_H-M "P -1"
_symmetry_group_IT_number 2
_symmetry_cell_setting 'triclinic'
loop_
_space_group_symop_operation_xyz
x,y,z
-x,-y,-z
loop_
_atom_site_type_symbol
_atom_site_label
_atom_site_fract_x
_atom_site_fract_y
_atom_site_fract_z
Si Si1 0.594775 0.452166 0.109392
Si Si2 0.008341 0.731053 0.449600
Si Si3 0.993788 0.617753 0.853936
Si Si4 0.665463 0.130790 0.958229
Si Si5 0.152112 0.001321 0.404742
Si Si6 0.694598 0.075095 0.330724
Si Si7 0.512159 0.273986 0.997952
Si Si8 0.402606 0.460119 0.394583
O O1 0.485572 0.404776 0.323426
O O2 0.500000 0.500000 0.000000
O O3 0.575879 0.337415 0.103152
O O4 0.807430 0.577212 0.981269
O O5 0.994831 0.633033 0.659831
O O6 0.157587 0.781866 0.252280
O O7 0.070946 0.865748 0.426502
O O8 0.813142 0.651456 0.481485
O O9 0.162985 0.764007 0.772594
O O10 0.000000 0.500000 0.000000
O O11 0.615462 0.225031 0.947828
O O12 0.687793 0.074143 0.152119
O O13 0.500000 0.000000 0.000000
O O14 0.242105 0.997690 0.538093
O O15 0.000000 0.000000 0.500000
O O16 0.303803 0.137915 0.167562
O O17 0.500000 0.000000 0.500000
O O18 0.542710 0.396752 0.799344
O O19 0.500000 0.500000 0.500000
#
# Coordination Sequence:
#
# PCOD9018262 Si02
#       8
#     2   2   2   2   2   2   2   2
#     4  10  21  43  69  92 137 171 227 273 328 397
#     4  11  24  45  66 100 139 176 220 290 343 389
#     4  11  23  41  69 100 128 178 233 271 331 410
#     4  12  24  46  67  99 145 173 221 291 341 401
#     4  11  24  43  73  99 130 180 237 277 333 407
#     4  11  24  43  68  98 131 178 230 276 331 404
#     4  11  22  44  70  95 132 186 225 268 344 396
#     4  11  26  44  67 103 140 176 222 284 346 403
#
# _framework density 19.347919000000001
#
# number of rings (size 3 to 8) (size 9 to 14) (size 15 to 20)
#    0.000    1.000    5.000    2.250    7.000    1.500 
#    4.500    1.250    0.000    0.000    0.000    0.000 
#    0.000    0.000    0.000    0.000    0.000    0.000 
#
# Total GULP energy -89354.542710 kJ/mol
# GULP energy per Si atom -5584.658919 kJ/mol
# Density = 1.930388 g / cm^3
# Si number density = 19.347919 Si / 1000 Ang^3
#
#
#
# Elastic Constant Matrix: (Units=GPa)
#
#
# Indices 1 2 3 4 5 6 
#
# 1 145.9620 60.9614 77.6623 8.8288 -34.7095 8.7076
# 2 60.9614 123.8645 56.5425 12.6309 -14.8489 10.4630
# 3 77.6623 56.5425 128.6787 6.3370 -39.4653 9.1036
# 4 8.8288 12.6309 6.3370 45.2942 -0.2306 -3.4002
# 5 -34.7095 -14.8489 -39.4653 -0.2306 35.4952 3.0192
# 6 8.7076 10.4630 9.1036 -3.4002 3.0192 46.8763
#
#
#
# Elastic Compliance Matrix: (Units=1/GPa)
#
#
# Indices 1 2 3 4 5 6 
#
# 1 0.011711 -0.003154 -0.003658 -0.000952 0.006163 -0.001227
# 2 -0.003154 0.011305 -0.003544 -0.002148 -0.002202 -0.001263
# 3 -0.003658 -0.003544 0.015545 -0.000590 0.012423 -0.002391
# 4 -0.000952 -0.002148 -0.000590 0.023128 -0.002557 0.002613
# 5 0.006163 -0.002202 0.012423 -0.002557 0.047612 -0.006318
# 6 -0.001227 -0.001263 -0.002391 0.002613 -0.006318 0.022903
#
#
# Mechanical properties :
#
#
# Convention : Reuss Voigt Hill
#
# Bulk Modulus (GPa) = 56.02820 87.64860 71.83840
# Shear Modulus (GPa) = 31.47264 39.08910 35.28087
#
# Velocity S-wave (km/s) = 4.03757 4.49968 4.27488
# Velocity P-wave (km/s) = 7.12440 8.50857 7.84707
#
# Compressibility (1/GPa) = 0.01784815
#
# Stress axis : x y z
#
# Youngs Moduli (GPa) = 85.38699 88.45332 64.32997
#
# Poissons Ratio (x) = 0.27901 0.23533
# Poissons Ratio (y) = 0.26934 0.22800
# Poissons Ratio (z) = 0.31236 0.31349
#
# Static dielectric constant tensor:
#      x y z
#    x 1.653950 -0.000800 0.010960 
#    y -0.000800 1.679350 -0.012100 
#    z 0.010960 -0.012100 1.680810 
# 
# From -- ./inp_files/205895.got.cif
#   From: 2010.05.17/outbox.cif.g08.bks.cpg/sg2_103_cif.got.tgz:205895.got - 2010.06.03 11:33:40.
