data_PCOD9018312
_publ_section_title
;
Structure prediction by ZEFSAII (Michael W. Deem and Ramdas Pophale) SiO2 
 PCOD9018312
Probable space group: P -1
;
_chemical_formula_sum "Si O2"
_cell_formula_units_Z 16
_cell_length_a 9.503747
_cell_length_b 15.476300
_cell_length_c 5.406017
_cell_angle_alpha 96.112285
_cell_angle_beta 110.838904
_cell_angle_gamma 118.694592
_cell_volume 613.439038
_symmetry_space_group_name_H-M "P -1"
_symmetry_group_IT_number 2
_symmetry_cell_setting 'triclinic'
loop_
_space_group_symop_operation_xyz
x,y,z
-x,-y,-z
loop_
_atom_site_type_symbol
_atom_site_label
_atom_site_fract_x
_atom_site_fract_y
_atom_site_fract_z
Si Si1 0.066099 0.778056 0.253680
Si Si2 0.277988 0.390939 0.805907
Si Si3 0.983297 0.945850 0.666482
Si Si4 0.294538 0.909057 0.807962
Si Si5 0.833294 0.314743 0.089396
Si Si6 0.165690 0.142426 0.038484
Si Si7 0.246265 0.482236 0.333556
Si Si8 0.532207 0.324424 0.160547
O O1 0.242080 0.886530 0.479437
O O2 0.923173 0.714888 0.363105
O O3 0.937811 0.796740 0.010425
O O4 0.142396 0.713263 0.180530
O O5 0.320026 0.437825 0.572483
O O6 0.257579 0.450386 0.049533
O O7 0.423040 0.367456 0.975602
O O8 0.936813 0.928734 0.321906
O O9 0.158851 0.942238 0.812180
O O10 0.798674 0.852168 0.635590
O O11 0.000000 0.000000 0.000000
O O12 0.235154 0.797790 0.854870
O O13 0.500000 0.000000 0.000000
O O14 0.683739 0.334401 0.080298
O O15 0.035677 0.420456 0.275874
O O16 0.371868 0.206570 0.091688
O O17 0.361324 0.604200 0.511222
#
# Coordination Sequence:
#
# PCOD9018312 Si02
#       8
#     2   2   2   2   2   2   2   2
#     4  10  21  43  69  97 135 191 224 286 358 420
#     4  10  23  45  76 102 142 188 241 291 347 419
#     4  11  22  42  73  95 129 178 230 287 347 414
#     4  12  24  42  69  98 137 178 232 290 353 424
#     4  11  24  46  65 101 147 185 228 286 359 424
#     4  10  22  43  69 100 133 176 234 284 346 415
#     4  11  23  48  75 104 145 193 234 292 357 418
#     4  11  24  44  69 109 139 181 238 292 343 423
#
# _framework density 26.082463000000001
#
# number of rings (size 3 to 8) (size 9 to 14) (size 15 to 20)
#    0.000    1.250    3.750    1.875    0.000    0.500 
#    6.750    4.375    0.000    0.000    0.000    0.000 
#    0.000    0.000    0.000    0.000    0.000    0.000 
#
# Total GULP energy -89164.181999 kJ/mol
# GULP energy per Si atom -5572.761375 kJ/mol
# Density = 2.602310 g / cm^3
# Si number density = 26.082463 Si / 1000 Ang^3
#
#
#
# Elastic Constant Matrix: (Units=GPa)
#
#
# Indices 1 2 3 4 5 6 
#
# 1 181.6964 26.5337 49.3603 26.9737 1.7493 8.6989
# 2 26.5337 91.3418 54.3025 -1.2857 10.2061 21.4967
# 3 49.3603 54.3025 110.4327 26.3482 -2.8369 16.6762
# 4 26.9737 -1.2857 26.3482 51.2565 12.1837 3.1596
# 5 1.7493 10.2061 -2.8369 12.1837 37.3396 13.8847
# 6 8.6989 21.4967 16.6762 3.1596 13.8847 37.4688
#
#
#
# Elastic Compliance Matrix: (Units=1/GPa)
#
#
# Indices 1 2 3 4 5 6 
#
# 1 0.006524 -0.000918 -0.001751 -0.002731 0.000807 -0.000278
# 2 -0.000918 0.019565 -0.010800 0.008530 -0.007346 -0.004202
# 3 -0.001751 -0.010800 0.018673 -0.010975 0.009655 -0.004361
# 4 -0.002731 0.008530 -0.010975 0.029935 -0.014032 0.003300
# 5 0.000807 -0.007346 0.009655 -0.014032 0.039113 -0.013581
# 6 -0.000278 -0.004202 -0.004361 0.003300 -0.013581 0.035859
#
#
# Mechanical properties :
#
#
# Convention : Reuss Voigt Hill
#
# Bulk Modulus (GPa) = 56.09726 71.54043 63.81885
# Shear Modulus (GPa) = 27.39007 42.09794 34.74401
#
# Velocity S-wave (km/s) = 3.24409 4.02186 3.65373
# Velocity P-wave (km/s) = 5.96544 7.00395 6.50545
#
# Compressibility (1/GPa) = 0.01782618
#
# Stress axis : x y z
#
# Youngs Moduli (GPa) = 153.27411 51.11241 53.55233
#
# Poissons Ratio (x) = 0.04691 0.09375
# Poissons Ratio (y) = 0.14066 0.57835
# Poissons Ratio (z) = 0.26833 0.55200
#
# Static dielectric constant tensor:
#      x y z
#    x 1.978360 -0.260110 -0.078090 
#    y -0.260110 4.700590 -0.075360 
#    z -0.078090 -0.075360 2.276330 
# 
# From -- ./inp_files/53517.got.cif
#   From: 2010.05.17/outbox.cif.g08.bks.cpg/sg2_27_cif.got.tgz:53517.got - 2010.06.03 11:33:40.
