data_PCOD9018213
_publ_section_title
;
Structure prediction by ZEFSAII (Michael W. Deem and Ramdas Pophale) SiO2 
 PCOD9018213
Probable space group: P -1
;
_chemical_formula_sum "Si O2"
_cell_formula_units_Z 16
_cell_length_a 25.706968
_cell_length_b 22.486040
_cell_length_c 8.886897
_cell_angle_alpha 144.186147
_cell_angle_beta 150.326645
_cell_angle_gamma 15.420666
_cell_volume 662.212148
_symmetry_space_group_name_H-M "P -1"
_symmetry_group_IT_number 2
_symmetry_cell_setting 'triclinic'
loop_
_space_group_symop_operation_xyz
x,y,z
-x,-y,-z
loop_
_atom_site_type_symbol
_atom_site_label
_atom_site_fract_x
_atom_site_fract_y
_atom_site_fract_z
Si Si1 0.020558 0.373143 0.365718
Si Si2 0.394771 0.482806 0.750293
Si Si3 0.578279 0.622804 0.697055
Si Si4 0.856026 0.717182 0.157182
Si Si5 0.738263 0.507730 0.283516
Si Si6 0.246843 0.684193 0.301728
Si Si7 0.077109 0.002298 0.343733
Si Si8 0.481875 0.945113 0.491558
O O1 0.109289 0.305632 0.622767
O O2 0.000000 0.500000 0.500000
O O3 0.218580 0.147109 0.298230
O O4 0.763966 0.545621 0.054817
O O5 0.471129 0.333390 0.513880
O O6 0.433025 0.402421 0.846671
O O7 0.500000 0.500000 0.000000
O O8 0.116433 0.746333 0.596527
O O9 0.712720 0.398119 0.603122
O O10 0.334338 0.825746 0.591299
O O11 0.004752 0.683028 0.397581
O O12 0.597473 0.917110 0.855191
O O13 0.000000 0.500000 0.000000
O O14 0.617011 0.719097 0.361500
O O15 0.804742 0.369985 0.039767
O O16 0.500000 0.500000 0.500000
O O17 0.082945 0.919047 0.327993
O O18 0.000000 0.000000 0.000000
O O19 0.500000 0.000000 0.500000
#
# Coordination Sequence:
#
# PCOD9018213 Si02
#       8
#     2   2   2   2   2   2   2   2
#     4  12  26  46  70 107 148 186 249 310 369 452
#     4  12  25  44  73 110 151 194 249 298 357 452
#     4  11  26  43  71 108 144 191 244 305 365 438
#     4  10  23  47  73 100 139 188 243 309 366 440
#     4  11  23  45  74 102 147 193 241 296 372 437
#     4  10  21  43  69 101 145 187 238 298 360 433
#     4  11  22  46  73 102 146 196 242 304 364 424
#     4  11  27  47  75 109 143 188 249 310 381 444
#
# _framework density 24.161442999999998
#
# number of rings (size 3 to 8) (size 9 to 14) (size 15 to 20)
#    0.000    1.000    3.750    2.625    5.250    4.500 
#    2.250    0.000    0.000    0.000    0.000    0.000 
#    0.000    0.000    0.000    0.000    0.000    0.000 
#
# Total GULP energy -89337.766791 kJ/mol
# GULP energy per Si atom -5583.610424 kJ/mol
# Density = 2.410645 g / cm^3
# Si number density = 24.161443 Si / 1000 Ang^3
#
#
#
# Elastic Constant Matrix: (Units=GPa)
#
#
# Indices 1 2 3 4 5 6 
#
# 1 142.9723 22.4538 34.4458 1.6963 12.3620 5.7573
# 2 22.4538 89.3828 7.2518 -2.8709 18.6132 0.2300
# 3 34.4458 7.2518 147.7285 -13.3759 22.3829 -9.5896
# 4 1.6963 -2.8709 -13.3759 25.8941 -4.8015 4.7273
# 5 12.3620 18.6132 22.3829 -4.8015 42.8363 3.6824
# 6 5.7573 0.2300 -9.5896 4.7273 3.6824 42.8471
#
#
#
# Elastic Compliance Matrix: (Units=1/GPa)
#
#
# Indices 1 2 3 4 5 6 
#
# 1 0.007839 -0.001740 -0.001874 -0.001558 -0.000595 -0.001240
# 2 -0.001740 0.012707 0.000710 0.000767 -0.005365 0.000701
# 3 -0.001874 0.000710 0.008190 0.003346 -0.003847 0.002042
# 4 -0.001558 0.000767 0.003346 0.041888 0.003404 -0.003960
# 5 -0.000595 -0.005365 -0.003847 0.003404 0.028547 -0.003581
# 6 -0.001240 0.000701 0.002042 -0.003960 -0.003581 0.024703
#
#
# Mechanical properties :
#
#
# Convention : Reuss Voigt Hill
#
# Bulk Modulus (GPa) = 43.61588 56.48737 50.05163
# Shear Modulus (GPa) = 36.40967 43.37766 39.89366
#
# Velocity S-wave (km/s) = 3.88613 4.24172 4.06782
# Velocity P-wave (km/s) = 6.18281 6.88618 6.54395
#
# Compressibility (1/GPa) = 0.02292743
#
# Stress axis : x y z
#
# Youngs Moduli (GPa) = 127.56742 78.69464 122.10431
#
# Poissons Ratio (x) = 0.13694 0.22880
# Poissons Ratio (y) = 0.22199 -0.08666
# Poissons Ratio (z) = 0.23904 -0.05585
#
# Static dielectric constant tensor:
#      x y z
#    x 2.498460 -0.523220 -0.726770 
#    y -0.523220 2.293330 0.613260 
#    z -0.726770 0.613260 2.961890 
# 
# From -- ./inp_files/355297.got.cif
#   From: 2010.05.17/outbox.cif.g08.bks.cpg/sg2_178_cif.got.tgz:355297.got - 2010.06.03 11:33:40.
