data_PCOD9018264
_publ_section_title
;
Structure prediction by ZEFSAII (Michael W. Deem and Ramdas Pophale) SiO2 
 PCOD9018264
Probable space group: P -1
;
_chemical_formula_sum "Si O2"
_cell_formula_units_Z 12
_cell_length_a 13.550551
_cell_length_b 7.428810
_cell_length_c 11.857351
_cell_angle_alpha 50.625756
_cell_angle_beta 42.536595
_cell_angle_gamma 79.190135
_cell_volume 526.787473
_symmetry_space_group_name_H-M "P -1"
_symmetry_group_IT_number 2
_symmetry_cell_setting 'triclinic'
loop_
_space_group_symop_operation_xyz
x,y,z
-x,-y,-z
loop_
_atom_site_type_symbol
_atom_site_label
_atom_site_fract_x
_atom_site_fract_y
_atom_site_fract_z
Si Si1 0.125406 0.479724 0.490029
Si Si2 0.178375 0.360722 0.945293
Si Si3 0.648266 0.915399 0.000432
Si Si4 0.405463 0.872815 0.422152
Si Si5 0.576801 0.596058 0.771828
Si Si6 0.964485 0.536562 0.182264
O O1 0.276035 0.805355 0.243678
O O2 0.228203 0.338260 0.420865
O O3 0.033201 0.368400 0.731794
O O4 0.000000 0.500000 0.500000
O O5 0.360731 0.618205 0.642584
O O6 0.049206 0.284977 0.977523
O O7 0.200465 0.122497 0.065508
O O8 0.112027 0.480568 0.048973
O O9 0.546226 0.926934 0.189698
O O10 0.531378 0.649305 0.127717
O O11 0.220100 0.748958 0.565974
O O12 0.440091 0.145815 0.344779
O O13 0.500000 0.500000 0.000000
#
# Coordination Sequence:
#
# PCOD9018264 Si02
#       6
#     2   2   2   2   2   2
#     4  12  27  42  67 102 131 176 222 272 332 394
#     4   9  22  41  71  95 132 181 211 274 334 386
#     4  12  24  44  69 100 133 168 227 278 325 389
#     4  10  21  43  69  93 134 171 222 264 335 387
#     4  12  24  42  67  98 133 174 215 275 331 388
#     4   9  21  45  63  96 139 170 216 270 332 387
#
# _framework density 22.779582999999999
#
# number of rings (size 3 to 8) (size 9 to 14) (size 15 to 20)
#    1.000    0.333    3.333    2.000    4.667    1.333 
#    0.000    5.000    0.000    0.000    0.000    0.000 
#    0.000    0.000    0.000    0.000    0.000    0.000 
#
# Total GULP energy -67043.556239 kJ/mol
# GULP energy per Si atom -5586.963020 kJ/mol
# Density = 2.272774 g / cm^3
# Si number density = 22.779583 Si / 1000 Ang^3
#
#
#
# Elastic Constant Matrix: (Units=GPa)
#
#
# Indices 1 2 3 4 5 6 
#
# 1 69.6961 48.5479 11.0400 24.0375 0.8154 -11.3458
# 2 48.5479 119.8403 24.3392 21.7331 5.2553 -9.7264
# 3 11.0400 24.3392 59.4789 30.8686 11.0450 -3.1525
# 4 24.0375 21.7331 30.8686 55.3309 1.7236 4.9171
# 5 0.8154 5.2553 11.0450 1.7236 33.0794 -7.2822
# 6 -11.3458 -9.7264 -3.1525 4.9171 -7.2822 32.2171
#
#
#
# Elastic Compliance Matrix: (Units=1/GPa)
#
#
# Indices 1 2 3 4 5 6 
#
# 1 0.024464 -0.008266 0.004568 -0.010743 0.001632 0.008576
# 2 -0.008266 0.012356 -0.003898 0.000909 -0.000462 0.000195
# 3 0.004568 -0.003898 0.027244 -0.015789 -0.006898 0.003949
# 4 -0.010743 0.000909 -0.015789 0.031992 0.001618 -0.009571
# 5 0.001632 -0.000462 -0.006898 0.001618 0.034071 0.007214
# 6 0.008576 0.000195 0.003949 -0.009571 0.007214 0.037596
#
#
# Mechanical properties :
#
#
# Convention : Reuss Voigt Hill
#
# Bulk Modulus (GPa) = 20.46080 46.31882 33.38981
# Shear Modulus (GPa) = 25.10004 35.13136 30.11570
#
# Velocity S-wave (km/s) = 3.32304 3.93138 3.63994
# Velocity P-wave (km/s) = 4.87083 6.40198 5.68816
#
# Compressibility (1/GPa) = 0.04887393
#
# Stress axis : x y z
#
# Youngs Moduli (GPa) = 40.87646 80.93471 36.70523
#
# Poissons Ratio (x) = 0.66898 -0.16768
# Poissons Ratio (y) = 0.33787 0.14306
# Poissons Ratio (z) = -0.18673 0.31544
#
# Static dielectric constant tensor:
#      x y z
#    x 1.870550 0.034810 -0.049500 
#    y 0.034810 1.825080 -0.060640 
#    z -0.049500 -0.060640 1.879060 
# 
# From -- ./inp_files/441000.got.cif
#   From: 2010.05.17/outbox.cif.g08.bks.cpg/sg2_221_cif.got.tgz:441000.got - 2010.06.03 11:33:40.
