data_PCOD9018377
_publ_section_title
;
Structure prediction by ZEFSAII (Michael W. Deem and Ramdas Pophale) SiO2 
 PCOD9018377
Probable space group: P -1
;
_chemical_formula_sum "Si O2"
_cell_formula_units_Z 15
_cell_length_a 21.002099
_cell_length_b 7.928849
_cell_length_c 12.832227
_cell_angle_alpha 135.797706
_cell_angle_beta 24.523196
_cell_angle_gamma 137.435808
_cell_volume 591.536393
_symmetry_space_group_name_H-M "P -1"
_symmetry_group_IT_number 2
_symmetry_cell_setting 'triclinic'
loop_
_space_group_symop_operation_xyz
x,y,z
-x,-y,-z
loop_
_atom_site_type_symbol
_atom_site_label
_atom_site_fract_x
_atom_site_fract_y
_atom_site_fract_z
Si Si1 0.222739 0.273865 0.512096
Si Si2 0.500000 0.000000 0.000000
Si Si3 0.607234 0.958111 0.572529
Si Si4 0.883592 0.775888 0.138731
Si Si5 0.304199 0.573306 0.192291
Si Si6 0.287116 0.021962 0.008378
Si Si7 0.983265 0.652423 0.342819
Si Si8 0.319457 0.849825 0.672339
O O1 0.354459 0.126440 0.243106
O O2 0.094838 0.157620 0.741706
O O3 0.144125 0.315641 0.539417
O O4 0.296168 0.554717 0.574257
O O5 0.372622 0.699916 0.037909
O O6 0.622865 0.160494 0.733568
O O7 0.704959 0.081208 0.379049
O O8 0.697617 0.761560 0.387416
O O9 0.423542 0.898451 0.787020
O O10 0.929853 0.534165 0.923904
O O11 0.000000 0.000000 0.000000
O O12 0.359436 0.327916 0.033280
O O13 0.118828 0.473681 0.459300
O O14 0.128548 0.902397 0.257568
O O15 0.229836 0.941923 0.940002
O O16 0.500000 0.000000 0.500000
#
# Coordination Sequence:
#
# PCOD9018377 Si02
#       8
#     2   1   2   2   2   2   2   2
#     4  12  24  44  75 105 139 195 240 294 367 429
#     4  12  26  44  76 108 140 178 254 304 354 434
#     4  11  23  44  76 101 143 192 247 296 354 430
#     4  12  23  42  72 109 143 186 248 300 354 427
#     4  12  25  48  73 107 139 194 239 302 367 428
#     4  11  26  44  74 108 150 190 241 297 361 440
#     4  12  26  45  75 104 149 192 241 294 368 441
#     4  10  21  43  70 106 137 185 242 291 350 426
#
# _framework density 25.357696000000001
#
# number of rings (size 3 to 8) (size 9 to 14) (size 15 to 20)
#    0.000    0.533    5.333    2.800    3.733    0.533 
#    0.000    0.667    0.000    0.000    0.000    0.000 
#    0.000    0.000    0.000    0.000    0.000    0.000 
#
# Total GULP energy -83605.606859 kJ/mol
# GULP energy per Si atom -5573.707124 kJ/mol
# Density = 2.529998 g / cm^3
# Si number density = 25.357696 Si / 1000 Ang^3
#
#
#
# Elastic Constant Matrix: (Units=GPa)
#
#
# Indices 1 2 3 4 5 6 
#
# 1 52.7858 16.0168 35.1292 28.0546 -28.9856 -1.3441
# 2 16.0168 113.9593 42.1450 5.7130 -27.0207 -9.2561
# 3 35.1292 42.1450 145.8296 11.0982 -24.9592 -1.8927
# 4 28.0546 5.7130 11.0982 50.4012 -3.1810 4.9158
# 5 -28.9856 -27.0207 -24.9592 -3.1810 42.0102 3.3453
# 6 -1.3441 -9.2561 -1.8927 4.9158 3.3453 31.8653
#
#
#
# Elastic Compliance Matrix: (Units=1/GPa)
#
#
# Indices 1 2 3 4 5 6 
#
# 1 0.057450 0.004799 -0.006763 -0.029151 0.036172 0.004115
# 2 0.004799 0.011563 -0.002742 -0.003122 0.008646 0.002972
# 3 -0.006763 -0.002742 0.008955 0.002124 -0.000886 -0.000784
# 4 -0.029151 -0.003122 0.002124 0.035381 -0.017734 -0.005607
# 5 0.036172 0.008646 -0.000886 -0.017734 0.052356 0.001224
# 6 0.004115 0.002972 -0.000784 -0.005607 0.001224 0.033109
#
#
# Mechanical properties :
#
#
# Convention : Reuss Voigt Hill
#
# Bulk Modulus (GPa) = 14.58652 55.46187 35.02420
# Shear Modulus (GPa) = 21.63773 39.47425 30.55599
#
# Velocity S-wave (km/s) = 2.92430 3.94978 3.47507
# Velocity P-wave (km/s) = 4.14329 6.53608 5.47207
#
# Compressibility (1/GPa) = 0.06855645
#
# Stress axis : x y z
#
# Youngs Moduli (GPa) = 17.40635 86.48646 111.66407
#
# Poissons Ratio (x) = -0.41506 0.75523
# Poissons Ratio (y) = -0.08354 0.30614
# Poissons Ratio (z) = 0.11773 0.23711
#
# Static dielectric constant tensor:
#      x y z
#    x 2.306520 0.050380 -0.229240 
#    y 0.050380 1.939290 0.123620 
#    z -0.229240 0.123620 1.953540 
# 
# From -- ./inp_files/542601.got.cif
#   From: 2010.05.17/outbox.cif.g08.bks.cpg/sg2_272_cif.got.tgz:542601.got - 2010.06.03 11:33:40.
