data_PCOD9018605
_publ_section_title
;
Structure prediction by ZEFSAII (Michael W. Deem and Ramdas Pophale) SiO2 
 PCOD9018605
Probable space group: P -1
;
_chemical_formula_sum "Si O2"
_cell_formula_units_Z 16
_cell_length_a 8.761967
_cell_length_b 20.207596
_cell_length_c 6.668853
_cell_angle_alpha 94.616375
_cell_angle_beta 96.228870
_cell_angle_gamma 144.553064
_cell_volume 650.887686
_symmetry_space_group_name_H-M "P -1"
_symmetry_group_IT_number 2
_symmetry_cell_setting 'triclinic'
loop_
_space_group_symop_operation_xyz
x,y,z
-x,-y,-z
loop_
_atom_site_type_symbol
_atom_site_label
_atom_site_fract_x
_atom_site_fract_y
_atom_site_fract_z
Si Si1 0.926189 0.535623 0.634986
Si Si2 0.395188 0.783328 0.959239
Si Si3 0.415352 0.548127 0.782395
Si Si4 0.051757 0.311162 0.896917
Si Si5 0.899193 0.857343 0.504365
Si Si6 0.288111 0.073803 0.298658
Si Si7 0.254909 0.870910 0.532942
Si Si8 0.400291 0.649141 0.127886
O O1 0.679740 0.482968 0.467691
O O2 0.187462 0.675922 0.741293
O O3 0.843863 0.475828 0.821935
O O4 0.000000 0.500000 0.500000
O O5 0.410181 0.731040 0.114025
O O6 0.685311 0.907061 0.933750
O O7 0.422031 0.864443 0.620573
O O8 0.228112 0.780882 0.041487
O O9 0.707700 0.621180 0.896504
O O10 0.176857 0.421167 0.832891
O O11 0.436599 0.627006 0.913815
O O12 0.770086 0.872188 0.615826
O O13 0.645916 0.727940 0.338401
O O14 0.032051 0.767629 0.311951
O O15 0.091955 0.869519 0.637782
O O16 0.072111 0.952792 0.367359
O O17 0.500000 0.000000 0.500000
#
# Coordination Sequence:
#
# PCOD9018605 Si02
#       8
#     2   2   2   2   2   2   2   2
#     4  12  23  39  65  98 132 179 227 275 348 410
#     4  12  24  41  66  99 140 176 229 292 343 413
#     4  11  24  42  66  98 138 184 224 276 350 411
#     4  11  23  43  64  99 143 175 228 290 339 420
#     4  10  22  43  70  94 140 178 233 285 340 418
#     4  10  23  43  67 104 130 186 229 284 353 404
#     4  10  21  43  72  97 133 183 229 284 347 406
#     4  12  23  42  66  97 133 177 230 285 339 414
#
# _framework density 24.581811999999999
#
# number of rings (size 3 to 8) (size 9 to 14) (size 15 to 20)
#    0.000    1.000    3.750    3.375    0.000    2.000 
#    0.000    2.500    0.000    0.000    0.000    0.000 
#    0.000    0.000    0.000    0.000    0.000    0.000 
#
# Total GULP energy -89273.594334 kJ/mol
# GULP energy per Si atom -5579.599646 kJ/mol
# Density = 2.452586 g / cm^3
# Si number density = 24.581812 Si / 1000 Ang^3
#
#
#
# Elastic Constant Matrix: (Units=GPa)
#
#
# Indices 1 2 3 4 5 6 
#
# 1 131.5441 31.1046 19.5769 -14.3256 -3.8143 -1.7511
# 2 31.1046 73.3930 13.9534 -15.5733 1.1819 3.6106
# 3 19.5769 13.9534 48.2683 -18.4275 12.6174 -1.5369
# 4 -14.3256 -15.5733 -18.4275 42.6233 1.6436 -9.2340
# 5 -3.8143 1.1819 12.6174 1.6436 40.9954 4.9134
# 6 -1.7511 3.6106 -1.5369 -9.2340 4.9134 21.6774
#
#
#
# Elastic Compliance Matrix: (Units=1/GPa)
#
#
# Indices 1 2 3 4 5 6 
#
# 1 0.008910 -0.003153 -0.002792 0.000793 0.001626 0.001016
# 2 -0.003153 0.016200 -0.002030 0.003657 -0.000101 -0.001516
# 3 -0.002792 -0.002030 0.031600 0.014910 -0.011891 0.011399
# 4 0.000793 0.003657 0.014910 0.035623 -0.008150 0.017534
# 5 0.001626 -0.000101 -0.011891 -0.008150 0.029844 -0.010931
# 6 0.001016 -0.001516 0.011399 0.017534 -0.010931 0.057220
#
#
# Mechanical properties :
#
#
# Convention : Reuss Voigt Hill
#
# Bulk Modulus (GPa) = 24.53432 42.49726 33.51579
# Shear Modulus (GPa) = 23.93092 33.63059 28.78076
#
# Velocity S-wave (km/s) = 3.12352 3.70281 3.42543
# Velocity P-wave (km/s) = 4.79696 5.96713 5.41375
#
# Compressibility (1/GPa) = 0.04075923
#
# Stress axis : x y z
#
# Youngs Moduli (GPa) = 112.23088 61.72919 31.64530
#
# Poissons Ratio (x) = 0.19465 0.08836
# Poissons Ratio (y) = 0.35390 0.06424
# Poissons Ratio (z) = 0.31337 0.12531
#
# Static dielectric constant tensor:
#      x y z
#    x 2.040100 0.060610 0.093630 
#    y 0.060610 1.832490 -0.035470 
#    z 0.093630 -0.035470 1.959700 
# 
# From -- ./inp_files/53113.got.cif
#   From: 2010.05.17/outbox.cif.g08.bks.cpg/sg2_27_cif.got.tgz:53113.got - 2010.06.03 11:33:40.
