data_PCOD9018556
_publ_section_title
;
Structure prediction by ZEFSAII (Michael W. Deem and Ramdas Pophale) SiO2 
 PCOD9018556
Probable space group: P -1
;
_chemical_formula_sum "Si O2"
_cell_formula_units_Z 16
_cell_length_a 6.248094
_cell_length_b 12.264313
_cell_length_c 11.711808
_cell_angle_alpha 96.788399
_cell_angle_beta 125.507477
_cell_angle_gamma 93.748582
_cell_volume 715.403650
_symmetry_space_group_name_H-M "P -1"
_symmetry_group_IT_number 2
_symmetry_cell_setting 'triclinic'
loop_
_space_group_symop_operation_xyz
x,y,z
-x,-y,-z
loop_
_atom_site_type_symbol
_atom_site_label
_atom_site_fract_x
_atom_site_fract_y
_atom_site_fract_z
Si Si1 0.693367 0.906797 0.550755
Si Si2 0.762393 0.835402 0.326275
Si Si3 0.682930 0.376692 0.843225
Si Si4 0.158022 0.148204 0.165016
Si Si5 0.188944 0.734328 0.344011
Si Si6 0.403997 0.978639 0.095901
Si Si7 0.821814 0.489424 0.561696
Si Si8 0.092244 0.397289 0.171586
O O1 0.851242 0.891483 0.481851
O O2 0.850540 0.902204 0.715927
O O3 0.488763 0.791276 0.463847
O O4 0.500000 0.000000 0.500000
O O5 0.595521 0.708194 0.258005
O O6 0.580365 0.912145 0.219302
O O7 0.012309 0.826824 0.325023
O O8 0.858947 0.315684 0.802891
O O9 0.703065 0.499939 0.809884
O O10 0.825697 0.386715 0.010533
O O11 0.198175 0.280844 0.190711
O O12 0.382737 0.095195 0.163076
O O13 0.884006 0.099284 0.010840
O O14 0.148249 0.633499 0.405610
O O15 0.500000 0.000000 0.000000
O O16 0.500000 0.500000 0.500000
O O17 0.966302 0.572759 0.712954
O O18 0.000000 0.500000 0.500000
#
# Coordination Sequence:
#
# PCOD9018556 Si02
#       8
#     2   2   2   2   2   2   2   2
#     4  11  24  43  65  95 137 182 239 293 356 438
#     4  11  23  44  68  98 136 180 234 291 367 435
#     4   9  21  44  65 100 132 176 233 292 368 424
#     4  11  24  45  67  96 137 184 230 293 357 429
#     4  10  25  40  71  96 136 188 226 301 363 435
#     4  11  26  42  67 100 138 179 231 298 362 425
#     4  11  26  48  71 105 149 194 239 301 372 437
#     4  10  21  43  71  98 135 181 240 295 357 439
#
# _framework density 22.364995
#
# number of rings (size 3 to 8) (size 9 to 14) (size 15 to 20)
#    0.000    1.500    2.500    0.750   10.500    1.500 
#    4.500    1.875    0.000    0.000    0.000    0.000 
#    0.000    0.000    0.000    0.000    0.000    0.000 
#
# Total GULP energy -89222.157207 kJ/mol
# GULP energy per Si atom -5576.384825 kJ/mol
# Density = 2.231409 g / cm^3
# Si number density = 22.364995 Si / 1000 Ang^3
#
#
#
# Elastic Constant Matrix: (Units=GPa)
#
#
# Indices 1 2 3 4 5 6 
#
# 1 85.9849 34.5978 38.7425 3.3926 -13.0459 -6.3074
# 2 34.5978 132.6067 21.5418 4.6894 -11.9059 -12.2974
# 3 38.7425 21.5418 113.1519 -6.2830 -28.7222 -10.7168
# 4 3.3926 4.6894 -6.2830 29.0326 -5.3030 8.5173
# 5 -13.0459 -11.9059 -28.7222 -5.3030 30.5490 -0.8230
# 6 -6.3074 -12.2974 -10.7168 8.5173 -0.8230 27.7995
#
#
#
# Elastic Compliance Matrix: (Units=1/GPa)
#
#
# Indices 1 2 3 4 5 6 
#
# 1 0.015122 -0.002960 -0.004458 -0.002469 0.000716 0.001181
# 2 -0.002960 0.008914 0.000125 -0.001838 0.002115 0.003945
# 3 -0.004458 0.000125 0.014037 0.004796 0.012266 0.003349
# 4 -0.002469 -0.001838 0.004796 0.041309 0.009589 -0.011897
# 5 0.000716 0.002115 0.012266 0.009589 0.047176 0.004285
# 6 0.001181 0.003945 0.003349 -0.011897 0.004285 0.043048
#
#
# Mechanical properties :
#
#
# Convention : Reuss Voigt Hill
#
# Bulk Modulus (GPa) = 42.57599 57.94529 50.26064
# Shear Modulus (GPa) = 26.03869 33.26698 29.65283
#
# Velocity S-wave (km/s) = 3.41583 3.86094 3.64519
# Velocity P-wave (km/s) = 5.88518 6.77060 6.34336
#
# Compressibility (1/GPa) = 0.02348742
#
# Stress axis : x y z
#
# Youngs Moduli (GPa) = 66.12765 112.18473 71.23959
#
# Poissons Ratio (x) = 0.33209 0.31756
# Poissons Ratio (y) = 0.19575 -0.00890
# Poissons Ratio (z) = 0.29477 -0.01401
#
# Static dielectric constant tensor:
#      x y z
#    x 1.928580 0.023870 -0.004070 
#    y 0.023870 1.830710 -0.072190 
#    z -0.004070 -0.072190 2.465110 
# 
# From -- ./inp_files/364890.got.cif
#   From: 2010.05.17/outbox.cif.g08.bks.cpg/sg2_183_cif.got.tgz:364890.got - 2010.06.03 11:33:40.
