data_PCOD9018558
_publ_section_title
;
Structure prediction by ZEFSAII (Michael W. Deem and Ramdas Pophale) SiO2 
 PCOD9018558
Probable space group: P -1
;
_chemical_formula_sum "Si O2"
_cell_formula_units_Z 16
_cell_length_a 7.553792
_cell_length_b 10.380628
_cell_length_c 19.415482
_cell_angle_alpha 38.923006
_cell_angle_beta 120.005476
_cell_angle_gamma 138.519938
_cell_volume 620.889236
_symmetry_space_group_name_H-M "P -1"
_symmetry_group_IT_number 2
_symmetry_cell_setting 'triclinic'
loop_
_space_group_symop_operation_xyz
x,y,z
-x,-y,-z
loop_
_atom_site_type_symbol
_atom_site_label
_atom_site_fract_x
_atom_site_fract_y
_atom_site_fract_z
Si Si1 0.230438 0.434323 0.390040
Si Si2 0.350409 0.965295 0.378274
Si Si3 0.283197 0.574241 0.005242
Si Si4 0.233586 0.267657 0.892038
Si Si5 0.651430 0.867045 0.557380
Si Si6 0.680163 0.010387 0.235967
Si Si7 0.000849 0.031002 0.798857
Si Si8 0.115861 0.629524 0.758677
O O1 0.334629 0.317531 0.412452
O O2 0.135408 0.536913 0.271723
O O3 0.470370 0.718152 0.355744
O O4 0.960079 0.173883 0.484106
O O5 0.367809 0.794056 0.509389
O O6 0.145488 0.894103 0.308342
O O7 0.373821 0.173956 0.347911
O O8 0.635702 0.094680 0.345894
O O9 0.426895 0.837145 0.873811
O O10 0.486881 0.669142 0.068260
O O11 0.000000 0.500000 0.000000
O O12 0.197613 0.289241 0.082604
O O13 0.143481 0.216718 0.816434
O O14 0.237937 0.485341 0.843341
O O15 0.000000 0.000000 0.000000
O O16 0.921063 0.254773 0.230430
O O17 0.792548 0.950268 0.220122
#
# Coordination Sequence:
#
# PCOD9018558 Si02
#       8
#     2   2   2   2   2   2   2   2
#     4  10  22  43  70 100 140 180 231 293 363 425
#     4  10  21  43  71  98 139 184 231 296 360 413
#     4  10  24  45  68 103 149 190 233 297 355 437
#     4  12  26  42  73 109 144 192 243 299 354 429
#     4   9  21  44  73 101 139 184 235 306 359 420
#     4  11  25  42  70 101 138 186 234 285 357 435
#     4  11  25  44  72 102 144 190 242 285 362 430
#     4  11  24  40  69  99 143 177 230 295 351 419
#
# _framework density 25.769492
#
# number of rings (size 3 to 8) (size 9 to 14) (size 15 to 20)
#    0.000    1.500    1.250    2.250    5.250    5.000 
#    0.000   11.250    0.000    0.000    0.000    0.000 
#    0.000    0.000    0.000    0.000    0.000    0.000 
#
# Total GULP energy -89215.280431 kJ/mol
# GULP energy per Si atom -5575.955027 kJ/mol
# Density = 2.571084 g / cm^3
# Si number density = 25.769492 Si / 1000 Ang^3
#
#
#
# Elastic Constant Matrix: (Units=GPa)
#
#
# Indices 1 2 3 4 5 6 
#
# 1 124.5576 41.2910 16.0009 6.2737 9.6172 -8.3953
# 2 41.2910 114.7722 25.2786 4.4041 -5.7506 -7.4136
# 3 16.0009 25.2786 45.3299 -6.5094 -1.8325 4.1245
# 4 6.2737 4.4041 -6.5094 55.4159 5.4692 8.2147
# 5 9.6172 -5.7506 -1.8325 5.4692 26.7664 16.3891
# 6 -8.3953 -7.4136 4.1245 8.2147 16.3891 32.3250
#
#
#
# Elastic Compliance Matrix: (Units=1/GPa)
#
#
# Indices 1 2 3 4 5 6 
#
# 1 0.010749 -0.003028 -0.003382 -0.001596 -0.009012 0.007504
# 2 -0.003028 0.011322 -0.005547 -0.001704 0.002439 0.001715
# 3 -0.003382 -0.005547 0.028370 0.005021 0.007620 -0.010910
# 4 -0.001596 -0.001704 0.005021 0.019899 0.000677 -0.006846
# 5 -0.009012 0.002439 0.007620 0.000677 0.062790 -0.034761
# 6 0.007504 0.001715 -0.010910 -0.006846 -0.034761 0.054034
#
#
# Mechanical properties :
#
#
# Convention : Reuss Voigt Hill
#
# Bulk Modulus (GPa) = 37.69825 49.97785 43.83805
# Shear Modulus (GPa) = 22.73563 36.37409 29.55486
#
# Velocity S-wave (km/s) = 2.97352 3.76109 3.39026
# Velocity P-wave (km/s) = 5.14295 6.18849 5.68978
#
# Compressibility (1/GPa) = 0.02652643
#
# Stress axis : x y z
#
# Youngs Moduli (GPa) = 93.03559 88.32152 35.24908
#
# Poissons Ratio (x) = 0.26741 0.11921
# Poissons Ratio (y) = 0.28168 0.19554
# Poissons Ratio (z) = 0.31465 0.48994
#
# Static dielectric constant tensor:
#      x y z
#    x 2.095420 -0.006620 -0.224010 
#    y -0.006620 2.045630 0.049000 
#    z -0.224010 0.049000 2.669560 
# 
# From -- ./inp_files/607543.got.cif
#   From: 2010.05.17/outbox.cif.g08.bks.cpg/sg2_304_cif.got.tgz:607543.got - 2010.06.03 11:33:40.
