data_PCOD9018923
_publ_section_title
;
Structure prediction by ZEFSAII (Michael W. Deem and Ramdas Pophale) SiO2 
 PCOD9018923
Probable space group: P -1
;
_chemical_formula_sum "Si O2"
_cell_formula_units_Z 14
_cell_length_a 8.094795
_cell_length_b 12.150295
_cell_length_c 13.139817
_cell_angle_alpha 37.812015
_cell_angle_beta 60.747681
_cell_angle_gamma 50.153254
_cell_volume 607.880540
_symmetry_space_group_name_H-M "P -1"
_symmetry_group_IT_number 2
_symmetry_cell_setting 'triclinic'
loop_
_space_group_symop_operation_xyz
x,y,z
-x,-y,-z
loop_
_atom_site_type_symbol
_atom_site_label
_atom_site_fract_x
_atom_site_fract_y
_atom_site_fract_z
Si Si1 0.838687 0.133224 0.038026
Si Si2 0.726190 0.858622 0.593929
Si Si3 0.259547 0.535864 0.032208
Si Si4 0.637229 0.633378 0.076003
Si Si5 0.964466 0.187668 0.633625
Si Si6 0.547341 0.534446 0.574868
Si Si7 0.709887 0.009870 0.705164
O O1 0.892377 0.285858 0.976498
O O2 0.607206 0.261857 0.966426
O O3 0.844937 0.977586 0.234710
O O4 0.000000 0.000000 0.000000
O O5 0.714475 0.673630 0.784133
O O6 0.918919 0.757933 0.529266
O O7 0.500000 0.000000 0.500000
O O8 0.784420 0.952407 0.607055
O O9 0.500000 0.500000 0.000000
O O10 0.213853 0.543642 0.919915
O O11 0.606968 0.523103 0.266491
O O12 0.687189 0.825814 0.904898
O O13 0.798002 0.364494 0.628935
O O14 0.848604 0.075235 0.690284
O O15 0.500000 0.500000 0.500000
O O16 0.500541 0.768456 0.417580
#
# Coordination Sequence:
#
# PCOD9018923 Si02
#       7
#     2   2   2   2   2   2   2
#     4  11  22  40  63  93 131 168 214 275 322 381
#     4  11  23  41  68  95 127 169 218 270 328 387
#     4   9  21  39  62  91 120 167 212 263 323 380
#     4  10  21  44  66  93 127 173 224 258 329 386
#     4  11  23  42  61  98 132 165 219 268 328 388
#     4  10  23  41  65  95 135 172 213 266 328 385
#     4  10  24  43  67  94 132 177 213 271 323 387
#
# _framework density 23.030840000000001
#
# number of rings (size 3 to 8) (size 9 to 14) (size 15 to 20)
#    0.000    1.714    1.429    3.000    6.000    3.429 
#    5.143    3.571    0.000    0.000    0.000    0.000 
#    0.000    0.000    0.000    0.000    0.000    0.000 
#
# Total GULP energy -77938.345378 kJ/mol
# GULP energy per Si atom -5567.024670 kJ/mol
# Density = 2.297842 g / cm^3
# Si number density = 23.030840 Si / 1000 Ang^3
#
#
#
# Elastic Constant Matrix: (Units=GPa)
#
#
# Indices 1 2 3 4 5 6 
#
# 1 45.3693 12.0894 19.2338 6.9031 1.0948 0.1354
# 2 12.0894 122.5156 35.8884 17.3796 -9.5545 12.7640
# 3 19.2338 35.8884 87.5148 27.2684 2.3315 9.8393
# 4 6.9031 17.3796 27.2684 36.5870 -3.3599 2.5584
# 5 1.0948 -9.5545 2.3315 -3.3599 35.6474 -2.6146
# 6 0.1354 12.7640 9.8393 2.5584 -2.6146 18.6250
#
#
#
# Elastic Compliance Matrix: (Units=1/GPa)
#
#
# Indices 1 2 3 4 5 6 
#
# 1 0.024620 -0.001256 -0.005090 -0.000542 -0.000564 0.003366
# 2 -0.001256 0.010058 -0.002772 -0.001919 0.002381 -0.004822
# 3 -0.005090 -0.002772 0.017896 -0.010907 -0.003260 -0.006477
# 4 -0.000542 -0.001919 -0.010907 0.036648 0.003860 0.002589
# 5 -0.000564 0.002381 -0.003260 0.003860 0.029558 0.003714
# 6 0.003366 -0.004822 -0.006477 0.002589 0.003714 0.060558
#
#
# Mechanical properties :
#
#
# Convention : Reuss Voigt Hill
#
# Bulk Modulus (GPa) = 29.12323 43.31365 36.21844
# Shear Modulus (GPa) = 23.92097 30.71775 27.31936
#
# Velocity S-wave (km/s) = 3.22630 3.65604 3.44787
# Velocity P-wave (km/s) = 5.15281 6.05556 5.62233
#
# Compressibility (1/GPa) = 0.03433685
#
# Stress axis : x y z
#
# Youngs Moduli (GPa) = 40.61721 99.41840 55.87934
#
# Poissons Ratio (x) = 0.12488 0.28445
# Poissons Ratio (y) = 0.05102 0.15491
# Poissons Ratio (z) = 0.20676 0.27560
#
# Static dielectric constant tensor:
#      x y z
#    x 1.927680 -0.074810 0.015620 
#    y -0.074810 1.875140 -0.055060 
#    z 0.015620 -0.055060 1.891330 
# 
# From -- ./inp_files/153890.got.cif
#   From: 2010.05.17/outbox.cif.g08.bks.cpg/sg2_77_cif.got.tgz:153890.got - 2010.06.03 11:33:40.
