data_PCOD9018819
_publ_section_title
;
Structure prediction by ZEFSAII (Michael W. Deem and Ramdas Pophale) SiO2 
 PCOD9018819
Probable space group: P -1
;
_chemical_formula_sum "Si O2"
_cell_formula_units_Z 14
_cell_length_a 8.980072
_cell_length_b 9.327526
_cell_length_c 9.910267
_cell_angle_alpha 121.818548
_cell_angle_beta 89.398495
_cell_angle_gamma 103.962209
_cell_volume 677.625607
_symmetry_space_group_name_H-M "P -1"
_symmetry_group_IT_number 2
_symmetry_cell_setting 'triclinic'
loop_
_space_group_symop_operation_xyz
x,y,z
-x,-y,-z
loop_
_atom_site_type_symbol
_atom_site_label
_atom_site_fract_x
_atom_site_fract_y
_atom_site_fract_z
Si Si1 0.152056 0.130532 0.122688
Si Si2 0.877531 0.490426 0.191544
Si Si3 0.561973 0.225674 0.733817
Si Si4 0.753058 0.993889 0.470539
Si Si5 0.197877 0.414466 0.054584
Si Si6 0.060304 0.200891 0.441943
Si Si7 0.361264 0.881847 0.029402
O O1 0.221865 0.250298 0.053949
O O2 0.109357 0.232626 0.301999
O O3 0.252502 0.008447 0.115754
O O4 0.000000 0.000000 0.000000
O O5 0.902429 0.621755 0.382331
O O6 0.745922 0.304916 0.118909
O O7 0.040786 0.450644 0.134563
O O8 0.832023 0.586721 0.106576
O O9 0.665494 0.130875 0.596037
O O10 0.651350 0.428802 0.835897
O O11 0.385502 0.168110 0.659820
O O12 0.570479 0.159334 0.851541
O O13 0.880160 0.092856 0.409283
O O14 0.845714 0.923543 0.550806
O O15 0.500000 0.000000 0.000000
#
# Coordination Sequence:
#
# PCOD9018819 Si02
#       7
#     2   2   2   2   2   2   2
#     4  12  26  43  66  99 134 173 219 278 327 390
#     4  10  22  43  69  95 131 178 220 272 320 399
#     4  10  21  44  64  96 129 178 213 268 329 391
#     4  10  22  38  69  96 130 169 221 271 320 391
#     4  10  22  41  69  93 137 171 223 263 336 382
#     4  11  24  41  69 103 130 169 228 271 326 388
#     4  11  25  45  67  96 132 175 218 273 335 391
#
# _framework density 20.660377
#
# number of rings (size 3 to 8) (size 9 to 14) (size 15 to 20)
#    0.000    1.429    4.286    0.000    6.000    1.714 
#    5.143    4.286    0.000    0.000    0.000    0.000 
#    0.000    0.000    0.000    0.000    0.000    0.000 
#
# Total GULP energy -78235.302930 kJ/mol
# GULP energy per Si atom -5588.235924 kJ/mol
# Density = 2.061335 g / cm^3
# Si number density = 20.660377 Si / 1000 Ang^3
#
#
#
# Elastic Constant Matrix: (Units=GPa)
#
#
# Indices 1 2 3 4 5 6 
#
# 1 83.2481 22.5147 30.6309 5.4379 5.6740 28.2632
# 2 22.5147 120.2006 29.3336 -8.7497 7.9371 21.8124
# 3 30.6309 29.3336 94.9537 11.4493 1.5813 16.0114
# 4 5.4379 -8.7497 11.4493 10.9894 0.8888 0.0297
# 5 5.6740 7.9371 1.5813 0.8888 26.4090 9.8158
# 6 28.2632 21.8124 16.0114 0.0297 9.8158 31.9777
#
#
#
# Elastic Compliance Matrix: (Units=1/GPa)
#
#
# Indices 1 2 3 4 5 6 
#
# 1 0.018689 -0.000853 -0.002252 -0.007733 0.002413 -0.015542
# 2 -0.000853 0.011443 -0.004180 0.014049 -0.001841 -0.004407
# 3 -0.002252 -0.004180 0.015345 -0.018418 0.002812 -0.003687
# 4 -0.007733 0.014049 -0.018418 0.125909 -0.009096 0.009150
# 5 0.002413 -0.001841 0.002812 -0.009096 0.043892 -0.015750
# 6 -0.015542 -0.004407 -0.003687 0.009150 -0.015750 0.054687
#
#
# Mechanical properties :
#
#
# Convention : Reuss Voigt Hill
#
# Bulk Modulus (GPa) = 32.35556 51.48454 41.92005
# Shear Modulus (GPa) = 16.95844 28.27010 22.61427
#
# Velocity S-wave (km/s) = 2.86810 3.70310 3.31202
# Velocity P-wave (km/s) = 5.16359 6.57704 5.91271
#
# Compressibility (1/GPa) = 0.03090659
#
# Stress axis : x y z
#
# Youngs Moduli (GPa) = 53.50736 87.38827 65.16699
#
# Poissons Ratio (x) = 0.07453 0.14678
# Poissons Ratio (y) = 0.04563 0.27241
# Poissons Ratio (z) = 0.12052 0.36530
#
# Static dielectric constant tensor:
#      x y z
#    x 1.750120 0.033810 -0.040170 
#    y 0.033810 1.773220 0.003850 
#    z -0.040170 0.003850 1.733880 
# 
# From -- ./inp_files/157970.got.cif
#   From: 2010.05.17/outbox.cif.g08.bks.cpg/sg2_79_cif.got.tgz:157970.got - 2010.06.03 11:33:40.
