data_PCOD9018680
_publ_section_title
;
Structure prediction by ZEFSAII (Michael W. Deem and Ramdas Pophale) SiO2 
 PCOD9018680
Probable space group: P -1
;
_chemical_formula_sum "Si O2"
_cell_formula_units_Z 13
_cell_length_a 18.008024
_cell_length_b 8.279436
_cell_length_c 6.594407
_cell_angle_alpha 61.840139
_cell_angle_beta 121.072757
_cell_angle_gamma 141.567820
_cell_volume 519.214020
_symmetry_space_group_name_H-M "P -1"
_symmetry_group_IT_number 2
_symmetry_cell_setting 'triclinic'
loop_
_space_group_symop_operation_xyz
x,y,z
-x,-y,-z
loop_
_atom_site_type_symbol
_atom_site_label
_atom_site_fract_x
_atom_site_fract_y
_atom_site_fract_z
Si Si1 0.253166 0.062863 0.203841
Si Si2 0.862439 0.721163 0.503418
Si Si3 0.392868 0.612412 0.604107
Si Si4 0.500000 0.500000 0.500000
Si Si5 0.801975 0.334417 0.311424
Si Si6 0.626957 0.038084 0.871078
Si Si7 0.016672 0.345735 0.975975
O O1 0.221798 0.871582 0.453252
O O2 0.294540 0.004637 0.101889
O O3 0.118850 0.951951 0.048082
O O4 0.366388 0.347804 0.282595
O O5 0.744732 0.675761 0.390800
O O6 0.821525 0.534074 0.368840
O O7 0.884146 0.634041 0.787802
O O8 0.000000 0.000000 0.500000
O O9 0.471880 0.613646 0.559986
O O10 0.373538 0.785344 0.380267
O O11 0.482349 0.761423 0.836672
O O12 0.923122 0.506507 0.238617
O O13 0.685129 0.165892 0.094891
O O14 0.000000 0.500000 0.000000
#
# Coordination Sequence:
#
# PCOD9018680 Si02
#       7
#     2   2   2   1   2   2   2
#     4  11  23  45  68 106 135 179 233 283 346 417
#     4  12  28  44  66 106 143 181 232 288 348 417
#     4  10  21  48  64  99 139 177 227 289 337 412
#     4  10  26  42  72  94 142 180 218 298 346 390
#     4  12  22  41  73  99 128 192 228 276 351 406
#     4  10  21  43  74  93 134 177 234 284 334 416
#     4  12  23  43  70 101 139 179 234 289 334 417
#
# _framework density 25.037845999999998
#
# number of rings (size 3 to 8) (size 9 to 14) (size 15 to 20)
#    0.000    0.923    6.154    0.462    2.154    2.462 
#    2.769    1.538    0.000    0.000    0.000    0.000 
#    0.000    0.000    0.000    0.000    0.000    0.000 
#
# Total GULP energy -72525.415710 kJ/mol
# GULP energy per Si atom -5578.878132 kJ/mol
# Density = 2.498086 g / cm^3
# Si number density = 25.037846 Si / 1000 Ang^3
#
#
#
# Elastic Constant Matrix: (Units=GPa)
#
#
# Indices 1 2 3 4 5 6 
#
# 1 72.6588 14.7512 35.0185 7.1204 11.4995 20.9888
# 2 14.7512 91.0567 57.0640 36.0155 19.8977 26.0085
# 3 35.0185 57.0640 125.4642 36.6311 5.5911 8.8214
# 4 7.1204 36.0155 36.6311 69.6543 16.2234 7.3892
# 5 11.4995 19.8977 5.5911 16.2234 32.2514 21.7617
# 6 20.9888 26.0085 8.8214 7.3892 21.7617 37.0023
#
#
#
# Elastic Compliance Matrix: (Units=1/GPa)
#
#
# Indices 1 2 3 4 5 6 
#
# 1 0.019829 0.004557 -0.006901 0.000706 -0.000505 -0.012649
# 2 0.004557 0.022281 -0.008723 -0.005545 -0.001507 -0.014173
# 3 -0.006901 -0.008723 0.014446 -0.003809 0.003790 0.005134
# 4 0.000706 -0.005545 -0.003809 0.021087 -0.011454 0.006930
# 5 -0.000505 -0.001507 0.003790 -0.011454 0.058656 -0.031767
# 6 -0.012649 -0.014173 0.005134 0.006930 -0.031767 0.060237
#
#
# Mechanical properties :
#
#
# Convention : Reuss Voigt Hill
#
# Bulk Modulus (GPa) = 29.05232 55.87188 42.46210
# Shear Modulus (GPa) = 21.72542 39.93800 30.83171
#
# Velocity S-wave (km/s) = 2.94888 3.99821 3.51294
# Velocity P-wave (km/s) = 4.81903 6.60891 5.78363
#
# Compressibility (1/GPa) = 0.03442065
#
# Stress axis : x y z
#
# Youngs Moduli (GPa) = 50.43242 44.88056 69.22170
#
# Poissons Ratio (x) = -0.20451 0.47770
# Poissons Ratio (y) = -0.22981 0.60385
# Poissons Ratio (z) = 0.34804 0.39151
#
# Static dielectric constant tensor:
#      x y z
#    x 1.923530 0.061330 0.021480 
#    y 0.061330 2.115940 -0.054360 
#    z 0.021480 -0.054360 1.999400 
# 
# From -- ./inp_files/23672.got.cif
#   From: 2010.05.17/outbox.cif.g08.bks.cpg/sg2_12_cif.got.tgz:23672.got - 2010.06.03 11:33:40.
