data_PCOD9018871
_publ_section_title
;
Structure prediction by ZEFSAII (Michael W. Deem and Ramdas Pophale) SiO2 
 PCOD9018871
Probable space group: P -1
;
_chemical_formula_sum "Si O2"
_cell_formula_units_Z 14
_cell_length_a 14.182300
_cell_length_b 8.811486
_cell_length_c 8.127606
_cell_angle_alpha 51.172889
_cell_angle_beta 77.686283
_cell_angle_gamma 52.136718
_cell_volume 599.887056
_symmetry_space_group_name_H-M "P -1"
_symmetry_group_IT_number 2
_symmetry_cell_setting 'triclinic'
loop_
_space_group_symop_operation_xyz
x,y,z
-x,-y,-z
loop_
_atom_site_type_symbol
_atom_site_label
_atom_site_fract_x
_atom_site_fract_y
_atom_site_fract_z
Si Si1 0.776430 0.919148 0.448570
Si Si2 0.341874 0.302926 0.952295
Si Si3 0.002606 0.058160 0.649180
Si Si4 0.360532 0.686036 0.491849
Si Si5 0.396890 0.054231 0.764224
Si Si6 0.137323 0.580409 0.093497
Si Si7 0.752653 0.397845 0.662115
O O1 0.685117 0.991182 0.280241
O O2 0.856853 0.624752 0.665550
O O3 0.877271 0.959845 0.358201
O O4 0.688283 0.084274 0.525758
O O5 0.342351 0.512348 0.722894
O O6 0.363493 0.116699 0.927903
O O7 0.212094 0.441955 0.994559
O O8 0.454956 0.159687 0.138353
O O9 0.015075 0.850177 0.901048
O O10 0.000000 0.000000 0.500000
O O11 0.874719 0.320968 0.572384
O O12 0.500000 0.500000 0.500000
O O13 0.278590 0.763000 0.306226
O O14 0.359969 0.309421 0.525946
O O15 0.214589 0.635261 0.138129
#
# Coordination Sequence:
#
# PCOD9018871 Si02
#       7
#     2   2   2   2   2   2   2
#     4  11  25  43  68 101 129 179 224 272 326 400
#     4  10  21  44  65  96 143 174 213 279 337 388
#     4  12  23  49  67  93 142 172 225 274 332 389
#     4  11  24  42  64 101 137 174 221 273 333 397
#     4   9  22  39  65  98 126 179 219 263 334 389
#     4  11  25  42  69 100 128 177 225 269 339 387
#     4  10  23  44  66  95 138 178 214 282 329 389
#
# _framework density 23.337726
#
# number of rings (size 3 to 8) (size 9 to 14) (size 15 to 20)
#    0.000    1.429    2.857    1.286    8.000    5.714 
#    0.000    0.000    0.000    0.000    0.000    0.000 
#    0.000    0.000    0.000    0.000    0.000    0.000 
#
# Total GULP energy -78227.344978 kJ/mol
# GULP energy per Si atom -5587.667498 kJ/mol
# Density = 2.328461 g / cm^3
# Si number density = 23.337726 Si / 1000 Ang^3
#
#
#
# Elastic Constant Matrix: (Units=GPa)
#
#
# Indices 1 2 3 4 5 6 
#
# 1 105.6258 24.5524 18.6220 0.1789 13.9071 22.5834
# 2 24.5524 78.3238 4.3989 1.7559 0.9595 17.6566
# 3 18.6220 4.3989 88.4875 -20.2911 14.3388 12.4848
# 4 0.1789 1.7559 -20.2911 30.5431 -0.1480 7.8907
# 5 13.9071 0.9595 14.3388 -0.1480 33.5792 10.4206
# 6 22.5834 17.6566 12.4848 7.8907 10.4206 39.0985
#
#
#
# Elastic Compliance Matrix: (Units=1/GPa)
#
#
# Indices 1 2 3 4 5 6 
#
# 1 0.011594 -0.002523 -0.001093 0.000514 -0.002848 -0.004553
# 2 -0.002523 0.014894 0.000573 0.001182 0.002339 -0.006314
# 3 -0.001093 0.000573 0.015799 0.011975 -0.004423 -0.005911
# 4 0.000514 0.001182 0.011975 0.044047 -0.001050 -0.013264
# 5 -0.002848 0.002339 -0.004423 -0.001050 0.034984 -0.007111
# 6 -0.004553 -0.006314 -0.005911 -0.013264 -0.007111 0.037517
#
#
# Mechanical properties :
#
#
# Convention : Reuss Voigt Hill
#
# Bulk Modulus (GPa) = 27.62260 40.84262 34.23261
# Shear Modulus (GPa) = 28.25039 35.63507 31.94273
#
# Velocity S-wave (km/s) = 3.48300 3.91183 3.70363
# Velocity P-wave (km/s) = 5.29498 6.15970 5.74364
#
# Compressibility (1/GPa) = 0.03620224
#
# Stress axis : x y z
#
# Youngs Moduli (GPa) = 86.25051 67.13896 63.29420
#
# Poissons Ratio (x) = 0.16941 0.06917
# Poissons Ratio (y) = 0.21764 -0.03629
# Poissons Ratio (z) = 0.09426 -0.03850
#
# Static dielectric constant tensor:
#      x y z
#    x 1.891800 0.025960 -0.003370 
#    y 0.025960 1.889620 -0.018570 
#    z -0.003370 -0.018570 1.906130 
# 
# From -- ./inp_files/241970.got.cif
#   From: 2010.05.17/outbox.cif.g08.bks.cpg/sg2_121_cif.got.tgz:241970.got - 2010.06.03 11:33:40.
