data_PCOD9018456
_publ_section_title
;
Structure prediction by ZEFSAII (Michael W. Deem and Ramdas Pophale) SiO2 
 PCOD9018456
Probable space group: P -1
;
_chemical_formula_sum "Si O2"
_cell_formula_units_Z 15
_cell_length_a 15.633742
_cell_length_b 24.297436
_cell_length_c 15.140425
_cell_angle_alpha 19.204889
_cell_angle_beta 30.317721
_cell_angle_gamma 20.667942
_cell_volume 657.413888
_symmetry_space_group_name_H-M "P -1"
_symmetry_group_IT_number 2
_symmetry_cell_setting 'triclinic'
loop_
_space_group_symop_operation_xyz
x,y,z
-x,-y,-z
loop_
_atom_site_type_symbol
_atom_site_label
_atom_site_fract_x
_atom_site_fract_y
_atom_site_fract_z
Si Si1 0.877906 0.855116 0.751168
Si Si2 0.527247 0.657693 0.283160
Si Si3 0.786405 0.881907 0.258245
Si Si4 0.716254 0.157886 0.590944
Si Si5 0.320128 0.606401 0.132711
Si Si6 0.540034 0.741872 0.619434
Si Si7 0.950090 0.591548 0.806719
Si Si8 0.500000 0.000000 0.500000
O O1 0.038274 0.907591 0.517112
O O2 0.774366 0.948307 0.801325
O O3 0.661326 0.016118 0.628046
O O4 0.047505 0.573974 0.007700
O O5 0.500000 0.500000 0.500000
O O6 0.388591 0.787428 0.301684
O O7 0.812875 0.473138 0.330400
O O8 0.412067 0.867825 0.997850
O O9 0.744853 0.720536 0.506893
O O10 0.722406 0.922765 0.356626
O O11 0.052610 0.769361 0.167258
O O12 0.525494 0.397355 0.336546
O O13 0.337251 0.475744 0.229016
O O14 0.402339 0.729462 0.836089
O O15 0.686519 0.861320 0.626742
O O16 0.000000 0.500000 0.000000
#
# Coordination Sequence:
#
# PCOD9018456 Si02
#       8
#     2   2   2   2   2   2   2   1
#     4  10  21  43  70  98 140 182 234 288 366 424
#     4  12  26  46  70  97 141 190 240 299 364 430
#     4  12  25  46  68 103 140 189 243 293 360 435
#     4  10  23  42  68 106 136 183 233 298 359 431
#     4  10  23  42  70 109 144 177 239 296 361 436
#     4  10  21  44  72 102 144 187 226 301 365 430
#     4  12  24  48  70  98 143 186 234 296 353 427
#     4  12  28  44  72 106 136 188 246 290 358 424
#
# _framework density 22.816676000000001
#
# number of rings (size 3 to 8) (size 9 to 14) (size 15 to 20)
#    0.000    1.067    2.667    2.800    1.867    2.667 
#    2.400    2.000    0.000    0.000    0.000    0.000 
#    0.000    0.000    0.000    0.000    0.000    0.000 
#
# Total GULP energy -83658.364442 kJ/mol
# GULP energy per Si atom -5577.224296 kJ/mol
# Density = 2.276474 g / cm^3
# Si number density = 22.816676 Si / 1000 Ang^3
#
#
#
# Elastic Constant Matrix: (Units=GPa)
#
#
# Indices 1 2 3 4 5 6 
#
# 1 100.2772 23.3715 30.1636 9.5919 12.1900 19.4055
# 2 23.3715 121.4617 5.1287 22.9114 11.1177 10.7322
# 3 30.1636 5.1287 58.3869 11.7802 -5.2744 17.9883
# 4 9.5919 22.9114 11.7802 31.1966 4.6475 13.8985
# 5 12.1900 11.1177 -5.2744 4.6475 38.1614 0.8819
# 6 19.4055 10.7322 17.9883 13.8985 0.8819 44.1284
#
#
#
# Elastic Compliance Matrix: (Units=1/GPa)
#
#
# Indices 1 2 3 4 5 6 
#
# 1 0.013438 -0.001949 -0.006593 0.001961 -0.004799 -0.003270
# 2 -0.001949 0.009999 0.001423 -0.007154 -0.001225 0.000123
# 3 -0.006593 0.001423 0.023882 -0.006590 0.005915 -0.005225
# 4 0.001961 -0.007154 -0.006590 0.044499 -0.004633 -0.010359
# 5 -0.004799 -0.001225 0.005915 -0.004633 0.029456 0.000868
# 6 -0.003270 0.000123 -0.005225 -0.010359 0.000868 0.029444
#
#
# Mechanical properties :
#
#
# Convention : Reuss Voigt Hill
#
# Bulk Modulus (GPa) = 30.22843 44.16150 37.19496
# Shear Modulus (GPa) = 28.41179 37.46141 32.93660
#
# Velocity S-wave (km/s) = 3.53260 4.05636 3.80351
# Velocity P-wave (km/s) = 5.46956 6.42929 5.96875
#
# Compressibility (1/GPa) = 0.03308144
#
# Stress axis : x y z
#
# Youngs Moduli (GPa) = 74.41332 100.01316 41.87286
#
# Poissons Ratio (x) = 0.19494 0.27607
# Poissons Ratio (y) = 0.14504 -0.05961
# Poissons Ratio (z) = 0.49062 -0.14237
#
# Static dielectric constant tensor:
#      x y z
#    x 1.518100 -0.195030 0.047470 
#    y -0.195030 2.021430 -0.155060 
#    z 0.047470 -0.155060 1.974960 
# 
# From -- ./inp_files/251062.got.cif
#   From: 2010.05.17/outbox.cif.g08.bks.cpg/sg2_126_cif.got.tgz:251062.got - 2010.06.03 11:33:40.
