data_PCOD9018574
_publ_section_title
;
Structure prediction by ZEFSAII (Michael W. Deem and Ramdas Pophale) SiO2 
 PCOD9018574
Probable space group: P -1
;
_chemical_formula_sum "Si O2"
_cell_formula_units_Z 14
_cell_length_a 5.364403
_cell_length_b 7.790035
_cell_length_c 21.944010
_cell_angle_alpha 141.463965
_cell_angle_beta 65.046318
_cell_angle_gamma 106.961798
_cell_volume 516.784639
_symmetry_space_group_name_H-M "P -1"
_symmetry_group_IT_number 2
_symmetry_cell_setting 'triclinic'
loop_
_space_group_symop_operation_xyz
x,y,z
-x,-y,-z
loop_
_atom_site_type_symbol
_atom_site_label
_atom_site_fract_x
_atom_site_fract_y
_atom_site_fract_z
Si Si1 0.435051 0.581893 0.390851
Si Si2 0.892408 0.630585 0.482765
Si Si3 0.157588 0.457170 0.768392
Si Si4 0.887916 0.192741 0.925585
Si Si5 0.624961 0.116296 0.390303
Si Si6 0.474235 0.409541 0.124249
Si Si7 0.494042 0.952283 0.189791
O O1 0.696005 0.603768 0.327985
O O2 0.422905 0.778977 0.505776
O O3 0.129685 0.677243 0.423625
O O4 0.402871 0.253946 0.307300
O O5 0.725102 0.365587 0.408157
O O6 0.698533 0.898987 0.594217
O O7 0.000000 0.500000 0.500000
O O8 0.375781 0.599708 0.828598
O O9 0.854160 0.601903 0.840296
O O10 0.169506 0.147350 0.709609
O O11 0.714214 0.127990 0.864935
O O12 0.183049 0.023652 0.856427
O O13 0.657371 0.200346 0.004210
O O14 0.000000 0.500000 0.000000
O O15 0.500456 0.708105 0.171081
#
# Coordination Sequence:
#
# PCOD9018574 Si02
#       7
#     2   2   2   2   2   2   2
#     4  11  26  41  62  97 137 173 218 266 325 393
#     4   9  21  39  65  92 125 164 232 272 316 365
#     4  12  27  41  65  97 137 180 213 264 331 391
#     4  10  21  43  72 101 125 164 220 281 326 381
#     4  10  23  41  66  91 133 177 224 267 319 380
#     4  11  24  44  67  97 129 167 224 271 327 393
#     4  11  23  41  74  98 127 170 221 273 327 381
#
# _framework density 27.090592000000001
#
# number of rings (size 3 to 8) (size 9 to 14) (size 15 to 20)
#    0.000    1.429    0.000    5.571   14.000    0.571 
#    0.000    4.286    0.000    0.000    0.000    0.000 
#    0.000    0.000    0.000    0.000    0.000    0.000 
#
# Total GULP energy -78186.612885 kJ/mol
# GULP energy per Si atom -5584.758063 kJ/mol
# Density = 2.702893 g / cm^3
# Si number density = 27.090592 Si / 1000 Ang^3
#
#
#
# Elastic Constant Matrix: (Units=GPa)
#
#
# Indices 1 2 3 4 5 6 
#
# 1 221.2065 24.0293 90.5795 -20.3936 -18.2157 6.6054
# 2 24.0293 71.6693 20.2252 -5.6458 -11.9970 17.6619
# 3 90.5795 20.2252 157.3737 -10.3080 -22.0414 -6.1709
# 4 -20.3936 -5.6458 -10.3080 45.8877 2.2083 -12.6300
# 5 -18.2157 -11.9970 -22.0414 2.2083 75.3468 -18.2889
# 6 6.6054 17.6619 -6.1709 -12.6300 -18.2889 28.8948
#
#
#
# Elastic Compliance Matrix: (Units=1/GPa)
#
#
# Indices 1 2 3 4 5 6 
#
# 1 0.006167 -0.000755 -0.003360 0.001649 0.000130 -0.000862
# 2 -0.000755 0.017796 -0.002688 -0.002286 -0.001239 -0.013063
# 3 -0.003360 -0.002688 0.009538 0.002228 0.003309 0.007516
# 4 0.001649 -0.002286 0.002228 0.026850 0.003676 0.015559
# 5 0.000130 -0.001239 0.003309 0.003676 0.017374 0.014038
# 6 -0.000862 -0.013063 0.007516 0.015559 0.014038 0.060081
#
#
# Mechanical properties :
#
#
# Convention : Reuss Voigt Hill
#
# Bulk Modulus (GPa) = 50.26423 79.99083 65.12753
# Shear Modulus (GPa) = 31.63662 51.05358 41.34510
#
# Velocity S-wave (km/s) = 3.42103 4.34585 3.91087
# Velocity P-wave (km/s) = 5.84799 7.40089 6.66979
#
# Compressibility (1/GPa) = 0.01989486
#
# Stress axis : x y z
#
# Youngs Moduli (GPa) = 162.14994 56.19123 104.84567
#
# Poissons Ratio (x) = 0.04244 0.35229
# Poissons Ratio (y) = 0.12246 0.28181
# Poissons Ratio (z) = 0.54484 0.15104
#
# Static dielectric constant tensor:
#      x y z
#    x 2.864420 0.062430 0.062160 
#    y 0.062430 2.231600 0.020690 
#    z 0.062160 0.020690 2.089060 
# 
# From -- ./inp_files/603880.got.cif
#   From: 2010.05.17/outbox.cif.g08.bks.cpg/sg2_302_cif.got.tgz:603880.got - 2010.06.03 11:33:40.
