data_PCOD9018385
_publ_section_title
;
Structure prediction by ZEFSAII (Michael W. Deem and Ramdas Pophale) SiO2 
 PCOD9018385
Probable space group: P -1
;
_chemical_formula_sum "Si O2"
_cell_formula_units_Z 16
_cell_length_a 20.147006
_cell_length_b 7.406724
_cell_length_c 13.256272
_cell_angle_alpha 71.754609
_cell_angle_beta 160.684583
_cell_angle_gamma 101.844343
_cell_volume 595.238073
_symmetry_space_group_name_H-M "P -1"
_symmetry_group_IT_number 2
_symmetry_cell_setting 'triclinic'
loop_
_space_group_symop_operation_xyz
x,y,z
-x,-y,-z
loop_
_atom_site_type_symbol
_atom_site_label
_atom_site_fract_x
_atom_site_fract_y
_atom_site_fract_z
Si Si1 0.305727 0.913452 0.230896
Si Si2 0.701392 0.303756 0.546283
Si Si3 0.137546 0.801695 0.670356
Si Si4 0.040088 0.691184 0.332467
Si Si5 0.566917 0.344782 0.713755
Si Si6 0.406734 0.846904 0.764219
Si Si7 0.419201 0.240463 0.773325
Si Si8 0.906829 0.633727 0.943645
O O1 0.327602 0.736080 0.372217
O O2 0.295526 0.846665 0.114829
O O3 0.500000 0.000000 0.500000
O O4 0.110870 0.092468 0.946759
O O5 0.637366 0.532703 0.380470
O O6 0.562754 0.196029 0.301786
O O7 0.946965 0.221428 0.885762
O O8 0.041795 0.699124 0.457944
O O9 0.337830 0.852123 0.896503
O O10 0.729518 0.364936 0.029724
O O11 0.000000 0.000000 0.500000
O O12 0.965456 0.562376 0.158662
O O13 0.266585 0.706644 0.623013
O O14 0.500000 0.500000 0.500000
O O15 0.344609 0.307515 0.432871
O O16 0.596894 0.774699 0.126668
O O17 0.308094 0.081688 0.599590
O O18 0.000000 0.500000 0.000000
#
# Coordination Sequence:
#
# PCOD9018385 Si02
#       8
#     2   2   2   2   2   2   2   2
#     4  12  25  44  71 105 149 198 256 315 383 456
#     4  11  25  43  74 107 148 198 255 322 380 455
#     4  11  23  43  74 100 149 203 247 312 386 459
#     4  10  23  45  70 108 146 193 260 317 371 471
#     4  12  26  46  74 111 152 198 257 318 387 464
#     4   9  22  41  73 105 146 194 247 318 383 463
#     4  10  21  43  70 108 148 191 253 313 388 455
#     4  11  24  46  73 109 148 200 252 316 390 455
#
# _framework density 26.879999999999999
#
# number of rings (size 3 to 8) (size 9 to 14) (size 15 to 20)
#    0.000    1.250    2.500    2.625    1.750    6.000 
#    2.250    2.500    5.500    0.000    0.000    0.000 
#    0.000    0.000    0.000    0.000    0.000    0.000 
#
# Total GULP energy -89121.702304 kJ/mol
# GULP energy per Si atom -5570.106394 kJ/mol
# Density = 2.681882 g / cm^3
# Si number density = 26.880000 Si / 1000 Ang^3
#
#
#
# Elastic Constant Matrix: (Units=GPa)
#
#
# Indices 1 2 3 4 5 6 
#
# 1 172.8092 59.9836 68.9287 4.0285 -33.5921 -26.2777
# 2 59.9836 110.1447 47.7164 0.0068 -21.6560 -14.2507
# 3 68.9287 47.7164 88.9249 -5.3259 -28.1860 -13.3909
# 4 4.0285 0.0068 -5.3259 37.3803 -13.2945 -6.9477
# 5 -33.5921 -21.6560 -28.1860 -13.2945 58.2500 8.3209
# 6 -26.2777 -14.2507 -13.3909 -6.9477 8.3209 73.0970
#
#
#
# Elastic Compliance Matrix: (Units=1/GPa)
#
#
# Indices 1 2 3 4 5 6 
#
# 1 0.009236 -0.002228 -0.005296 -0.000911 0.001490 0.001659
# 2 -0.002228 0.012575 -0.004556 0.000114 0.001112 0.000700
# 3 -0.005296 -0.004556 0.020246 0.005827 0.006270 0.000757
# 4 -0.000911 0.000114 0.005827 0.031429 0.009122 0.002711
# 5 0.001490 0.001112 0.006270 0.009122 0.023544 0.000088
# 6 0.001659 0.000700 0.000757 0.002711 0.000088 0.014800
#
#
# Mechanical properties :
#
#
# Convention : Reuss Voigt Hill
#
# Bulk Modulus (GPa) = 55.87518 80.57070 68.22294
# Shear Modulus (GPa) = 35.22273 46.76213 40.99243
#
# Velocity S-wave (km/s) = 3.62383 4.17545 3.90938
# Velocity P-wave (km/s) = 6.19205 7.29967 6.76856
#
# Compressibility (1/GPa) = 0.01789704
#
# Stress axis : x y z
#
# Youngs Moduli (GPa) = 108.27706 79.52171 49.39324
#
# Poissons Ratio (x) = 0.17714 0.26157
# Poissons Ratio (y) = 0.24120 0.22505
# Poissons Ratio (z) = 0.57341 0.36233
#
# Static dielectric constant tensor:
#      x y z
#    x 2.280010 -0.091640 -0.094300 
#    y -0.091640 2.180760 0.029240 
#    z -0.094300 0.029240 2.120150 
# 
# From -- ./inp_files/284277.got.cif
#   From: 2010.05.17/outbox.cif.g08.bks.cpg/sg2_143_cif.got.tgz:284277.got - 2010.06.03 11:33:40.
