data_PCOD9018573
_publ_section_title
;
Structure prediction by ZEFSAII (Michael W. Deem and Ramdas Pophale) SiO2 
 PCOD9018573
Probable space group: P -1
;
_chemical_formula_sum "Si O2"
_cell_formula_units_Z 15
_cell_length_a 6.578753
_cell_length_b 16.420043
_cell_length_c 6.246524
_cell_angle_alpha 102.663530
_cell_angle_beta 71.881273
_cell_angle_gamma 108.649446
_cell_volume 602.239019
_symmetry_space_group_name_H-M "P -1"
_symmetry_group_IT_number 2
_symmetry_cell_setting 'triclinic'
loop_
_space_group_symop_operation_xyz
x,y,z
-x,-y,-z
loop_
_atom_site_type_symbol
_atom_site_label
_atom_site_fract_x
_atom_site_fract_y
_atom_site_fract_z
Si Si1 0.000000 0.500000 0.500000
Si Si2 0.131397 0.307319 0.730663
Si Si3 0.240067 0.001597 0.325137
Si Si4 0.436788 0.586695 0.139038
Si Si5 0.514547 0.877548 0.361647
Si Si6 0.867305 0.247333 0.398130
Si Si7 0.213034 0.627836 0.854181
Si Si8 0.028240 0.134464 0.949752
O O1 0.795204 0.445464 0.684367
O O2 0.854069 0.459785 0.308144
O O3 0.383465 0.351447 0.732098
O O4 0.053059 0.209621 0.801408
O O5 0.071381 0.306213 0.499706
O O6 0.994712 0.362758 0.932654
O O7 0.373405 0.940056 0.355633
O O8 0.161079 0.953593 0.098717
O O9 0.393012 0.094324 0.410175
O O10 0.000000 0.000000 0.500000
O O11 0.500000 0.500000 0.000000
O O12 0.413750 0.634929 0.953075
O O13 0.329950 0.787526 0.390010
O O14 0.726762 0.880232 0.146871
O O15 0.770227 0.295687 0.276216
O O16 0.956413 0.172827 0.212217
#
# Coordination Sequence:
#
# PCOD9018573 Si02
#       8
#     1   2   2   2   2   2   2   2
#     4  12  26  48  80 102 136 188 238 286 370 432
#     4  11  25  49  69 104 151 185 234 306 359 423
#     4   9  19  42  70 103 149 186 238 303 343 413
#     4  12  28  50  73 104 145 186 236 300 358 431
#     4  10  21  43  72 100 146 196 233 296 358 414
#     4  11  25  47  72 106 145 192 241 294 364 427
#     4  11  27  48  72 108 144 180 243 302 350 442
#     4  10  23  42  68 106 143 184 244 295 350 430
#
# _framework density 24.907056999999998
#
# number of rings (size 3 to 8) (size 9 to 14) (size 15 to 20)
#    0.000    1.333    2.667    1.200    5.600    3.200 
#    2.400    6.000    0.000    0.000    0.000    0.000 
#    0.000    0.000    0.000    0.000    0.000    0.000 
#
# Total GULP energy -83638.066521 kJ/mol
# GULP energy per Si atom -5575.871101 kJ/mol
# Density = 2.485037 g / cm^3
# Si number density = 24.907057 Si / 1000 Ang^3
#
#
#
# Elastic Constant Matrix: (Units=GPa)
#
#
# Indices 1 2 3 4 5 6 
#
# 1 139.8374 39.4977 37.3853 -0.5809 20.9497 0.9312
# 2 39.4977 53.7887 24.4587 -1.9749 6.4063 3.6725
# 3 37.3853 24.4587 90.1202 17.6155 13.1193 -4.1809
# 4 -0.5809 -1.9749 17.6155 39.5979 6.3201 6.8332
# 5 20.9497 6.4063 13.1193 6.3201 31.5870 9.3854
# 6 0.9312 3.6725 -4.1809 6.8332 9.3854 47.1692
#
#
#
# Elastic Compliance Matrix: (Units=1/GPa)
#
#
# Indices 1 2 3 4 5 6 
#
# 1 0.010160 -0.005890 -0.002100 0.001469 -0.005234 0.000900
# 2 -0.005890 0.025716 -0.005653 0.004077 0.001178 -0.003212
# 3 -0.002100 -0.005653 0.015620 -0.007320 -0.003564 0.003636
# 4 0.001469 0.004077 -0.007320 0.030084 -0.003390 -0.004679
# 5 -0.005234 0.001178 -0.003564 -0.003390 0.039318 -0.007636
# 6 0.000900 -0.003212 0.003636 -0.004679 -0.007636 0.023952
#
#
# Mechanical properties :
#
#
# Convention : Reuss Voigt Hill
#
# Bulk Modulus (GPa) = 41.30600 54.04776 47.67688
# Shear Modulus (GPa) = 27.74580 35.83113 31.78846
#
# Velocity S-wave (km/s) = 3.34125 3.79699 3.57639
# Velocity P-wave (km/s) = 5.61296 6.40076 6.01976
#
# Compressibility (1/GPa) = 0.02420956
#
# Stress axis : x y z
#
# Youngs Moduli (GPa) = 98.42061 38.88627 64.02037
#
# Poissons Ratio (x) = 0.22905 0.13444
# Poissons Ratio (y) = 0.57973 0.36193
# Poissons Ratio (z) = 0.20667 0.21984
#
# Static dielectric constant tensor:
#      x y z
#    x 1.946050 -0.042990 0.048820 
#    y -0.042990 2.031740 0.024640 
#    z 0.048820 0.024640 1.979750 
# 
# From -- ./inp_files/8098.got.cif
#   From: 2010.05.17/outbox.cif.g08.bks.cpg/sg2_5_cif.got.tgz:8098.got - 2010.06.03 11:33:40.
