data_PCOD9018257
_publ_section_title
;
Structure prediction by ZEFSAII (Michael W. Deem and Ramdas Pophale) SiO2 
 PCOD9018257
Probable space group: P -1
;
_chemical_formula_sum "Si O2"
_cell_formula_units_Z 14
_cell_length_a 8.614378
_cell_length_b 11.613840
_cell_length_c 11.552059
_cell_angle_alpha 142.868884
_cell_angle_beta 98.359007
_cell_angle_gamma 104.199962
_cell_volume 549.687014
_symmetry_space_group_name_H-M "P -1"
_symmetry_group_IT_number 2
_symmetry_cell_setting 'triclinic'
loop_
_space_group_symop_operation_xyz
x,y,z
-x,-y,-z
loop_
_atom_site_type_symbol
_atom_site_label
_atom_site_fract_x
_atom_site_fract_y
_atom_site_fract_z
Si Si1 0.098597 0.088059 0.250155
Si Si2 0.427370 0.195286 0.854525
Si Si3 0.315615 0.602930 0.582297
Si Si4 0.987191 0.789930 0.431810
Si Si5 0.306525 0.017628 0.950471
Si Si6 0.732332 0.518522 0.972739
Si Si7 0.048793 0.422387 0.187805
O O1 0.245452 0.356472 0.435512
O O2 0.089972 0.114114 0.407768
O O3 0.884473 0.995884 0.103630
O O4 0.099280 0.864445 0.045674
O O5 0.430832 0.118030 0.923078
O O6 0.598971 0.286009 0.853513
O O7 0.402746 0.407959 0.031607
O O8 0.222467 0.971559 0.600727
O O9 0.225676 0.533834 0.388749
O O10 0.238739 0.749398 0.742276
O O11 0.547216 0.798548 0.788792
O O12 0.946032 0.550574 0.289259
O O13 0.883490 0.721615 0.243500
O O14 0.851678 0.515681 0.878768
#
# Coordination Sequence:
#
# PCOD9018257 Si02
#       7
#     2   2   2   2   2   2   2
#     4  11  23  44  67  94 134 171 214 269 319 388
#     4  10  21  43  69  92 126 174 216 263 323 381
#     4  11  23  42  68  95 131 172 214 268 326 379
#     4  11  23  44  67  94 134 171 214 269 319 388
#     4  10  21  43  69  92 126 174 216 263 323 381
#     4  11  23  42  68  95 131 172 214 268 326 379
#     4  12  24  42  66 104 132 166 222 264 322 396
#
# _framework density 25.469038999999999
#
# number of rings (size 3 to 8) (size 9 to 14) (size 15 to 20)
#    0.000    1.143    5.714    2.571    0.000    1.143 
#    0.000    2.857    0.000    0.000    0.000    0.000 
#    0.000    0.000    0.000    0.000    0.000    0.000 
#
# Total GULP energy -78422.220325 kJ/mol
# GULP energy per Si atom -5601.587166 kJ/mol
# Density = 2.541107 g / cm^3
# Si number density = 25.469039 Si / 1000 Ang^3
#
#
#
# Elastic Constant Matrix: (Units=GPa)
#
#
# Indices 1 2 3 4 5 6 
#
# 1 31.5776 24.2890 27.8279 8.0895 -10.6858 4.8854
# 2 24.2890 133.8656 58.0471 7.3193 -1.6512 3.7947
# 3 27.8279 58.0471 170.2569 -4.5747 -3.9099 5.6645
# 4 8.0895 7.3193 -4.5747 59.3678 -8.5997 -6.1311
# 5 -10.6858 -1.6512 -3.9099 -8.5997 37.5189 6.0743
# 6 4.8854 3.7947 5.6645 -6.1311 6.0743 29.3636
#
#
#
# Elastic Compliance Matrix: (Units=1/GPa)
#
#
# Indices 1 2 3 4 5 6 
#
# 1 0.048304 -0.005642 -0.005473 -0.005423 0.013338 -0.010143
# 2 -0.005642 0.009550 -0.002405 -0.000801 -0.001677 0.000348
# 3 -0.005473 -0.002405 0.007611 0.001570 -0.000543 0.000193
# 4 -0.005423 -0.000801 0.001570 0.018543 0.002166 0.004127
# 5 0.013338 -0.001677 -0.000543 0.002166 0.032128 -0.008091
# 6 -0.010143 0.000348 0.000193 0.004127 -0.008091 0.038196
#
#
# Mechanical properties :
#
#
# Convention : Reuss Voigt Hill
#
# Bulk Modulus (GPa) = 26.02612 61.78091 43.90351
# Shear Modulus (GPa) = 25.74897 40.28580 33.01738
#
# Velocity S-wave (km/s) = 3.18306 3.98144 3.60442
# Velocity P-wave (km/s) = 4.87340 6.74135 5.88200
#
# Compressibility (1/GPa) = 0.03842294
#
# Stress axis : x y z
#
# Youngs Moduli (GPa) = 20.70241 104.70947 131.38077
#
# Poissons Ratio (x) = 0.59081 0.71909
# Poissons Ratio (y) = 0.11681 0.31603
# Poissons Ratio (z) = 0.11331 0.25187
#
# Static dielectric constant tensor:
#      x y z
#    x 2.030680 0.022650 -0.018700 
#    y 0.022650 2.058740 0.041290 
#    z -0.018700 0.041290 1.978540 
# 
# From -- ./inp_files/426981.got.cif
#   From: 2010.05.17/outbox.cif.g08.bks.cpg/sg2_214_cif.got.tgz:426981.got - 2010.06.03 11:33:40.
