data_PCOD9018594
_publ_section_title
;
Structure prediction by ZEFSAII (Michael W. Deem and Ramdas Pophale) SiO2 
 PCOD9018594
Probable space group: P -1
;
_chemical_formula_sum "Si O2"
_cell_formula_units_Z 10
_cell_length_a 5.791164
_cell_length_b 9.634435
_cell_length_c 12.185156
_cell_angle_alpha 57.006046
_cell_angle_beta 96.177122
_cell_angle_gamma 57.984796
_cell_volume 401.469800
_symmetry_space_group_name_H-M "P -1"
_symmetry_group_IT_number 2
_symmetry_cell_setting 'triclinic'
loop_
_space_group_symop_operation_xyz
x,y,z
-x,-y,-z
loop_
_atom_site_type_symbol
_atom_site_label
_atom_site_fract_x
_atom_site_fract_y
_atom_site_fract_z
Si Si1 0.201213 0.009637 0.089098
Si Si2 0.482227 0.808091 0.589769
Si Si3 0.725976 0.513217 0.931736
Si Si4 0.916241 0.642502 0.322591
Si Si5 0.204472 0.782253 0.387524
O O1 0.242017 0.922767 0.253450
O O2 0.418101 0.191578 0.834991
O O3 0.965387 0.281995 0.969940
O O4 0.000000 0.000000 0.000000
O O5 0.491038 0.739148 0.744099
O O6 0.218882 0.838428 0.488173
O O7 0.810543 0.571352 0.650650
O O8 0.500000 0.000000 0.500000
O O9 0.500000 0.500000 0.000000
O O10 0.000000 0.500000 0.000000
O O11 0.000000 0.500000 0.500000
O O12 0.916505 0.827504 0.293634
O O13 0.500000 0.500000 0.500000
#
# Coordination Sequence:
#
# PCOD9018594 Si02
#       5
#     2   2   2   2   2
#     4  12  26  47  78 114 156 207 264 338 399 478
#     4  11  25  50  81 119 157 217 270 333 403 492
#     4  12  32  54  77 119 170 215 269 340 418 477
#     4  11  24  44  81 113 154 202 273 326 404 482
#     4  10  21  43  72 110 147 200 260 319 388 485
#
# _framework density 24.908476
#
# number of rings (size 3 to 8) (size 9 to 14) (size 15 to 20)
#    0.000    0.800    4.000    3.600    5.600    1.600 
#    0.000    3.000    0.000    0.000    0.000    0.000 
#    0.000    0.000    0.000    0.000    0.000    0.000 
#
# Total GULP energy -55744.182823 kJ/mol
# GULP energy per Si atom -5574.418282 kJ/mol
# Density = 2.485178 g / cm^3
# Si number density = 24.908476 Si / 1000 Ang^3
#
#
#
# Elastic Constant Matrix: (Units=GPa)
#
#
# Indices 1 2 3 4 5 6 
#
# 1 151.4375 67.1077 46.8196 1.3808 36.3050 15.6026
# 2 67.1077 169.5865 34.2613 -8.0529 14.9732 27.4848
# 3 46.8196 34.2613 173.8361 1.1407 -0.7832 1.9383
# 4 1.3808 -8.0529 1.1407 42.7411 -1.2454 7.0749
# 5 36.3050 14.9732 -0.7832 -1.2454 66.9968 4.1489
# 6 15.6026 27.4848 1.9383 7.0749 4.1489 56.3057
#
#
#
# Elastic Compliance Matrix: (Units=1/GPa)
#
#
# Indices 1 2 3 4 5 6 
#
# 1 0.009732 -0.002950 -0.002047 -0.000827 -0.004608 -0.000743
# 2 -0.002950 0.007832 -0.000727 0.002131 0.000081 -0.003255
# 3 -0.002047 -0.000727 0.006448 -0.000311 0.001301 0.000643
# 4 -0.000827 0.002131 -0.000311 0.024503 0.000667 -0.003929
# 5 -0.004608 0.000081 0.001301 0.000667 0.017444 -0.000176
# 6 -0.000743 -0.003255 0.000643 -0.003929 -0.000176 0.020039
#
#
# Mechanical properties :
#
#
# Convention : Reuss Voigt Hill
#
# Bulk Modulus (GPa) = 79.57964 87.91526 83.74745
# Shear Modulus (GPa) = 49.19684 56.32015 52.75849
#
# Velocity S-wave (km/s) = 4.44904 4.76024 4.60727
# Velocity P-wave (km/s) = 7.64265 8.09847 7.87386
#
# Compressibility (1/GPa) = 0.01256603
#
# Stress axis : x y z
#
# Youngs Moduli (GPa) = 102.75351 127.67747 155.09245
#
# Poissons Ratio (x) = 0.37659 0.31745
# Poissons Ratio (y) = 0.30308 0.11269
# Poissons Ratio (z) = 0.21032 0.09277
#
# Static dielectric constant tensor:
#      x y z
#    x 2.523610 0.040660 -0.318180 
#    y 0.040660 1.985280 -0.127200 
#    z -0.318180 -0.127200 2.273640 
# 
# From -- ./inp_files/143806.got.cif
#   From: 2010.05.17/outbox.cif.g08.bks.cpg/sg2_72_cif.got.tgz:143806.got - 2010.06.03 11:33:40.
