data_PCOD9018791
_publ_section_title
;
Structure prediction by ZEFSAII (Michael W. Deem and Ramdas Pophale) SiO2 
 PCOD9018791
Probable space group: P -1
;
_chemical_formula_sum "Si O2"
_cell_formula_units_Z 14
_cell_length_a 5.606373
_cell_length_b 29.741800
_cell_length_c 9.199997
_cell_angle_alpha 149.818355
_cell_angle_beta 123.590920
_cell_angle_gamma 47.200959
_cell_volume 563.464258
_symmetry_space_group_name_H-M "P -1"
_symmetry_group_IT_number 2
_symmetry_cell_setting 'triclinic'
loop_
_space_group_symop_operation_xyz
x,y,z
-x,-y,-z
loop_
_atom_site_type_symbol
_atom_site_label
_atom_site_fract_x
_atom_site_fract_y
_atom_site_fract_z
Si Si1 0.071416 0.932391 0.976130
Si Si2 0.687525 0.925371 0.170274
Si Si3 0.329770 0.899546 0.470897
Si Si4 0.763985 0.507022 0.807106
Si Si5 0.085019 0.752574 0.591693
Si Si6 0.715920 0.673364 0.080779
Si Si7 0.675624 0.598195 0.542339
O O1 0.098616 0.822941 0.663858
O O2 0.405448 0.910490 0.106174
O O3 0.000000 0.000000 0.000000
O O4 0.792845 0.008242 0.199338
O O5 0.021314 0.900995 0.292670
O O6 0.508376 0.049839 0.435943
O O7 0.803855 0.837509 0.837247
O O8 0.511592 0.793083 0.314224
O O9 0.526532 0.462499 0.653553
O O10 0.017967 0.450153 0.600105
O O11 0.565150 0.620352 0.987117
O O12 0.000000 0.500000 0.000000
O O13 0.405668 0.697837 0.645221
O O14 0.015951 0.667172 0.258816
O O15 0.777769 0.624233 0.804560
#
# Coordination Sequence:
#
# PCOD9018791 Si02
#       7
#     2   2   2   2   2   2   2
#     4  11  23  40  65 105 147 194 250 306 374 447
#     4  10  21  44  64 102 147 187 245 304 371 438
#     4  10  22  41  68 100 142 191 244 303 369 447
#     4  12  28  54  83 109 158 194 253 323 390 446
#     4  11  25  44  73 103 149 195 251 310 376 456
#     4  12  25  48  77 108 148 201 257 307 389 457
#     4  12  28  54  76 117 150 201 249 325 380 456
#
# _framework density 24.846295999999999
#
# number of rings (size 3 to 8) (size 9 to 14) (size 15 to 20)
#    0.000    0.857    2.857    3.429    2.000    3.429 
#   12.857    0.000    0.000    0.000    0.000    0.000 
#    0.000    0.000    0.000    0.000    0.000    0.000 
#
# Total GULP energy -78138.390304 kJ/mol
# GULP energy per Si atom -5581.313593 kJ/mol
# Density = 2.478974 g / cm^3
# Si number density = 24.846296 Si / 1000 Ang^3
#
#
#
# Elastic Constant Matrix: (Units=GPa)
#
#
# Indices 1 2 3 4 5 6 
#
# 1 78.1142 20.8255 41.4468 9.7627 15.9454 3.0180
# 2 20.8255 119.8199 38.4459 6.0426 10.8104 14.1347
# 3 41.4468 38.4459 113.0714 -11.4709 10.3052 4.7091
# 4 9.7627 6.0426 -11.4709 60.1592 4.7609 6.6767
# 5 15.9454 10.8104 10.3052 4.7609 30.6664 3.9930
# 6 3.0180 14.1347 4.7091 6.6767 3.9930 30.6781
#
#
#
# Elastic Compliance Matrix: (Units=1/GPa)
#
#
# Indices 1 2 3 4 5 6 
#
# 1 0.018024 -0.000464 -0.006257 -0.003661 -0.006676 0.001067
# 2 -0.000464 0.010033 -0.003037 -0.000972 -0.001644 -0.003685
# 3 -0.006257 -0.003037 0.012627 0.003840 -0.000424 -0.000704
# 4 -0.003661 -0.000972 0.003840 0.018565 -0.001453 -0.003632
# 5 -0.006676 -0.001644 -0.000424 -0.001453 0.037429 -0.003076
# 6 0.001067 -0.003685 -0.000704 -0.003632 -0.003076 0.035489
#
#
# Mechanical properties :
#
#
# Convention : Reuss Voigt Hill
#
# Bulk Modulus (GPa) = 47.23587 56.93799 52.08693
# Shear Modulus (GPa) = 31.49847 38.31987 34.90917
#
# Velocity S-wave (km/s) = 3.56439 3.93144 3.75241
# Velocity P-wave (km/s) = 5.99936 6.60107 6.30740
#
# Compressibility (1/GPa) = 0.02117035
#
# Stress axis : x y z
#
# Youngs Moduli (GPa) = 55.48024 99.67159 79.19343
#
# Poissons Ratio (x) = 0.04626 0.49548
# Poissons Ratio (y) = 0.02575 0.24047
# Poissons Ratio (z) = 0.34711 0.30266
#
# Static dielectric constant tensor:
#      x y z
#    x 0.673040 -1.354580 0.012160 
#    y -1.354580 0.640630 0.010860 
#    z 0.012160 0.010860 1.993170 
# 
# From -- ./inp_files/143462.got.cif
#   From: 2010.05.17/outbox.cif.g08.bks.cpg/sg2_72_cif.got.tgz:143462.got - 2010.06.03 11:33:40.
