data_PCOD9018086
_publ_section_title
;
Structure prediction by ZEFSAII (Michael W. Deem and Ramdas Pophale) SiO2 
 PCOD9018086
Probable space group: P -1
;
_chemical_formula_sum "Si O2"
_cell_formula_units_Z 16
_cell_length_a 9.280017
_cell_length_b 21.999652
_cell_length_c 22.884743
_cell_angle_alpha 18.710157
_cell_angle_beta 147.164989
_cell_angle_gamma 138.071691
_cell_volume 775.688419
_symmetry_space_group_name_H-M "P -1"
_symmetry_group_IT_number 2
_symmetry_cell_setting 'triclinic'
loop_
_space_group_symop_operation_xyz
x,y,z
-x,-y,-z
loop_
_atom_site_type_symbol
_atom_site_label
_atom_site_fract_x
_atom_site_fract_y
_atom_site_fract_z
Si Si1 0.177330 0.603185 0.633190
Si Si2 0.532192 0.462022 0.772248
Si Si3 0.414689 0.693485 0.754181
Si Si4 0.283225 0.162690 0.902708
Si Si5 0.194954 0.957877 0.891391
Si Si6 0.923892 0.876393 0.754520
Si Si7 0.214814 0.663298 0.270343
Si Si8 0.324034 0.790330 0.321928
O O1 0.405349 0.566303 0.693618
O O2 0.309602 0.623683 0.721786
O O3 0.038200 0.427341 0.741475
O O4 0.932456 0.808669 0.355025
O O5 0.561679 0.627194 0.585539
O O6 0.314851 0.365844 0.754019
O O7 0.807671 0.278922 0.041175
O O8 0.676765 0.776894 0.757454
O O9 0.179011 0.895868 0.510792
O O10 0.500000 0.500000 0.000000
O O11 0.496202 0.100410 0.978248
O O12 0.383525 0.994645 0.140375
O O13 0.963613 0.174607 0.772130
O O14 0.012873 0.896221 0.834250
O O15 0.181127 0.839494 0.052760
O O16 0.500000 0.500000 0.500000
O O17 0.252361 0.717915 0.300225
#
# Coordination Sequence:
#
# PCOD9018086 Si02
#       8
#     2   2   2   2   2   2   2   2
#     4  11  25  39  61  95 121 159 206 257 311 356
#     4  11  23  40  62  88 131 160 202 257 303 363
#     4  10  21  43  68  88 118 152 201 256 311 375
#     4  10  22  40  57  84 121 174 214 242 299 354
#     4  10  23  39  62  88 127 159 208 257 298 358
#     4   9  21  41  64  91 116 160 198 245 317 375
#     4  12  24  37  59  92 123 167 215 253 293 357
#     4  11  24  37  60  86 126 172 211 245 301 357
#
# _framework density 20.626839
#
# number of rings (size 3 to 8) (size 9 to 14) (size 15 to 20)
#    0.000    1.500    1.250    3.375    5.250    4.500 
#    0.000    0.625    0.000    0.000    0.000    0.000 
#    0.000    0.000    0.000    0.000    0.000    0.000 
#
# Total GULP energy -89449.300455 kJ/mol
# GULP energy per Si atom -5590.581278 kJ/mol
# Density = 2.057989 g / cm^3
# Si number density = 20.626839 Si / 1000 Ang^3
#
#
#
# Elastic Constant Matrix: (Units=GPa)
#
#
# Indices 1 2 3 4 5 6 
#
# 1 92.7650 10.4573 54.1846 1.0712 1.4648 -18.3183
# 2 10.4573 47.6307 27.2052 3.1450 -9.6418 -6.0590
# 3 54.1846 27.2052 144.6722 -2.5304 -15.9984 -17.7596
# 4 1.0712 3.1450 -2.5304 29.5377 2.7844 2.6706
# 5 1.4648 -9.6418 -15.9984 2.7844 40.9444 -5.8698
# 6 -18.3183 -6.0590 -17.7596 2.6706 -5.8698 26.1195
#
#
#
# Elastic Compliance Matrix: (Units=1/GPa)
#
#
# Indices 1 2 3 4 5 6 
#
# 1 0.015122 0.000287 -0.005014 -0.001529 -0.001307 0.007125
# 2 0.000287 0.025042 -0.003646 -0.003972 0.005473 0.005167
# 3 -0.005014 -0.003646 0.010331 0.000787 0.003796 0.003435
# 4 -0.001529 -0.003972 0.000787 0.035297 -0.003823 -0.005927
# 5 -0.001307 0.005473 0.003796 -0.003823 0.028910 0.009822
# 6 0.007125 0.005167 0.003435 -0.005927 0.009822 0.049630
#
#
# Mechanical properties :
#
#
# Convention : Reuss Voigt Hill
#
# Bulk Modulus (GPa) = 29.63229 52.08468 40.85849
# Shear Modulus (GPa) = 25.99712 32.20170 29.09941
#
# Velocity S-wave (km/s) = 3.55400 3.95543 3.76008
# Velocity P-wave (km/s) = 5.58912 6.79458 6.22112
#
# Compressibility (1/GPa) = 0.03374697
#
# Stress axis : x y z
#
# Youngs Moduli (GPa) = 66.13014 39.93279 96.79543
#
# Poissons Ratio (x) = -0.01145 0.48535
# Poissons Ratio (y) = -0.01896 0.35296
# Poissons Ratio (z) = 0.33159 0.14561
#
# Static dielectric constant tensor:
#      x y z
#    x 1.737220 -0.002200 0.024390 
#    y -0.002200 1.740100 -0.012220 
#    z 0.024390 -0.012220 1.786720 
# 
# From -- ./inp_files/299723.got.cif
#   From: 2010.05.17/outbox.cif.g08.bks.cpg/sg2_150_cif.got.tgz:299723.got - 2010.06.03 11:33:40.
