data_PCOD9018700
_publ_section_title
;
Structure prediction by ZEFSAII (Michael W. Deem and Ramdas Pophale) SiO2 
 PCOD9018700
Probable space group: P -1
;
_chemical_formula_sum "Si O2"
_cell_formula_units_Z 12
_cell_length_a 5.233474
_cell_length_b 9.774842
_cell_length_c 11.740818
_cell_angle_alpha 50.884964
_cell_angle_beta 73.846266
_cell_angle_gamma 93.283869
_cell_volume 425.209050
_symmetry_space_group_name_H-M "P -1"
_symmetry_group_IT_number 2
_symmetry_cell_setting 'triclinic'
loop_
_space_group_symop_operation_xyz
x,y,z
-x,-y,-z
loop_
_atom_site_type_symbol
_atom_site_label
_atom_site_fract_x
_atom_site_fract_y
_atom_site_fract_z
Si Si1 0.013871 0.547127 0.699471
Si Si2 0.593537 0.290573 0.617704
Si Si3 0.467045 0.683083 0.969150
Si Si4 0.074244 0.141190 0.593003
Si Si5 0.288000 0.840480 0.684783
Si Si6 0.704314 0.874522 0.049588
O O1 0.193629 0.535536 0.569155
O O2 0.214756 0.654641 0.718517
O O3 0.870995 0.701542 0.594028
O O4 0.796236 0.378253 0.877414
O O5 0.456832 0.290562 0.756388
O O6 0.336450 0.198560 0.614662
O O7 0.795482 0.163431 0.670422
O O8 0.391525 0.803033 0.814939
O O9 0.713580 0.781126 0.975865
O O10 0.500000 0.500000 0.000000
O O11 0.039010 0.933008 0.669412
O O12 0.500000 0.000000 0.500000
O O13 0.500000 0.000000 0.000000
O O14 0.000000 0.000000 0.000000
#
# Coordination Sequence:
#
# PCOD9018700 Si02
#       6
#     2   2   2   2   2   2
#     4  10  25  44  77 115 171 206 277 336 419 481
#     4  10  23  44  79 110 154 211 276 327 410 473
#     4  12  30  51  80 127 170 218 273 352 423 484
#     4  10  21  43  75 116 157 213 276 324 405 493
#     4  12  22  44  78 116 169 222 276 328 416 501
#     4  12  29  54  83 120 166 219 280 341 410 505
#
# _framework density 28.221416999999999
#
# number of rings (size 3 to 8) (size 9 to 14) (size 15 to 20)
#    1.000    0.000    1.667    4.000    0.000    7.333 
#    0.000    0.833    0.000    0.000    0.000    0.000 
#    0.000    0.000    0.000    0.000    0.000    0.000 
#
# Total GULP energy -67222.190285 kJ/mol
# GULP energy per Si atom -5601.849190 kJ/mol
# Density = 2.815718 g / cm^3
# Si number density = 28.221417 Si / 1000 Ang^3
#
#
#
# Elastic Constant Matrix: (Units=GPa)
#
#
# Indices 1 2 3 4 5 6 
#
# 1 160.9377 53.4419 62.8423 3.5099 20.5173 17.0064
# 2 53.4419 161.2462 52.5330 15.2973 20.2701 24.7487
# 3 62.8423 52.5330 248.3013 32.7437 -2.8469 -0.8509
# 4 3.5099 15.2973 32.7437 40.1474 -0.6778 17.9031
# 5 20.5173 20.2701 -2.8469 -0.6778 53.5625 -9.5139
# 6 17.0064 24.7487 -0.8509 17.9031 -9.5139 50.4338
#
#
#
# Elastic Compliance Matrix: (Units=1/GPa)
#
#
# Indices 1 2 3 4 5 6 
#
# 1 0.008367 -0.001248 -0.002365 0.003463 -0.003551 -0.004148
# 2 -0.001248 0.008185 -0.001477 0.000050 -0.003460 -0.004291
# 3 -0.002365 -0.001477 0.005731 -0.005690 0.002425 0.004096
# 4 0.003463 0.000050 -0.005690 0.035710 -0.003804 -0.014682
# 5 -0.003551 -0.003460 0.002425 -0.003804 0.022951 0.008616
# 6 -0.004148 -0.004291 0.004096 -0.014682 0.008616 0.030239
#
#
# Mechanical properties :
#
#
# Convention : Reuss Voigt Hill
#
# Bulk Modulus (GPa) = 82.62426 100.90221 91.76323
# Shear Modulus (GPa) = 39.87338 55.60661 47.74000
#
# Velocity S-wave (km/s) = 3.76290 4.44370 4.11740
# Velocity P-wave (km/s) = 6.94406 7.88416 7.42900
#
# Compressibility (1/GPa) = 0.01210298
#
# Stress axis : x y z
#
# Youngs Moduli (GPa) = 119.51564 122.17110 174.50117
#
# Poissons Ratio (x) = 0.15246 0.41273
# Poissons Ratio (y) = 0.14915 0.25771
# Poissons Ratio (z) = 0.28268 0.18043
#
# Static dielectric constant tensor:
#      x y z
#    x 2.226850 -0.023830 -0.076190 
#    y -0.023830 2.224780 -0.039510 
#    z -0.076190 -0.039510 2.249680 
# 
# From -- ./inp_files/29929.got.cif
#   From: 2010.05.17/outbox.cif.g08.bks.cpg/sg2_15_cif.got.tgz:29929.got - 2010.06.03 11:33:40.
