data_PCOD9018028
_publ_section_title
;
Structure prediction by ZEFSAII (Michael W. Deem and Ramdas Pophale) SiO2 
 PCOD9018028
Probable space group: P -1
;
_chemical_formula_sum "Si O2"
_cell_formula_units_Z 13
_cell_length_a 6.708828
_cell_length_b 6.055413
_cell_length_c 22.574114
_cell_angle_alpha 55.354062
_cell_angle_beta 135.649268
_cell_angle_gamma 108.789554
_cell_volume 521.685337
_symmetry_space_group_name_H-M "P -1"
_symmetry_group_IT_number 2
_symmetry_cell_setting 'triclinic'
loop_
_space_group_symop_operation_xyz
x,y,z
-x,-y,-z
loop_
_atom_site_type_symbol
_atom_site_label
_atom_site_fract_x
_atom_site_fract_y
_atom_site_fract_z
Si Si1 0.295908 0.032912 0.589586
Si Si2 0.500000 0.500000 0.500000
Si Si3 0.291422 0.780386 0.923988
Si Si4 0.092730 0.664698 0.777709
Si Si5 0.638576 0.435242 0.775392
Si Si6 0.334173 0.732942 0.067528
Si Si7 0.120747 0.206193 0.649458
O O1 0.485625 0.183927 0.563148
O O2 0.229614 0.225134 0.603088
O O3 0.461499 0.739625 0.689724
O O4 0.000000 0.000000 0.500000
O O5 0.852138 0.424358 0.576432
O O6 0.084758 0.803648 0.820014
O O7 0.499944 0.007745 0.931730
O O8 0.500000 0.500000 0.000000
O O9 0.155221 0.774826 0.961846
O O10 0.407520 0.510656 0.853403
O O11 0.871783 0.448332 0.770719
O O12 0.037247 0.904739 0.682890
O O13 0.791334 0.337733 0.885047
O O14 0.399142 0.241844 0.742502
#
# Coordination Sequence:
#
# PCOD9018028 Si02
#       7
#     2   1   2   2   2   2   2
#     4  12  27  46  67  98 133 175 225 282 341 400
#     4  12  26  46  70  96 134 178 220 282 342 392
#     4   9  20  41  70  98 138 175 217 274 329 391
#     4  11  23  42  68  99 136 178 218 275 333 390
#     4  12  25  41  69 100 131 178 228 271 335 398
#     4  10  21  43  67  99 138 175 221 276 325 396
#     4  12  26  45  67 101 136 173 228 281 331 405
#
# _framework density 24.919238
#
# number of rings (size 3 to 8) (size 9 to 14) (size 15 to 20)
#    0.000    0.923    6.154    0.462    0.000    4.923 
#    0.000    6.923    0.000    0.000    0.000    0.000 
#    0.000    0.000    0.000    0.000    0.000    0.000 
#
# Total GULP energy -72469.373313 kJ/mol
# GULP energy per Si atom -5574.567178 kJ/mol
# Density = 2.486252 g / cm^3
# Si number density = 24.919238 Si / 1000 Ang^3
#
#
#
# Elastic Constant Matrix: (Units=GPa)
#
#
# Indices 1 2 3 4 5 6 
#
# 1 59.3333 2.0612 -5.3343 4.2448 -0.6996 29.7495
# 2 2.0612 58.6917 8.4794 -5.4320 -15.5103 9.1360
# 3 -5.3343 8.4794 52.2913 -2.5937 -14.4812 6.9235
# 4 4.2448 -5.4320 -2.5937 41.1002 10.2402 -6.3656
# 5 -0.6996 -15.5103 -14.4812 10.2402 35.8803 -16.8080
# 6 29.7495 9.1360 6.9235 -6.3656 -16.8080 30.4722
#
#
#
# Elastic Compliance Matrix: (Units=1/GPa)
#
#
# Indices 1 2 3 4 5 6 
#
# 1 0.052314 0.000237 0.006826 -0.009186 -0.025734 -0.068808
# 2 0.000237 0.019342 -0.000905 0.000441 0.006998 -0.001873
# 3 0.006826 -0.000905 0.022496 -0.002099 0.005159 -0.009098
# 4 -0.009186 0.000441 -0.002099 0.027929 -0.002307 0.013875
# 5 -0.025734 0.006998 0.005159 -0.002307 0.058178 0.053462
# 6 -0.068808 -0.001873 -0.009098 0.013875 0.053462 0.135009
#
#
# Mechanical properties :
#
#
# Convention : Reuss Voigt Hill
#
# Bulk Modulus (GPa) = 9.39250 20.08099 14.73674
# Shear Modulus (GPa) = 14.77364 32.49786 23.63575
#
# Velocity S-wave (km/s) = 2.43752 3.61519 3.08310
# Velocity P-wave (km/s) = 3.42043 5.04995 4.31285
#
# Compressibility (1/GPa) = 0.10646795
#
# Stress axis : x y z
#
# Youngs Moduli (GPa) = 19.11550 51.70061 44.45289
#
# Poissons Ratio (x) = -0.01223 -0.30345
# Poissons Ratio (y) = -0.00452 0.04022
# Poissons Ratio (z) = -0.13049 0.04677
#
# Static dielectric constant tensor:
#      x y z
#    x 1.846650 -0.170240 0.196950 
#    y -0.170240 1.862650 0.296700 
#    z 0.196950 0.296700 1.593510 
# 
# From -- ./inp_files/4410.got.cif
#   From: 2010.05.17/outbox.cif.g08.bks.cpg/sg2_3_cif.got.tgz:4410.got - 2010.06.03 11:33:40.
