data_PCOD9018927
_publ_section_title
;
Structure prediction by ZEFSAII (Michael W. Deem and Ramdas Pophale) SiO2 
 PCOD9018927
Probable space group: P -1
;
_chemical_formula_sum "Si O2"
_cell_formula_units_Z 16
_cell_length_a 12.912089
_cell_length_b 13.448183
_cell_length_c 9.494441
_cell_angle_alpha 78.815537
_cell_angle_beta 77.985390
_cell_angle_gamma 147.057602
_cell_volume 632.080444
_symmetry_space_group_name_H-M "P -1"
_symmetry_group_IT_number 2
_symmetry_cell_setting 'triclinic'
loop_
_space_group_symop_operation_xyz
x,y,z
-x,-y,-z
loop_
_atom_site_type_symbol
_atom_site_label
_atom_site_fract_x
_atom_site_fract_y
_atom_site_fract_z
Si Si1 0.765804 0.076099 0.501039
Si Si2 0.719323 0.793323 0.004157
Si Si3 0.872415 0.515546 0.465819
Si Si4 0.737489 0.685360 0.277434
Si Si5 0.002980 0.610398 0.889501
Si Si6 0.876478 0.800188 0.690657
Si Si7 0.703337 0.264295 0.828884
Si Si8 0.733928 0.482775 0.222651
O O1 0.921633 0.252887 0.545799
O O2 0.909048 0.100427 0.398105
O O3 0.476203 0.783360 0.698982
O O4 0.767476 0.157576 0.349400
O O5 0.811725 0.794509 0.859137
O O6 0.764944 0.813667 0.150595
O O7 0.399233 0.504600 0.175078
O O8 0.964210 0.086762 0.822924
O O9 0.645756 0.273351 0.699328
O O10 0.768776 0.492293 0.375619
O O11 0.026333 0.559470 0.331834
O O12 0.500000 0.500000 0.500000
O O13 0.645592 0.521208 0.234201
O O14 0.977300 0.672412 0.999994
O O15 0.760471 0.390050 0.905901
O O16 0.000000 0.500000 0.000000
O O17 0.000000 0.000000 0.500000
O O18 0.500000 0.000000 0.000000
#
# Coordination Sequence:
#
# PCOD9018927 Si02
#       8
#     2   2   2   2   2   2   2   2
#     4  11  26  44  66 101 140 175 233 283 341 419
#     4  10  23  42  68  97 135 177 231 284 340 419
#     4  10  24  41  64 102 130 171 233 276 342 415
#     4  11  24  44  67 101 136 178 230 287 346 412
#     4  11  24  45  66  99 134 178 227 282 348 406
#     4  11  23  44  69  98 138 184 225 285 353 407
#     4  10  21  44  66  93 134 173 221 288 340 405
#     4  12  25  43  71  98 136 181 228 282 348 413
#
# _framework density 25.313234000000001
#
# number of rings (size 3 to 8) (size 9 to 14) (size 15 to 20)
#    0.000    1.250    1.250    3.750    5.250    2.500 
#    4.500    0.000    0.000    0.000    0.000    0.000 
#    0.000    0.000    0.000    0.000    0.000    0.000 
#
# Total GULP energy -89188.573008 kJ/mol
# GULP energy per Si atom -5574.285813 kJ/mol
# Density = 2.525562 g / cm^3
# Si number density = 25.313234 Si / 1000 Ang^3
#
#
#
# Elastic Constant Matrix: (Units=GPa)
#
#
# Indices 1 2 3 4 5 6 
#
# 1 61.1419 -5.9708 35.3647 2.8459 5.9688 -11.6224
# 2 -5.9708 81.9004 47.9534 -16.6814 11.2173 -3.4224
# 3 35.3647 47.9534 166.6871 0.6774 6.6143 4.3883
# 4 2.8459 -16.6814 0.6774 47.0723 0.7436 2.0102
# 5 5.9688 11.2173 6.6143 0.7436 27.7340 1.5293
# 6 -11.6224 -3.4224 4.3883 2.0102 1.5293 31.8284
#
#
#
# Elastic Compliance Matrix: (Units=1/GPa)
#
#
# Indices 1 2 3 4 5 6 
#
# 1 0.024069 0.007690 -0.007326 0.001023 -0.007172 0.010906
# 2 0.007690 0.019670 -0.007139 0.006489 -0.008408 0.005902
# 3 -0.007326 -0.007139 0.009642 -0.002061 0.002482 -0.004761
# 4 0.001023 0.006489 -0.002061 0.023558 -0.002985 0.000011
# 5 -0.007172 -0.008408 0.002482 -0.002985 0.040800 -0.005637
# 6 0.010906 0.005902 -0.004761 0.000011 -0.005637 0.036962
#
#
# Mechanical properties :
#
#
# Convention : Reuss Voigt Hill
#
# Bulk Modulus (GPa) = 25.10401 51.60266 38.35334
# Shear Modulus (GPa) = 27.54403 36.81910 32.18157
#
# Velocity S-wave (km/s) = 3.30226 3.81798 3.56944
# Velocity P-wave (km/s) = 4.94760 6.31394 5.67206
#
# Compressibility (1/GPa) = 0.03983427
#
# Stress axis : x y z
#
# Youngs Moduli (GPa) = 41.54669 50.83837 103.70879
#
# Poissons Ratio (x) = -0.39097 0.75974
# Poissons Ratio (y) = -0.31951 0.74033
# Poissons Ratio (z) = 0.30436 0.36291
#
# Static dielectric constant tensor:
#      x y z
#    x 2.227070 -0.031990 0.105590 
#    y -0.031990 2.198400 -0.153800 
#    z 0.105590 -0.153800 2.066060 
# 
# From -- ./inp_files/315079.got.cif
#   From: 2010.05.17/outbox.cif.g08.bks.cpg/sg2_158_cif.got.tgz:315079.got - 2010.06.03 11:33:40.
