data_PCOD9018676
_publ_section_title
;
Structure prediction by ZEFSAII (Michael W. Deem and Ramdas Pophale) SiO2 
 PCOD9018676
Probable space group: P -1
;
_chemical_formula_sum "Si O2"
_cell_formula_units_Z 15
_cell_length_a 9.598633
_cell_length_b 16.152733
_cell_length_c 13.202497
_cell_angle_alpha 35.109194
_cell_angle_beta 145.624230
_cell_angle_gamma 150.258697
_cell_volume 534.443419
_symmetry_space_group_name_H-M "P -1"
_symmetry_group_IT_number 2
_symmetry_cell_setting 'triclinic'
loop_
_space_group_symop_operation_xyz
x,y,z
-x,-y,-z
loop_
_atom_site_type_symbol
_atom_site_label
_atom_site_fract_x
_atom_site_fract_y
_atom_site_fract_z
Si Si1 0.297639 0.792780 0.212360
Si Si2 0.065335 0.043466 0.661079
Si Si3 0.500000 0.500000 0.000000
Si Si4 0.130322 0.583930 0.726311
Si Si5 0.443875 0.344664 0.336600
Si Si6 0.932777 0.649646 0.743215
Si Si7 0.401953 0.111784 0.078051
Si Si8 0.106490 0.873287 0.314161
O O1 0.575226 0.870742 0.221408
O O2 0.976377 0.624356 0.142134
O O3 0.363462 0.702232 0.433790
O O4 0.298032 0.951063 0.098394
O O5 0.947068 0.061218 0.678950
O O6 0.030557 0.168827 0.442461
O O7 0.860914 0.844415 0.695357
O O8 0.476181 0.657698 0.880079
O O9 0.420401 0.547953 0.791563
O O10 0.923744 0.564907 0.715728
O O11 0.106183 0.704411 0.510735
O O12 0.346550 0.438665 0.259879
O O13 0.257008 0.720972 0.914293
O O14 0.170864 0.163720 0.882877
O O15 0.396217 0.024890 0.269702
#
# Coordination Sequence:
#
# PCOD9018676 Si02
#       8
#     2   2   1   2   2   2   2   2
#     4  11  23  46  76 103 142 183 244 283 358 405
#     4  10  21  43  74 106 136 187 235 297 336 417
#     4  12  30  44  70 104 148 184 234 284 378 408
#     4  11  28  47  68 106 143 190 223 306 351 421
#     4  11  23  45  72 108 141 188 230 295 342 430
#     4  10  22  44  74 102 137 187 241 282 355 406
#     4  11  22  42  71 104 137 192 239 290 337 431
#     4  10  26  41  69 104 146 180 242 287 356 407
#
# _framework density 28.066582
#
# number of rings (size 3 to 8) (size 9 to 14) (size 15 to 20)
#    0.000    1.333    2.667    1.600    3.733   12.267 
#    0.000    0.000    0.000    0.000    0.000    0.000 
#    0.000    0.000    0.000    0.000    0.000    0.000 
#
# Total GULP energy -83862.529513 kJ/mol
# GULP energy per Si atom -5590.835301 kJ/mol
# Density = 2.800270 g / cm^3
# Si number density = 28.066582 Si / 1000 Ang^3
#
#
#
# Elastic Constant Matrix: (Units=GPa)
#
#
# Indices 1 2 3 4 5 6 
#
# 1 111.5681 -3.4402 24.2800 -12.8239 -3.7984 9.8132
# 2 -3.4402 60.7200 6.3181 -16.2836 3.8128 -8.9615
# 3 24.2800 6.3181 178.1835 -2.6357 9.6032 -9.0418
# 4 -12.8239 -16.2836 -2.6357 25.7598 -5.1155 10.7797
# 5 -3.7984 3.8128 9.6032 -5.1155 47.4835 -2.1600
# 6 9.8132 -8.9615 -9.0418 10.7797 -2.1600 30.8773
#
#
#
# Elastic Compliance Matrix: (Units=1/GPa)
#
#
# Indices 1 2 3 4 5 6 
#
# 1 0.011305 0.002451 -0.001927 0.010237 0.001887 -0.006888
# 2 0.002451 0.020469 -0.000865 0.014122 0.000249 -0.000005
# 3 -0.001927 -0.000865 0.006094 -0.002371 -0.001442 0.002873
# 4 0.010237 0.014122 -0.002371 0.062706 0.005950 -0.021325
# 5 0.001887 0.000249 -0.001442 0.005950 0.022056 -0.001484
# 6 -0.006888 -0.000005 0.002873 -0.021325 -0.001484 0.042756
#
#
# Mechanical properties :
#
#
# Convention : Reuss Voigt Hill
#
# Bulk Modulus (GPa) = 26.89115 44.97638 35.93377
# Shear Modulus (GPa) = 28.01709 42.37836 35.19773
#
# Velocity S-wave (km/s) = 3.16292 3.88999 3.54514
# Velocity P-wave (km/s) = 4.78965 6.01961 5.43950
#
# Compressibility (1/GPa) = 0.03718695
#
# Stress axis : x y z
#
# Youngs Moduli (GPa) = 88.45739 48.85481 164.09921
#
# Poissons Ratio (x) = -0.11976 0.31624
# Poissons Ratio (y) = -0.21684 0.14187
# Poissons Ratio (z) = 0.17047 0.04224
#
# Static dielectric constant tensor:
#      x y z
#    x 2.199250 -0.267560 -0.015660 
#    y -0.267560 1.739410 -0.081730 
#    z -0.015660 -0.081730 2.114930 
# 
# From -- ./inp_files/181544.got.cif
#   From: 2010.05.17/outbox.cif.g08.bks.cpg/sg2_91_cif.got.tgz:181544.got - 2010.06.03 11:33:40.
