data_PCOD9018568
_publ_section_title
;
Structure prediction by ZEFSAII (Michael W. Deem and Ramdas Pophale) SiO2 
 PCOD9018568
Probable space group: P -1
;
_chemical_formula_sum "Si O2"
_cell_formula_units_Z 16
_cell_length_a 17.857139
_cell_length_b 11.569419
_cell_length_c 8.694653
_cell_angle_alpha 140.536094
_cell_angle_beta 38.915357
_cell_angle_gamma 138.694050
_cell_volume 664.282068
_symmetry_space_group_name_H-M "P -1"
_symmetry_group_IT_number 2
_symmetry_cell_setting 'triclinic'
loop_
_space_group_symop_operation_xyz
x,y,z
-x,-y,-z
loop_
_atom_site_type_symbol
_atom_site_label
_atom_site_fract_x
_atom_site_fract_y
_atom_site_fract_z
Si Si1 0.177031 0.579219 0.403384
Si Si2 0.077492 0.386443 0.063090
Si Si3 0.606010 0.333942 0.600921
Si Si4 0.088031 0.936485 0.182190
Si Si5 0.690149 0.098662 0.696156
Si Si6 0.369588 0.237595 0.072900
Si Si7 0.468848 0.271597 0.285709
Si Si8 0.793067 0.286900 0.027836
O O1 0.163580 0.441123 0.134551
O O2 0.280298 0.585848 0.371636
O O3 0.229406 0.800198 0.476794
O O4 0.034327 0.526726 0.642372
O O5 0.157602 0.493434 0.894735
O O6 0.999250 0.159314 0.923140
O O7 0.594846 0.529886 0.755013
O O8 0.659273 0.238806 0.282098
O O9 0.475591 0.202710 0.759527
O O10 0.225960 0.108877 0.116899
O O11 0.117884 0.762372 0.042211
O O12 0.000000 0.000000 0.500000
O O13 0.611996 0.867412 0.590262
O O14 0.591391 0.210638 0.998953
O O15 0.780460 0.159601 0.764316
O O16 0.388714 0.204581 0.187272
O O17 0.500000 0.500000 0.500000
#
# Coordination Sequence:
#
# PCOD9018568 Si02
#       8
#     2   2   2   2   2   2   2   2
#     4  10  21  43  72 100 137 176 236 290 346 425
#     4  10  23  43  71  99 131 186 233 282 351 415
#     4  11  23  44  72 102 139 184 229 293 359 412
#     4  12  25  42  66 101 139 181 236 285 339 421
#     4  10  22  43  68 101 138 182 234 285 351 422
#     4  11  25  44  65 107 142 176 232 297 349 419
#     4  11  22  42  68  99 141 182 232 287 353 422
#     4  11  22  43  73  98 129 190 237 281 342 430
#
# _framework density 24.086154000000001
#
# number of rings (size 3 to 8) (size 9 to 14) (size 15 to 20)
#    0.000    1.250    3.750    1.875    1.750    1.500 
#    9.000    0.625    0.000    0.000    0.000    0.000 
#    0.000    0.000    0.000    0.000    0.000    0.000 
#
# Total GULP energy -89504.802053 kJ/mol
# GULP energy per Si atom -5594.050128 kJ/mol
# Density = 2.403133 g / cm^3
# Si number density = 24.086154 Si / 1000 Ang^3
#
#
#
# Elastic Constant Matrix: (Units=GPa)
#
#
# Indices 1 2 3 4 5 6 
#
# 1 49.1350 12.3099 -7.2401 -0.8945 -0.2387 -2.0871
# 2 12.3099 110.4334 27.6897 -4.4511 -1.6625 11.3865
# 3 -7.2401 27.6897 79.6996 -5.8189 -7.3362 -0.3914
# 4 -0.8945 -4.4511 -5.8189 42.4429 7.3497 2.6394
# 5 -0.2387 -1.6625 -7.3362 7.3497 12.7665 -2.7111
# 6 -2.0871 11.3865 -0.3914 2.6394 -2.7111 37.7242
#
#
#
# Elastic Compliance Matrix: (Units=1/GPa)
#
#
# Indices 1 2 3 4 5 6 
#
# 1 0.021859 -0.003521 0.003447 -0.000018 0.002470 0.002487
# 2 -0.003521 0.010923 -0.004286 0.001168 -0.002587 -0.003804
# 3 0.003447 -0.004286 0.015162 0.000061 0.008664 0.002260
# 4 -0.000018 0.001168 0.000061 0.026648 -0.015868 -0.003358
# 5 0.002470 -0.002587 0.008664 -0.015868 0.094038 0.008876
# 6 0.002487 -0.003804 0.002260 -0.003358 0.008876 0.028690
#
#
# Mechanical properties :
#
#
# Convention : Reuss Voigt Hill
#
# Bulk Modulus (GPa) = 25.49402 33.86523 29.67963
# Shear Modulus (GPa) = 22.81899 32.35396 27.58647
#
# Velocity S-wave (km/s) = 3.08131 3.66903 3.38794
# Velocity P-wave (km/s) = 4.82357 5.66035 5.25863
#
# Compressibility (1/GPa) = 0.03922488
#
# Stress axis : x y z
#
# Youngs Moduli (GPa) = 45.74682 91.55204 65.95228
#
# Poissons Ratio (x) = 0.32235 -0.22735
# Poissons Ratio (y) = 0.16107 0.28268
# Poissons Ratio (z) = -0.15770 0.39241
#
# Static dielectric constant tensor:
#      x y z
#    x 1.905840 0.020860 0.000410 
#    y 0.020860 1.925030 0.007840 
#    z 0.000410 0.007840 1.936280 
# 
# From -- ./inp_files/333871.got.cif
#   From: 2010.05.17/outbox.cif.g08.bks.cpg/sg2_167_cif.got.tgz:333871.got - 2010.06.03 11:33:40.
