data_PCOD9018014
_publ_section_title
;
Structure prediction by ZEFSAII (Michael W. Deem and Ramdas Pophale) SiO2 
 PCOD9018014
Probable space group: P -1
;
_chemical_formula_sum "Si O2"
_cell_formula_units_Z 16
_cell_length_a 12.028204
_cell_length_b 7.460645
_cell_length_c 13.626952
_cell_angle_alpha 126.934827
_cell_angle_beta 45.390146
_cell_angle_gamma 99.330733
_cell_volume 619.054226
_symmetry_space_group_name_H-M "P -1"
_symmetry_group_IT_number 2
_symmetry_cell_setting 'triclinic'
loop_
_space_group_symop_operation_xyz
x,y,z
-x,-y,-z
loop_
_atom_site_type_symbol
_atom_site_label
_atom_site_fract_x
_atom_site_fract_y
_atom_site_fract_z
Si Si1 0.560652 0.617657 0.290282
Si Si2 0.046278 0.775017 0.688004
Si Si3 0.141811 0.412816 0.660825
Si Si4 0.944341 0.293220 0.006425
Si Si5 0.940884 0.089413 0.673954
Si Si6 0.533064 0.309195 0.052255
Si Si7 0.648151 0.922907 0.029450
Si Si8 0.463853 0.897420 0.624128
O O1 0.748119 0.378563 0.114725
O O2 0.456858 0.696731 0.484089
O O3 0.604618 0.842789 0.306719
O O4 0.471622 0.572796 0.234111
O O5 0.166093 0.499522 0.565938
O O6 0.038492 0.846976 0.603658
O O7 0.061241 0.009328 0.807411
O O8 0.853083 0.806331 0.842921
O O9 0.072255 0.662841 0.852930
O O10 0.327674 0.216786 0.523899
O O11 0.007799 0.297529 0.719441
O O12 0.000000 0.500000 0.000000
O O13 0.733037 0.206169 0.857682
O O14 0.000000 0.000000 0.500000
O O15 0.419965 0.281595 0.024545
O O16 0.544011 0.137836 0.084120
O O17 0.616797 0.034092 0.195218
#
# Coordination Sequence:
#
# PCOD9018014 Si02
#       8
#     2   2   2   2   2   2   2   2
#     4  10  21  43  67  98 138 176 241 277 349 409
#     4  11  24  44  70 106 134 184 229 286 355 422
#     4  11  24  44  67 103 142 179 226 287 351 414
#     4  11  20  42  72  99 132 178 229 281 346 422
#     4  11  23  44  71  99 141 183 235 291 343 412
#     4  10  21  43  68  98 132 187 231 280 347 420
#     4  10  22  41  68  97 138 176 234 286 340 414
#     4  10  24  42  66 105 139 183 229 295 341 410
#
# _framework density 25.845876000000001
#
# number of rings (size 3 to 8) (size 9 to 14) (size 15 to 20)
#    0.000    1.500    3.750    1.125    3.500    1.500 
#    4.500    0.000    0.000    0.000    0.000    0.000 
#    0.000    0.000    0.000    0.000    0.000    0.000 
#
# Total GULP energy -89566.328433 kJ/mol
# GULP energy per Si atom -5597.895527 kJ/mol
# Density = 2.578705 g / cm^3
# Si number density = 25.845876 Si / 1000 Ang^3
#
#
#
# Elastic Constant Matrix: (Units=GPa)
#
#
# Indices 1 2 3 4 5 6 
#
# 1 94.2876 43.7614 61.0500 -16.5235 13.2769 7.7579
# 2 43.7614 98.4033 17.6798 -18.3638 -1.2279 -16.9063
# 3 61.0500 17.6798 102.9582 -26.3286 25.0955 -3.0931
# 4 -16.5235 -18.3638 -26.3286 32.1198 -16.9395 5.7474
# 5 13.2769 -1.2279 25.0955 -16.9395 48.3793 -4.5332
# 6 7.7579 -16.9063 -3.0931 5.7474 -4.5332 51.4436
#
#
#
# Elastic Compliance Matrix: (Units=1/GPa)
#
#
# Indices 1 2 3 4 5 6 
#
# 1 0.024430 -0.010602 -0.013460 -0.004325 -0.002227 -0.007691
# 2 -0.010602 0.017029 0.004839 0.009568 0.004823 0.006842
# 3 -0.013460 0.004839 0.020299 0.010421 -0.002742 0.003435
# 4 -0.004325 0.009568 0.010421 0.050066 0.013556 0.000024
# 5 -0.002227 0.004823 -0.002742 0.013556 0.027825 0.002693
# 6 -0.007691 0.006842 0.003435 0.000024 0.002693 0.023288
#
#
# Mechanical properties :
#
#
# Convention : Reuss Voigt Hill
#
# Bulk Modulus (GPa) = 42.89508 60.07015 51.48261
# Shear Modulus (GPa) = 23.90576 37.93242 30.91909
#
# Velocity S-wave (km/s) = 3.04457 3.83513 3.46249
# Velocity P-wave (km/s) = 5.38440 6.55005 5.99562
#
# Compressibility (1/GPa) = 0.02331270
#
# Stress axis : x y z
#
# Youngs Moduli (GPa) = 40.93301 58.72292 49.26272
#
# Poissons Ratio (x) = 0.62261 0.66307
# Poissons Ratio (y) = 0.43399 -0.23840
# Poissons Ratio (z) = 0.55095 -0.28418
#
# Static dielectric constant tensor:
#      x y z
#    x 2.861390 0.423690 -0.040070 
#    y 0.423690 2.258430 -0.038400 
#    z -0.040070 -0.038400 2.051100 
# 
# From -- ./inp_files/516224.got.cif
#   From: 2010.05.17/outbox.cif.g08.bks.cpg/sg2_259_cif.got.tgz:516224.got - 2010.06.03 11:33:40.
