data_PCOD9018073
_publ_section_title
;
Structure prediction by ZEFSAII (Michael W. Deem and Ramdas Pophale) SiO2 
 PCOD9018073
Probable space group: P -1
;
_chemical_formula_sum "Si O2"
_cell_formula_units_Z 12
_cell_length_a 6.327297
_cell_length_b 9.030254
_cell_length_c 12.192947
_cell_angle_alpha 80.663522
_cell_angle_beta 47.626838
_cell_angle_gamma 91.766795
_cell_volume 498.384638
_symmetry_space_group_name_H-M "P -1"
_symmetry_group_IT_number 2
_symmetry_cell_setting 'triclinic'
loop_
_space_group_symop_operation_xyz
x,y,z
-x,-y,-z
loop_
_atom_site_type_symbol
_atom_site_label
_atom_site_fract_x
_atom_site_fract_y
_atom_site_fract_z
Si Si1 0.818131 0.464112 0.774759
Si Si2 0.355988 0.974268 0.171496
Si Si3 0.658132 0.857702 0.440940
Si Si4 0.690485 0.393002 0.272396
Si Si5 0.369479 0.690620 0.919644
Si Si6 0.448377 0.699509 0.305226
O O1 0.562585 0.560632 0.854904
O O2 0.829261 0.388028 0.661129
O O3 0.092148 0.585746 0.704050
O O4 0.762824 0.340355 0.908532
O O5 0.516984 0.852455 0.189828
O O6 0.005956 0.917064 0.299990
O O7 0.439429 0.141248 0.176493
O O8 0.500000 0.000000 0.000000
O O9 0.582128 0.736111 0.581508
O O10 0.508827 0.770743 0.395782
O O11 0.500000 0.000000 0.500000
O O12 0.824937 0.338987 0.119490
O O13 0.623246 0.561719 0.262813
#
# Coordination Sequence:
#
# PCOD9018073 Si02
#       6
#     2   2   2   2   2   2
#     4  10  21  43  68 105 139 184 238 293 351 414
#     4  12  26  48  71 104 145 186 240 292 352 421
#     4  12  28  48  71 107 144 190 236 290 357 425
#     4  11  24  44  71 105 142 183 238 292 352 429
#     4  10  22  41  69 102 138 190 232 290 350 422
#     4  11  25  44  73 103 141 189 234 295 353 418
#
# _framework density 24.077787000000001
#
# number of rings (size 3 to 8) (size 9 to 14) (size 15 to 20)
#    0.000    1.000    1.667    4.000    0.000    7.333 
#    3.000    0.000    0.000    0.000    0.000    0.000 
#    0.000    0.000    0.000    0.000    0.000    0.000 
#
# Total GULP energy -66911.460615 kJ/mol
# GULP energy per Si atom -5575.955051 kJ/mol
# Density = 2.402298 g / cm^3
# Si number density = 24.077787 Si / 1000 Ang^3
#
#
#
# Elastic Constant Matrix: (Units=GPa)
#
#
# Indices 1 2 3 4 5 6 
#
# 1 68.4032 45.3817 33.0895 5.0518 7.6837 25.7103
# 2 45.3817 143.1526 60.0526 7.2950 17.6300 26.8595
# 3 33.0895 60.0526 118.6337 -21.4712 5.5465 8.9219
# 4 5.0518 7.2950 -21.4712 40.8661 3.9564 12.9469
# 5 7.6837 17.6300 5.5465 3.9564 40.5856 2.6385
# 6 25.7103 26.8595 8.9219 12.9469 2.6385 60.4653
#
#
#
# Elastic Compliance Matrix: (Units=1/GPa)
#
#
# Indices 1 2 3 4 5 6 
#
# 1 0.021775 -0.003750 -0.003965 -0.001903 -0.001341 -0.006542
# 2 -0.003750 0.011091 -0.004875 -0.003218 -0.003011 -0.001792
# 3 -0.003965 -0.004875 0.013516 0.008429 0.000197 0.000044
# 4 -0.001903 -0.003218 0.008429 0.031720 -0.002115 -0.005705
# 5 -0.001341 -0.003011 0.000197 -0.002115 0.026303 0.001184
# 6 -0.006542 -0.001792 0.000044 -0.005705 0.001184 0.021280
#
#
# Mechanical properties :
#
#
# Convention : Reuss Voigt Hill
#
# Bulk Modulus (GPa) = 47.16633 67.47079 57.31856
# Shear Modulus (GPa) = 31.65896 41.16111 36.41003
#
# Velocity S-wave (km/s) = 3.63004 4.13910 3.89290
# Velocity P-wave (km/s) = 6.09928 7.13623 6.63803
#
# Compressibility (1/GPa) = 0.02120157
#
# Stress axis : x y z
#
# Youngs Moduli (GPa) = 45.92329 90.16660 73.98654
#
# Poissons Ratio (x) = 0.33815 0.29336
# Poissons Ratio (y) = 0.17222 0.36068
# Poissons Ratio (z) = 0.18209 0.43956
#
# Static dielectric constant tensor:
#      x y z
#    x 2.018790 0.034100 0.011610 
#    y 0.034100 1.904880 0.008400 
#    z 0.011610 0.008400 1.928690 
# 
# From -- ./inp_files/61136.got.cif
#   From: 2010.05.17/outbox.cif.g08.bks.cpg/sg2_31_cif.got.tgz:61136.got - 2010.06.03 11:33:40.
