data_PCOD9018354
_publ_section_title
;
Structure prediction by ZEFSAII (Michael W. Deem and Ramdas Pophale) SiO2 
 PCOD9018354
Probable space group: P -1
;
_chemical_formula_sum "Si O2"
_cell_formula_units_Z 14
_cell_length_a 21.088323
_cell_length_b 5.950678
_cell_length_c 20.272018
_cell_angle_alpha 53.061542
_cell_angle_beta 160.096897
_cell_angle_gamma 118.129094
_cell_volume 649.958384
_symmetry_space_group_name_H-M "P -1"
_symmetry_group_IT_number 2
_symmetry_cell_setting 'triclinic'
loop_
_space_group_symop_operation_xyz
x,y,z
-x,-y,-z
loop_
_atom_site_type_symbol
_atom_site_label
_atom_site_fract_x
_atom_site_fract_y
_atom_site_fract_z
Si Si1 0.468296 0.284359 0.563698
Si Si2 0.105822 0.744795 0.558160
Si Si3 0.024524 0.651305 0.070651
Si Si4 0.512839 0.638270 0.752100
Si Si5 0.142532 0.709680 0.456362
Si Si6 0.823638 0.380810 0.207527
Si Si7 0.201935 0.693728 0.019578
O O1 0.500000 0.500000 0.500000
O O2 0.250115 0.468252 0.345521
O O3 0.661899 0.230108 0.806642
O O4 0.463874 0.949891 0.609396
O O5 0.217959 0.720370 0.603014
O O6 0.224975 0.692814 0.752550
O O7 0.000000 0.500000 0.500000
O O8 0.926575 0.060716 0.330290
O O9 0.000000 0.500000 0.000000
O O10 0.862534 0.579073 0.969791
O O11 0.000000 0.000000 0.000000
O O12 0.313178 0.596535 0.589157
O O13 0.657764 0.389353 0.891545
O O14 0.641610 0.608408 0.949947
O O15 0.000087 0.515961 0.355086
O O16 0.000003 0.038194 0.238570
#
# Coordination Sequence:
#
# PCOD9018354 Si02
#       7
#     2   2   2   2   2   2   2
#     4  12  26  46  72 102 143 191 245 297 370 433
#     4   9  20  42  71  97 140 182 225 291 357 431
#     4  12  28  49  76 106 147 195 250 313 378 442
#     4  12  26  41  71 106 138 189 242 292 365 433
#     4  11  23  43  67 103 141 181 234 290 366 427
#     4  10  21  43  70 100 140 181 231 297 353 432
#     4  12  26  44  71 102 146 183 243 308 360 440
#
# _framework density 21.539842
#
# number of rings (size 3 to 8) (size 9 to 14) (size 15 to 20)
#    0.000    0.857    5.714    0.857    2.000    4.000 
#    0.000    6.429    0.000    0.000    0.000    0.000 
#    0.000    0.000    0.000    0.000    0.000    0.000 
#
# Total GULP energy -78056.940392 kJ/mol
# GULP energy per Si atom -5575.495742 kJ/mol
# Density = 2.149082 g / cm^3
# Si number density = 21.539842 Si / 1000 Ang^3
#
#
#
# Elastic Constant Matrix: (Units=GPa)
#
#
# Indices 1 2 3 4 5 6 
#
# 1 100.6764 4.6864 21.4794 5.7225 4.2807 12.1847
# 2 4.6864 81.5154 -1.3271 -14.3866 -1.1950 10.5752
# 3 21.4794 -1.3271 49.2048 -11.8334 9.4912 12.9206
# 4 5.7225 -14.3866 -11.8334 29.1439 11.3368 5.0817
# 5 4.2807 -1.1950 9.4912 11.3368 36.6305 -1.9692
# 6 12.1847 10.5752 12.9206 5.0817 -1.9692 21.6553
#
#
#
# Elastic Compliance Matrix: (Units=1/GPa)
#
#
# Indices 1 2 3 4 5 6 
#
# 1 0.012029 -0.002703 -0.008872 -0.009173 0.003770 0.002340
# 2 -0.002703 0.021529 0.019362 0.029803 -0.014775 -0.028882
# 3 -0.008872 0.019362 0.061828 0.060816 -0.036342 -0.058929
# 4 -0.009173 0.029803 0.060816 0.108766 -0.051455 -0.075881
# 5 0.003770 -0.014775 -0.036342 -0.051455 0.054071 0.043769
# 6 0.002340 -0.028882 -0.058929 -0.075881 0.043769 0.115912
#
#
# Mechanical properties :
#
#
# Convention : Reuss Voigt Hill
#
# Bulk Modulus (GPa) = 9.01224 31.23045 20.12134
# Shear Modulus (GPa) = 12.64070 31.25646 21.94858
#
# Velocity S-wave (km/s) = 2.42513 3.81346 3.19560
# Velocity P-wave (km/s) = 3.46911 5.82412 4.79349
#
# Compressibility (1/GPa) = 0.11096023
#
# Stress axis : x y z
#
# Youngs Moduli (GPa) = 83.13007 46.44980 16.17389
#
# Poissons Ratio (x) = 0.12557 0.14349
# Poissons Ratio (y) = 0.22473 -0.31316
# Poissons Ratio (z) = 0.73752 -0.89938
#
# Static dielectric constant tensor:
#      x y z
#    x 1.813630 -0.062230 -0.018400 
#    y -0.062230 1.817180 0.009190 
#    z -0.018400 0.009190 1.731230 
# 
# From -- ./inp_files/11320.got.cif
#   From: 2010.05.17/outbox.cif.g08.bks.cpg/sg2_6_cif.got.tgz:11320.got - 2010.06.03 11:33:40.
