data_PCOD9018608
_publ_section_title
;
Structure prediction by ZEFSAII (Michael W. Deem and Ramdas Pophale) SiO2 
 PCOD9018608
Probable space group: P -1
;
_chemical_formula_sum "Si O2"
_cell_formula_units_Z 12
_cell_length_a 9.136680
_cell_length_b 7.432450
_cell_length_c 11.843967
_cell_angle_alpha 135.068455
_cell_angle_beta 122.820488
_cell_angle_gamma 67.618005
_cell_volume 477.364148
_symmetry_space_group_name_H-M "P -1"
_symmetry_group_IT_number 2
_symmetry_cell_setting 'triclinic'
loop_
_space_group_symop_operation_xyz
x,y,z
-x,-y,-z
loop_
_atom_site_type_symbol
_atom_site_label
_atom_site_fract_x
_atom_site_fract_y
_atom_site_fract_z
Si Si1 0.498094 0.849064 0.317547
Si Si2 0.698792 0.926267 0.045321
Si Si3 0.344154 0.304022 0.315185
Si Si4 0.985780 0.727600 0.685168
Si Si5 0.699915 0.611042 0.132523
Si Si6 0.863426 0.308417 0.910820
O O1 0.684207 0.748982 0.308293
O O2 0.339905 0.653620 0.187893
O O3 0.500000 0.000000 0.500000
O O4 0.423406 0.036572 0.273770
O O5 0.735697 0.812478 0.135822
O O6 0.814329 0.175031 0.178318
O O7 0.710982 0.746813 0.859581
O O8 0.500000 0.000000 0.000000
O O9 0.500000 0.500000 0.500000
O O10 0.166341 0.367622 0.335178
O O11 0.000000 0.500000 0.500000
O O12 0.911269 0.022281 0.770353
O O13 0.500000 0.500000 0.000000
O O14 0.842822 0.393730 0.071588
O O15 0.000000 0.500000 0.000000
#
# Coordination Sequence:
#
# PCOD9018608 Si02
#       6
#     2   2   2   2   2   2
#     4  10  23  43  66 102 143 184 237 294 354 437
#     4  12  23  44  75 104 142 195 238 299 365 433
#     4  11  25  42  70 107 145 190 240 294 369 429
#     4  11  25  46  68 106 148 188 244 301 362 439
#     4  10  22  42  72  99 138 182 246 284 363 427
#     4  10  21  43  72  98 134 186 239 294 357 426
#
# _framework density 25.138043
#
# number of rings (size 3 to 8) (size 9 to 14) (size 15 to 20)
#    0.000    1.333    3.333    1.500    4.667    0.000 
#    0.000    0.833    0.000    0.000    0.000    0.000 
#    0.000    0.000    0.000    0.000    0.000    0.000 
#
# Total GULP energy -66834.530260 kJ/mol
# GULP energy per Si atom -5569.544188 kJ/mol
# Density = 2.508083 g / cm^3
# Si number density = 25.138043 Si / 1000 Ang^3
#
#
#
# Elastic Constant Matrix: (Units=GPa)
#
#
# Indices 1 2 3 4 5 6 
#
# 1 268.0153 34.1912 126.9571 14.5530 -26.2340 19.5982
# 2 34.1912 93.6729 45.9974 11.0448 -8.5528 22.5173
# 3 126.9571 45.9974 176.3878 22.8839 -19.0749 25.3067
# 4 14.5530 11.0448 22.8839 28.0243 -1.2060 0.0676
# 5 -26.2340 -8.5528 -19.0749 -1.2060 80.6213 12.1885
# 6 19.5982 22.5173 25.3067 0.0676 12.1885 49.6611
#
#
#
# Elastic Compliance Matrix: (Units=1/GPa)
#
#
# Indices 1 2 3 4 5 6 
#
# 1 0.005739 0.000044 -0.004005 0.000317 0.001004 -0.000491
# 2 0.000044 0.013615 -0.002142 -0.003552 0.001733 -0.005520
# 3 -0.004005 -0.002142 0.010407 -0.005511 0.001313 -0.003067
# 4 0.000317 -0.003552 -0.005511 0.041336 -0.001661 0.004645
# 5 0.001004 0.001733 0.001313 -0.001661 0.013999 -0.005285
# 6 -0.000491 -0.005520 -0.003067 0.004645 -0.005285 0.025686
#
#
# Mechanical properties :
#
#
# Convention : Reuss Voigt Hill
#
# Bulk Modulus (GPa) = 56.95907 105.81859 81.38883
# Shear Modulus (GPa) = 38.80780 53.72335 46.26558
#
# Velocity S-wave (km/s) = 3.93337 4.62793 4.29471
# Velocity P-wave (km/s) = 6.58303 8.41091 7.55247
#
# Compressibility (1/GPa) = 0.01755647
#
# Stress axis : x y z
#
# Youngs Moduli (GPa) = 174.23378 73.44799 96.08851
#
# Poissons Ratio (x) = -0.00322 0.38479
# Poissons Ratio (y) = -0.00763 0.20581
# Poissons Ratio (z) = 0.69772 0.15731
#
# Static dielectric constant tensor:
#      x y z
#    x 2.054710 -0.084510 -0.143510 
#    y -0.084510 2.258420 -0.102360 
#    z -0.143510 -0.102360 2.660990 
# 
# From -- ./inp_files/380811.got.cif
#   From: 2010.05.17/outbox.cif.g08.bks.cpg/sg2_191_cif.got.tgz:380811.got - 2010.06.03 11:33:40.
