data_PCOD9018326
_publ_section_title
;
Structure prediction by ZEFSAII (Michael W. Deem and Ramdas Pophale) SiO2 
 PCOD9018326
Probable space group: P -1
;
_chemical_formula_sum "Si O2"
_cell_formula_units_Z 14
_cell_length_a 13.622892
_cell_length_b 5.426667
_cell_length_c 11.037245
_cell_angle_alpha 127.409666
_cell_angle_beta 59.422051
_cell_angle_gamma 97.600520
_cell_volume 539.023262
_symmetry_space_group_name_H-M "P -1"
_symmetry_group_IT_number 2
_symmetry_cell_setting 'triclinic'
loop_
_space_group_symop_operation_xyz
x,y,z
-x,-y,-z
loop_
_atom_site_type_symbol
_atom_site_label
_atom_site_fract_x
_atom_site_fract_y
_atom_site_fract_z
Si Si1 0.609735 0.642053 0.944006
Si Si2 0.728812 0.759379 0.107962
Si Si3 0.865928 0.849752 0.264320
Si Si4 0.923994 0.977090 0.920958
Si Si5 0.059475 0.285781 0.562347
Si Si6 0.274146 0.418099 0.404126
Si Si7 0.500206 0.176924 0.332549
O O1 0.711906 0.511204 0.941384
O O2 0.567531 0.024473 0.119003
O O3 0.500000 0.500000 0.000000
O O4 0.654348 0.575023 0.761702
O O5 0.806030 0.660456 0.149486
O O6 0.591857 0.913065 0.278541
O O7 0.794993 0.995632 0.064267
O O8 0.787312 0.215113 0.409631
O O9 0.003913 0.836884 0.155278
O O10 0.866528 0.737168 0.366508
O O11 0.963427 0.621283 0.732810
O O12 0.000000 0.000000 0.000000
O O13 0.163066 0.279660 0.401038
O O14 0.000000 0.000000 0.500000
O O15 0.365943 0.226873 0.389495
O O16 0.500000 0.500000 0.500000
#
# Coordination Sequence:
#
# PCOD9018326 Si02
#       7
#     2   2   2   2   2   2   2
#     4  10  24  41  66 101 133 177 224 277 338 394
#     4   9  21  40  69  95 134 178 222 277 335 399
#     4  10  22  43  69  98 139 181 222 281 341 406
#     4   9  21  43  66  97 136 176 225 279 337 399
#     4  11  27  40  70 105 133 180 228 277 345 404
#     4  11  23  44  68  99 146 171 225 285 337 407
#     4  10  21  43  69  98 134 180 224 272 344 402
#
# _framework density 25.972904
#
# number of rings (size 3 to 8) (size 9 to 14) (size 15 to 20)
#    0.857    1.143    1.429    0.429    6.000    3.429 
#    2.571    3.571    3.143    0.000    0.000    0.000 
#    0.000    0.000    0.000    0.000    0.000    0.000 
#
# Total GULP energy -77982.644948 kJ/mol
# GULP energy per Si atom -5570.188925 kJ/mol
# Density = 2.591379 g / cm^3
# Si number density = 25.972904 Si / 1000 Ang^3
#
#
#
# Elastic Constant Matrix: (Units=GPa)
#
#
# Indices 1 2 3 4 5 6 
#
# 1 188.0089 34.8388 55.4247 -7.6792 8.6020 18.3095
# 2 34.8388 43.0906 32.2457 -13.8237 3.1739 20.7877
# 3 55.4247 32.2457 124.5087 2.6968 -17.7716 12.8888
# 4 -7.6792 -13.8237 2.6968 46.6821 0.2123 -9.3017
# 5 8.6020 3.1739 -17.7716 0.2123 35.0067 8.9319
# 6 18.3095 20.7877 12.8888 -9.3017 8.9319 39.3344
#
#
#
# Elastic Compliance Matrix: (Units=1/GPa)
#
#
# Indices 1 2 3 4 5 6 
#
# 1 0.006824 -0.003348 -0.002579 0.000318 -0.002718 0.000130
# 2 -0.003348 0.043366 -0.008915 0.009782 -0.003800 -0.015263
# 3 -0.002579 -0.008915 0.012882 -0.004077 0.008302 -0.001158
# 4 0.000318 0.009782 -0.004077 0.025195 -0.003919 0.002866
# 5 -0.002718 -0.003800 0.008302 -0.003919 0.035998 -0.008548
# 6 0.000130 -0.015263 -0.001158 0.002866 -0.008548 0.036427
#
#
# Mechanical properties :
#
#
# Convention : Reuss Voigt Hill
#
# Bulk Modulus (GPa) = 29.95103 66.73627 48.34365
# Shear Modulus (GPa) = 24.81330 39.74458 32.27894
#
# Velocity S-wave (km/s) = 3.09423 3.91606 3.52915
# Velocity P-wave (km/s) = 4.93177 6.79689 5.93802
#
# Compressibility (1/GPa) = 0.03338784
#
# Stress axis : x y z
#
# Youngs Moduli (GPa) = 146.53626 23.05942 77.62999
#
# Poissons Ratio (x) = 0.07720 0.20021
# Poissons Ratio (y) = 0.49060 0.69208
# Poissons Ratio (z) = 0.37792 0.20558
#
# Static dielectric constant tensor:
#      x y z
#    x 2.094250 -0.054010 -0.037320 
#    y -0.054010 2.174100 -0.092900 
#    z -0.037320 -0.092900 2.234470 
# 
# From -- ./inp_files/442303.got.cif
#   From: 2010.05.17/outbox.cif.g08.bks.cpg/sg2_222_cif.got.tgz:442303.got - 2010.06.03 11:33:40.
