data_PCOD9018506
_publ_section_title
;
Structure prediction by ZEFSAII (Michael W. Deem and Ramdas Pophale) SiO2 
 PCOD9018506
Probable space group: P -1
;
_chemical_formula_sum "Si O2"
_cell_formula_units_Z 12
_cell_length_a 5.185643
_cell_length_b 15.149484
_cell_length_c 9.294076
_cell_angle_alpha 45.506400
_cell_angle_beta 118.277649
_cell_angle_gamma 116.507756
_cell_volume 451.018966
_symmetry_space_group_name_H-M "P -1"
_symmetry_group_IT_number 2
_symmetry_cell_setting 'triclinic'
loop_
_space_group_symop_operation_xyz
x,y,z
-x,-y,-z
loop_
_atom_site_type_symbol
_atom_site_label
_atom_site_fract_x
_atom_site_fract_y
_atom_site_fract_z
Si Si1 0.886746 0.887431 0.447183
Si Si2 0.867787 0.173213 0.143007
Si Si3 0.295539 0.086805 0.923770
Si Si4 0.897594 0.382098 0.718064
Si Si5 0.353076 0.709617 0.526618
Si Si6 0.151372 0.451693 0.233367
O O1 0.836296 0.841060 0.323009
O O2 0.552881 0.841375 0.476673
O O3 0.094505 0.823852 0.678671
O O4 0.966943 0.038516 0.291758
O O5 0.523472 0.160886 0.014925
O O6 0.052171 0.292344 0.968880
O O7 0.500000 0.000000 0.000000
O O8 0.000000 0.000000 0.000000
O O9 0.771949 0.280072 0.679274
O O10 0.728846 0.444837 0.728988
O O11 0.000000 0.500000 0.500000
O O12 0.586364 0.615158 0.674110
O O13 0.111424 0.638501 0.650423
O O14 0.000000 0.500000 0.000000
#
# Coordination Sequence:
#
# PCOD9018506 Si02
#       6
#     2   2   2   2   2   2
#     4  10  22  42  72 107 141 184 240 293 366 422
#     4  10  21  43  71 106 144 186 237 298 356 432
#     4  10  22  42  66  97 138 180 224 283 351 415
#     4  10  22  43  70 102 143 191 241 290 360 430
#     4  11  23  43  69 100 140 185 237 298 351 431
#     4  11  24  43  69 100 141 187 241 293 354 421
#
# _framework density 26.606422999999999
#
# number of rings (size 3 to 8) (size 9 to 14) (size 15 to 20)
#    0.000    1.667    1.667    2.000    0.000    4.667 
#    3.000   11.667    0.000    0.000    0.000    0.000 
#    0.000    0.000    0.000    0.000    0.000    0.000 
#
# Total GULP energy -66956.742660 kJ/mol
# GULP energy per Si atom -5579.728555 kJ/mol
# Density = 2.654587 g / cm^3
# Si number density = 26.606423 Si / 1000 Ang^3
#
#
#
# Elastic Constant Matrix: (Units=GPa)
#
#
# Indices 1 2 3 4 5 6 
#
# 1 113.9261 22.2169 53.9686 0.1069 -11.9489 -5.0399
# 2 22.2169 110.2647 52.9956 6.5321 -7.4561 2.1175
# 3 53.9686 52.9956 265.8723 24.4612 -2.3491 5.1151
# 4 0.1069 6.5321 24.4612 74.9272 4.9263 7.5584
# 5 -11.9489 -7.4561 -2.3491 4.9263 25.9402 -5.2857
# 6 -5.0399 2.1175 5.1151 7.5584 -5.2857 38.0945
#
#
#
# Elastic Compliance Matrix: (Units=1/GPa)
#
#
# Indices 1 2 3 4 5 6 
#
# 1 0.010497 -0.000895 -0.001968 0.000150 0.004849 0.002346
# 2 -0.000895 0.010314 -0.001809 -0.000469 0.002475 -0.000012
# 3 -0.001968 -0.001809 0.004639 -0.001227 -0.000909 -0.000665
# 4 0.000150 -0.000469 -0.001227 0.014335 -0.003536 -0.003124
# 5 0.004849 0.002475 -0.000909 -0.003536 0.043587 0.007375
# 6 0.002346 -0.000012 -0.000665 -0.003124 0.007375 0.028294
#
#
# Mechanical properties :
#
#
# Convention : Reuss Voigt Hill
#
# Bulk Modulus (GPa) = 62.09131 83.15836 72.62484
# Shear Modulus (GPa) = 39.56321 51.85118 45.70719
#
# Velocity S-wave (km/s) = 3.86032 4.41934 4.14925
# Velocity P-wave (km/s) = 6.57701 7.57387 7.09298
#
# Compressibility (1/GPa) = 0.01610531
#
# Stress axis : x y z
#
# Youngs Moduli (GPa) = 95.26657 96.95347 215.56285
#
# Poissons Ratio (x) = 0.08677 0.42432
# Poissons Ratio (y) = 0.08526 0.38995
# Poissons Ratio (z) = 0.18753 0.17539
#
# Static dielectric constant tensor:
#      x y z
#    x 2.175940 0.065820 -0.028960 
#    y 0.065820 2.296270 -0.020890 
#    z -0.028960 -0.020890 2.118630 
# 
# From -- ./inp_files/86796.got.cif
#   From: 2010.05.17/outbox.cif.g08.bks.cpg/sg2_44_cif.got.tgz:86796.got - 2010.06.03 11:33:40.
