data_PCOD9018488
_publ_section_title
;
Structure prediction by ZEFSAII (Michael W. Deem and Ramdas Pophale) SiO2 
 PCOD9018488
Probable space group: P -1
;
_chemical_formula_sum "Si O2"
_cell_formula_units_Z 14
_cell_length_a 11.190808
_cell_length_b 7.345999
_cell_length_c 8.274181
_cell_angle_alpha 82.157467
_cell_angle_beta 60.227718
_cell_angle_gamma 63.760213
_cell_volume 526.552276
_symmetry_space_group_name_H-M "P -1"
_symmetry_group_IT_number 2
_symmetry_cell_setting 'triclinic'
loop_
_space_group_symop_operation_xyz
x,y,z
-x,-y,-z
loop_
_atom_site_type_symbol
_atom_site_label
_atom_site_fract_x
_atom_site_fract_y
_atom_site_fract_z
Si Si1 0.209731 0.939840 0.802039
Si Si2 0.322196 0.137036 0.277924
Si Si3 0.112246 0.475185 0.172503
Si Si4 0.473010 0.732695 0.382663
Si Si5 0.976025 0.881605 0.377151
Si Si6 0.187667 0.385127 0.782753
Si Si7 0.472083 0.629540 0.839072
O O1 0.345947 0.835857 0.590844
O O2 0.145005 0.511778 0.962064
O O3 0.062803 0.983359 0.779472
O O4 0.180979 0.169097 0.836036
O O5 0.240454 0.254845 0.157819
O O6 0.173715 0.156601 0.476767
O O7 0.423850 0.249697 0.249713
O O8 0.433856 0.899539 0.245035
O O9 0.102550 0.653578 0.278061
O O10 0.941657 0.488349 0.275224
O O11 0.294210 0.791244 0.912163
O O12 0.636990 0.677313 0.355141
O O13 0.477620 0.536019 0.317274
O O14 0.000000 0.000000 0.500000
O O15 0.500000 0.500000 0.000000
#
# Coordination Sequence:
#
# PCOD9018488 Si02
#       7
#     2   2   2   2   2   2   2
#     4  10  23  45  72 107 147 191 248 310 360 440
#     4  11  25  44  73 105 148 190 244 304 362 438
#     4  10  23  40  69 107 146 192 236 303 369 439
#     4  11  24  44  75 106 143 194 244 304 371 440
#     4  10  24  46  76 108 146 199 249 297 373 444
#     4  10  21  43  71 102 146 189 243 299 378 430
#     4  12  27  43  72 112 149 191 245 304 378 432
#
# _framework density 26.588052999999999
#
# number of rings (size 3 to 8) (size 9 to 14) (size 15 to 20)
#    0.000    1.429    1.429    2.143   10.000    2.286 
#    0.000    0.000    0.000    6.857    0.000    0.000 
#    0.000    0.000    0.000    0.000    0.000    0.000 
#
# Total GULP energy -78326.628912 kJ/mol
# GULP energy per Si atom -5594.759208 kJ/mol
# Density = 2.652754 g / cm^3
# Si number density = 26.588053 Si / 1000 Ang^3
#
#
#
# Elastic Constant Matrix: (Units=GPa)
#
#
# Indices 1 2 3 4 5 6 
#
# 1 132.4178 73.9405 0.6365 -14.9587 13.6742 -31.3482
# 2 73.9405 165.8532 27.9574 -3.5907 0.7667 -2.4230
# 3 0.6365 27.9574 39.5307 4.6651 5.2439 -11.4862
# 4 -14.9587 -3.5907 4.6651 36.0182 -0.0505 -0.4392
# 5 13.6742 0.7667 5.2439 -0.0505 45.5112 5.2934
# 6 -31.3482 -2.4230 -11.4862 -0.4392 5.2934 51.6082
#
#
#
# Elastic Compliance Matrix: (Units=1/GPa)
#
#
# Indices 1 2 3 4 5 6 
#
# 1 0.016892 -0.008923 0.010223 0.004949 -0.007602 0.012939
# 2 -0.008923 0.011673 -0.010840 -0.001226 0.004636 -0.007770
# 3 0.010223 -0.010840 0.038625 -0.001665 -0.009111 0.015218
# 4 0.004949 -0.001226 -0.001665 0.029947 -0.001590 0.002996
# 5 -0.007602 0.004636 -0.009111 -0.001590 0.026290 -0.009138
# 6 0.012939 -0.007770 0.015218 0.002996 -0.009138 0.031221
#
#
# Mechanical properties :
#
#
# Convention : Reuss Voigt Hill
#
# Bulk Modulus (GPa) = 20.78545 60.31895 40.55220
# Shear Modulus (GPa) = 26.34820 42.31200 34.33010
#
# Velocity S-wave (km/s) = 3.15140 3.99355 3.59720
# Velocity P-wave (km/s) = 4.59089 6.63328 5.70424
#
# Compressibility (1/GPa) = 0.04811057
#
# Stress axis : x y z
#
# Youngs Moduli (GPa) = 59.19797 85.66634 25.88965
#
# Poissons Ratio (x) = 0.76439 -0.26466
# Poissons Ratio (y) = 0.52822 0.28065
# Poissons Ratio (z) = -0.60516 0.92863
#
# Static dielectric constant tensor:
#      x y z
#    x 2.146610 -0.062690 0.028050 
#    y -0.062690 2.055070 -0.076310 
#    z 0.028050 -0.076310 2.185080 
# 
# From -- ./inp_files/95227.got.cif
#   From: 2010.05.17/outbox.cif.g08.bks.cpg/sg2_48_cif.got.tgz:95227.got - 2010.06.03 11:33:40.
