data_PCOD9018602
_publ_section_title
;
Structure prediction by ZEFSAII (Michael W. Deem and Ramdas Pophale) SiO2 
 PCOD9018602
Probable space group: P -1
;
_chemical_formula_sum "Si O2"
_cell_formula_units_Z 15
_cell_length_a 10.131214
_cell_length_b 8.980875
_cell_length_c 14.891542
_cell_angle_alpha 100.573370
_cell_angle_beta 74.500659
_cell_angle_gamma 43.194692
_cell_volume 732.088398
_symmetry_space_group_name_H-M "P -1"
_symmetry_group_IT_number 2
_symmetry_cell_setting 'triclinic'
loop_
_space_group_symop_operation_xyz
x,y,z
-x,-y,-z
loop_
_atom_site_type_symbol
_atom_site_label
_atom_site_fract_x
_atom_site_fract_y
_atom_site_fract_z
Si Si1 0.734062 0.790071 0.321953
Si Si2 0.500000 0.000000 0.000000
Si Si3 0.731841 0.702144 0.107486
Si Si4 0.846241 0.153562 0.454530
Si Si5 0.397750 0.346492 0.533712
Si Si6 0.139893 0.654720 0.232577
Si Si7 0.843174 0.299210 0.974400
Si Si8 0.334106 0.845985 0.936934
O O1 0.708653 0.784627 0.220401
O O2 0.712536 0.653607 0.365960
O O3 0.987769 0.642219 0.279073
O O4 0.533863 0.094602 0.422191
O O5 0.648034 0.025341 0.987943
O O6 0.547944 0.927227 0.091427
O O7 0.718827 0.532630 0.088201
O O8 0.000000 0.500000 0.000000
O O9 0.600872 0.279594 0.524055
O O10 0.781030 0.383060 0.460365
O O11 0.996427 0.928432 0.325775
O O12 0.000000 0.000000 0.500000
O O13 0.166161 0.635327 0.118100
O O14 0.412409 0.400751 0.187383
O O15 0.721231 0.249299 0.003066
O O16 0.118913 0.045348 0.927340
#
# Coordination Sequence:
#
# PCOD9018602 Si02
#       8
#     2   1   2   2   2   2   2   2
#     4  10  21  43  72  96 136 180 222 291 338 405
#     4  12  22  38  64  90 132 180 218 272 326 396
#     4  12  22  40  62  98 137 173 222 270 342 405
#     4  10  23  43  68  97 129 170 229 285 342 409
#     4   9  22  46  69  97 132 173 229 282 348 396
#     4  11  22  41  62  91 134 172 221 279 335 400
#     4  11  24  42  61  93 138 178 223 269 334 409
#     4  11  24  40  63  92 132 179 223 271 332 396
#
# _framework density 20.489329000000001
#
# number of rings (size 3 to 8) (size 9 to 14) (size 15 to 20)
#    0.000    1.333    4.000    0.400    0.000    7.467 
#    0.000    7.333    0.000    0.000    0.000    0.000 
#    0.000    0.000    0.000    0.000    0.000    0.000 
#
# Total GULP energy -83515.009221 kJ/mol
# GULP energy per Si atom -5567.667281 kJ/mol
# Density = 2.044269 g / cm^3
# Si number density = 20.489329 Si / 1000 Ang^3
#
#
#
# Elastic Constant Matrix: (Units=GPa)
#
#
# Indices 1 2 3 4 5 6 
#
# 1 124.5891 49.8197 39.9500 -3.4638 1.3670 20.0723
# 2 49.8197 124.2954 36.0015 -7.0631 -6.3390 4.3854
# 3 39.9500 36.0015 73.1678 -12.8815 -4.7239 -0.4225
# 4 -3.4638 -7.0631 -12.8815 20.0669 -3.7649 -1.9936
# 5 1.3670 -6.3390 -4.7239 -3.7649 23.5932 -1.2197
# 6 20.0723 4.3854 -0.4225 -1.9936 -1.2197 37.9209
#
#
#
# Elastic Compliance Matrix: (Units=1/GPa)
#
#
# Indices 1 2 3 4 5 6 
#
# 1 0.012317 -0.003379 -0.006121 -0.004372 -0.003883 -0.006552
# 2 -0.003379 0.010425 -0.002764 0.001908 0.002786 0.000742
# 3 -0.006121 -0.002764 0.021110 0.013146 0.006178 0.004684
# 4 -0.004372 0.001908 0.013146 0.061305 0.013486 0.005897
# 5 -0.003883 0.002786 0.006178 0.013486 0.046956 0.004021
# 6 -0.006552 0.000742 0.004684 0.005897 0.004021 0.030244
#
#
# Mechanical properties :
#
#
# Convention : Reuss Voigt Hill
#
# Bulk Modulus (GPa) = 51.75172 63.73275 57.74224
# Shear Modulus (GPa) = 23.43835 29.40159 26.41997
#
# Velocity S-wave (km/s) = 3.38587 3.79221 3.59479
# Velocity P-wave (km/s) = 6.37167 7.09559 6.74335
#
# Compressibility (1/GPa) = 0.01932303
#
# Stress axis : x y z
#
# Youngs Moduli (GPa) = 81.18959 95.92489 47.37197
#
# Poissons Ratio (x) = 0.32416 0.28994
# Poissons Ratio (y) = 0.27437 0.13095
# Poissons Ratio (z) = 0.49692 0.26516
#
# Static dielectric constant tensor:
#      x y z
#    x 1.733170 0.021850 0.000570 
#    y 0.021850 1.773820 0.056400 
#    z 0.000570 0.056400 1.718470 
# 
# From -- ./inp_files/493392.got.cif
#   From: 2010.05.17/outbox.cif.g08.bks.cpg/sg2_247_cif.got.tgz:493392.got - 2010.06.03 11:33:40.
