data_PCOD9018555
_publ_section_title
;
Structure prediction by ZEFSAII (Michael W. Deem and Ramdas Pophale) SiO2 
 PCOD9018555
Probable space group: P -1
;
_chemical_formula_sum "Si O2"
_cell_formula_units_Z 16
_cell_length_a 9.305816
_cell_length_b 24.385371
_cell_length_c 6.690163
_cell_angle_alpha 136.124174
_cell_angle_beta 125.066690
_cell_angle_gamma 45.303034
_cell_volume 740.913991
_symmetry_space_group_name_H-M "P -1"
_symmetry_group_IT_number 2
_symmetry_cell_setting 'triclinic'
loop_
_space_group_symop_operation_xyz
x,y,z
-x,-y,-z
loop_
_atom_site_type_symbol
_atom_site_label
_atom_site_fract_x
_atom_site_fract_y
_atom_site_fract_z
Si Si1 0.950111 0.422771 0.705508
Si Si2 0.310684 0.266889 0.835750
Si Si3 0.343689 0.559954 0.206252
Si Si4 0.991708 0.635292 0.846558
Si Si5 0.717298 0.256748 0.174332
Si Si6 0.988414 0.197396 0.851155
Si Si7 0.423827 0.103142 0.776031
Si Si8 0.826788 0.103439 0.187104
O O1 0.126349 0.323972 0.682710
O O2 0.712825 0.462095 0.678787
O O3 0.972993 0.410184 0.454831
O O4 0.000000 0.500000 0.000000
O O5 0.355503 0.167563 0.689310
O O6 0.514975 0.265358 0.935036
O O7 0.232192 0.321736 0.128767
O O8 0.342989 0.652783 0.505192
O O9 0.500000 0.500000 0.000000
O O10 0.140102 0.572632 0.971215
O O11 0.051994 0.713901 0.075755
O O12 0.805935 0.170283 0.165367
O O13 0.885088 0.235116 0.081746
O O14 0.233541 0.136728 0.863462
O O15 0.892107 0.141145 0.527973
O O16 0.500000 0.000000 0.500000
O O17 0.609276 0.109158 0.039838
O O18 0.000000 0.000000 0.000000
#
# Coordination Sequence:
#
# PCOD9018555 Si02
#       8
#     2   2   2   2   2   2   2   2
#     4  11  25  42  65  96 128 172 230 275 334 405
#     4   9  24  41  66  92 131 171 219 271 337 394
#     4  11  25  41  66  94 130 174 219 277 339 398
#     4  10  22  44  65  89 130 178 217 273 342 396
#     4  11  24  43  66  98 129 170 227 275 335 401
#     4  11  22  42  69  93 135 174 222 274 333 398
#     4  10  21  43  71  98 134 179 219 275 342 401
#     4  11  23  43  69  98 137 175 221 277 336 403
#
# _framework density 21.594950000000001
#
# number of rings (size 3 to 8) (size 9 to 14) (size 15 to 20)
#    0.000    1.500    3.750    0.000    3.500    6.000 
#    0.000    0.625    0.000    0.000    0.000    0.000 
#    0.000    0.000    0.000    0.000    0.000    0.000 
#
# Total GULP energy -89173.286153 kJ/mol
# GULP energy per Si atom -5573.330385 kJ/mol
# Density = 2.154580 g / cm^3
# Si number density = 21.594950 Si / 1000 Ang^3
#
#
#
# Elastic Constant Matrix: (Units=GPa)
#
#
# Indices 1 2 3 4 5 6 
#
# 1 146.6535 30.2373 35.6841 8.5971 -2.8908 -18.1562
# 2 30.2373 47.0836 12.9746 7.1006 11.0484 -11.7259
# 3 35.6841 12.9746 100.9019 9.3105 9.4894 -10.1526
# 4 8.5971 7.1006 9.3105 25.7939 -1.3509 4.0674
# 5 -2.8908 11.0484 9.4894 -1.3509 38.5482 5.0266
# 6 -18.1562 -11.7259 -10.1526 4.0674 5.0266 24.0435
#
#
#
# Elastic Compliance Matrix: (Units=1/GPa)
#
#
# Indices 1 2 3 4 5 6 
#
# 1 0.008827 -0.004502 -0.002283 -0.001292 0.002039 0.003298
# 2 -0.004502 0.032978 0.001441 -0.011604 -0.012892 0.017950
# 3 -0.002283 0.001441 0.012018 -0.005132 -0.004487 0.005859
# 4 -0.001292 -0.011604 -0.005132 0.047638 0.008595 -0.018657
# 5 0.002039 -0.012892 -0.004487 0.008595 0.033155 -0.015027
# 6 0.003298 0.017950 0.005859 -0.018657 -0.015027 0.061608
#
#
# Mechanical properties :
#
#
# Convention : Reuss Voigt Hill
#
# Bulk Modulus (GPa) = 23.18347 50.27012 36.72680
# Shear Modulus (GPa) = 22.59471 32.06000 27.32736
#
# Velocity S-wave (km/s) = 3.23816 3.85724 3.56118
# Velocity P-wave (km/s) = 4.97391 6.57015 5.82695
#
# Compressibility (1/GPa) = 0.04313417
#
# Stress axis : x y z
#
# Youngs Moduli (GPa) = 113.29127 30.32305 83.20871
#
# Poissons Ratio (x) = 0.13650 0.19000
# Poissons Ratio (y) = 0.51000 -0.11988
# Poissons Ratio (z) = 0.25870 -0.04369
#
# Static dielectric constant tensor:
#      x y z
#    x 1.857950 0.003990 -0.073060 
#    y 0.003990 1.774590 0.057850 
#    z -0.073060 0.057850 1.753220 
# 
# From -- ./inp_files/46960.got.cif
#   From: 2010.05.17/outbox.cif.g08.bks.cpg/sg2_24_cif.got.tgz:46960.got - 2010.06.03 11:33:40.
