data_PCOD9018774
_publ_section_title
;
Structure prediction by ZEFSAII (Michael W. Deem and Ramdas Pophale) SiO2 
 PCOD9018774
Probable space group: P -1
;
_chemical_formula_sum "Si O2"
_cell_formula_units_Z 16
_cell_length_a 8.602360
_cell_length_b 21.088895
_cell_length_c 8.522316
_cell_angle_alpha 120.757928
_cell_angle_beta 50.720527
_cell_angle_gamma 81.425150
_cell_volume 723.281952
_symmetry_space_group_name_H-M "P -1"
_symmetry_group_IT_number 2
_symmetry_cell_setting 'triclinic'
loop_
_space_group_symop_operation_xyz
x,y,z
-x,-y,-z
loop_
_atom_site_type_symbol
_atom_site_label
_atom_site_fract_x
_atom_site_fract_y
_atom_site_fract_z
Si Si1 0.348625 0.594498 0.098367
Si Si2 0.810533 0.480163 0.160129
Si Si3 0.741672 0.879903 0.136544
Si Si4 0.245518 0.716163 0.835408
Si Si5 0.158016 0.884160 0.706353
Si Si6 0.618611 0.265159 0.906935
Si Si7 0.723930 0.768430 0.769227
Si Si8 0.361119 0.262788 0.558924
O O1 0.479530 0.636334 0.001592
O O2 0.055921 0.696160 0.492380
O O3 0.500000 0.500000 0.000000
O O4 0.257558 0.562940 0.980383
O O5 0.493733 0.589383 0.549480
O O6 0.000000 0.500000 0.000000
O O7 0.060102 0.371914 0.957408
O O8 0.500000 0.000000 0.500000
O O9 0.589365 0.863793 0.091065
O O10 0.947805 0.787285 0.020107
O O11 0.963706 0.872104 0.890705
O O12 0.438706 0.723634 0.621319
O O13 0.184005 0.761592 0.107328
O O14 0.223219 0.835348 0.430708
O O15 0.460592 0.814543 0.510390
O O16 0.000000 0.000000 0.000000
O O17 0.357947 0.290757 0.188792
O O18 0.669863 0.781023 0.631956
#
# Coordination Sequence:
#
# PCOD9018774 Si02
#       8
#     2   2   2   2   2   2   2   2
#     4  11  23  40  64  95 137 174 213 272 329 386
#     4   9  18  37  65  92 123 173 213 252 327 386
#     4  11  22  41  66  95 129 173 218 277 332 386
#     4   9  20  40  63  92 133 170 213 269 322 392
#     4  11  23  43  65  96 131 172 220 279 331 388
#     4  11  24  43  64  97 131 172 223 269 328 396
#     4  10  21  44  63  94 128 171 222 269 327 391
#     4   8  19  38  66  88 130 172 212 268 325 384
#
# _framework density 22.121385
#
# number of rings (size 3 to 8) (size 9 to 14) (size 15 to 20)
#    0.000    2.000    1.250    2.250    3.500    2.000 
#   11.250    5.000    0.000    0.000    0.000    0.000 
#    0.000    0.000    0.000    0.000    0.000    0.000 
#
# Total GULP energy -89073.740639 kJ/mol
# GULP energy per Si atom -5567.108790 kJ/mol
# Density = 2.207104 g / cm^3
# Si number density = 22.121385 Si / 1000 Ang^3
#
#
#
# Elastic Constant Matrix: (Units=GPa)
#
#
# Indices 1 2 3 4 5 6 
#
# 1 89.6548 31.5869 46.9823 8.9235 15.6559 4.7790
# 2 31.5869 59.6800 19.5173 -6.0337 1.3236 16.0732
# 3 46.9823 19.5173 114.7283 12.5331 12.4727 -10.5141
# 4 8.9235 -6.0337 12.5331 34.5953 5.5780 -3.6905
# 5 15.6559 1.3236 12.4727 5.5780 43.1254 1.7547
# 6 4.7790 16.0732 -10.5141 -3.6905 1.7547 35.2803
#
#
#
# Elastic Compliance Matrix: (Units=1/GPa)
#
#
# Indices 1 2 3 4 5 6 
#
# 1 0.017704 -0.007805 -0.005134 -0.003441 -0.004237 -0.000521
# 2 -0.007805 0.025371 -0.003056 0.005959 0.002612 -0.010919
# 3 -0.005134 -0.003056 0.012315 -0.002844 -0.001462 0.005533
# 4 -0.003441 0.005959 -0.002844 0.032276 -0.002302 0.000394
# 5 -0.004237 0.002612 -0.001462 -0.002302 0.025471 -0.002559
# 6 -0.000521 -0.010919 0.005533 0.000394 -0.002559 0.035207
#
#
# Mechanical properties :
#
#
# Convention : Reuss Voigt Hill
#
# Bulk Modulus (GPa) = 42.73057 51.13735 46.93396
# Shear Modulus (GPa) = 26.57704 33.66529 30.12116
#
# Velocity S-wave (km/s) = 3.46991 3.90531 3.69403
# Velocity P-wave (km/s) = 5.95080 6.59562 6.28149
#
# Compressibility (1/GPa) = 0.02340245
#
# Stress axis : x y z
#
# Youngs Moduli (GPa) = 56.48491 39.41447 81.20225
#
# Poissons Ratio (x) = 0.30762 0.41685
# Poissons Ratio (y) = 0.44085 0.24812
# Poissons Ratio (z) = 0.28997 0.12043
#
# Static dielectric constant tensor:
#      x y z
#    x 1.879620 0.018650 0.090640 
#    y 0.018650 1.909480 0.020940 
#    z 0.090640 0.020940 1.820440 
# 
# From -- ./inp_files/223758.got.cif
#   From: 2010.05.17/outbox.cif.g08.bks.cpg/sg2_112_cif.got.tgz:223758.got - 2010.06.03 11:33:40.
