data_PCOD9018501
_publ_section_title
;
Structure prediction by ZEFSAII (Michael W. Deem and Ramdas Pophale) SiO2 
 PCOD9018501
Probable space group: P -1
;
_chemical_formula_sum "Si O2"
_cell_formula_units_Z 14
_cell_length_a 8.621217
_cell_length_b 8.967178
_cell_length_c 11.550467
_cell_angle_alpha 70.537901
_cell_angle_beta 74.267541
_cell_angle_gamma 124.627926
_cell_volume 557.567719
_symmetry_space_group_name_H-M "P -1"
_symmetry_group_IT_number 2
_symmetry_cell_setting 'triclinic'
loop_
_space_group_symop_operation_xyz
x,y,z
-x,-y,-z
loop_
_atom_site_type_symbol
_atom_site_label
_atom_site_fract_x
_atom_site_fract_y
_atom_site_fract_z
Si Si1 0.854185 0.299917 0.485960
Si Si2 0.533732 0.765018 0.371638
Si Si3 0.011749 0.775214 0.959515
Si Si4 0.651179 0.671967 0.581439
Si Si5 0.605324 0.706738 0.012994
Si Si6 0.154985 0.045369 0.319334
Si Si7 0.856636 0.432536 0.869707
O O1 0.586910 0.154683 0.601984
O O2 0.865995 0.126819 0.558283
O O3 0.000000 0.500000 0.500000
O O4 0.957995 0.408671 0.311450
O O5 0.478816 0.642092 0.539920
O O6 0.396657 0.544936 0.373718
O O7 0.776996 0.974836 0.204626
O O8 0.796911 0.743814 0.041060
O O9 0.917454 0.590757 0.924874
O O10 0.112847 0.726667 0.049268
O O11 0.888820 0.911212 0.414009
O O12 0.676222 0.724790 0.697236
O O13 0.764443 0.920926 0.835033
O O14 0.500000 0.500000 0.000000
O O15 0.396388 0.680372 0.094103
#
# Coordination Sequence:
#
# PCOD9018501 Si02
#       7
#     2   2   2   2   2   2   2
#     4  12  26  44  70 100 141 185 234 294 351 411
#     4  11  22  42  68 105 142 175 231 305 345 409
#     4  10  21  43  71 105 141 182 234 289 358 423
#     4  10  23  38  71 101 136 176 238 289 346 414
#     4  10  22  40  71  99 137 183 232 285 350 425
#     4  11  22  44  70  99 133 188 236 282 347 427
#     4  10  24  44  68 104 143 187 234 285 353 432
#
# _framework density 25.109058000000001
#
# number of rings (size 3 to 8) (size 9 to 14) (size 15 to 20)
#    0.000    1.429    2.857    1.714    6.000    5.714 
#    0.000    4.286    0.000   10.286    0.000    0.000 
#    0.000    0.000    0.000    0.000    0.000    0.000 
#
# Total GULP energy -78143.772887 kJ/mol
# GULP energy per Si atom -5581.698063 kJ/mol
# Density = 2.505191 g / cm^3
# Si number density = 25.109058 Si / 1000 Ang^3
#
#
#
# Elastic Constant Matrix: (Units=GPa)
#
#
# Indices 1 2 3 4 5 6 
#
# 1 144.6459 19.7043 59.8917 -3.2368 6.1759 -16.9489
# 2 19.7043 40.7820 10.2929 -9.9660 7.1175 -5.0172
# 3 59.8917 10.2929 94.4671 -7.3289 4.8869 -8.3810
# 4 -3.2368 -9.9660 -7.3289 18.4106 5.1441 -0.1840
# 5 6.1759 7.1175 4.8869 5.1441 52.7310 -5.3243
# 6 -16.9489 -5.0172 -8.3810 -0.1840 -5.3243 13.8300
#
#
#
# Elastic Compliance Matrix: (Units=1/GPa)
#
#
# Indices 1 2 3 4 5 6 
#
# 1 0.010744 -0.003383 -0.005909 -0.002448 0.000859 0.008657
# 2 -0.003383 0.032186 0.000921 0.018717 -0.005221 0.006328
# 3 -0.005909 0.000921 0.014893 0.005740 -0.001197 0.001733
# 4 -0.002448 0.018717 0.005740 0.068869 -0.009014 0.004715
# 5 0.000859 -0.005221 -0.001197 -0.009014 0.021213 0.006479
# 6 0.008657 0.006328 0.001733 0.004715 0.006479 0.088819
#
#
# Mechanical properties :
#
#
# Convention : Reuss Voigt Hill
#
# Bulk Modulus (GPa) = 24.34206 51.07475 37.70841
# Shear Modulus (GPa) = 18.71549 29.66137 24.18843
#
# Velocity S-wave (km/s) = 2.73310 3.44074 3.10713
# Velocity P-wave (km/s) = 4.43570 6.01417 5.28420
#
# Compressibility (1/GPa) = 0.04108115
#
# Stress axis : x y z
#
# Youngs Moduli (GPa) = 93.07544 31.06940 67.14638
#
# Poissons Ratio (x) = 0.10510 0.39679
# Poissons Ratio (y) = 0.31485 -0.06186
# Poissons Ratio (z) = 0.55002 -0.02862
#
# Static dielectric constant tensor:
#      x y z
#    x 2.072300 0.003960 -0.021750 
#    y 0.003960 2.138520 -0.049890 
#    z -0.021750 -0.049890 2.013040 
# 
# From -- ./inp_files/245494.got.cif
#   From: 2010.05.17/outbox.cif.g08.bks.cpg/sg2_123_cif.got.tgz:245494.got - 2010.06.03 11:33:40.
