data_PCOD9018375
_publ_section_title
;
Structure prediction by ZEFSAII (Michael W. Deem and Ramdas Pophale) SiO2 
 PCOD9018375
Probable space group: P -1
;
_chemical_formula_sum "Si O2"
_cell_formula_units_Z 16
_cell_length_a 13.636471
_cell_length_b 24.020121
_cell_length_c 12.888220
_cell_angle_alpha 21.135331
_cell_angle_beta 35.863556
_cell_angle_gamma 26.481534
_cell_volume 670.852454
_symmetry_space_group_name_H-M "P -1"
_symmetry_group_IT_number 2
_symmetry_cell_setting 'triclinic'
loop_
_space_group_symop_operation_xyz
x,y,z
-x,-y,-z
loop_
_atom_site_type_symbol
_atom_site_label
_atom_site_fract_x
_atom_site_fract_y
_atom_site_fract_z
Si Si1 0.983319 0.342149 0.339953
Si Si2 0.433301 0.377997 0.534925
Si Si3 0.855377 0.029620 0.667029
Si Si4 0.215095 0.319963 0.388560
Si Si5 0.394807 0.911630 0.692073
Si Si6 0.687045 0.236611 0.781300
Si Si7 0.097958 0.343223 0.786500
Si Si8 0.999739 0.838684 0.087243
O O1 0.763898 0.368650 0.488486
O O2 0.066052 0.341012 0.385365
O O3 0.149622 0.126681 0.510249
O O4 0.000000 0.500000 0.000000
O O5 0.538526 0.299343 0.696146
O O6 0.290639 0.318003 0.724643
O O7 0.248548 0.624481 0.259723
O O8 0.636289 0.259499 0.485271
O O9 0.813975 0.875960 0.940633
O O10 0.993177 0.938603 0.813825
O O11 0.000000 0.000000 0.500000
O O12 0.453399 0.212198 0.322608
O O13 0.180749 0.192285 0.714367
O O14 0.103836 0.530894 0.175445
O O15 0.500000 0.000000 0.500000
O O16 0.401433 0.779289 0.006860
O O17 0.903864 0.998865 0.983963
O O18 0.000000 0.500000 0.500000
#
# Coordination Sequence:
#
# PCOD9018375 Si02
#       8
#     2   2   2   2   2   2   2   2
#     4  11  25  46  71 106 151 195 245 302 360 439
#     4  10  24  45  79 108 140 197 242 289 384 440
#     4  11  24  45  74 109 145 181 249 312 360 426
#     4  10  22  43  70 102 144 186 248 289 358 440
#     4  10  21  43  70 105 143 191 239 295 363 428
#     4  11  23  47  76 106 154 195 239 304 364 440
#     4  11  22  48  76 101 143 196 242 302 365 432
#     4  10  21  45  71 105 147 190 238 298 366 444
#
# _framework density 23.850249999999999
#
# number of rings (size 3 to 8) (size 9 to 14) (size 15 to 20)
#    0.000    1.500    5.000    0.750    0.000    6.500 
#    9.000    6.250    0.000    0.000    0.000    0.000 
#    0.000    0.000    0.000    0.000    0.000    0.000 
#
# Total GULP energy -89357.304504 kJ/mol
# GULP energy per Si atom -5584.831531 kJ/mol
# Density = 2.379597 g / cm^3
# Si number density = 23.850250 Si / 1000 Ang^3
#
#
#
# Elastic Constant Matrix: (Units=GPa)
#
#
# Indices 1 2 3 4 5 6 
#
# 1 100.5380 40.4057 33.4256 7.1529 -7.6661 4.9963
# 2 40.4057 203.7004 70.4558 -1.6181 19.8559 31.9009
# 3 33.4256 70.4558 120.4601 12.0179 6.2643 -3.8229
# 4 7.1529 -1.6181 12.0179 52.1215 2.5568 -4.8763
# 5 -7.6661 19.8559 6.2643 2.5568 31.8466 4.5333
# 6 4.9963 31.9009 -3.8229 -4.8763 4.5333 42.1872
#
#
#
# Elastic Compliance Matrix: (Units=1/GPa)
#
#
# Indices 1 2 3 4 5 6 
#
# 1 0.012008 -0.001914 -0.002341 -0.001484 0.004788 -0.000873
# 2 -0.001914 0.008048 -0.004268 0.001157 -0.003922 -0.005690
# 3 -0.002341 -0.004268 0.011832 -0.002093 -0.000690 0.004409
# 4 -0.001484 0.001157 -0.002093 0.020193 -0.002532 0.001718
# 5 0.004788 -0.003922 -0.000690 -0.002532 0.035591 -0.001781
# 6 -0.000873 -0.005690 0.004409 0.001718 -0.001781 0.028900
#
#
# Mechanical properties :
#
#
# Convention : Reuss Voigt Hill
#
# Bulk Modulus (GPa) = 67.37820 79.25251 73.31536
# Shear Modulus (GPa) = 36.08433 43.92516 40.00474
#
# Velocity S-wave (km/s) = 3.89389 4.29617 4.09997
# Velocity P-wave (km/s) = 6.96623 7.60991 7.29517
#
# Compressibility (1/GPa) = 0.01484160
#
# Stress axis : x y z
#
# Youngs Moduli (GPa) = 83.27714 124.26086 84.51632
#
# Poissons Ratio (x) = 0.23782 0.19788
# Poissons Ratio (y) = 0.15938 0.36071
# Poissons Ratio (z) = 0.19498 0.53034
#
# Static dielectric constant tensor:
#      x y z
#    x 1.919870 -0.040400 0.009980 
#    y -0.040400 2.062030 0.012790 
#    z 0.009980 0.012790 2.034650 
# 
# From -- ./inp_files/539451.got.cif
#   From: 2010.05.17/outbox.cif.g08.bks.cpg/sg2_270_cif.got.tgz:539451.got - 2010.06.03 11:33:40.
