data_PCOD9018218
_publ_section_title
;
Structure prediction by ZEFSAII (Michael W. Deem and Ramdas Pophale) SiO2 
 PCOD9018218
Probable space group: P -1
;
_chemical_formula_sum "Si O2"
_cell_formula_units_Z 14
_cell_length_a 17.228477
_cell_length_b 11.367332
_cell_length_c 8.286128
_cell_angle_alpha 141.182414
_cell_angle_beta 130.704542
_cell_angle_gamma 31.569473
_cell_volume 532.211122
_symmetry_space_group_name_H-M "P -1"
_symmetry_group_IT_number 2
_symmetry_cell_setting 'triclinic'
loop_
_space_group_symop_operation_xyz
x,y,z
-x,-y,-z
loop_
_atom_site_type_symbol
_atom_site_label
_atom_site_fract_x
_atom_site_fract_y
_atom_site_fract_z
Si Si1 0.755781 0.597512 0.486472
Si Si2 0.256857 0.117225 0.684596
Si Si3 0.598425 0.263467 0.248875
Si Si4 0.007040 0.973446 0.178600
Si Si5 0.955401 0.629161 0.895110
Si Si6 0.519689 0.634413 0.303437
Si Si7 0.689482 0.568401 0.008794
O O1 0.797954 0.749726 0.759826
O O2 0.597969 0.723328 0.458865
O O3 0.750110 0.581802 0.269298
O O4 0.888981 0.288653 0.405471
O O5 0.312385 0.258344 0.932840
O O6 0.083651 0.358041 0.669638
O O7 0.278239 0.996751 0.758408
O O8 0.364838 0.879264 0.445792
O O9 0.500000 0.500000 0.500000
O O10 0.638211 0.374930 0.302579
O O11 0.473545 0.293732 0.037383
O O12 0.966803 0.830479 0.064034
O O13 0.185236 0.749289 0.210939
O O14 0.000000 0.000000 0.000000
O O15 0.000000 0.500000 0.000000
O O16 0.500000 0.500000 0.000000
#
# Coordination Sequence:
#
# PCOD9018218 Si02
#       7
#     2   2   2   2   2   2   2
#     4  11  25  43  73 105 145 186 244 307 364 434
#     4  10  25  45  71  98 147 189 237 301 364 435
#     4  10  22  40  67  99 139 184 236 290 360 428
#     4   9  23  44  74 103 144 188 244 304 366 436
#     4  11  27  48  72 111 148 194 249 304 373 441
#     4  11  24  44  70 107 142 188 245 298 367 438
#     4  10  21  43  69 102 134 188 243 294 364 426
#
# _framework density 26.305351999999999
#
# number of rings (size 3 to 8) (size 9 to 14) (size 15 to 20)
#    0.000    1.714    1.429    0.429    6.000   14.286 
#    0.000    0.000    0.000    0.000    0.000    0.000 
#    0.000    0.000    0.000    0.000    0.000    0.000 
#
# Total GULP energy -78216.513385 kJ/mol
# GULP energy per Si atom -5586.893813 kJ/mol
# Density = 2.624548 g / cm^3
# Si number density = 26.305352 Si / 1000 Ang^3
#
#
#
# Elastic Constant Matrix: (Units=GPa)
#
#
# Indices 1 2 3 4 5 6 
#
# 1 139.4118 30.5216 28.6455 -7.0236 22.3428 2.4564
# 2 30.5216 96.0226 35.9825 19.3674 2.5257 0.6682
# 3 28.6455 35.9825 71.1551 2.6923 1.0329 -13.7242
# 4 -7.0236 19.3674 2.6923 43.5941 -9.6252 2.5637
# 5 22.3428 2.5257 1.0329 -9.6252 39.3139 5.8954
# 6 2.4564 0.6682 -13.7242 2.5637 5.8954 61.4771
#
#
#
# Elastic Compliance Matrix: (Units=1/GPa)
#
#
# Indices 1 2 3 4 5 6 
#
# 1 0.008970 -0.002043 -0.002685 0.001576 -0.004424 -0.000577
# 2 -0.002043 0.014974 -0.006709 -0.006739 -0.001096 -0.001193
# 3 -0.002685 -0.006709 0.019294 0.001352 0.001133 0.004322
# 4 0.001576 -0.006739 0.001352 0.027621 0.006483 -0.001461
# 5 -0.004424 -0.001096 0.001133 0.006483 0.029984 -0.002704
# 6 -0.000577 -0.001193 0.004322 -0.001461 -0.002704 0.017587
#
#
# Mechanical properties :
#
#
# Convention : Reuss Voigt Hill
#
# Bulk Modulus (GPa) = 49.10523 55.20983 52.15753
# Shear Modulus (GPa) = 33.76293 42.97300 38.36797
#
# Velocity S-wave (km/s) = 3.58648 4.04619 3.82325
# Velocity P-wave (km/s) = 5.98819 6.54695 6.27379
#
# Compressibility (1/GPa) = 0.02036443
#
# Stress axis : x y z
#
# Youngs Moduli (GPa) = 111.47703 66.78293 51.83087
#
# Poissons Ratio (x) = 0.13641 0.13917
# Poissons Ratio (y) = 0.22770 0.34773
# Poissons Ratio (z) = 0.29933 0.44805
#
# Static dielectric constant tensor:
#      x y z
#    x 2.013190 -0.006030 -0.037640 
#    y -0.006030 2.089330 0.017140 
#    z -0.037640 0.017140 2.059050 
# 
# From -- ./inp_files/333944.got.cif
#   From: 2010.05.17/outbox.cif.g08.bks.cpg/sg2_167_cif.got.tgz:333944.got - 2010.06.03 11:33:40.
