data_PCOD9018052
_publ_section_title
;
Structure prediction by ZEFSAII (Michael W. Deem and Ramdas Pophale) SiO2 
 PCOD9018052
Probable space group: P -1
;
_chemical_formula_sum "Si O2"
_cell_formula_units_Z 14
_cell_length_a 21.575882
_cell_length_b 10.134308
_cell_length_c 9.328884
_cell_angle_alpha 123.623479
_cell_angle_beta 152.921592
_cell_angle_gamma 46.031844
_cell_volume 655.250790
_symmetry_space_group_name_H-M "P -1"
_symmetry_group_IT_number 2
_symmetry_cell_setting 'triclinic'
loop_
_space_group_symop_operation_xyz
x,y,z
-x,-y,-z
loop_
_atom_site_type_symbol
_atom_site_label
_atom_site_fract_x
_atom_site_fract_y
_atom_site_fract_z
Si Si1 0.654652 0.383454 0.643179
Si Si2 0.266647 0.934536 0.196101
Si Si3 0.398041 0.701294 0.837154
Si Si4 0.163268 0.817929 0.664005
Si Si5 0.021649 0.351648 0.842630
Si Si6 0.840861 0.602225 0.137777
Si Si7 0.460195 0.008294 0.250352
O O1 0.500000 0.500000 0.500000
O O2 0.765764 0.182142 0.827282
O O3 0.610980 0.337808 0.371367
O O4 0.746323 0.493949 0.882901
O O5 0.421195 0.942657 0.553162
O O6 0.293959 0.821674 0.035845
O O7 0.129980 0.148591 0.016479
O O8 0.222712 0.809802 0.620413
O O9 0.500000 0.500000 0.000000
O O10 0.476484 0.821262 0.112119
O O11 0.137057 0.647508 0.529651
O O12 0.000000 0.000000 0.500000
O O13 0.104930 0.382070 0.899267
O O14 0.000000 0.500000 0.000000
O O15 0.000000 0.500000 0.500000
O O16 0.716592 0.819551 0.047505
O O17 0.500000 0.000000 0.500000
#
# Coordination Sequence:
#
# PCOD9018052 Si02
#       7
#     2   2   2   2   2   2   2
#     4  12  26  47  69 110 152 193 247 308 371 441
#     4  11  23  44  72  98 145 191 239 304 363 438
#     4  12  26  42  76 110 145 196 249 308 375 446
#     4  10  21  43  68 101 141 191 239 298 371 435
#     4  11  24  42  69 103 141 189 243 301 364 441
#     4  12  26  47  74 105 147 194 242 308 369 434
#     4  12  22  46  76 105 142 193 251 297 369 446
#
# _framework density 21.365864999999999
#
# number of rings (size 3 to 8) (size 9 to 14) (size 15 to 20)
#    0.000    0.571    4.286    4.286    2.000    2.857 
#    0.000    4.286    0.000    0.000    0.000    0.000 
#    0.000    0.000    0.000    0.000    0.000    0.000 
#
# Total GULP energy -78182.188326 kJ/mol
# GULP energy per Si atom -5584.442023 kJ/mol
# Density = 2.131724 g / cm^3
# Si number density = 21.365865 Si / 1000 Ang^3
#
#
#
# Elastic Constant Matrix: (Units=GPa)
#
#
# Indices 1 2 3 4 5 6 
#
# 1 90.6985 50.4432 32.5228 22.4533 -6.2569 0.8615
# 2 50.4432 174.0839 70.5722 28.6016 -16.4916 10.7095
# 3 32.5228 70.5722 98.0320 23.3962 -3.2795 -6.9420
# 4 22.4533 28.6016 23.3962 58.7169 11.7895 -0.2196
# 5 -6.2569 -16.4916 -3.2795 11.7895 40.7254 6.9986
# 6 0.8615 10.7095 -6.9420 -0.2196 6.9986 39.8730
#
#
#
# Elastic Compliance Matrix: (Units=1/GPa)
#
#
# Indices 1 2 3 4 5 6 
#
# 1 0.014218 -0.002435 -0.001985 -0.003912 0.002242 -0.000414
# 2 -0.002435 0.010001 -0.005949 -0.002531 0.004704 -0.004509
# 3 -0.001985 -0.005949 0.015992 -0.002389 -0.001540 0.004682
# 4 -0.003912 -0.002531 -0.002389 0.022458 -0.008662 0.001993
# 5 0.002242 0.004704 -0.001540 -0.008662 0.030384 -0.006961
# 6 -0.000414 -0.004509 0.004682 0.001993 -0.006961 0.028348
#
#
# Mechanical properties :
#
#
# Convention : Reuss Voigt Hill
#
# Bulk Modulus (GPa) = 51.35284 74.43232 62.89258
# Shear Modulus (GPa) = 33.64047 41.81479 37.72763
#
# Velocity S-wave (km/s) = 3.97230 4.42869 4.20669
# Velocity P-wave (km/s) = 6.71759 7.81433 7.28662
#
# Compressibility (1/GPa) = 0.01947312
#
# Stress axis : x y z
#
# Youngs Moduli (GPa) = 70.33095 99.99434 62.52983
#
# Poissons Ratio (x) = 0.24345 0.12413
# Poissons Ratio (y) = 0.17123 0.37202
# Poissons Ratio (z) = 0.13961 0.59491
#
# Static dielectric constant tensor:
#      x y z
#    x 1.752540 -0.010400 0.021190 
#    y -0.010400 1.750110 -0.011180 
#    z 0.021190 -0.011180 1.880570 
# 
# From -- ./inp_files/343809.got.cif
#   From: 2010.05.17/outbox.cif.g08.bks.cpg/sg2_172_cif.got.tgz:343809.got - 2010.06.03 11:33:40.
