data_PCOD9018652
_publ_section_title
;
Structure prediction by ZEFSAII (Michael W. Deem and Ramdas Pophale) SiO2 
 PCOD9018652
Probable space group: P -1
;
_chemical_formula_sum "Si O2"
_cell_formula_units_Z 16
_cell_length_a 17.867212
_cell_length_b 7.194359
_cell_length_c 19.546583
_cell_angle_alpha 127.973445
_cell_angle_beta 21.688276
_cell_angle_gamma 137.821985
_cell_volume 595.628213
_symmetry_space_group_name_H-M "P -1"
_symmetry_group_IT_number 2
_symmetry_cell_setting 'triclinic'
loop_
_space_group_symop_operation_xyz
x,y,z
-x,-y,-z
loop_
_atom_site_type_symbol
_atom_site_label
_atom_site_fract_x
_atom_site_fract_y
_atom_site_fract_z
Si Si1 0.423614 0.674531 0.560764
Si Si2 0.678242 0.472028 0.995417
Si Si3 0.942390 0.527430 0.657512
Si Si4 0.791352 0.715181 0.574097
Si Si5 0.941326 0.053356 0.137763
Si Si6 0.489825 0.171700 0.865240
Si Si7 0.243711 0.824818 0.870828
Si Si8 0.990134 0.875181 0.289855
O O1 0.500000 0.500000 0.500000
O O2 0.387749 0.864179 0.687281
O O3 0.165811 0.410020 0.688954
O O4 0.650113 0.863323 0.358367
O O5 0.464274 0.328726 0.201466
O O6 0.564967 0.610277 0.074248
O O7 0.762493 0.357654 0.837246
O O8 0.926453 0.635098 0.869852
O O9 0.179275 0.524585 0.471881
O O10 0.234603 0.649515 0.296982
O O11 0.023266 0.857054 0.661550
O O12 0.861500 0.768104 0.447828
O O13 0.000000 0.000000 0.500000
O O14 0.000000 0.000000 0.000000
O O15 0.107970 0.983449 0.024154
O O16 0.410739 0.925074 0.819297
O O17 0.282219 0.017538 0.066495
O O18 0.000000 0.500000 0.000000
#
# Coordination Sequence:
#
# PCOD9018652 Si02
#       8
#     2   2   2   2   2   2   2   2
#     4  12  23  42  73 103 135 188 238 279 352 430
#     4  10  23  45  68 101 146 176 233 302 346 417
#     4  11  25  48  72  99 142 190 226 288 364 412
#     4  12  27  45  69 106 140 182 240 286 349 428
#     4  11  25  44  68 103 140 184 234 290 353 414
#     4  10  21  43  73  98 138 187 230 286 353 422
#     4  11  22  44  69 101 138 177 231 292 339 411
#     4  11  24  44  72 104 141 182 236 291 347 422
#
# _framework density 26.862393000000001
#
# number of rings (size 3 to 8) (size 9 to 14) (size 15 to 20)
#    0.000    1.000    2.500    5.250    0.000   10.500 
#    2.250    3.750    0.000    0.000    0.000    0.000 
#    0.000    0.000    0.000    0.000    0.000    0.000 
#
# Total GULP energy -89513.566521 kJ/mol
# GULP energy per Si atom -5594.597908 kJ/mol
# Density = 2.680125 g / cm^3
# Si number density = 26.862393 Si / 1000 Ang^3
#
#
#
# Elastic Constant Matrix: (Units=GPa)
#
#
# Indices 1 2 3 4 5 6 
#
# 1 98.0004 44.8584 44.2684 3.0574 11.8212 12.5814
# 2 44.8584 71.4036 31.1953 2.4170 -10.3338 17.9658
# 3 44.2684 31.1953 184.5610 -8.4063 11.5596 4.8611
# 4 3.0574 2.4170 -8.4063 41.2259 -1.0529 -6.3551
# 5 11.8212 -10.3338 11.5596 -1.0529 51.8530 11.5970
# 6 12.5814 17.9658 4.8611 -6.3551 11.5970 52.9885
#
#
#
# Elastic Compliance Matrix: (Units=1/GPa)
#
#
# Indices 1 2 3 4 5 6 
#
# 1 0.016481 -0.010563 -0.001882 -0.000983 -0.005679 0.000966
# 2 -0.010563 0.025144 -0.002206 -0.002156 0.009700 -0.008196
# 3 -0.001882 -0.002206 0.006394 0.001712 -0.001665 0.001178
# 4 -0.000983 -0.002156 0.001712 0.025407 -0.000982 0.004069
# 5 -0.005679 0.009700 -0.001665 -0.000982 0.024489 -0.007265
# 6 0.000966 -0.008196 0.001178 0.004069 -0.007265 0.023392
#
#
# Mechanical properties :
#
#
# Convention : Reuss Voigt Hill
#
# Bulk Modulus (GPa) = 53.43128 66.06770 59.74949
# Shear Modulus (GPa) = 31.87772 44.78966 38.33369
#
# Velocity S-wave (km/s) = 3.44859 4.08778 3.78172
# Velocity P-wave (km/s) = 5.98256 6.85041 6.43114
#
# Compressibility (1/GPa) = 0.01871563
#
# Stress axis : x y z
#
# Youngs Moduli (GPa) = 60.67519 39.77061 156.40109
#
# Poissons Ratio (x) = 0.42011 0.29438
# Poissons Ratio (y) = 0.64094 0.34505
# Poissons Ratio (z) = 0.11420 0.08774
#
# Static dielectric constant tensor:
#      x y z
#    x 2.107890 -0.138690 0.018070 
#    y -0.138690 1.908220 -0.203250 
#    z 0.018070 -0.203250 2.098100 
# 
# From -- ./inp_files/342420.got.cif
#   From: 2010.05.17/outbox.cif.g08.bks.cpg/sg2_172_cif.got.tgz:342420.got - 2010.06.03 11:33:40.
