data_PCOD9018253
_publ_section_title
;
Structure prediction by ZEFSAII (Michael W. Deem and Ramdas Pophale) SiO2 
 PCOD9018253
Probable space group: P -1
;
_chemical_formula_sum "Si O2"
_cell_formula_units_Z 16
_cell_length_a 24.418983
_cell_length_b 8.507750
_cell_length_c 8.934735
_cell_angle_alpha 67.548444
_cell_angle_beta 28.394285
_cell_angle_gamma 58.040650
_cell_volume 732.587341
_symmetry_space_group_name_H-M "P -1"
_symmetry_group_IT_number 2
_symmetry_cell_setting 'triclinic'
loop_
_space_group_symop_operation_xyz
x,y,z
-x,-y,-z
loop_
_atom_site_type_symbol
_atom_site_label
_atom_site_fract_x
_atom_site_fract_y
_atom_site_fract_z
Si Si1 0.147176 0.816609 0.068984
Si Si2 0.538407 0.838228 0.097250
Si Si3 0.733731 0.403962 0.716177
Si Si4 0.152587 0.882788 0.695102
Si Si5 0.755872 0.839716 0.781624
Si Si6 0.882729 0.833649 0.777708
Si Si7 0.040686 0.538174 0.726088
Si Si8 0.626260 0.309035 0.276127
O O1 0.018120 0.791556 0.386250
O O2 0.143844 0.975313 0.137156
O O3 0.174042 0.871048 0.822746
O O4 0.273386 0.642233 0.887373
O O5 0.416080 0.828772 0.476142
O O6 0.633170 0.626557 0.881194
O O7 0.623412 0.861664 0.019809
O O8 0.500000 0.000000 0.000000
O O9 0.783318 0.321441 0.463536
O O10 0.865659 0.364246 0.500513
O O11 0.675035 0.285153 0.995673
O O12 0.217274 0.996894 0.416122
O O13 0.000000 0.000000 0.000000
O O14 0.779429 0.841573 0.902070
O O15 0.870648 0.648238 0.510291
O O16 0.919253 0.670336 0.872205
O O17 0.000000 0.500000 0.000000
O O18 0.500000 0.500000 0.500000
#
# Coordination Sequence:
#
# PCOD9018253 Si02
#       8
#     2   2   2   2   2   2   2   2
#     4  11  22  38  67  94 128 174 227 284 333 398
#     4  10  23  45  71 100 139 182 230 289 346 399
#     4  10  22  42  68  97 131 181 235 274 334 417
#     4  12  22  39  66 100 137 175 223 275 345 420
#     4  11  23  39  63 100 136 170 223 286 339 414
#     4  11  22  39  63  98 131 173 225 282 348 404
#     4  11  22  38  61  96 138 176 211 283 357 408
#     4  10  21  43  69  91 127 182 231 276 330 401
#
# _framework density 21.840399000000001
#
# number of rings (size 3 to 8) (size 9 to 14) (size 15 to 20)
#    0.000    1.250    2.500    4.125    0.000    1.000 
#    0.000    9.375    0.000    1.500    0.000    0.000 
#    0.000    0.000    0.000    0.000    0.000    0.000 
#
# Total GULP energy -89298.418606 kJ/mol
# GULP energy per Si atom -5581.151163 kJ/mol
# Density = 2.179069 g / cm^3
# Si number density = 21.840399 Si / 1000 Ang^3
#
#
#
# Elastic Constant Matrix: (Units=GPa)
#
#
# Indices 1 2 3 4 5 6 
#
# 1 147.8818 43.3529 42.8215 -2.0720 6.0924 -19.5753
# 2 43.3529 70.7755 23.5760 -6.1409 9.1368 -15.0924
# 3 42.8215 23.5760 104.3147 -13.7613 3.5346 -4.1605
# 4 -2.0720 -6.1409 -13.7613 32.0336 -5.7125 6.3890
# 5 6.0924 9.1368 3.5346 -5.7125 37.6138 -4.0295
# 6 -19.5753 -15.0924 -4.1605 6.3890 -4.0295 41.3397
#
#
#
# Elastic Compliance Matrix: (Units=1/GPa)
#
#
# Indices 1 2 3 4 5 6 
#
# 1 0.009213 -0.004199 -0.002989 -0.002095 -0.000206 0.002832
# 2 -0.004199 0.018788 -0.002114 0.001036 -0.003078 0.004198
# 3 -0.002989 -0.002114 0.011856 0.004916 0.000447 -0.001710
# 4 -0.002095 0.001036 0.004916 0.035204 0.004423 -0.005129
# 5 -0.000206 -0.003078 0.000447 0.004423 0.028091 0.000878
# 6 0.002832 0.004198 -0.001710 -0.005129 0.000878 0.027770
#
#
# Mechanical properties :
#
#
# Convention : Reuss Voigt Hill
#
# Bulk Modulus (GPa) = 47.05334 60.27477 53.66405
# Shear Modulus (GPa) = 31.92654 36.41219 34.16936
#
# Velocity S-wave (km/s) = 3.82751 4.08756 3.95967
# Velocity P-wave (km/s) = 6.41281 7.06649 6.74757
#
# Compressibility (1/GPa) = 0.02125248
#
# Stress axis : x y z
#
# Youngs Moduli (GPa) = 108.54615 53.22639 84.34210
#
# Poissons Ratio (x) = 0.22347 0.25213
# Poissons Ratio (y) = 0.45573 0.17833
# Poissons Ratio (z) = 0.32448 0.11254
#
# Static dielectric constant tensor:
#      x y z
#    x 1.811970 -0.015690 0.045200 
#    y -0.015690 1.907570 0.058200 
#    z 0.045200 0.058200 1.862450 
# 
# From -- ./inp_files/271391.got.cif
#   From: 2010.05.17/outbox.cif.g08.bks.cpg/sg2_136_cif.got.tgz:271391.got - 2010.06.03 11:33:40.
