data_PCOD9018972
_publ_section_title
;
Structure prediction by ZEFSAII (Michael W. Deem and Ramdas Pophale) SiO2 
 PCOD9018972
Probable space group: P -1
;
_chemical_formula_sum "Si O2"
_cell_formula_units_Z 14
_cell_length_a 7.080210
_cell_length_b 11.254452
_cell_length_c 10.513964
_cell_angle_alpha 126.923524
_cell_angle_beta 114.162815
_cell_angle_gamma 73.901578
_cell_volume 610.517383
_symmetry_space_group_name_H-M "P -1"
_symmetry_group_IT_number 2
_symmetry_cell_setting 'triclinic'
loop_
_space_group_symop_operation_xyz
x,y,z
-x,-y,-z
loop_
_atom_site_type_symbol
_atom_site_label
_atom_site_fract_x
_atom_site_fract_y
_atom_site_fract_z
Si Si1 0.227284 0.695280 0.860223
Si Si2 0.550316 0.983731 0.285444
Si Si3 0.376038 0.736823 0.216525
Si Si4 0.100698 0.832009 0.429359
Si Si5 0.792233 0.632566 0.376954
Si Si6 0.603245 0.837422 0.960922
Si Si7 0.825733 0.818870 0.759717
O O1 0.128994 0.538321 0.706767
O O2 0.433160 0.715828 0.849991
O O3 0.070798 0.824185 0.844723
O O4 0.289380 0.704296 0.031501
O O5 0.509698 0.885454 0.334118
O O6 0.680447 0.130525 0.420017
O O7 0.316274 0.035397 0.216982
O O8 0.667664 0.873632 0.146145
O O9 0.183768 0.763423 0.275430
O O10 0.559737 0.627407 0.249714
O O11 0.948814 0.728665 0.397721
O O12 0.000000 0.000000 0.500000
O O13 0.779741 0.708059 0.560503
O O14 0.760331 0.782011 0.861877
O O15 0.500000 0.000000 0.000000
#
# Coordination Sequence:
#
# PCOD9018972 Si02
#       7
#     2   2   2   2   2   2   2
#     4  11  27  44  66  96 133 175 217 263 322 392
#     4  10  21  44  67 102 127 165 220 276 319 382
#     4  11  24  45  68  96 131 171 218 274 319 377
#     4  12  24  40  72  96 132 169 219 267 328 384
#     4  12  26  44  65  98 133 173 220 264 319 388
#     4   9  23  42  66  94 129 167 215 265 323 378
#     4  11  24  43  67  97 134 168 216 265 332 379
#
# _framework density 22.931372
#
# number of rings (size 3 to 8) (size 9 to 14) (size 15 to 20)
#    0.000    1.143    2.857    2.143    6.000    7.429 
#    0.000    0.000    0.000    0.000    0.000    0.000 
#    0.000    0.000    0.000    0.000    0.000    0.000 
#
# Total GULP energy -78095.339237 kJ/mol
# GULP energy per Si atom -5578.238517 kJ/mol
# Density = 2.287918 g / cm^3
# Si number density = 22.931372 Si / 1000 Ang^3
#
#
#
# Elastic Constant Matrix: (Units=GPa)
#
#
# Indices 1 2 3 4 5 6 
#
# 1 85.2437 14.5441 24.5404 11.3823 -15.6714 7.1505
# 2 14.5441 56.0752 7.4262 10.8178 6.3504 -2.8369
# 3 24.5404 7.4262 89.9279 3.3783 -9.1549 9.5644
# 4 11.3823 10.8178 3.3783 29.6798 4.8061 18.6264
# 5 -15.6714 6.3504 -9.1549 4.8061 39.6702 -10.0407
# 6 7.1505 -2.8369 9.5644 18.6264 -10.0407 37.2933
#
#
#
# Elastic Compliance Matrix: (Units=1/GPa)
#
#
# Indices 1 2 3 4 5 6 
#
# 1 0.015310 -0.002624 -0.003283 -0.008225 0.007691 0.003886
# 2 -0.002624 0.021465 -0.001614 -0.011263 -0.001514 0.007767
# 3 -0.003283 -0.001614 0.012517 0.002848 0.000495 -0.003993
# 4 -0.008225 -0.011263 0.002848 0.068348 -0.019008 -0.039265
# 5 0.007691 -0.001514 0.000495 -0.019008 0.035278 0.017275
# 6 0.003886 0.007767 -0.003993 -0.039265 0.017275 0.051947
#
#
# Mechanical properties :
#
#
# Convention : Reuss Voigt Hill
#
# Bulk Modulus (GPa) = 29.19572 36.02981 32.61276
# Shear Modulus (GPa) = 21.61494 33.64441 27.62968
#
# Velocity S-wave (km/s) = 3.07350 3.83453 3.47491
# Velocity P-wave (km/s) = 5.03534 5.94567 5.50934
#
# Compressibility (1/GPa) = 0.03425160
#
# Stress axis : x y z
#
# Youngs Moduli (GPa) = 65.31693 46.58812 79.89079
#
# Poissons Ratio (x) = 0.12224 0.26225
# Poissons Ratio (y) = 0.17137 0.12892
# Poissons Ratio (z) = 0.21441 0.07518
#
# Static dielectric constant tensor:
#      x y z
#    x 1.836990 -0.024640 0.017860 
#    y -0.024640 1.877250 -0.073220 
#    z 0.017860 -0.073220 1.945890 
# 
# From -- ./inp_files/363804.got.cif
#   From: 2010.05.17/outbox.cif.g08.bks.cpg/sg2_182_cif.got.tgz:363804.got - 2010.06.03 11:33:40.
