data_PCOD9018024
_publ_section_title
;
Structure prediction by ZEFSAII (Michael W. Deem and Ramdas Pophale) SiO2 
 PCOD9018024
Probable space group: P -1
;
_chemical_formula_sum "Si O2"
_cell_formula_units_Z 16
_cell_length_a 11.539769
_cell_length_b 8.622984
_cell_length_c 13.238061
_cell_angle_alpha 44.168337
_cell_angle_beta 75.231615
_cell_angle_gamma 50.494742
_cell_volume 656.606329
_symmetry_space_group_name_H-M "P -1"
_symmetry_group_IT_number 2
_symmetry_cell_setting 'triclinic'
loop_
_space_group_symop_operation_xyz
x,y,z
-x,-y,-z
loop_
_atom_site_type_symbol
_atom_site_label
_atom_site_fract_x
_atom_site_fract_y
_atom_site_fract_z
Si Si1 0.941089 0.455491 0.720141
Si Si2 0.580051 0.606300 0.489260
Si Si3 0.106465 0.692414 0.554521
Si Si4 0.718134 0.543130 0.171182
Si Si5 0.139396 0.185909 0.004066
Si Si6 0.445226 0.545674 0.211347
Si Si7 0.633885 0.704685 0.790332
Si Si8 0.102736 0.833093 0.863327
O O1 0.997260 0.617469 0.582929
O O2 0.016953 0.391387 0.845229
O O3 0.754333 0.638479 0.703548
O O4 0.024164 0.144334 0.789798
O O5 0.500000 0.500000 0.500000
O O6 0.771883 0.382430 0.526062
O O7 0.550292 0.592021 0.620379
O O8 0.478544 0.948893 0.317457
O O9 0.239553 0.467218 0.717438
O O10 0.000000 0.000000 0.500000
O O11 0.760838 0.724786 0.025435
O O12 0.546559 0.644452 0.150068
O O13 0.831102 0.222447 0.238086
O O14 0.033528 0.188296 0.106997
O O15 0.263360 0.851905 0.088998
O O16 0.486101 0.331969 0.210932
O O17 0.749475 0.448655 0.968946
#
# Coordination Sequence:
#
# PCOD9018024 Si02
#       8
#     2   2   2   2   2   2   2   2
#     4  10  21  44  72  98 134 176 226 276 330 397
#     4  12  27  46  68  97 134 185 223 270 346 397
#     4  11  26  48  68  98 135 177 231 279 324 402
#     4  11  26  39  66 104 134 171 229 279 335 392
#     4  10  21  43  67  99 135 175 223 283 328 392
#     4  12  24  44  67  97 144 171 226 271 342 403
#     4  11  24  45  69  99 139 178 219 277 338 405
#     4  11  22  43  72 103 133 178 223 278 340 389
#
# _framework density 24.367721
#
# number of rings (size 3 to 8) (size 9 to 14) (size 15 to 20)
#    0.000    1.000    3.750    2.625    5.250    2.500 
#    0.000    1.250    0.000    0.000    0.000    0.000 
#    0.000    0.000    0.000    0.000    0.000    0.000 
#
# Total GULP energy -89408.477754 kJ/mol
# GULP energy per Si atom -5588.029860 kJ/mol
# Density = 2.431226 g / cm^3
# Si number density = 24.367721 Si / 1000 Ang^3
#
#
#
# Elastic Constant Matrix: (Units=GPa)
#
#
# Indices 1 2 3 4 5 6 
#
# 1 133.5257 20.8371 43.4732 -0.9259 -18.7605 4.7015
# 2 20.8371 103.8581 22.4659 -16.5903 -13.5927 4.0924
# 3 43.4732 22.4659 63.3459 -13.3328 -12.3535 9.8928
# 4 -0.9259 -16.5903 -13.3328 37.1288 13.3666 -2.3330
# 5 -18.7605 -13.5927 -12.3535 13.3666 22.1976 -0.9263
# 6 4.7015 4.0924 9.8928 -2.3330 -0.9263 37.4892
#
#
#
# Elastic Compliance Matrix: (Units=1/GPa)
#
#
# Indices 1 2 3 4 5 6 
#
# 1 0.010938 -0.000485 -0.006897 -0.005416 0.008386 0.000371
# 2 -0.000485 0.011141 -0.002306 0.002908 0.003366 -0.000283
# 3 -0.006897 -0.002306 0.023795 0.006328 0.001994 -0.004719
# 4 -0.005416 0.002908 0.006328 0.038475 -0.022421 0.000532
# 5 0.008386 0.003366 0.001994 -0.022421 0.068741 -0.001642
# 6 0.000371 -0.000283 -0.004719 0.000532 -0.001642 0.027897
#
#
# Mechanical properties :
#
#
# Convention : Reuss Voigt Hill
#
# Bulk Modulus (GPa) = 37.73766 52.69800 45.21783
# Shear Modulus (GPa) = 23.90104 33.62669 28.76387
#
# Velocity S-wave (km/s) = 3.13525 3.71882 3.43943
# Velocity P-wave (km/s) = 5.35040 6.33345 5.86257
#
# Compressibility (1/GPa) = 0.02649873
#
# Stress axis : x y z
#
# Youngs Moduli (GPa) = 91.42381 89.76005 42.02501
#
# Poissons Ratio (x) = 0.04352 0.28986
# Poissons Ratio (y) = 0.04433 0.09690
# Poissons Ratio (z) = 0.63057 0.20696
#
# Static dielectric constant tensor:
#      x y z
#    x 1.918690 -0.034720 -0.006060 
#    y -0.034720 1.987240 -0.003620 
#    z -0.006060 -0.003620 2.065690 
# 
# From -- ./inp_files/182356.got.cif
#   From: 2010.05.17/outbox.cif.g08.bks.cpg/sg2_92_cif.got.tgz:182356.got - 2010.06.03 11:33:40.
