data_PCOD9018849
_publ_section_title
;
Structure prediction by ZEFSAII (Michael W. Deem and Ramdas Pophale) SiO2 
 PCOD9018849
Probable space group: P -1
;
_chemical_formula_sum "Si O2"
_cell_formula_units_Z 16
_cell_length_a 6.408875
_cell_length_b 13.543729
_cell_length_c 13.061710
_cell_angle_alpha 47.400298
_cell_angle_beta 113.567499
_cell_angle_gamma 92.261255
_cell_volume 718.644941
_symmetry_space_group_name_H-M "P -1"
_symmetry_group_IT_number 2
_symmetry_cell_setting 'triclinic'
loop_
_space_group_symop_operation_xyz
x,y,z
-x,-y,-z
loop_
_atom_site_type_symbol
_atom_site_label
_atom_site_fract_x
_atom_site_fract_y
_atom_site_fract_z
Si Si1 0.100021 0.312664 0.377890
Si Si2 0.038438 0.944148 0.378770
Si Si3 0.875561 0.142411 0.761371
Si Si4 0.482108 0.565576 0.562764
Si Si5 0.430901 0.224806 0.320395
Si Si6 0.649605 0.955181 0.957827
Si Si7 0.578307 0.188261 0.155279
Si Si8 0.565188 0.506971 0.173341
O O1 0.060693 0.183827 0.522888
O O2 0.299448 0.374021 0.418695
O O3 0.205258 0.246641 0.334635
O O4 0.845101 0.441584 0.239821
O O5 0.021994 0.963128 0.239656
O O6 0.320695 0.888613 0.505113
O O7 0.854438 0.084239 0.296687
O O8 0.760958 0.296984 0.581568
O O9 0.670999 0.093701 0.808474
O O10 0.078193 0.134652 0.889816
O O11 0.500000 0.500000 0.500000
O O12 0.465805 0.472185 0.723910
O O13 0.425653 0.185882 0.228731
O O14 0.464004 0.379560 0.219460
O O15 0.535944 0.871141 0.918712
O O16 0.500000 0.000000 0.000000
O O17 0.563542 0.347365 0.013234
#
# Coordination Sequence:
#
# PCOD9018849 Si02
#       8
#     2   2   2   2   2   2   2   2
#     4  10  21  44  65  92 131 172 220 264 335 382
#     4  11  22  44  71  96 128 174 217 273 326 389
#     4  11  23  45  63  93 136 168 215 271 325 382
#     4  11  24  38  69  95 127 176 223 270 318 397
#     4  10  23  46  67  96 130 175 221 271 329 385
#     4  11  26  42  64  95 133 170 205 269 333 380
#     4  12  25  42  68  99 134 172 221 272 327 399
#     4  10  24  44  63 100 133 170 217 272 336 381
#
# _framework density 22.264125
#
# number of rings (size 3 to 8) (size 9 to 14) (size 15 to 20)
#    0.000    1.250    5.000    1.500    3.500    1.500 
#    6.750    0.000    0.000    0.000    0.000    0.000 
#    0.000    0.000    0.000    0.000    0.000    0.000 
#
# Total GULP energy -89515.688130 kJ/mol
# GULP energy per Si atom -5594.730508 kJ/mol
# Density = 2.221345 g / cm^3
# Si number density = 22.264125 Si / 1000 Ang^3
#
#
#
# Elastic Constant Matrix: (Units=GPa)
#
#
# Indices 1 2 3 4 5 6 
#
# 1 94.6601 43.6799 28.3144 3.4320 -13.0092 -21.9677
# 2 43.6799 100.5413 30.1818 21.1533 -5.3458 -24.2948
# 3 28.3144 30.1818 86.9687 -9.8935 -14.0426 -6.3599
# 4 3.4320 21.1533 -9.8935 46.7712 -15.5995 -4.3080
# 5 -13.0092 -5.3458 -14.0426 -15.5995 29.7545 15.1239
# 6 -21.9677 -24.2948 -6.3599 -4.3080 15.1239 39.4834
#
#
#
# Elastic Compliance Matrix: (Units=1/GPa)
#
#
# Indices 1 2 3 4 5 6 
#
# 1 0.014891 -0.005645 -0.001549 0.003012 0.004791 0.003055
# 2 -0.005645 0.020644 -0.009027 -0.015594 -0.017945 0.013280
# 3 -0.001549 -0.009027 0.018960 0.013466 0.018218 -0.008871
# 4 0.003012 -0.015594 0.013466 0.040937 0.033509 -0.014119
# 5 0.004791 -0.017945 0.018218 0.033509 0.073950 -0.030111
# 6 0.003055 0.013280 -0.008871 -0.014119 -0.030111 0.043763
#
#
# Mechanical properties :
#
#
# Convention : Reuss Voigt Hill
#
# Bulk Modulus (GPa) = 45.34507 54.05803 49.70155
# Shear Modulus (GPa) = 19.76772 35.20143 27.48458
#
# Velocity S-wave (km/s) = 2.98295 3.98060 3.51733
# Velocity P-wave (km/s) = 5.68112 6.74240 6.23438
#
# Compressibility (1/GPa) = 0.02205312
#
# Stress axis : x y z
#
# Youngs Moduli (GPa) = 67.15679 48.44004 52.74181
#
# Poissons Ratio (x) = 0.27343 0.08171
# Poissons Ratio (y) = 0.37908 0.47609
# Poissons Ratio (z) = 0.10404 0.43726
#
# Static dielectric constant tensor:
#      x y z
#    x 1.818630 -0.014210 0.005330 
#    y -0.014210 1.853590 0.022150 
#    z 0.005330 0.022150 1.822940 
# 
# From -- ./inp_files/367528.got.cif
#   From: 2010.05.17/outbox.cif.g08.bks.cpg/sg2_184_cif.got.tgz:367528.got - 2010.06.03 11:33:40.
