data_PCOD9018081
_publ_section_title
;
Structure prediction by ZEFSAII (Michael W. Deem and Ramdas Pophale) SiO2 
 PCOD9018081
Probable space group: P -1
;
_chemical_formula_sum "Si O2"
_cell_formula_units_Z 16
_cell_length_a 7.748253
_cell_length_b 25.589301
_cell_length_c 9.003801
_cell_angle_alpha 39.303016
_cell_angle_beta 107.220886
_cell_angle_gamma 133.322788
_cell_volume 707.786243
_symmetry_space_group_name_H-M "P -1"
_symmetry_group_IT_number 2
_symmetry_cell_setting 'triclinic'
loop_
_space_group_symop_operation_xyz
x,y,z
-x,-y,-z
loop_
_atom_site_type_symbol
_atom_site_label
_atom_site_fract_x
_atom_site_fract_y
_atom_site_fract_z
Si Si1 0.774896 0.065858 0.116155
Si Si2 0.278625 0.575083 0.490315
Si Si3 0.283158 0.405247 0.022843
Si Si4 0.463081 0.759188 0.385550
Si Si5 0.684779 0.823982 0.866330
Si Si6 0.419306 0.063199 0.212953
Si Si7 0.199790 0.201699 0.360863
Si Si8 0.793868 0.201355 0.568313
O O1 0.665420 0.086676 0.177346
O O2 0.503959 0.928997 0.282177
O O3 0.883169 0.161884 0.797699
O O4 0.007543 0.083566 0.192912
O O5 0.319811 0.642782 0.501170
O O6 0.518147 0.691233 0.189447
O O7 0.000000 0.500000 0.500000
O O8 0.279209 0.480775 0.745692
O O9 0.327989 0.336998 0.093098
O O10 0.001986 0.289314 0.295190
O O11 0.500000 0.500000 0.000000
O O12 0.699732 0.801711 0.451798
O O13 0.245618 0.728485 0.504382
O O14 0.588780 0.874348 0.061867
O O15 0.559470 0.867981 0.792190
O O16 0.689569 0.812084 0.719166
O O17 0.131151 0.916112 0.469793
#
# Coordination Sequence:
#
# PCOD9018081 Si02
#       8
#     2   2   2   2   2   2   2   2
#     4  10  21  43  68 108 143 180 227 293 364 427
#     4  11  27  49  71  99 144 193 238 292 356 426
#     4  12  25  44  71 101 142 184 242 296 343 420
#     4  10  23  43  71  98 136 187 233 290 354 422
#     4  11  26  44  71 103 144 183 236 295 361 418
#     4  10  22  43  71 103 147 180 231 292 364 422
#     4  12  24  42  70 106 136 186 235 295 353 425
#     4  10  22  39  72 103 136 181 236 289 351 420
#
# _framework density 22.605695999999998
#
# number of rings (size 3 to 8) (size 9 to 14) (size 15 to 20)
#    0.000    1.250    2.500    2.250    3.500    5.500 
#    2.250    0.000    0.000    0.000    0.000    0.000 
#    0.000    0.000    0.000    0.000    0.000    0.000 
#
# Total GULP energy -89598.376225 kJ/mol
# GULP energy per Si atom -5599.898514 kJ/mol
# Density = 2.255424 g / cm^3
# Si number density = 22.605696 Si / 1000 Ang^3
#
#
#
# Elastic Constant Matrix: (Units=GPa)
#
#
# Indices 1 2 3 4 5 6 
#
# 1 71.9494 23.9247 36.2730 6.9489 10.2782 -24.1355
# 2 23.9247 104.7894 37.3014 6.4670 7.0123 -1.9016
# 3 36.2730 37.3014 96.9225 -8.2776 17.3333 -5.6284
# 4 6.9489 6.4670 -8.2776 23.7392 0.4284 4.0082
# 5 10.2782 7.0123 17.3333 0.4284 41.5773 7.4276
# 6 -24.1355 -1.9016 -5.6284 4.0082 7.4276 36.1109
#
#
#
# Elastic Compliance Matrix: (Units=1/GPa)
#
#
# Indices 1 2 3 4 5 6 
#
# 1 0.027773 -0.001603 -0.008662 -0.013974 -0.006413 0.019998
# 2 -0.001603 0.011674 -0.004365 -0.004111 0.000427 -0.000768
# 3 -0.008662 -0.004365 0.016495 0.010193 -0.003411 -0.003878
# 4 -0.013974 -0.004111 0.010193 0.053264 0.001899 -0.014271
# 5 -0.006413 0.000427 -0.003411 0.001899 0.028925 -0.010955
# 6 0.019998 -0.000768 -0.003878 -0.014271 -0.010955 0.044251
#
#
# Mechanical properties :
#
#
# Convention : Reuss Voigt Hill
#
# Bulk Modulus (GPa) = 37.48001 52.07327 44.77664
# Shear Modulus (GPa) = 22.67208 32.02962 27.35085
#
# Velocity S-wave (km/s) = 3.17035 3.76823 3.48215
# Velocity P-wave (km/s) = 5.47881 6.48215 6.00149
#
# Compressibility (1/GPa) = 0.02668089
#
# Stress axis : x y z
#
# Youngs Moduli (GPa) = 36.00629 85.66132 60.62611
#
# Poissons Ratio (x) = 0.13731 0.52517
# Poissons Ratio (y) = 0.05772 0.26463
# Poissons Ratio (z) = 0.31190 0.37390
#
# Static dielectric constant tensor:
#      x y z
#    x 1.856060 -0.020820 0.007160 
#    y -0.020820 1.816270 0.020610 
#    z 0.007160 0.020610 1.818960 
# 
# From -- ./inp_files/227729.got.cif
#   From: 2010.05.17/outbox.cif.g08.bks.cpg/sg2_114_cif.got.tgz:227729.got - 2010.06.03 11:33:40.
