data_PCOD9018443
_publ_section_title
;
Structure prediction by ZEFSAII (Michael W. Deem and Ramdas Pophale) SiO2 
 PCOD9018443
Probable space group: P -1
;
_chemical_formula_sum "Si O2"
_cell_formula_units_Z 16
_cell_length_a 8.693975
_cell_length_b 6.941550
_cell_length_c 13.078795
_cell_angle_alpha 87.363023
_cell_angle_beta 101.864157
_cell_angle_gamma 124.733867
_cell_volume 632.308929
_symmetry_space_group_name_H-M "P -1"
_symmetry_group_IT_number 2
_symmetry_cell_setting 'triclinic'
loop_
_space_group_symop_operation_xyz
x,y,z
-x,-y,-z
loop_
_atom_site_type_symbol
_atom_site_label
_atom_site_fract_x
_atom_site_fract_y
_atom_site_fract_z
Si Si1 0.242625 0.795378 0.309748
Si Si2 0.044332 0.904406 0.607997
Si Si3 0.077543 0.435408 0.109022
Si Si4 0.151714 0.531612 0.639528
Si Si5 0.230023 0.208103 0.020715
Si Si6 0.328594 0.515771 0.453053
Si Si7 0.495310 0.856050 0.808548
Si Si8 0.265034 0.063795 0.825766
O O1 0.158764 0.633388 0.201229
O O2 0.374308 0.740051 0.392083
O O3 0.055735 0.700590 0.354643
O O4 0.376575 0.054677 0.279293
O O5 0.125197 0.743218 0.608890
O O6 0.186803 0.090493 0.707132
O O7 0.833429 0.710438 0.628313
O O8 0.000000 0.000000 0.500000
O O9 0.237301 0.405533 0.084188
O O10 0.905569 0.191600 0.143625
O O11 0.000000 0.500000 0.000000
O O12 0.235478 0.505195 0.548618
O O13 0.296501 0.620567 0.752256
O O14 0.370431 0.149158 0.090301
O O15 0.289061 0.245929 0.909236
O O16 0.000000 0.000000 0.000000
O O17 0.500000 0.500000 0.500000
O O18 0.435880 0.031941 0.829716
#
# Coordination Sequence:
#
# PCOD9018443 Si02
#       8
#     2   2   2   2   2   2   2   2
#     4  11  22  45  68  96 136 185 222 283 349 396
#     4  10  21  43  70  97 138 182 221 283 345 396
#     4  11  22  44  68  95 140 180 224 280 347 398
#     4  10  24  48  66  99 142 179 229 281 340 406
#     4  10  23  41  67 103 135 178 224 281 344 407
#     4  11  25  43  65 100 141 175 234 284 327 417
#     4  11  23  43  76  97 138 178 228 284 343 408
#     4  10  21  45  66  98 142 176 229 287 335 405
#
# _framework density 25.304086000000002
#
# number of rings (size 3 to 8) (size 9 to 14) (size 15 to 20)
#    0.000    1.500    3.750    3.375    5.250    0.500 
#   15.750    2.500    0.000    0.000    0.000    0.000 
#    0.000    0.000    0.000    0.000    0.000    0.000 
#
# Total GULP energy -89570.915827 kJ/mol
# GULP energy per Si atom -5598.182239 kJ/mol
# Density = 2.524649 g / cm^3
# Si number density = 25.304086 Si / 1000 Ang^3
#
#
#
# Elastic Constant Matrix: (Units=GPa)
#
#
# Indices 1 2 3 4 5 6 
#
# 1 164.8448 16.0468 84.6275 9.2051 10.0598 7.7134
# 2 16.0468 46.5536 2.5946 -7.4574 1.8436 8.6355
# 3 84.6275 2.5946 154.8399 -7.7158 20.5059 -0.5932
# 4 9.2051 -7.4574 -7.7158 34.6357 -2.1425 1.2302
# 5 10.0598 1.8436 20.5059 -2.1425 56.1021 3.8304
# 6 7.7134 8.6355 -0.5932 1.2302 3.8304 24.7511
#
#
#
# Elastic Compliance Matrix: (Units=1/GPa)
#
#
# Indices 1 2 3 4 5 6 
#
# 1 0.009459 -0.003347 -0.005381 -0.004351 0.000334 -0.001744
# 2 -0.003347 0.025146 0.001731 0.006972 -0.000044 -0.008028
# 3 -0.005381 0.001731 0.009920 0.003792 -0.002678 0.001537
# 4 -0.004351 0.006972 0.003792 0.032506 0.000590 -0.002693
# 5 0.000334 -0.000044 -0.002678 0.000590 0.018981 -0.003119
# 6 -0.001744 -0.008028 0.001537 -0.002693 -0.003119 0.044400
#
#
# Mechanical properties :
#
#
# Convention : Reuss Voigt Hill
#
# Bulk Modulus (GPa) = 32.75617 63.64180 48.19899
# Shear Modulus (GPa) = 30.37960 40.62907 35.50433
#
# Velocity S-wave (km/s) = 3.46870 4.01138 3.74987
# Velocity P-wave (km/s) = 5.38661 6.83084 6.15126
#
# Compressibility (1/GPa) = 0.03052860
#
# Stress axis : x y z
#
# Youngs Moduli (GPa) = 105.71885 39.76831 100.80644
#
# Poissons Ratio (x) = 0.13311 0.54248
# Poissons Ratio (y) = 0.35386 -0.17445
# Poissons Ratio (z) = 0.56892 -0.06882
#
# Static dielectric constant tensor:
#      x y z
#    x 2.002700 -0.030440 -0.003420 
#    y -0.030440 2.128140 0.022310 
#    z -0.003420 0.022310 2.020060 
# 
# From -- ./inp_files/382033.got.cif
#   From: 2010.05.17/outbox.cif.g08.bks.cpg/sg2_192_cif.got.tgz:382033.got - 2010.06.03 11:33:40.
