data_PCOD9018281
_publ_section_title
;
Structure prediction by ZEFSAII (Michael W. Deem and Ramdas Pophale) SiO2 
 PCOD9018281
Probable space group: P -1
;
_chemical_formula_sum "Si O2"
_cell_formula_units_Z 13
_cell_length_a 13.411947
_cell_length_b 9.034461
_cell_length_c 11.846094
_cell_angle_alpha 123.302285
_cell_angle_beta 29.757283
_cell_angle_gamma 129.317376
_cell_volume 551.161646
_symmetry_space_group_name_H-M "P -1"
_symmetry_group_IT_number 2
_symmetry_cell_setting 'triclinic'
loop_
_space_group_symop_operation_xyz
x,y,z
-x,-y,-z
loop_
_atom_site_type_symbol
_atom_site_label
_atom_site_fract_x
_atom_site_fract_y
_atom_site_fract_z
Si Si1 0.222755 0.144057 0.394067
Si Si2 0.093146 0.740045 0.625174
Si Si3 0.518512 0.920951 0.705909
Si Si4 0.929109 0.236322 0.885729
Si Si5 0.279209 0.414485 0.251502
Si Si6 0.146864 0.419474 0.980664
Si Si7 0.500000 0.500000 0.500000
O O1 0.378541 0.053385 0.258900
O O2 0.320571 0.301878 0.269810
O O3 0.144869 0.225268 0.616235
O O4 0.000000 0.000000 0.500000
O O5 0.196281 0.579208 0.442328
O O6 0.921712 0.718418 0.684120
O O7 0.955860 0.699157 0.857801
O O8 0.297597 0.938029 0.495529
O O9 0.454201 0.702166 0.636105
O O10 0.290078 0.946357 0.955598
O O11 0.871376 0.373093 0.911299
O O12 0.003604 0.323516 0.971591
O O13 0.500000 0.500000 0.000000
O O14 0.383870 0.441910 0.715903
#
# Coordination Sequence:
#
# PCOD9018281 Si02
#       7
#     2   2   2   2   2   2   1
#     4  12  24  45  68 100 135 182 227 277 331 419
#     4  11  25  46  65 104 137 177 224 289 335 402
#     4  11  25  41  70 101 134 177 229 273 342 398
#     4  10  23  42  66  98 131 180 222 277 336 404
#     4  11  27  44  68  99 141 180 226 277 345 399
#     4  10  21  43  69  94 137 173 227 281 336 398
#     4  10  22  42  68  98 132 180 222 274 338 408
#
# _framework density 23.586549000000002
#
# number of rings (size 3 to 8) (size 9 to 14) (size 15 to 20)
#    0.000    1.231    4.615    0.000    6.462    1.846 
#    0.000    0.000    0.000    0.000    0.000    0.000 
#    0.000    0.000    0.000    0.000    0.000    0.000 
#
# Total GULP energy -72422.908136 kJ/mol
# GULP energy per Si atom -5570.992934 kJ/mol
# Density = 2.353286 g / cm^3
# Si number density = 23.586549 Si / 1000 Ang^3
#
#
#
# Elastic Constant Matrix: (Units=GPa)
#
#
# Indices 1 2 3 4 5 6 
#
# 1 59.2110 1.5391 25.2967 -9.8207 16.1837 0.2542
# 2 1.5391 57.2864 32.6010 -26.4049 16.0925 -7.2248
# 3 25.2967 32.6010 168.6395 -40.3954 20.8962 -7.2272
# 4 -9.8207 -26.4049 -40.3954 43.3569 -7.4525 -1.6169
# 5 16.1837 16.0925 20.8962 -7.4525 40.2416 -14.5077
# 6 0.2542 -7.2248 -7.2272 -1.6169 -14.5077 17.7490
#
#
#
# Elastic Compliance Matrix: (Units=1/GPa)
#
#
# Indices 1 2 3 4 5 6 
#
# 1 0.021516 0.004309 -0.002245 0.003039 -0.011847 -0.008875
# 2 0.004309 0.028255 -0.001057 0.016238 -0.007052 0.006724
# 3 -0.002245 -0.001057 0.008246 0.006529 -0.000660 0.003015
# 4 0.003039 0.016238 0.006529 0.040508 0.001491 0.014134
# 5 -0.011847 -0.007052 -0.000660 0.001491 0.045414 0.034287
# 6 -0.008875 0.006724 0.003015 0.014134 0.034287 0.089746
#
#
# Mechanical properties :
#
#
# Convention : Reuss Voigt Hill
#
# Bulk Modulus (GPa) = 16.65802 44.89005 30.77403
# Shear Modulus (GPa) = 19.86627 35.31619 27.59123
#
# Velocity S-wave (km/s) = 2.90534 3.87370 3.42392
# Velocity P-wave (km/s) = 4.28165 6.25146 5.35786
#
# Compressibility (1/GPa) = 0.06003116
#
# Stress axis : x y z
#
# Youngs Moduli (GPa) = 46.47677 35.39147 121.27179
#
# Poissons Ratio (x) = -0.15250 0.27225
# Poissons Ratio (y) = -0.20026 0.12820
# Poissons Ratio (z) = 0.10434 0.03741
#
# Static dielectric constant tensor:
#      x y z
#    x 1.864270 0.041890 -0.026650 
#    y 0.041890 1.983170 0.041340 
#    z -0.026650 0.041340 1.921650 
# 
# From -- ./inp_files/168952.got.cif
#   From: 2010.05.17/outbox.cif.g08.bks.cpg/sg2_85_cif.got.tgz:168952.got - 2010.06.03 11:33:40.
