data_PCOD9018246
_publ_section_title
;
Structure prediction by ZEFSAII (Michael W. Deem and Ramdas Pophale) SiO2 
 PCOD9018246
Probable space group: P -1
;
_chemical_formula_sum "Si O2"
_cell_formula_units_Z 14
_cell_length_a 13.864374
_cell_length_b 7.813428
_cell_length_c 11.364998
_cell_angle_alpha 97.606946
_cell_angle_beta 29.014943
_cell_angle_gamma 107.404312
_cell_volume 547.165378
_symmetry_space_group_name_H-M "P -1"
_symmetry_group_IT_number 2
_symmetry_cell_setting 'triclinic'
loop_
_space_group_symop_operation_xyz
x,y,z
-x,-y,-z
loop_
_atom_site_type_symbol
_atom_site_label
_atom_site_fract_x
_atom_site_fract_y
_atom_site_fract_z
Si Si1 0.191919 0.989397 0.425198
Si Si2 0.283561 0.152303 0.015614
Si Si3 0.583562 0.679059 0.512254
Si Si4 0.132601 0.519938 0.739950
Si Si5 0.783631 0.501520 0.937868
Si Si6 0.590233 0.281567 0.912052
Si Si7 0.387738 0.946855 0.460417
O O1 0.266523 0.844796 0.258635
O O2 0.248545 0.956368 0.495543
O O3 0.940256 0.952526 0.686561
O O4 0.368983 0.185176 0.212683
O O5 0.234608 0.300944 0.001284
O O6 0.487771 0.273380 0.891834
O O7 0.372968 0.019539 0.837553
O O8 0.500000 0.500000 0.500000
O O9 0.776778 0.643372 0.366502
O O10 0.399003 0.646052 0.802360
O O11 0.628045 0.883251 0.431322
O O12 0.295421 0.736274 0.587155
O O13 0.000000 0.500000 0.000000
O O14 0.002201 0.501974 0.756839
O O15 0.737250 0.459830 0.845619
#
# Coordination Sequence:
#
# PCOD9018246 Si02
#       7
#     2   2   2   2   2   2   2
#     4  10  21  43  69 109 147 190 251 291 368 450
#     4  11  23  43  75 106 147 200 240 297 371 444
#     4  12  27  51  73 106 145 190 255 315 366 444
#     4  12  27  50  75 109 144 193 253 304 375 442
#     4  12  24  46  70 108 152 189 246 308 364 437
#     4  10  23  41  68 110 150 191 245 303 359 438
#     4  11  25  48  76 106 150 194 243 307 375 436
#
# _framework density 25.586417000000001
#
# number of rings (size 3 to 8) (size 9 to 14) (size 15 to 20)
#    0.000    0.857    5.714    0.857    0.000    4.000 
#    0.000    0.000    0.000    0.000    0.000    0.000 
#    0.000    0.000    0.000    0.000    0.000    0.000 
#
# Total GULP energy -78275.919551 kJ/mol
# GULP energy per Si atom -5591.137111 kJ/mol
# Density = 2.552818 g / cm^3
# Si number density = 25.586417 Si / 1000 Ang^3
#
#
#
# Elastic Constant Matrix: (Units=GPa)
#
#
# Indices 1 2 3 4 5 6 
#
# 1 95.4657 20.2816 27.9655 16.7742 -27.4339 5.4000
# 2 20.2816 132.6829 54.8516 26.9976 -15.9187 -9.8997
# 3 27.9655 54.8516 121.4390 1.4022 -22.6868 -11.7846
# 4 16.7742 26.9976 1.4022 27.8879 -13.1034 0.5640
# 5 -27.4339 -15.9187 -22.6868 -13.1034 46.2084 5.6339
# 6 5.4000 -9.8997 -11.7846 0.5640 5.6339 36.4865
#
#
#
# Elastic Compliance Matrix: (Units=1/GPa)
#
#
# Indices 1 2 3 4 5 6 
#
# 1 0.014130 0.000651 -0.002709 -0.006103 0.005994 -0.003621
# 2 0.000651 0.012405 -0.005818 -0.013164 -0.002165 0.001928
# 3 -0.002709 -0.005818 0.012468 0.008838 0.004774 0.001975
# 4 -0.006103 -0.013164 0.008838 0.057968 0.012949 -0.002709
# 5 0.005994 -0.002165 0.004774 0.012949 0.031071 -0.004930
# 6 -0.003621 0.001928 0.001975 -0.002709 -0.004930 0.029908
#
#
# Mechanical properties :
#
#
# Convention : Reuss Voigt Hill
#
# Bulk Modulus (GPa) = 43.01045 61.75388 52.38216
# Shear Modulus (GPa) = 27.55534 38.54917 33.05225
#
# Velocity S-wave (km/s) = 3.28525 3.88574 3.59805
# Velocity P-wave (km/s) = 5.58900 6.65731 6.14641
#
# Compressibility (1/GPa) = 0.02325016
#
# Stress axis : x y z
#
# Youngs Moduli (GPa) = 70.77170 80.60992 80.20497
#
# Poissons Ratio (x) = -0.05247 0.21728
# Poissons Ratio (y) = -0.04607 0.46667
# Poissons Ratio (z) = 0.19172 0.46903
#
# Static dielectric constant tensor:
#      x y z
#    x 2.098730 0.040700 0.009420 
#    y 0.040700 2.063790 -0.043660 
#    z 0.009420 -0.043660 2.012910 
# 
# From -- ./inp_files/447603.got.cif
#   From: 2010.05.17/outbox.cif.g08.bks.cpg/sg2_224_cif.got.tgz:447603.got - 2010.06.03 11:33:40.
