data_PCOD9018452
_publ_section_title
;
Structure prediction by ZEFSAII (Michael W. Deem and Ramdas Pophale) SiO2 
 PCOD9018452
Probable space group: P -1
;
_chemical_formula_sum "Si O2"
_cell_formula_units_Z 13
_cell_length_a 11.980172
_cell_length_b 8.984677
_cell_length_c 9.631375
_cell_angle_alpha 50.481345
_cell_angle_beta 141.990710
_cell_angle_gamma 133.366946
_cell_volume 453.453526
_symmetry_space_group_name_H-M "P -1"
_symmetry_group_IT_number 2
_symmetry_cell_setting 'triclinic'
loop_
_space_group_symop_operation_xyz
x,y,z
-x,-y,-z
loop_
_atom_site_type_symbol
_atom_site_label
_atom_site_fract_x
_atom_site_fract_y
_atom_site_fract_z
Si Si1 0.850299 0.919671 0.029696
Si Si2 0.635265 0.384509 0.968702
Si Si3 0.383284 0.183790 0.608141
Si Si4 0.903650 0.648583 0.879000
Si Si5 0.229441 0.424927 0.616948
Si Si6 0.000000 0.000000 0.500000
Si Si7 0.402949 0.851767 0.641487
O O1 0.950301 0.105028 0.134230
O O2 0.821034 0.705291 0.209274
O O3 0.630872 0.907854 0.792997
O O4 0.000000 0.000000 0.000000
O O5 0.579389 0.251826 0.849631
O O6 0.835089 0.574409 0.012444
O O7 0.450219 0.449615 0.776611
O O8 0.634093 0.257207 0.178951
O O9 0.701496 0.642069 0.618141
O O10 0.381263 0.065133 0.533592
O O11 0.219058 0.039192 0.638456
O O12 0.000000 0.500000 0.000000
O O13 0.253498 0.665236 0.511734
O O14 0.078253 0.257670 0.466863
#
# Coordination Sequence:
#
# PCOD9018452 Si02
#       7
#     2   2   2   2   2   1   2
#     4  11  22  43  67 100 138 177 233 287 340 413
#     4  10  22  42  68  99 138 185 228 284 343 418
#     4  11  24  42  67 100 143 176 240 282 347 409
#     4  12  25  42  66 100 139 184 233 287 345 406
#     4  10  21  43  70  98 137 180 229 279 353 409
#     4  10  22  42  66  98 136 172 230 292 324 418
#     4  11  23  42  72 100 135 190 227 284 351 413
#
# _framework density 28.668869000000001
#
# number of rings (size 3 to 8) (size 9 to 14) (size 15 to 20)
#    0.000    1.231    1.538    5.538    2.154    0.615 
#    0.000    4.615    0.000    0.000    0.000    0.000 
#    0.000    0.000    0.000    0.000    0.000    0.000 
#
# Total GULP energy -72621.607326 kJ/mol
# GULP energy per Si atom -5586.277487 kJ/mol
# Density = 2.860362 g / cm^3
# Si number density = 28.668869 Si / 1000 Ang^3
#
#
#
# Elastic Constant Matrix: (Units=GPa)
#
#
# Indices 1 2 3 4 5 6 
#
# 1 141.3279 59.8154 25.8541 -11.3225 1.2667 29.3255
# 2 59.8154 170.3221 46.3711 21.2173 5.9269 -3.0707
# 3 25.8541 46.3711 87.7793 10.0441 7.9336 -10.0567
# 4 -11.3225 21.2173 10.0441 54.2137 3.7511 -6.9042
# 5 1.2667 5.9269 7.9336 3.7511 38.5433 9.9157
# 6 29.3255 -3.0707 -10.0567 -6.9042 9.9157 54.0700
#
#
#
# Elastic Compliance Matrix: (Units=1/GPa)
#
#
# Indices 1 2 3 4 5 6 
#
# 1 0.010636 -0.003636 -0.002494 0.003146 0.002067 -0.006416
# 2 -0.003636 0.008347 -0.002711 -0.003264 -0.000714 0.001656
# 3 -0.002494 -0.002711 0.014529 -0.001354 -0.003483 0.004367
# 4 0.003146 -0.003264 -0.001354 0.020841 -0.001558 0.000803
# 5 0.002067 -0.000714 -0.003483 -0.001558 0.028727 -0.007277
# 6 -0.006416 0.001656 0.004367 0.000803 -0.007277 0.024318
#
#
# Mechanical properties :
#
#
# Convention : Reuss Voigt Hill
#
# Bulk Modulus (GPa) = 63.16815 73.72341 68.44578
# Shear Modulus (GPa) = 38.35651 47.19131 42.77391
#
# Velocity S-wave (km/s) = 3.66172 4.06160 3.86683
# Velocity P-wave (km/s) = 6.32132 6.91135 6.62291
#
# Compressibility (1/GPa) = 0.01583076
#
# Stress axis : x y z
#
# Youngs Moduli (GPa) = 94.02437 119.79750 68.82766
#
# Poissons Ratio (x) = 0.43554 0.17165
# Poissons Ratio (y) = 0.34184 0.18660
# Poissons Ratio (z) = 0.23448 0.32479
#
# Static dielectric constant tensor:
#      x y z
#    x 0.103900 0.150360 2.963070 
#    y 0.150360 2.297980 -0.330520 
#    z 2.963070 -0.330520 -2.126630 
# 
# From -- ./inp_files/412229.got.cif
#   From: 2010.05.17/outbox.cif.g08.bks.cpg/sg2_207_cif.got.tgz:412229.got - 2010.06.03 11:33:40.
