data_PCOD9018500
_publ_section_title
;
Structure prediction by ZEFSAII (Michael W. Deem and Ramdas Pophale) SiO2 
 PCOD9018500
Probable space group: P -1
;
_chemical_formula_sum "Si O2"
_cell_formula_units_Z 16
_cell_length_a 15.274471
_cell_length_b 5.005989
_cell_length_c 19.741863
_cell_angle_alpha 94.765699
_cell_angle_beta 27.958862
_cell_angle_gamma 86.649949
_cell_volume 676.628183
_symmetry_space_group_name_H-M "P -1"
_symmetry_group_IT_number 2
_symmetry_cell_setting 'triclinic'
loop_
_space_group_symop_operation_xyz
x,y,z
-x,-y,-z
loop_
_atom_site_type_symbol
_atom_site_label
_atom_site_fract_x
_atom_site_fract_y
_atom_site_fract_z
Si Si1 0.947506 0.691298 0.950409
Si Si2 0.331777 0.292504 0.126756
Si Si3 0.159737 0.060263 0.115237
Si Si4 0.181246 0.954457 0.324910
Si Si5 0.067804 0.136186 0.621265
Si Si6 0.472111 0.466395 0.160840
Si Si7 0.753558 0.291683 0.148605
Si Si8 0.687539 0.482845 0.587341
O O1 0.874364 0.428477 0.016334
O O2 0.806499 0.962615 0.090394
O O3 0.925964 0.761228 0.888019
O O4 0.158665 0.662007 0.837645
O O5 0.223819 0.271213 0.129045
O O6 0.454283 0.451576 0.091467
O O7 0.198299 0.225310 0.279012
O O8 0.500000 0.000000 0.000000
O O9 0.009862 0.933314 0.255476
O O10 0.331038 0.784777 0.969337
O O11 0.379932 0.808214 0.227475
O O12 0.118643 0.782543 0.300533
O O13 0.000000 0.000000 0.500000
O O14 0.182177 0.363240 0.540117
O O15 0.210921 0.844939 0.492066
O O16 0.340476 0.419965 0.313022
O O17 0.528259 0.438717 0.294380
#
# Coordination Sequence:
#
# PCOD9018500 Si02
#       8
#     2   2   2   2   2   2   2   2
#     4  10  21  43  71 105 128 167 218 277 329 389
#     4   9  22  38  56  89 124 169 217 270 320 385
#     4  10  23  45  62  99 132 178 217 277 334 399
#     4  11  22  39  58  89 125 174 230 273 318 379
#     4  11  27  41  63  96 141 176 218 274 334 393
#     4  11  23  40  67  88 127 182 230 272 319 386
#     4  10  22  41  74 102 130 163 223 277 324 394
#     4  12  24  44  66 100 132 178 224 274 330 387
#
# _framework density 23.646663
#
# number of rings (size 3 to 8) (size 9 to 14) (size 15 to 20)
#    0.000    1.500    2.500    1.500    3.500    7.500 
#    4.500    1.250    0.000    0.000    0.000    0.000 
#    0.000    0.000    0.000    0.000    0.000    0.000 
#
# Total GULP energy -89236.281366 kJ/mol
# GULP energy per Si atom -5577.267585 kJ/mol
# Density = 2.359284 g / cm^3
# Si number density = 23.646663 Si / 1000 Ang^3
#
#
#
# Elastic Constant Matrix: (Units=GPa)
#
#
# Indices 1 2 3 4 5 6 
#
# 1 153.3485 15.1984 20.3296 -4.3423 7.3000 -32.1526
# 2 15.1984 74.8754 -11.2507 7.1227 5.5767 -13.4449
# 3 20.3296 -11.2507 77.8284 5.8236 13.3374 -12.7793
# 4 -4.3423 7.1227 5.8236 26.9637 -13.4602 6.3828
# 5 7.3000 5.5767 13.3374 -13.4602 37.2813 -5.1584
# 6 -32.1526 -13.4449 -12.7793 6.3828 -5.1584 38.2863
#
#
#
# Elastic Compliance Matrix: (Units=1/GPa)
#
#
# Indices 1 2 3 4 5 6 
#
# 1 0.008031 -0.000758 -0.001229 0.000297 -0.000081 0.006007
# 2 -0.000758 0.017851 0.006538 -0.012381 -0.008115 0.008785
# 3 -0.001229 0.006538 0.018319 -0.013274 -0.010961 0.008114
# 4 0.000297 -0.012381 -0.013274 0.059836 0.026072 -0.014992
# 5 -0.000081 -0.008115 -0.010961 0.026072 0.040633 -0.005448
# 6 0.006007 0.008785 0.008114 -0.014992 -0.005448 0.038723
#
#
# Mechanical properties :
#
#
# Convention : Reuss Voigt Hill
#
# Bulk Modulus (GPa) = 18.76080 39.40075 29.08078
# Shear Modulus (GPa) = 26.03356 39.29128 32.66242
#
# Velocity S-wave (km/s) = 3.32164 4.08069 3.72058
# Velocity P-wave (km/s) = 4.76047 6.23708 5.54812
#
# Compressibility (1/GPa) = 0.05330262
#
# Stress axis : x y z
#
# Youngs Moduli (GPa) = 124.51662 56.01771 54.58824
#
# Poissons Ratio (x) = 0.04248 0.06711
# Poissons Ratio (y) = 0.09443 -0.35691
# Poissons Ratio (z) = 0.15307 -0.36626
#
# Static dielectric constant tensor:
#      x y z
#    x 1.619400 -0.701640 0.098740 
#    y -0.701640 0.401180 0.324410 
#    z 0.098740 0.324410 1.903700 
# 
# From -- ./inp_files/571691.got.cif
#   From: 2010.05.17/outbox.cif.g08.bks.cpg/sg2_286_cif.got.tgz:571691.got - 2010.06.03 11:33:40.
