data_PCOD9018231
_publ_section_title
;
Structure prediction by ZEFSAII (Michael W. Deem and Ramdas Pophale) SiO2 
 PCOD9018231
Probable space group: P -1
;
_chemical_formula_sum "Si O2"
_cell_formula_units_Z 16
_cell_length_a 9.596461
_cell_length_b 10.718410
_cell_length_c 20.733103
_cell_angle_alpha 56.903621
_cell_angle_beta 29.113037
_cell_angle_gamma 69.539497
_cell_volume 825.609022
_symmetry_space_group_name_H-M "P -1"
_symmetry_group_IT_number 2
_symmetry_cell_setting 'triclinic'
loop_
_space_group_symop_operation_xyz
x,y,z
-x,-y,-z
loop_
_atom_site_type_symbol
_atom_site_label
_atom_site_fract_x
_atom_site_fract_y
_atom_site_fract_z
Si Si1 0.633043 0.771281 0.802652
Si Si2 0.689333 0.054484 0.512847
Si Si3 0.634783 0.172910 0.862455
Si Si4 0.735191 0.730192 0.913758
Si Si5 0.618539 0.983350 0.214974
Si Si6 0.279016 0.224155 0.866756
Si Si7 0.937531 0.461815 0.961477
Si Si8 0.179132 0.088198 0.620724
O O1 0.586588 0.697995 0.912892
O O2 0.989518 0.821945 0.633321
O O3 0.546979 0.931591 0.791279
O O4 0.397769 0.660027 0.880303
O O5 0.515617 0.008873 0.662797
O O6 0.481174 0.118979 0.531495
O O7 0.748840 0.916775 0.483427
O O8 0.487007 0.203132 0.846879
O O9 0.977990 0.189885 0.700407
O O10 0.530208 0.281457 0.924641
O O11 0.500000 0.000000 0.000000
O O12 0.925887 0.616433 0.886261
O O13 0.967668 0.907183 0.769105
O O14 0.599660 0.816766 0.238985
O O15 0.965882 0.087139 0.046251
O O16 0.181390 0.380439 0.861996
O O17 0.000000 0.500000 0.000000
#
# Coordination Sequence:
#
# PCOD9018231 Si02
#       8
#     2   2   2   2   2   2   2   2
#     4  10  22  35  56  86 112 147 192 223 280 339
#     4  10  19  35  53  84 115 150 178 231 281 338
#     4  10  17  30  53  80 111 139 177 232 280 316
#     4  10  19  36  57  82 114 146 184 236 278 323
#     4  10  19  33  56  83 114 140 179 239 285 321
#     4  10  20  33  53  88 110 138 190 229 279 334
#     4  11  22  37  57  82 113 151 184 231 279 330
#     4   9  20  32  57  85 113 144 190 224 283 335
#
# _framework density 19.379632999999998
#
# number of rings (size 3 to 8) (size 9 to 14) (size 15 to 20)
#    0.000    2.000    1.250    4.500    1.750    2.000 
#    0.000    0.000    0.000    9.000    0.000    0.000 
#    0.000    0.000    0.000    0.000    0.000    0.000 
#
# Total GULP energy -89153.447421 kJ/mol
# GULP energy per Si atom -5572.090464 kJ/mol
# Density = 1.933552 g / cm^3
# Si number density = 19.379633 Si / 1000 Ang^3
#
#
#
# Elastic Constant Matrix: (Units=GPa)
#
#
# Indices 1 2 3 4 5 6 
#
# 1 98.3990 25.3276 16.3800 5.2568 -8.1077 -7.8517
# 2 25.3276 94.7543 4.0633 13.2142 6.6184 -6.5351
# 3 16.3800 4.0633 47.1386 22.1142 -3.8293 4.9603
# 4 5.2568 13.2142 22.1142 20.9429 0.4333 -2.8743
# 5 -8.1077 6.6184 -3.8293 0.4333 42.4521 9.0896
# 6 -7.8517 -6.5351 4.9603 -2.8743 9.0896 24.7115
#
#
#
# Elastic Compliance Matrix: (Units=1/GPa)
#
#
# Indices 1 2 3 4 5 6 
#
# 1 0.012741 -0.004060 -0.009212 0.009844 0.000930 0.005626
# 2 -0.004060 0.013570 0.007164 -0.015084 -0.002062 -0.000136
# 3 -0.009212 0.007164 0.058637 -0.067541 0.008169 -0.023663
# 4 0.009844 -0.015084 -0.067541 0.130650 -0.009950 0.031553
# 5 0.000930 -0.002062 0.008169 -0.009950 0.027730 -0.013247
# 6 0.005626 -0.000136 -0.023663 0.031553 -0.013247 0.055511
#
#
# Mechanical properties :
#
#
# Convention : Reuss Voigt Hill
#
# Bulk Modulus (GPa) = 13.74913 36.87040 25.30976
# Shear Modulus (GPa) = 14.91208 30.58937 22.75073
#
# Velocity S-wave (km/s) = 2.77695 3.97725 3.43001
# Velocity P-wave (km/s) = 4.17036 6.33704 5.36423
#
# Compressibility (1/GPa) = 0.07273188
#
# Stress axis : x y z
#
# Youngs Moduli (GPa) = 78.48691 73.69237 17.05417
#
# Poissons Ratio (x) = 0.29922 0.15710
# Poissons Ratio (y) = 0.31868 -0.12218
# Poissons Ratio (z) = 0.72301 -0.52796
#
# Static dielectric constant tensor:
#      x y z
#    x 1.696950 0.012760 0.003950 
#    y 0.012760 1.728720 0.003120 
#    z 0.003950 0.003120 1.698730 
# 
# From -- ./inp_files/259999.got.cif
#   From: 2010.05.17/outbox.cif.g08.bks.cpg/sg2_130_cif.got.tgz:259999.got - 2010.06.03 11:33:40.
