data_PCOD9018284
_publ_section_title
;
Structure prediction by ZEFSAII (Michael W. Deem and Ramdas Pophale) SiO2 
 PCOD9018284
Probable space group: P -1
;
_chemical_formula_sum "Si O2"
_cell_formula_units_Z 16
_cell_length_a 9.142809
_cell_length_b 21.364759
_cell_length_c 18.184217
_cell_angle_alpha 160.988993
_cell_angle_beta 50.817462
_cell_angle_gamma 117.633882
_cell_volume 761.246461
_symmetry_space_group_name_H-M "P -1"
_symmetry_group_IT_number 2
_symmetry_cell_setting 'triclinic'
loop_
_space_group_symop_operation_xyz
x,y,z
-x,-y,-z
loop_
_atom_site_type_symbol
_atom_site_label
_atom_site_fract_x
_atom_site_fract_y
_atom_site_fract_z
Si Si1 0.804658 0.164896 0.512776
Si Si2 0.438335 0.066864 0.178040
Si Si3 0.228840 0.782743 0.713222
Si Si4 0.906282 0.451391 0.213913
Si Si5 0.243770 0.882997 0.143249
Si Si6 0.626682 0.672682 0.083080
Si Si7 0.995087 0.732301 0.867705
Si Si8 0.583430 0.695051 0.949405
O O1 0.725656 0.406520 0.770788
O O2 0.911878 0.966987 0.198180
O O3 0.582270 0.191825 0.647235
O O4 0.993234 0.086496 0.429141
O O5 0.608744 0.126187 0.224210
O O6 0.203982 0.303166 0.512051
O O7 0.402362 0.895547 0.046119
O O8 0.500000 0.000000 0.000000
O O9 0.332669 0.565443 0.385790
O O10 0.168801 0.702896 0.718887
O O11 0.000000 0.000000 0.000000
O O12 0.162697 0.302998 0.943924
O O13 0.770666 0.337915 0.107320
O O14 0.906384 0.454603 0.306356
O O15 0.359453 0.860673 0.159520
O O16 0.557821 0.727357 0.080779
O O17 0.781813 0.733860 0.906090
#
# Coordination Sequence:
#
# PCOD9018284 Si02
#       8
#     2   2   2   2   2   2   2   2
#     4  10  21  43  69  95 123 166 226 260 312 380
#     4  12  25  38  65  92 129 172 214 263 314 375
#     4  12  25  40  62  92 134 172 206 262 324 386
#     4  10  22  41  62  92 126 165 218 261 307 380
#     4  11  23  41  63  97 127 166 211 268 317 379
#     4  10  22  42  70  93 126 171 212 268 315 383
#     4  10  23  39  65  91 127 170 217 259 310 389
#     4  11  24  40  62  95 137 166 208 264 328 378
#
# _framework density 21.018160999999999
#
# number of rings (size 3 to 8) (size 9 to 14) (size 15 to 20)
#    0.000    1.250    2.500    3.375    5.250    6.000 
#    0.000    0.000    0.000    3.750    0.000    0.000 
#    0.000    0.000    0.000    0.000    0.000    0.000 
#
# Total GULP energy -89436.317037 kJ/mol
# GULP energy per Si atom -5589.769815 kJ/mol
# Density = 2.097032 g / cm^3
# Si number density = 21.018161 Si / 1000 Ang^3
#
#
#
# Elastic Constant Matrix: (Units=GPa)
#
#
# Indices 1 2 3 4 5 6 
#
# 1 119.2595 17.7130 14.3797 1.7189 -16.0260 13.0689
# 2 17.7130 91.0216 4.0953 -2.0520 -1.5451 16.9880
# 3 14.3797 4.0953 55.0855 13.9660 -2.8860 -1.5776
# 4 1.7189 -2.0520 13.9660 29.5461 -0.5531 -4.6855
# 5 -16.0260 -1.5451 -2.8860 -0.5531 32.4260 6.9538
# 6 13.0689 16.9880 -1.5776 -4.6855 6.9538 33.6214
#
#
#
# Elastic Compliance Matrix: (Units=1/GPa)
#
#
# Indices 1 2 3 4 5 6 
#
# 1 0.010105 -0.000867 -0.002361 -0.000188 0.005774 -0.004821
# 2 -0.000867 0.012386 -0.000893 0.000375 0.001419 -0.006204
# 3 -0.002361 -0.000893 0.021385 -0.009880 0.000326 0.000928
# 4 -0.000188 0.000375 -0.009880 0.039350 -0.001397 0.005193
# 5 0.005774 0.001419 0.000326 -0.001397 0.036038 -0.010594
# 6 -0.004821 -0.006204 0.000928 0.005193 -0.010594 0.037710
#
#
# Mechanical properties :
#
#
# Convention : Reuss Voigt Hill
#
# Bulk Modulus (GPa) = 28.06314 37.52694 32.79504
# Shear Modulus (GPa) = 28.23353 34.39728 31.31540
#
# Velocity S-wave (km/s) = 3.66907 4.04982 3.86414
# Velocity P-wave (km/s) = 5.59735 6.30566 5.96203
#
# Compressibility (1/GPa) = 0.03563393
#
# Stress axis : x y z
#
# Youngs Moduli (GPa) = 98.95648 80.73778 46.76191
#
# Poissons Ratio (x) = 0.06998 0.11042
# Poissons Ratio (y) = 0.08577 0.04176
# Poissons Ratio (z) = 0.23367 0.07211
#
# Static dielectric constant tensor:
#      x y z
#    x 1.759950 0.010180 -0.030400 
#    y 0.010180 1.749520 0.022660 
#    z -0.030400 0.022660 1.748840 
# 
# From -- ./inp_files/353688.got.cif
#   From: 2010.05.17/outbox.cif.g08.bks.cpg/sg2_177_cif.got.tgz:353688.got - 2010.06.03 11:33:40.
