data_PCOD9018967
_publ_section_title
;
Structure prediction by ZEFSAII (Michael W. Deem and Ramdas Pophale) SiO2 
 PCOD9018967
Probable space group: P -1
;
_chemical_formula_sum "Si O2"
_cell_formula_units_Z 12
_cell_length_a 25.111893
_cell_length_b 5.427022
_cell_length_c 22.991301
_cell_angle_alpha 117.386361
_cell_angle_beta 169.122298
_cell_angle_gamma 64.346805
_cell_volume 521.713752
_symmetry_space_group_name_H-M "P -1"
_symmetry_group_IT_number 2
_symmetry_cell_setting 'triclinic'
loop_
_space_group_symop_operation_xyz
x,y,z
-x,-y,-z
loop_
_atom_site_type_symbol
_atom_site_label
_atom_site_fract_x
_atom_site_fract_y
_atom_site_fract_z
Si Si1 0.332278 0.258332 0.333858
Si Si2 0.092944 0.427651 0.830139
Si Si3 0.544715 0.740427 0.903885
Si Si4 0.413920 0.685920 0.565027
Si Si5 0.678356 0.407538 0.127348
Si Si6 0.909235 0.971940 0.059299
O O1 0.500000 0.500000 0.500000
O O2 0.292495 0.411342 0.368721
O O3 0.500000 0.000000 0.500000
O O4 0.081164 0.118713 0.008099
O O5 0.784477 0.268529 0.469296
O O6 0.018562 0.715292 0.809872
O O7 0.266824 0.423698 0.956070
O O8 0.331358 0.340170 0.120400
O O9 0.579106 0.578724 0.983882
O O10 0.649532 0.071311 0.052381
O O11 0.149503 0.800013 0.324614
O O12 0.586957 0.892393 0.726504
O O13 0.000000 0.500000 0.500000
O O14 0.500000 0.500000 0.000000
#
# Coordination Sequence:
#
# PCOD9018967 Si02
#       6
#     2   2   2   2   2   2
#     4  10  21  44  66  99 133 191 254 314 352 415
#     4  12  26  44  68 108 150 193 234 295 360 436
#     4  12  28  45  78 111 150 185 234 287 354 427
#     4  11  24  43  68  97 143 193 250 303 362 418
#     4  12  26  52  80 110 144 185 234 285 344 422
#     4  11  24  43  68  97 143 193 250 303 362 418
#
# _framework density 23.00112
#
# number of rings (size 3 to 8) (size 9 to 14) (size 15 to 20)
#    0.000    0.667    1.667    5.500    7.000    0.000 
#    0.000    3.333    0.000    0.000    0.000    0.000 
#    0.000    0.000    0.000    0.000    0.000    0.000 
#
# Total GULP energy -67024.432186 kJ/mol
# GULP energy per Si atom -5585.369349 kJ/mol
# Density = 2.294877 g / cm^3
# Si number density = 23.001120 Si / 1000 Ang^3
#
#
#
# Elastic Constant Matrix: (Units=GPa)
#
#
# Indices 1 2 3 4 5 6 
#
# 1 160.6107 71.8412 17.7315 -1.3095 -3.1466 -37.9015
# 2 71.8412 141.4341 27.1485 -11.1041 -10.0569 -11.8550
# 3 17.7315 27.1485 209.8821 5.8991 -16.8366 19.4205
# 4 -1.3095 -11.1041 5.8991 43.5439 -7.0991 3.5012
# 5 -3.1466 -10.0569 -16.8366 -7.0991 47.5493 -15.9003
# 6 -37.9015 -11.8550 19.4205 3.5012 -15.9003 51.9004
#
#
#
# Elastic Compliance Matrix: (Units=1/GPa)
#
#
# Indices 1 2 3 4 5 6 
#
# 1 0.009931 -0.004245 -0.000787 -0.000971 0.001735 0.007174
# 2 -0.004245 0.009713 -0.000810 0.002774 0.001833 -0.000204
# 3 -0.000787 -0.000810 0.005238 -0.000625 0.000716 -0.002459
# 4 -0.000971 0.002774 -0.000625 0.024379 0.003837 -0.000311
# 5 0.001735 0.001833 0.000716 0.003837 0.025343 0.008923
# 6 0.007174 -0.000204 -0.002459 -0.000311 0.008923 0.028135
#
#
# Mechanical properties :
#
#
# Convention : Reuss Voigt Hill
#
# Bulk Modulus (GPa) = 75.76716 82.81881 79.29299
# Shear Modulus (GPa) = 42.07947 54.94577 48.51262
#
# Velocity S-wave (km/s) = 4.28185 4.89287 4.59752
# Velocity P-wave (km/s) = 7.58009 8.24650 7.92031
#
# Compressibility (1/GPa) = 0.01319833
#
# Stress axis : x y z
#
# Youngs Moduli (GPa) = 100.69542 102.95398 190.89965
#
# Poissons Ratio (x) = 0.43702 0.15030
# Poissons Ratio (y) = 0.42744 0.15460
# Poissons Ratio (z) = 0.07928 0.08338
#
# Static dielectric constant tensor:
#      x y z
#    x 1.973890 0.054410 -0.000620 
#    y 0.054410 1.851940 0.019700 
#    z -0.000620 0.019700 1.883540 
# 
# From -- ./inp_files/6795.got.cif
#   From: 2010.05.17/outbox.cif.g08.bks.cpg/sg2_4_cif.got.tgz:6795.got - 2010.06.03 11:33:40.
