data_PCOD9018853
_publ_section_title
;
Structure prediction by ZEFSAII (Michael W. Deem and Ramdas Pophale) SiO2 
 PCOD9018853
Probable space group: P -1
;
_chemical_formula_sum "Si O2"
_cell_formula_units_Z 14
_cell_length_a 15.188845
_cell_length_b 12.738584
_cell_length_c 7.907627
_cell_angle_alpha 118.974647
_cell_angle_beta 65.554644
_cell_angle_gamma 152.665181
_cell_volume 614.105277
_symmetry_space_group_name_H-M "P -1"
_symmetry_group_IT_number 2
_symmetry_cell_setting 'triclinic'
loop_
_space_group_symop_operation_xyz
x,y,z
-x,-y,-z
loop_
_atom_site_type_symbol
_atom_site_label
_atom_site_fract_x
_atom_site_fract_y
_atom_site_fract_z
Si Si1 0.652631 0.170909 0.272214
Si Si2 0.617205 0.675515 0.384900
Si Si3 0.007606 0.907735 0.771597
Si Si4 0.888313 0.190910 0.138658
Si Si5 0.518039 0.692014 0.949075
Si Si6 0.602254 0.366806 0.625785
Si Si7 0.286603 0.652964 0.994275
O O1 0.782754 0.203597 0.267023
O O2 0.632648 0.260278 0.483064
O O3 0.446316 0.899776 0.163149
O O4 0.744023 0.319795 0.141777
O O5 0.500000 0.500000 0.500000
O O6 0.557062 0.747493 0.458820
O O7 0.843141 0.901699 0.347933
O O8 0.527105 0.495376 0.169516
O O9 0.080385 0.864095 0.772084
O O10 0.798260 0.651487 0.669262
O O11 0.000000 0.000000 0.000000
O O12 0.090619 0.430705 0.077744
O O13 0.739470 0.961245 0.954519
O O14 0.464434 0.682145 0.168913
O O15 0.382545 0.623715 0.879533
#
# Coordination Sequence:
#
# PCOD9018853 Si02
#       7
#     2   2   2   2   2   2   2
#     4  10  25  40  64  98 133 169 218 266 328 384
#     4  12  26  44  68  98 132 170 218 275 333 386
#     4  12  24  43  69  98 130 175 219 271 328 387
#     4  11  22  40  68  93 128 176 215 264 326 387
#     4  11  22  42  67  95 125 172 216 271 322 386
#     4  12  24  42  67  97 130 171 222 268 322 392
#     4  10  21  44  65  93 134 171 210 274 326 380
#
# _framework density 22.797393
#
# number of rings (size 3 to 8) (size 9 to 14) (size 15 to 20)
#    0.000    0.857    4.286    2.571    0.000    5.714 
#    0.000    0.000    0.000    0.000    0.000    0.000 
#    0.000    0.000    0.000    0.000    0.000    0.000 
#
# Total GULP energy -78307.661457 kJ/mol
# GULP energy per Si atom -5593.404390 kJ/mol
# Density = 2.274551 g / cm^3
# Si number density = 22.797393 Si / 1000 Ang^3
#
#
#
# Elastic Constant Matrix: (Units=GPa)
#
#
# Indices 1 2 3 4 5 6 
#
# 1 72.3155 14.4926 11.2877 -7.3682 -13.9955 -6.8455
# 2 14.4926 139.7690 16.4953 -34.4974 -2.5438 11.7112
# 3 11.2877 16.4953 71.9253 -16.3184 -3.9939 -3.2488
# 4 -7.3682 -34.4974 -16.3184 32.8544 -10.5295 1.9730
# 5 -13.9955 -2.5438 -3.9939 -10.5295 20.8665 -4.9268
# 6 -6.8455 11.7112 -3.2488 1.9730 -4.9268 38.8751
#
#
#
# Elastic Compliance Matrix: (Units=1/GPa)
#
#
# Indices 1 2 3 4 5 6 
#
# 1 0.019129 0.000712 0.000817 0.011589 0.020146 0.005187
# 2 0.000712 0.011219 0.001286 0.015754 0.009391 -0.002756
# 3 0.000817 0.001286 0.017296 0.013649 0.011363 0.001949
# 4 0.011589 0.015754 0.013649 0.071953 0.048844 0.000974
# 5 0.020146 0.009391 0.011363 0.048844 0.091963 0.010844
# 6 0.005187 -0.002756 0.001949 0.000974 0.010844 0.028955
#
#
# Mechanical properties :
#
#
# Convention : Reuss Voigt Hill
#
# Bulk Modulus (GPa) = 18.77044 40.95121 29.86083
# Shear Modulus (GPa) = 19.79083 34.63480 27.21282
#
# Velocity S-wave (km/s) = 2.94958 3.90198 3.45872
# Velocity P-wave (km/s) = 4.45550 6.18891 5.39232
#
# Compressibility (1/GPa) = 0.05327525
#
# Stress axis : x y z
#
# Youngs Moduli (GPa) = 52.27758 89.13263 57.81737
#
# Poissons Ratio (x) = -0.06351 -0.04723
# Poissons Ratio (y) = -0.03725 -0.07438
# Poissons Ratio (z) = -0.04270 -0.11466
#
# Static dielectric constant tensor:
#      x y z
#    x 1.891060 0.003540 0.008680 
#    y 0.003540 1.858770 -0.001300 
#    z 0.008680 -0.001300 1.873490 
# 
# From -- ./inp_files/305660.got.cif
#   From: 2010.05.17/outbox.cif.g08.bks.cpg/sg2_153_cif.got.tgz:305660.got - 2010.06.03 11:33:40.
