data_PCOD9018353
_publ_section_title
;
Structure prediction by ZEFSAII (Michael W. Deem and Ramdas Pophale) SiO2 
 PCOD9018353
Probable space group: P -1
;
_chemical_formula_sum "Si O2"
_cell_formula_units_Z 13
_cell_length_a 7.261948
_cell_length_b 13.417041
_cell_length_c 4.946280
_cell_angle_alpha 104.234767
_cell_angle_beta 83.977499
_cell_angle_gamma 72.368104
_cell_volume 436.716601
_symmetry_space_group_name_H-M "P -1"
_symmetry_group_IT_number 2
_symmetry_cell_setting 'triclinic'
loop_
_space_group_symop_operation_xyz
x,y,z
-x,-y,-z
loop_
_atom_site_type_symbol
_atom_site_label
_atom_site_fract_x
_atom_site_fract_y
_atom_site_fract_z
Si Si1 0.000000 0.500000 0.000000
Si Si2 0.437487 0.363904 0.166113
Si Si3 0.818405 0.722741 0.445099
Si Si4 0.670839 0.947978 0.726138
Si Si5 0.214201 0.579093 0.541469
Si Si6 0.950890 0.129241 0.075485
Si Si7 0.292716 0.827906 0.350270
O O1 0.125147 0.363676 0.867043
O O2 0.121535 0.520511 0.732907
O O3 0.327610 0.305752 0.339703
O O4 0.286422 0.489731 0.224570
O O5 0.611160 0.391162 0.324379
O O6 0.542821 0.281779 0.855128
O O7 0.687428 0.847427 0.456126
O O8 0.040005 0.679980 0.516544
O O9 0.847096 0.870859 0.833664
O O10 0.697771 0.051686 0.641715
O O11 0.500000 0.000000 0.000000
O O12 0.762989 0.171288 0.329471
O O13 0.894065 0.169653 0.810073
O O14 0.000000 0.000000 0.000000
#
# Coordination Sequence:
#
# PCOD9018353 Si02
#       7
#     1   2   2   2   2   2   2
#     4  10  22  42  70  96 128 178 232 290 354 424
#     4  10  21  43  70 100 140 180 243 288 358 440
#     4  11  23  46  66  98 142 177 240 290 363 418
#     4  11  22  42  67 100 141 184 232 294 361 426
#     4  10  23  45  67 100 137 186 231 300 359 416
#     4  10  23  44  70  97 146 187 239 289 355 429
#     4  11  23  47  70 107 141 192 237 293 362 433
#
# _framework density 29.767590999999999
#
# number of rings (size 3 to 8) (size 9 to 14) (size 15 to 20)
#    0.000    1.538    1.538    4.615    2.154    0.000 
#   16.615   13.077    0.000    0.000    0.000    0.000 
#    0.000    0.000    0.000    0.000    0.000    0.000 
#
# Total GULP energy -72685.067560 kJ/mol
# GULP energy per Si atom -5591.159043 kJ/mol
# Density = 2.969984 g / cm^3
# Si number density = 29.767591 Si / 1000 Ang^3
#
#
#
# Elastic Constant Matrix: (Units=GPa)
#
#
# Indices 1 2 3 4 5 6 
#
# 1 85.4405 58.0397 12.1540 12.2249 -22.1701 -15.3437
# 2 58.0397 220.8441 87.7246 55.5243 -15.5439 -13.9682
# 3 12.1540 87.7246 174.3788 42.7132 -27.8273 -5.1895
# 4 12.2249 55.5243 42.7132 91.1228 -18.0763 -13.0682
# 5 -22.1701 -15.5439 -27.8273 -18.0763 39.4677 4.4113
# 6 -15.3437 -13.9682 -5.1895 -13.0682 4.4113 57.9579
#
#
#
# Elastic Compliance Matrix: (Units=1/GPa)
#
#
# Indices 1 2 3 4 5 6 
#
# 1 0.018019 -0.005404 0.002709 0.002181 0.010522 0.003401
# 2 -0.005404 0.007821 -0.003375 -0.003253 -0.003792 -0.000293
# 3 0.002709 -0.003375 0.008418 -0.001144 0.005607 -0.000027
# 4 0.002181 -0.003253 -0.001144 0.014675 0.005570 0.002576
# 5 0.010522 -0.003792 0.005607 0.005570 0.036160 0.000877
# 6 0.003401 -0.000293 -0.000027 0.002576 0.000877 0.018595
#
#
# Mechanical properties :
#
#
# Convention : Reuss Voigt Hill
#
# Bulk Modulus (GPa) = 45.21316 88.50000 66.85658
# Shear Modulus (GPa) = 40.58393 59.22600 49.90497
#
# Velocity S-wave (km/s) = 3.69638 4.46535 4.09893
# Velocity P-wave (km/s) = 5.78267 7.50870 6.70149
#
# Compressibility (1/GPa) = 0.02211745
#
# Stress axis : x y z
#
# Youngs Moduli (GPa) = 55.49780 127.85337 118.79380
#
# Poissons Ratio (x) = 0.69093 -0.32180
# Poissons Ratio (y) = 0.29992 0.40094
# Poissons Ratio (z) = -0.15034 0.43152
#
# Static dielectric constant tensor:
#      x y z
#    x -1.801920 -0.843790 -3.186250 
#    y -0.843790 2.077210 -0.549040 
#    z -3.186250 -0.549040 -0.391950 
# 
# From -- ./inp_files/32827.got.cif
#   From: 2010.05.17/outbox.cif.g08.bks.cpg/sg2_17_cif.got.tgz:32827.got - 2010.06.03 11:33:40.
