data_PCOD9018174
_publ_section_title
;
Structure prediction by ZEFSAII (Michael W. Deem and Ramdas Pophale) SiO2 
 PCOD9018174
Probable space group: P -1
;
_chemical_formula_sum "Si O2"
_cell_formula_units_Z 12
_cell_length_a 5.348511
_cell_length_b 15.909239
_cell_length_c 14.318217
_cell_angle_alpha 145.652991
_cell_angle_beta 51.452711
_cell_angle_gamma 124.481849
_cell_volume 533.914120
_symmetry_space_group_name_H-M "P -1"
_symmetry_group_IT_number 2
_symmetry_cell_setting 'triclinic'
loop_
_space_group_symop_operation_xyz
x,y,z
-x,-y,-z
loop_
_atom_site_type_symbol
_atom_site_label
_atom_site_fract_x
_atom_site_fract_y
_atom_site_fract_z
Si Si1 0.465031 0.626234 0.841484
Si Si2 0.198447 0.877792 0.445205
Si Si3 0.357005 0.450655 0.887840
Si Si4 0.968878 0.321724 0.360884
Si Si5 0.756316 0.668617 0.487605
Si Si6 0.935335 0.175573 0.767600
O O1 0.536838 0.523358 0.820929
O O2 0.311489 0.505688 0.689754
O O3 0.783431 0.722533 0.815625
O O4 0.215241 0.738808 0.035285
O O5 0.261498 0.807743 0.265918
O O6 0.035046 0.748761 0.430828
O O7 0.500000 0.000000 0.500000
O O8 0.933697 0.998663 0.616480
O O9 0.278584 0.269904 0.746760
O O10 0.500000 0.500000 0.000000
O O11 0.000000 0.500000 0.000000
O O12 0.590185 0.269466 0.390170
O O13 0.000000 0.500000 0.500000
O O14 0.117483 0.303575 0.411524
#
# Coordination Sequence:
#
# PCOD9018174 Si02
#       6
#     2   2   2   2   2   2
#     4  10  21  43  68  98 130 167 222 275 326 395
#     4  11  26  43  65  92 137 177 219 272 335 396
#     4  10  22  36  62 100 129 157 209 275 329 379
#     4  10  23  42  68 101 131 173 215 275 332 385
#     4  11  24  44  69  98 133 173 220 272 329 392
#     4  10  24  42  62  98 131 175 216 273 335 389
#
# _framework density 22.475525999999999
#
# number of rings (size 3 to 8) (size 9 to 14) (size 15 to 20)
#    0.000    1.667    1.667    2.000    9.333    8.000 
#    0.000    1.667    0.000    0.000    0.000    0.000 
#    0.000    0.000    0.000    0.000    0.000    0.000 
#
# Total GULP energy -66933.819582 kJ/mol
# GULP energy per Si atom -5577.818299 kJ/mol
# Density = 2.242437 g / cm^3
# Si number density = 22.475526 Si / 1000 Ang^3
#
#
#
# Elastic Constant Matrix: (Units=GPa)
#
#
# Indices 1 2 3 4 5 6 
#
# 1 131.4045 30.7357 21.0064 -23.3473 20.3836 19.8233
# 2 30.7357 54.8942 13.4023 -18.0446 -4.0996 18.1966
# 3 21.0064 13.4023 70.0978 -11.9267 -5.1579 8.9861
# 4 -23.3473 -18.0446 -11.9267 44.6082 3.5414 -4.5262
# 5 20.3836 -4.0996 -5.1579 3.5414 37.6001 -5.3201
# 6 19.8233 18.1966 8.9861 -4.5262 -5.3201 40.5512
#
#
#
# Elastic Compliance Matrix: (Units=1/GPa)
#
#
# Indices 1 2 3 4 5 6 
#
# 1 0.011355 -0.003783 -0.002050 0.004081 -0.007795 -0.003966
# 2 -0.003783 0.025974 -0.001346 0.007094 0.002850 -0.008342
# 3 -0.002050 -0.001346 0.015895 0.002282 0.002746 -0.001301
# 4 0.004081 0.007094 0.002282 0.028052 -0.004207 -0.003105
# 5 -0.007795 0.002850 0.002746 -0.004207 0.032718 0.005746
# 6 -0.003966 -0.008342 -0.001301 -0.003105 0.005746 0.031038
#
#
# Mechanical properties :
#
#
# Convention : Reuss Voigt Hill
#
# Bulk Modulus (GPa) = 25.73064 42.96501 34.34783
# Shear Modulus (GPa) = 29.01131 37.30206 33.15668
#
# Velocity S-wave (km/s) = 3.59666 4.07833 3.84505
# Velocity P-wave (km/s) = 5.35921 6.42922 5.91845
#
# Compressibility (1/GPa) = 0.03886418
#
# Stress axis : x y z
#
# Youngs Moduli (GPa) = 88.06358 38.50043 62.91405
#
# Poissons Ratio (x) = 0.14566 0.12899
# Poissons Ratio (y) = 0.33317 0.08469
# Poissons Ratio (z) = 0.18056 0.05183
#
# Static dielectric constant tensor:
#      x y z
#    x 2.108950 0.056580 -0.055560 
#    y 0.056580 2.003420 0.073980 
#    z -0.055560 0.073980 2.010320 
# 
# From -- ./inp_files/233050.got.cif
#   From: 2010.05.17/outbox.cif.g08.bks.cpg/sg2_117_cif.got.tgz:233050.got - 2010.06.03 11:33:40.
