data_PCOD9018758
_publ_section_title
;
Structure prediction by ZEFSAII (Michael W. Deem and Ramdas Pophale) SiO2 
 PCOD9018758
Probable space group: P -1
;
_chemical_formula_sum "Si O2"
_cell_formula_units_Z 16
_cell_length_a 15.894588
_cell_length_b 17.727875
_cell_length_c 9.585891
_cell_angle_alpha 132.020611
_cell_angle_beta 126.082991
_cell_angle_gamma 23.380013
_cell_volume 793.313902
_symmetry_space_group_name_H-M "P -1"
_symmetry_group_IT_number 2
_symmetry_cell_setting 'triclinic'
loop_
_space_group_symop_operation_xyz
x,y,z
-x,-y,-z
loop_
_atom_site_type_symbol
_atom_site_label
_atom_site_fract_x
_atom_site_fract_y
_atom_site_fract_z
Si Si1 0.937385 0.594289 0.824786
Si Si2 0.746497 0.517042 0.128545
Si Si3 0.321463 0.648016 0.128369
Si Si4 0.153837 0.241240 0.764371
Si Si5 0.050453 0.921989 0.795880
Si Si6 0.746343 0.457816 0.558325
Si Si7 0.510820 0.371093 0.208541
Si Si8 0.585981 0.752793 0.544385
O O1 0.765664 0.683451 0.672496
O O2 0.053516 0.588096 0.855024
O O3 0.116793 0.361396 0.763213
O O4 0.828098 0.725054 0.023065
O O5 0.634516 0.664650 0.332231
O O6 0.803607 0.351842 0.018272
O O7 0.579792 0.642886 0.994123
O O8 0.425698 0.541103 0.248018
O O9 0.500000 0.500000 0.000000
O O10 0.166351 0.874453 0.247394
O O11 0.934118 0.365047 0.696359
O O12 0.355880 0.999793 0.632780
O O13 0.134164 0.736673 0.640719
O O14 0.237173 0.832308 0.802143
O O15 0.000000 0.000000 0.000000
O O16 0.595523 0.546863 0.644564
O O17 0.619456 0.635598 0.546072
#
# Coordination Sequence:
#
# PCOD9018758 Si02
#       8
#     2   2   2   2   2   2   2   2
#     4  10  21  44  62  94 131 159 214 264 321 377
#     4  10  22  43  63  91 134 163 207 270 312 374
#     4  10  22  41  64  93 127 167 210 261 312 376
#     4  10  22  41  68  93 126 171 205 265 322 376
#     4  12  23  40  67  94 128 171 211 261 319 370
#     4  11  25  42  64  96 133 165 216 261 313 385
#     4  10  24  42  61  94 129 170 208 264 307 381
#     4  11  24  39  68  96 123 169 215 261 317 381
#
# _framework density 20.168562000000001
#
# number of rings (size 3 to 8) (size 9 to 14) (size 15 to 20)
#    0.750    0.750    2.500    1.875    3.500    3.000 
#    2.250    0.000    0.000    0.000    0.000    0.000 
#    0.000    0.000    0.000    0.000    0.000    0.000 
#
# Total GULP energy -89364.170890 kJ/mol
# GULP energy per Si atom -5585.260681 kJ/mol
# Density = 2.012266 g / cm^3
# Si number density = 20.168562 Si / 1000 Ang^3
#
#
#
# Elastic Constant Matrix: (Units=GPa)
#
#
# Indices 1 2 3 4 5 6 
#
# 1 104.4522 19.7633 6.2380 3.8943 1.0225 -3.0045
# 2 19.7633 72.7777 19.5761 12.1886 -5.7767 3.4274
# 3 6.2380 19.5761 91.7615 -7.0494 -3.5429 10.3820
# 4 3.8943 12.1886 -7.0494 32.3029 3.2670 3.3867
# 5 1.0225 -5.7767 -3.5429 3.2670 25.2559 -5.2617
# 6 -3.0045 3.4274 10.3820 3.3867 -5.2617 13.3931
#
#
#
# Elastic Compliance Matrix: (Units=1/GPa)
#
#
# Indices 1 2 3 4 5 6 
#
# 1 0.010248 -0.002702 -0.000579 -0.000679 -0.000298 0.003494
# 2 -0.002702 0.017175 -0.004124 -0.007769 0.004898 0.002084
# 3 -0.000579 -0.004124 0.013556 0.006079 -0.002310 -0.012027
# 4 -0.000679 -0.007769 0.006079 0.037905 -0.009144 -0.016054
# 5 -0.000298 0.004898 -0.002310 -0.009144 0.045925 0.020825
# 6 0.003494 0.002084 -0.012027 -0.016054 0.020825 0.096480
#
#
# Mechanical properties :
#
#
# Convention : Reuss Voigt Hill
#
# Bulk Modulus (GPa) = 38.21302 40.01624 39.11463
# Shear Modulus (GPa) = 20.42312 29.08466 24.75389
#
# Velocity S-wave (km/s) = 3.18562 3.80159 3.50716
# Velocity P-wave (km/s) = 5.70253 6.25727 5.98633
#
# Compressibility (1/GPa) = 0.02616909
#
# Stress axis : x y z
#
# Youngs Moduli (GPa) = 97.57752 58.22356 73.77051
#
# Poissons Ratio (x) = 0.15731 0.04273
# Poissons Ratio (y) = 0.26363 0.30423
# Poissons Ratio (z) = 0.05652 0.24011
#
# Static dielectric constant tensor:
#      x y z
#    x 1.715080 0.000150 0.039460 
#    y 0.000150 1.714470 -0.035180 
#    z 0.039460 -0.035180 1.704900 
# 
# From -- ./inp_files/466945.got.cif
#   From: 2010.05.17/outbox.cif.g08.bks.cpg/sg2_234_cif.got.tgz:466945.got - 2010.06.03 11:33:40.
