data_PCOD9018468
_publ_section_title
;
Structure prediction by ZEFSAII (Michael W. Deem and Ramdas Pophale) SiO2 
 PCOD9018468
Probable space group: P -1
;
_chemical_formula_sum "Si O2"
_cell_formula_units_Z 14
_cell_length_a 8.486618
_cell_length_b 9.456794
_cell_length_c 14.377383
_cell_angle_alpha 90.910352
_cell_angle_beta 108.418956
_cell_angle_gamma 32.309987
_cell_volume 508.347220
_symmetry_space_group_name_H-M "P -1"
_symmetry_group_IT_number 2
_symmetry_cell_setting 'triclinic'
loop_
_space_group_symop_operation_xyz
x,y,z
-x,-y,-z
loop_
_atom_site_type_symbol
_atom_site_label
_atom_site_fract_x
_atom_site_fract_y
_atom_site_fract_z
Si Si1 0.679966 0.317667 0.309546
Si Si2 0.337286 0.385359 0.599620
Si Si3 0.221457 0.228286 0.347988
Si Si4 0.172516 0.816315 0.884013
Si Si5 0.556086 0.248632 0.452155
Si Si6 0.867455 0.755980 0.868597
Si Si7 0.467232 0.886913 0.927112
O O1 0.542515 0.575637 0.313771
O O2 0.729929 0.265103 0.209010
O O3 0.447364 0.396770 0.335034
O O4 0.066594 0.003911 0.429431
O O5 0.283746 0.489783 0.487630
O O6 0.028793 0.556707 0.608456
O O7 0.612424 0.052231 0.629633
O O8 0.536259 0.100114 0.420389
O O9 0.029082 0.383570 0.214935
O O10 0.166302 0.994198 0.898128
O O11 0.872483 0.923568 0.860416
O O12 0.500000 0.500000 0.000000
O O13 0.519226 0.927446 0.837674
O O14 0.179840 0.475438 0.994261
O O15 0.500000 0.000000 0.000000
#
# Coordination Sequence:
#
# PCOD9018468 Si02
#       7
#     2   2   2   2   2   2   2
#     4  11  24  46  67 103 145 190 241 292 362 428
#     4  12  24  45  68 103 140 188 239 287 351 431
#     4  12  26  42  74 102 146 187 241 291 357 430
#     4  10  21  43  70  99 143 181 237 295 360 424
#     4  11  25  44  69 103 148 189 237 298 355 427
#     4  10  22  44  63 100 139 186 234 293 362 420
#     4  10  23  41  70 101 136 179 242 297 357 429
#
# _framework density 27.540230999999999
#
# number of rings (size 3 to 8) (size 9 to 14) (size 15 to 20)
#    0.000    1.143    2.857    2.143    4.000    0.571 
#    0.000    8.571    0.000    0.000    0.000    0.000 
#    0.000    0.000    0.000    0.000    0.000    0.000 
#
# Total GULP energy -78110.759476 kJ/mol
# GULP energy per Si atom -5579.339963 kJ/mol
# Density = 2.747755 g / cm^3
# Si number density = 27.540231 Si / 1000 Ang^3
#
#
#
# Elastic Constant Matrix: (Units=GPa)
#
#
# Indices 1 2 3 4 5 6 
#
# 1 138.9029 27.4791 58.6214 -1.7522 -29.1178 25.4821
# 2 27.4791 87.4014 21.8683 13.8457 -23.3481 11.6629
# 3 58.6214 21.8683 132.4785 13.6857 -34.9106 8.8396
# 4 -1.7522 13.8457 13.6857 33.1774 0.6525 -0.5578
# 5 -29.1178 -23.3481 -34.9106 0.6525 55.5283 8.5404
# 6 25.4821 11.6629 8.8396 -0.5578 8.5404 47.0394
#
#
#
# Elastic Compliance Matrix: (Units=1/GPa)
#
#
# Indices 1 2 3 4 5 6 
#
# 1 0.010708 -0.001107 -0.003408 0.002265 0.003835 -0.005555
# 2 -0.001107 0.015230 0.000917 -0.007014 0.007212 -0.004741
# 3 -0.003408 0.000917 0.011111 -0.005289 0.005892 -0.001602
# 4 0.002265 -0.007014 -0.005289 0.035538 -0.005968 0.003011
# 5 0.003835 0.007212 0.005892 -0.005968 0.028395 -0.010199
# 6 -0.005555 -0.004741 -0.001602 0.003011 -0.010199 0.027632
#
#
# Mechanical properties :
#
#
# Convention : Reuss Voigt Hill
#
# Bulk Modulus (GPa) = 33.49690 63.85784 48.67737
# Shear Modulus (GPa) = 34.30237 43.86996 39.08616
#
# Velocity S-wave (km/s) = 3.53305 3.99550 3.77137
# Velocity P-wave (km/s) = 5.36959 6.67254 6.05621
#
# Compressibility (1/GPa) = 0.02985350
#
# Stress axis : x y z
#
# Youngs Moduli (GPa) = 93.38574 65.65805 89.99907
#
# Poissons Ratio (x) = 0.07268 0.30675
# Poissons Ratio (y) = 0.10337 -0.08254
# Poissons Ratio (z) = 0.31830 -0.06022
#
# Static dielectric constant tensor:
#      x y z
#    x 2.466680 -0.104500 0.009760 
#    y -0.104500 2.150130 -0.071780 
#    z 0.009760 -0.071780 2.205730 
# 
# From -- ./inp_files/495244.got.cif
#   From: 2010.05.17/outbox.cif.g08.bks.cpg/sg2_248_cif.got.tgz:495244.got - 2010.06.03 11:33:40.
