data_PCOD9018999
_publ_section_title
;
Structure prediction by ZEFSAII (Michael W. Deem and Ramdas Pophale) SiO2 
 PCOD9018999
Probable space group: P -1
;
_chemical_formula_sum "Si O2"
_cell_formula_units_Z 14
_cell_length_a 7.328695
_cell_length_b 12.421179
_cell_length_c 6.974189
_cell_angle_alpha 90.868921
_cell_angle_beta 120.635127
_cell_angle_gamma 89.971861
_cell_volume 546.176873
_symmetry_space_group_name_H-M "P -1"
_symmetry_group_IT_number 2
_symmetry_cell_setting 'triclinic'
loop_
_space_group_symop_operation_xyz
x,y,z
-x,-y,-z
loop_
_atom_site_type_symbol
_atom_site_label
_atom_site_fract_x
_atom_site_fract_y
_atom_site_fract_z
Si Si1 0.728373 0.646020 0.560222
Si Si2 0.232275 0.884804 0.510531
Si Si3 0.798127 0.600886 0.015823
Si Si4 0.486520 0.788841 0.981553
Si Si5 0.229458 0.124504 0.531697
Si Si6 0.726890 0.338984 0.659877
Si Si7 0.808412 0.395300 0.273486
O O1 0.757945 0.774954 0.602691
O O2 0.492640 0.633086 0.353606
O O3 0.735473 0.585381 0.762357
O O4 0.938239 0.611569 0.561530
O O5 0.260514 0.789807 0.370718
O O6 0.998162 0.871251 0.480743
O O7 0.247859 0.006592 0.449280
O O8 0.408268 0.864624 0.768965
O O9 0.671887 0.705069 0.022836
O O10 0.754729 0.500027 0.126416
O O11 0.048609 0.623619 0.141543
O O12 0.585178 0.854476 0.212119
O O13 0.281149 0.709465 0.890433
O O14 0.714117 0.385666 0.435765
#
# Coordination Sequence:
#
# PCOD9018999 Si02
#       7
#     2   2   2   2   2   2   2
#     4  12  25  43  64  99 131 165 219 265 311 386
#     4  10  21  44  67  93 126 169 215 261 320 382
#     4  12  24  43  66  95 134 171 211 264 318 375
#     4  11  21  43  69  94 127 171 211 263 318 380
#     4  11  23  41  70  92 129 171 209 266 324 374
#     4  11  24  44  68  93 130 171 215 263 317 377
#     4  11  24  46  64  95 134 169 215 262 314 383
#
# _framework density 25.632719999999999
#
# number of rings (size 3 to 8) (size 9 to 14) (size 15 to 20)
#    0.000    0.857    7.143    1.714    2.000    1.143 
#    0.000    0.714    0.000    0.000    0.000    0.000 
#    0.000    0.000    0.000    0.000    0.000    0.000 
#
# Total GULP energy -78486.070832 kJ/mol
# GULP energy per Si atom -5606.147917 kJ/mol
# Density = 2.557438 g / cm^3
# Si number density = 25.632720 Si / 1000 Ang^3
#
#
#
# Elastic Constant Matrix: (Units=GPa)
#
#
# Indices 1 2 3 4 5 6 
#
# 1 146.3401 29.9197 26.5440 5.9431 42.6130 8.6518
# 2 29.9197 150.4144 26.2445 -19.3113 15.6991 -5.2614
# 3 26.5440 26.2445 99.4012 6.3769 33.0265 -0.4123
# 4 5.9431 -19.3113 6.3769 46.8444 5.2633 3.0007
# 5 42.6130 15.6991 33.0265 5.2633 43.2645 3.7174
# 6 8.6518 -5.2614 -0.4123 3.0007 3.7174 25.6975
#
#
#
# Elastic Compliance Matrix: (Units=1/GPa)
#
#
# Indices 1 2 3 4 5 6 
#
# 1 0.009920 -0.001284 0.000977 -0.000687 -0.009788 -0.002091
# 2 -0.001284 0.007806 -0.001643 0.003596 -0.000899 0.001714
# 3 0.000977 -0.001643 0.013981 -0.001558 -0.010964 0.001327
# 4 -0.000687 0.003596 -0.001558 0.023467 -0.002166 -0.001484
# 5 -0.009788 -0.000899 -0.010964 -0.002166 0.041960 -0.002882
# 6 -0.002091 0.001714 0.001327 -0.001484 -0.002882 0.040581
#
#
# Mechanical properties :
#
#
# Convention : Reuss Voigt Hill
#
# Bulk Modulus (GPa) = 35.96057 62.39689 49.17873
# Shear Modulus (GPa) = 33.13810 44.05777 38.59793
#
# Velocity S-wave (km/s) = 3.59946 4.15035 3.88468
# Velocity P-wave (km/s) = 5.59772 6.88206 6.27285
#
# Compressibility (1/GPa) = 0.02780823
#
# Stress axis : x y z
#
# Youngs Moduli (GPa) = 100.80411 128.11188 71.52439
#
# Poissons Ratio (x) = 0.16444 -0.06990
# Poissons Ratio (y) = 0.12939 0.11753
# Poissons Ratio (z) = -0.09851 0.21051
#
# Static dielectric constant tensor:
#      x y z
#    x 2.014170 -0.007570 -0.009540 
#    y -0.007570 2.024920 0.010080 
#    z -0.009540 0.010080 1.991530 
# 
# From -- ./inp_files/177002.got.cif
#   From: 2010.05.17/outbox.cif.g08.bks.cpg/sg2_89_cif.got.tgz:177002.got - 2010.06.03 11:33:40.
