data_PCOD9018968
_publ_section_title
;
Structure prediction by ZEFSAII (Michael W. Deem and Ramdas Pophale) SiO2 
 PCOD9018968
Probable space group: P -1
;
_chemical_formula_sum "Si O2"
_cell_formula_units_Z 16
_cell_length_a 6.304461
_cell_length_b 17.063124
_cell_length_c 14.514381
_cell_angle_alpha 144.098622
_cell_angle_beta 53.840652
_cell_angle_gamma 131.678454
_cell_volume 679.104037
_symmetry_space_group_name_H-M "P -1"
_symmetry_group_IT_number 2
_symmetry_cell_setting 'triclinic'
loop_
_space_group_symop_operation_xyz
x,y,z
-x,-y,-z
loop_
_atom_site_type_symbol
_atom_site_label
_atom_site_fract_x
_atom_site_fract_y
_atom_site_fract_z
Si Si1 0.463436 0.277665 0.761884
Si Si2 0.745956 0.044133 0.141684
Si Si3 0.395809 0.676773 0.422023
Si Si4 0.677460 0.845427 0.694605
Si Si5 0.728382 0.882535 0.159172
Si Si6 0.166902 0.347832 0.397313
Si Si7 0.441390 0.393557 0.174847
Si Si8 0.953608 0.569291 0.982008
O O1 0.536680 0.228088 0.597560
O O2 0.442543 0.179207 0.762478
O O3 0.719708 0.433402 0.860704
O O4 0.172867 0.307210 0.860575
O O5 0.540488 0.076928 0.155216
O O6 0.919260 0.198171 0.288068
O O7 0.587547 0.939724 0.166997
O O8 0.000000 0.000000 0.000000
O O9 0.588138 0.774212 0.548640
O O10 0.496595 0.544819 0.255351
O O11 0.049101 0.589682 0.442642
O O12 0.648853 0.707357 0.634190
O O13 0.985340 0.977855 0.754349
O O14 0.757338 0.743253 0.967286
O O15 0.325200 0.409512 0.320773
O O16 0.740184 0.376996 0.094072
O O17 0.000000 0.500000 0.000000
#
# Coordination Sequence:
#
# PCOD9018968 Si02
#       8
#     2   2   2   2   2   2   2   2
#     4  11  24  42  69 100 142 181 227 284 341 410
#     4  10  21  44  66  99 140 171 228 292 331 401
#     4  11  25  47  65 100 150 183 222 279 339 419
#     4  10  26  46  66  99 140 184 228 275 351 403
#     4  11  24  42  71 107 127 179 235 283 340 402
#     4  10  24  45  68 101 141 182 228 277 346 415
#     4  12  23  44  75 103 138 175 232 291 342 408
#     4  11  22  42  65 104 142 173 228 290 343 390
#
# _framework density 23.560452999999999
#
# number of rings (size 3 to 8) (size 9 to 14) (size 15 to 20)
#    0.000    1.250    3.750    1.125    3.500    4.000 
#    4.500    5.625    0.000    0.000    0.000    0.000 
#    0.000    0.000    0.000    0.000    0.000    0.000 
#
# Total GULP energy -89227.539137 kJ/mol
# GULP energy per Si atom -5576.721196 kJ/mol
# Density = 2.350683 g / cm^3
# Si number density = 23.560453 Si / 1000 Ang^3
#
#
#
# Elastic Constant Matrix: (Units=GPa)
#
#
# Indices 1 2 3 4 5 6 
#
# 1 103.7700 24.0446 37.2998 -16.1054 3.6138 -5.6552
# 2 24.0446 79.4460 16.4181 -20.6550 8.6547 -10.1045
# 3 37.2998 16.4181 53.8983 -9.4594 12.6396 0.1808
# 4 -16.1054 -20.6550 -9.4594 47.0780 2.7905 8.8918
# 5 3.6138 8.6547 12.6396 2.7905 38.9529 -4.7856
# 6 -5.6552 -10.1045 0.1808 8.8918 -4.7856 32.8197
#
#
#
# Elastic Compliance Matrix: (Units=1/GPa)
#
#
# Indices 1 2 3 4 5 6 
#
# 1 0.013592 -0.001851 -0.009091 0.001555 0.002200 0.001722
# 2 -0.001851 0.015596 -0.001863 0.005508 -0.002764 0.002598
# 3 -0.009091 -0.001863 0.027968 0.003024 -0.008570 -0.004363
# 4 0.001555 0.005508 0.003024 0.026200 -0.004948 -0.005873
# 5 0.002200 -0.002764 -0.008570 -0.004948 0.029865 0.005271
# 6 0.001722 0.002598 -0.004363 -0.005873 0.005271 0.033950
#
#
# Mechanical properties :
#
#
# Convention : Reuss Voigt Hill
#
# Bulk Modulus (GPa) = 31.70151 43.62659 37.66405
# Shear Modulus (GPa) = 27.27817 34.39358 30.83588
#
# Velocity S-wave (km/s) = 3.40633 3.82488 3.62166
# Velocity P-wave (km/s) = 5.38102 6.16955 5.78873
#
# Compressibility (1/GPa) = 0.03154424
#
# Stress axis : x y z
#
# Youngs Moduli (GPa) = 73.57250 64.11857 35.75554
#
# Poissons Ratio (x) = 0.11870 0.32506
# Poissons Ratio (y) = 0.13620 0.06663
# Poissons Ratio (z) = 0.66886 0.11948
#
# Static dielectric constant tensor:
#      x y z
#    x 1.928810 -0.067390 0.048990 
#    y -0.067390 1.819130 0.114750 
#    z 0.048990 0.114750 1.707750 
# 
# From -- ./inp_files/485246.got.cif
#   From: 2010.05.17/outbox.cif.g08.bks.cpg/sg2_243_cif.got.tgz:485246.got - 2010.06.03 11:33:40.
