data_PCOD9018167
_publ_section_title
;
Structure prediction by ZEFSAII (Michael W. Deem and Ramdas Pophale) SiO2 
 PCOD9018167
Probable space group: P -1
;
_chemical_formula_sum "Si O2"
_cell_formula_units_Z 15
_cell_length_a 7.848443
_cell_length_b 11.798086
_cell_length_c 17.006907
_cell_angle_alpha 136.942796
_cell_angle_beta 85.542768
_cell_angle_gamma 127.243017
_cell_volume 634.904739
_symmetry_space_group_name_H-M "P -1"
_symmetry_group_IT_number 2
_symmetry_cell_setting 'triclinic'
loop_
_space_group_symop_operation_xyz
x,y,z
-x,-y,-z
loop_
_atom_site_type_symbol
_atom_site_label
_atom_site_fract_x
_atom_site_fract_y
_atom_site_fract_z
Si Si1 0.144614 0.712312 0.284729
Si Si2 0.036254 0.199270 0.373532
Si Si3 0.064193 0.394098 0.998929
Si Si4 0.410287 0.247205 0.277670
Si Si5 0.686214 0.676279 0.840322
Si Si6 0.743857 0.652159 0.172153
Si Si7 0.244686 0.633440 0.389828
Si Si8 0.000000 0.500000 0.500000
O O1 0.174474 0.564806 0.160526
O O2 0.052726 0.588726 0.313057
O O3 0.942385 0.681591 0.230392
O O4 0.448491 0.039254 0.447369
O O5 0.204121 0.227446 0.314536
O O6 0.290914 0.516200 0.563680
O O7 0.815203 0.172473 0.349582
O O8 0.901631 0.953660 0.309810
O O9 0.266755 0.434712 0.959110
O O10 0.000000 0.500000 0.000000
O O11 0.773159 0.062893 0.860618
O O12 0.464392 0.336430 0.230749
O O13 0.539540 0.561988 0.873108
O O14 0.705448 0.506952 0.720251
O O15 0.000000 0.000000 0.000000
O O16 0.113862 0.522566 0.423576
#
# Coordination Sequence:
#
# PCOD9018167 Si02
#       8
#     2   2   2   2   2   2   2   1
#     4  10  23  46  69 102 135 181 231 279 338 409
#     4  10  23  43  69 101 132 181 232 277 338 410
#     4   9  20  42  68 102 134 177 222 281 334 398
#     4  10  21  43  68  97 139 179 229 281 332 405
#     4  12  26  46  65 102 141 179 225 288 348 404
#     4  10  24  44  75 100 132 187 230 275 346 414
#     4  11  26  43  67  99 143 178 224 289 340 396
#     4  12  26  42  64 110 136 180 224 286 342 398
#
# _framework density 23.625589000000002
#
# number of rings (size 3 to 8) (size 9 to 14) (size 15 to 20)
#    0.000    1.600    1.333    1.600   11.200    2.133 
#    2.400    5.333    0.000    0.000    0.000    0.000 
#    0.000    0.000    0.000    0.000    0.000    0.000 
#
# Total GULP energy -83670.528885 kJ/mol
# GULP energy per Si atom -5578.035259 kJ/mol
# Density = 2.357182 g / cm^3
# Si number density = 23.625589 Si / 1000 Ang^3
#
#
#
# Elastic Constant Matrix: (Units=GPa)
#
#
# Indices 1 2 3 4 5 6 
#
# 1 64.3003 24.7511 30.2673 12.5153 -17.5399 4.9873
# 2 24.7511 163.7416 52.2579 6.7049 -11.2744 13.5658
# 3 30.2673 52.2579 168.0328 11.6272 -28.8676 12.8138
# 4 12.5153 6.7049 11.6272 34.8263 -11.9668 -5.6774
# 5 -17.5399 -11.2744 -28.8676 -11.9668 29.7948 0.2792
# 6 4.9873 13.5658 12.8138 -5.6774 0.2792 38.0388
#
#
#
# Elastic Compliance Matrix: (Units=1/GPa)
#
#
# Indices 1 2 3 4 5 6 
#
# 1 0.020009 -0.001720 -0.001176 -0.003940 0.008428 -0.002264
# 2 -0.001720 0.007082 -0.001760 -0.000529 -0.000234 -0.001785
# 3 -0.001176 -0.001760 0.007953 -0.000028 0.006354 -0.001948
# 4 -0.003940 -0.000529 -0.000028 0.035157 0.011519 0.005877
# 5 0.008428 -0.000234 0.006354 0.011519 0.049235 -0.001804
# 6 -0.002264 -0.001785 -0.001948 0.005877 -0.001804 0.028769
#
#
# Mechanical properties :
#
#
# Convention : Reuss Voigt Hill
#
# Bulk Modulus (GPa) = 38.86362 67.84747 53.35555
# Shear Modulus (GPa) = 30.10331 39.78521 34.94426
#
# Velocity S-wave (km/s) = 3.57344 4.10809 3.85006
# Velocity P-wave (km/s) = 5.78891 7.16115 6.51128
#
# Compressibility (1/GPa) = 0.02573100
#
# Stress axis : x y z
#
# Youngs Moduli (GPa) = 49.97730 141.19547 125.74656
#
# Poissons Ratio (x) = 0.24286 0.14790
# Poissons Ratio (y) = 0.08596 0.22135
# Poissons Ratio (z) = 0.05878 0.24854
#
# Static dielectric constant tensor:
#      x y z
#    x 1.582770 0.141490 -0.059220 
#    y 0.141490 1.976460 0.037680 
#    z -0.059220 0.037680 1.865710 
# 
# From -- ./inp_files/189128.got.cif
#   From: 2010.05.17/outbox.cif.g08.bks.cpg/sg2_95_cif.got.tgz:189128.got - 2010.06.03 11:33:40.
