data_PCOD9018944
_publ_section_title
;
Structure prediction by ZEFSAII (Michael W. Deem and Ramdas Pophale) SiO2 
 PCOD9018944
Probable space group: P -1
;
_chemical_formula_sum "Si O2"
_cell_formula_units_Z 16
_cell_length_a 8.763013
_cell_length_b 9.962127
_cell_length_c 12.710228
_cell_angle_alpha 89.700024
_cell_angle_beta 79.537652
_cell_angle_gamma 132.501942
_cell_volume 791.821940
_symmetry_space_group_name_H-M "P -1"
_symmetry_group_IT_number 2
_symmetry_cell_setting 'triclinic'
loop_
_space_group_symop_operation_xyz
x,y,z
-x,-y,-z
loop_
_atom_site_type_symbol
_atom_site_label
_atom_site_fract_x
_atom_site_fract_y
_atom_site_fract_z
Si Si1 0.489173 0.634196 0.438996
Si Si2 0.516435 0.124027 0.911572
Si Si3 0.982837 0.975142 0.377243
Si Si4 0.684135 0.504289 0.949890
Si Si5 0.134970 0.573190 0.592463
Si Si6 0.857272 0.639930 0.696043
Si Si7 0.886654 0.202897 0.756667
Si Si8 0.055919 0.877149 0.012015
O O1 0.500000 0.500000 0.500000
O O2 0.732612 0.813064 0.378076
O O3 0.374826 0.678251 0.526635
O O4 0.324984 0.510791 0.364502
O O5 0.600009 0.302888 0.964585
O O6 0.675267 0.167940 0.801038
O O7 0.270446 0.995482 0.914371
O O8 0.500000 0.000000 0.000000
O O9 0.110462 0.920132 0.322756
O O10 0.000000 0.000000 0.500000
O O11 0.083165 0.169846 0.319963
O O12 0.756216 0.557764 0.821297
O O13 0.883214 0.668395 0.993490
O O14 0.500000 0.500000 0.000000
O O15 0.000000 0.500000 0.500000
O O16 0.067874 0.673573 0.652916
O O17 0.055560 0.408098 0.682760
O O18 0.922000 0.153036 0.867225
O O19 0.000000 0.000000 0.000000
#
# Coordination Sequence:
#
# PCOD9018944 Si02
#       8
#     2   2   2   2   2   2   2   2
#     4  11  22  43  71  94 134 179 223 288 343 397
#     4  10  24  46  67  99 138 178 230 285 340 402
#     4  12  24  43  69 103 132 174 237 279 337 420
#     4  12  25  42  70 103 137 178 227 282 337 412
#     4  10  21  44  66  96 136 175 222 280 343 400
#     4  11  25  43  67  99 136 175 228 280 345 406
#     4  11  23  44  72  95 141 185 216 288 349 393
#     4  11  24  45  70 104 139 177 236 281 337 415
#
# _framework density 20.206564
#
# number of rings (size 3 to 8) (size 9 to 14) (size 15 to 20)
#    0.000    1.000    5.000    1.500    3.500    3.500 
#    2.250    1.250    0.000    0.000    0.000    0.000 
#    0.000    0.000    0.000    0.000    0.000    0.000 
#
# Total GULP energy -89233.106739 kJ/mol
# GULP energy per Si atom -5577.069171 kJ/mol
# Density = 2.016057 g / cm^3
# Si number density = 20.206564 Si / 1000 Ang^3
#
#
#
# Elastic Constant Matrix: (Units=GPa)
#
#
# Indices 1 2 3 4 5 6 
#
# 1 96.7140 24.4850 15.5200 17.0798 -32.1687 -7.4102
# 2 24.4850 118.2648 -0.2804 3.5498 -10.1731 -8.6758
# 3 15.5200 -0.2804 67.7320 12.1628 -9.7763 -0.2616
# 4 17.0798 3.5498 12.1628 30.6834 -13.7828 -1.6806
# 5 -32.1687 -10.1731 -9.7763 -13.7828 44.8321 -2.1441
# 6 -7.4102 -8.6758 -0.2616 -1.6806 -2.1441 40.5736
#
#
#
# Elastic Compliance Matrix: (Units=1/GPa)
#
#
# Indices 1 2 3 4 5 6 
#
# 1 0.014863 -0.002017 -0.001521 -0.003251 0.009001 0.002614
# 2 -0.002017 0.009063 0.000576 0.000349 0.000920 0.001636
# 3 -0.001521 0.000576 0.016189 -0.005221 0.000954 -0.000216
# 4 -0.003251 0.000349 -0.005221 0.040642 0.009180 0.001616
# 5 0.009001 0.000920 0.000954 0.009180 0.032191 0.003928
# 6 0.002614 0.001636 -0.000216 0.001616 0.003928 0.025747
#
#
# Mechanical properties :
#
#
# Convention : Reuss Voigt Hill
#
# Bulk Modulus (GPa) = 29.24682 40.23999 34.74341
# Shear Modulus (GPa) = 32.04801 39.41690 35.73245
#
# Velocity S-wave (km/s) = 3.98681 4.42146 4.20975
# Velocity P-wave (km/s) = 5.97480 6.78405 6.39224
#
# Compressibility (1/GPa) = 0.03419175
#
# Stress axis : x y z
#
# Youngs Moduli (GPa) = 67.28237 110.33475 61.76895
#
# Poissons Ratio (x) = 0.22256 0.09395
# Poissons Ratio (y) = 0.13572 -0.03559
# Poissons Ratio (z) = 0.10233 -0.06358
#
# Static dielectric constant tensor:
#      x y z
#    x 1.781010 0.041200 0.006620 
#    y 0.041200 1.745360 0.035660 
#    z 0.006620 0.035660 1.706350 
# 
# From -- ./inp_files/299679.got.cif
#   From: 2010.05.17/outbox.cif.g08.bks.cpg/sg2_150_cif.got.tgz:299679.got - 2010.06.03 11:33:40.
