data_PCOD9018919
_publ_section_title
;
Structure prediction by ZEFSAII (Michael W. Deem and Ramdas Pophale) SiO2 
 PCOD9018919
Probable space group: P -1
;
_chemical_formula_sum "Si O2"
_cell_formula_units_Z 16
_cell_length_a 13.475895
_cell_length_b 13.439796
_cell_length_c 9.870977
_cell_angle_alpha 68.853947
_cell_angle_beta 150.056767
_cell_angle_gamma 103.642918
_cell_volume 820.879984
_symmetry_space_group_name_H-M "P -1"
_symmetry_group_IT_number 2
_symmetry_cell_setting 'triclinic'
loop_
_space_group_symop_operation_xyz
x,y,z
-x,-y,-z
loop_
_atom_site_type_symbol
_atom_site_label
_atom_site_fract_x
_atom_site_fract_y
_atom_site_fract_z
Si Si1 0.318696 0.749140 0.719955
Si Si2 0.803300 0.794161 0.672524
Si Si3 0.095884 0.572699 0.686746
Si Si4 0.505232 0.469115 0.363996
Si Si5 0.243112 0.753360 0.306944
Si Si6 0.371519 0.983493 0.726407
Si Si7 0.719241 0.646845 0.394172
Si Si8 0.462915 0.924735 0.369961
O O1 0.179506 0.671263 0.662223
O O2 0.282716 0.754675 0.513834
O O3 0.288631 0.871887 0.677813
O O4 0.546779 0.700297 0.059161
O O5 0.730990 0.722980 0.501804
O O6 0.643839 0.827640 0.588831
O O7 0.803459 0.913431 0.550536
O O8 0.016014 0.740403 0.009348
O O9 0.000000 0.500000 0.500000
O O10 0.929059 0.619471 0.577163
O O11 0.285438 0.501247 0.021345
O O12 0.500000 0.500000 0.500000
O O13 0.602281 0.345560 0.521431
O O14 0.648704 0.538910 0.419596
O O15 0.282350 0.863895 0.228302
O O16 0.531241 0.995775 0.789175
O O17 0.500000 0.000000 0.000000
O O18 0.500000 0.000000 0.500000
#
# Coordination Sequence:
#
# PCOD9018919 Si02
#       8
#     2   2   2   2   2   2   2   2
#     4  11  23  42  67  92 131 172 216 272 331 388
#     4  10  24  39  65  96 131 166 223 264 321 401
#     4  11  25  44  64  99 128 171 228 270 323 401
#     4  11  25  41  67  93 132 172 217 271 334 385
#     4  12  23  41  64  99 128 171 218 276 326 384
#     4  10  21  44  66  92 133 171 213 271 326 389
#     4  11  23  44  64  94 132 174 221 270 323 401
#     4  10  22  41  65  91 135 168 211 269 329 388
#
# _framework density 19.491277
#
# number of rings (size 3 to 8) (size 9 to 14) (size 15 to 20)
#    0.750    0.500    2.500    3.000    0.000   12.000 
#    2.250    1.250    0.000    0.000    0.000    0.000 
#    0.000    0.000    0.000    0.000    0.000    0.000 
#
# Total GULP energy -89246.107438 kJ/mol
# GULP energy per Si atom -5577.881715 kJ/mol
# Density = 1.944691 g / cm^3
# Si number density = 19.491277 Si / 1000 Ang^3
#
#
#
# Elastic Constant Matrix: (Units=GPa)
#
#
# Indices 1 2 3 4 5 6 
#
# 1 109.3476 19.9982 55.3031 12.7313 -10.4878 -12.9619
# 2 19.9982 98.2350 36.8040 8.9238 -4.5880 -7.4413
# 3 55.3031 36.8040 122.9778 10.3530 -13.2286 -2.6854
# 4 12.7313 8.9238 10.3530 24.3341 -3.3547 -3.2056
# 5 -10.4878 -4.5880 -13.2286 -3.3547 38.6126 4.0019
# 6 -12.9619 -7.4413 -2.6854 -3.2056 4.0019 32.6305
#
#
#
# Elastic Compliance Matrix: (Units=1/GPa)
#
#
# Indices 1 2 3 4 5 6 
#
# 1 0.012832 0.000073 -0.005281 -0.003815 0.000919 0.004192
# 2 0.000073 0.011809 -0.003311 -0.002694 -0.000174 0.002206
# 3 -0.005281 -0.003311 0.011786 -0.001012 0.002358 -0.002271
# 4 -0.003815 -0.002694 -0.001012 0.045044 0.002007 0.001966
# 5 0.000919 -0.000174 0.002358 0.002007 0.027383 -0.002642
# 6 0.004192 0.002206 -0.002271 0.001966 -0.002642 0.033145
#
#
# Mechanical properties :
#
#
# Convention : Reuss Voigt Hill
#
# Bulk Modulus (GPa) = 51.57244 61.64120 56.60682
# Shear Modulus (GPa) = 30.21163 33.67911 31.94537
#
# Velocity S-wave (km/s) = 3.94129 4.16132 4.05280
# Velocity P-wave (km/s) = 6.87229 7.40152 7.14181
#
# Compressibility (1/GPa) = 0.01939020
#
# Stress axis : x y z
#
# Youngs Moduli (GPa) = 77.93183 84.68228 84.84386
#
# Poissons Ratio (x) = -0.00620 0.44805
# Poissons Ratio (y) = -0.00571 0.28090
# Poissons Ratio (z) = 0.41154 0.28036
#
# Static dielectric constant tensor:
#      x y z
#    x 1.653860 0.024520 0.012690 
#    y 0.024520 1.690300 -0.016420 
#    z 0.012690 -0.016420 1.662630 
# 
# From -- ./inp_files/272776.got.cif
#   From: 2010.05.17/outbox.cif.g08.bks.cpg/sg2_137_cif.got.tgz:272776.got - 2010.06.03 11:33:40.
