data_PCOD9018742
_publ_section_title
;
Structure prediction by ZEFSAII (Michael W. Deem and Ramdas Pophale) SiO2 
 PCOD9018742
Probable space group: P -1
;
_chemical_formula_sum "Si O2"
_cell_formula_units_Z 12
_cell_length_a 13.854616
_cell_length_b 9.498311
_cell_length_c 6.900921
_cell_angle_alpha 146.435287
_cell_angle_beta 87.801429
_cell_angle_gamma 90.432883
_cell_volume 501.225822
_symmetry_space_group_name_H-M "P -1"
_symmetry_group_IT_number 2
_symmetry_cell_setting 'triclinic'
loop_
_space_group_symop_operation_xyz
x,y,z
-x,-y,-z
loop_
_atom_site_type_symbol
_atom_site_label
_atom_site_fract_x
_atom_site_fract_y
_atom_site_fract_z
Si Si1 0.719006 0.973761 0.091252
Si Si2 0.096176 0.474253 0.833224
Si Si3 0.093574 0.921346 0.029414
Si Si4 0.602233 0.625772 0.868463
Si Si5 0.413542 0.808185 0.936556
Si Si6 0.305679 0.626777 0.107021
O O1 0.645776 0.964076 0.902385
O O2 0.691168 0.144185 0.475963
O O3 0.815645 0.083432 0.127407
O O4 0.707980 0.693773 0.857208
O O5 0.109176 0.174052 0.444196
O O6 0.084883 0.666980 0.868644
O O7 0.195533 0.550205 0.012500
O O8 0.000000 0.500000 0.000000
O O9 0.000000 0.000000 0.000000
O O10 0.516116 0.830566 0.058735
O O11 0.573857 0.382404 0.466771
O O12 0.619568 0.581085 0.041294
O O13 0.343751 0.700721 0.980280
#
# Coordination Sequence:
#
# PCOD9018742 Si02
#       6
#     2   2   2   2   2   2
#     4  11  24  40  66  98 135 181 229 282 346 406
#     4  12  27  47  74 104 141 180 229 287 346 415
#     4  12  27  47  74 102 143 180 228 288 346 414
#     4  10  23  38  68  92 136 183 227 289 336 414
#     4  10  21  44  60  97 134 180 233 282 345 398
#     4  11  24  40  66  99 137 177 233 281 345 408
#
# _framework density 23.941303999999999
#
# number of rings (size 3 to 8) (size 9 to 14) (size 15 to 20)
#    0.000    1.000    1.667    4.000    7.000    2.000 
#    0.000    0.000    0.000    0.000    0.000    0.000 
#    0.000    0.000    0.000    0.000    0.000    0.000 
#
# Total GULP energy -67008.299079 kJ/mol
# GULP energy per Si atom -5584.024923 kJ/mol
# Density = 2.388681 g / cm^3
# Si number density = 23.941304 Si / 1000 Ang^3
#
#
#
# Elastic Constant Matrix: (Units=GPa)
#
#
# Indices 1 2 3 4 5 6 
#
# 1 119.2178 15.6334 7.8991 -10.4051 17.4463 3.2751
# 2 15.6334 58.1975 -8.3613 -5.2371 7.0814 -4.9642
# 3 7.8991 -8.3613 47.6707 -10.8084 8.1912 -1.4800
# 4 -10.4051 -5.2371 -10.8084 26.0406 -2.7850 10.7050
# 5 17.4463 7.0814 8.1912 -2.7850 29.8539 -5.8487
# 6 3.2751 -4.9642 -1.4800 10.7050 -5.8487 41.4215
#
#
#
# Elastic Compliance Matrix: (Units=1/GPa)
#
#
# Indices 1 2 3 4 5 6 
#
# 1 0.009880 -0.001896 -0.000200 0.004066 -0.005445 -0.002835
# 2 -0.001896 0.019530 0.005589 0.004661 -0.004455 0.000856
# 3 -0.000200 0.005589 0.025972 0.012065 -0.007717 -0.002594
# 4 0.004066 0.004661 0.012065 0.050876 -0.004619 -0.013133
# 5 -0.005445 -0.004455 -0.007717 -0.004619 0.040708 0.006563
# 6 -0.002835 0.000856 -0.002594 -0.013133 0.006563 0.028697
#
#
# Mechanical properties :
#
#
# Convention : Reuss Voigt Hill
#
# Bulk Modulus (GPa) = 16.03443 28.38095 22.20769
# Shear Modulus (GPa) = 26.39011 33.45750 29.92380
#
# Velocity S-wave (km/s) = 3.32367 3.74234 3.53920
# Velocity P-wave (km/s) = 4.63044 5.52754 5.09875
#
# Compressibility (1/GPa) = 0.06236579
#
# Stress axis : x y z
#
# Youngs Moduli (GPa) = 101.21949 51.20405 38.50359
#
# Poissons Ratio (x) = 0.09708 0.00770
# Poissons Ratio (y) = 0.19191 -0.21518
# Poissons Ratio (z) = 0.02025 -0.28616
#
# Static dielectric constant tensor:
#      x y z
#    x 2.014590 -0.007070 -0.019580 
#    y -0.007070 1.987210 0.099270 
#    z -0.019580 0.099270 1.954170 
# 
# From -- ./inp_files/3049.got.cif
#   From: 2010.05.17/outbox.cif.g08.bks.cpg/sg2_2_cif.got.tgz:3049.got - 2010.06.03 11:33:40.
