data_PCOD9018012
_publ_section_title
;
Structure prediction by ZEFSAII (Michael W. Deem and Ramdas Pophale) SiO2 
 PCOD9018012
Probable space group: P -1
;
_chemical_formula_sum "Si O2"
_cell_formula_units_Z 15
_cell_length_a 9.481529
_cell_length_b 9.285269
_cell_length_c 9.017186
_cell_angle_alpha 91.022834
_cell_angle_beta 110.927367
_cell_angle_gamma 68.563497
_cell_volume 684.375928
_symmetry_space_group_name_H-M "P -1"
_symmetry_group_IT_number 2
_symmetry_cell_setting 'triclinic'
loop_
_space_group_symop_operation_xyz
x,y,z
-x,-y,-z
loop_
_atom_site_type_symbol
_atom_site_label
_atom_site_fract_x
_atom_site_fract_y
_atom_site_fract_z
Si Si1 0.000000 0.000000 0.000000
Si Si2 0.407984 0.257807 0.497226
Si Si3 0.728503 0.051594 0.137135
Si Si4 0.162009 0.587342 0.433083
Si Si5 0.236385 0.880568 0.514141
Si Si6 0.873296 0.848379 0.721374
Si Si7 0.888607 0.478785 0.243290
Si Si8 0.602733 0.778214 0.152365
O O1 0.895132 0.022069 0.113859
O O2 0.858752 0.958001 0.856653
O O3 0.331845 0.445860 0.453572
O O4 0.586179 0.169741 0.496747
O O5 0.279847 0.201103 0.364538
O O6 0.406447 0.226317 0.672197
O O7 0.736769 0.125373 0.300977
O O8 0.690689 0.896510 0.147404
O O9 0.573635 0.164175 0.987348
O O10 0.166915 0.755653 0.426116
O O11 0.127992 0.560857 0.591552
O O12 0.018630 0.561916 0.288038
O O13 0.126842 0.055533 0.425750
O O14 0.029812 0.688424 0.805491
O O15 0.715693 0.605679 0.134010
#
# Coordination Sequence:
#
# PCOD9018012 Si02
#       8
#     1   2   2   2   2   2   2   2
#     4  12  28  44  62 102 140 162 224 286 326 390
#     4  10  21  43  67  98 137 179 218 272 335 401
#     4  11  26  41  68  99 132 175 221 278 329 390
#     4   9  20  36  64 101 133 170 221 277 328 388
#     4  12  23  39  72 104 132 174 229 274 327 400
#     4  11  24  42  67  97 136 176 219 276 335 387
#     4   9  20  42  66  91 133 178 220 266 335 401
#     4  10  22  45  69  95 133 180 219 265 335 400
#
# _framework density 21.917777999999998
#
# number of rings (size 3 to 8) (size 9 to 14) (size 15 to 20)
#    0.000    1.600    1.333    3.200    5.600    1.067 
#    0.000    9.333    0.000    0.000    0.000    0.000 
#    0.000    0.000    0.000    0.000    0.000    0.000 
#
# Total GULP energy -83644.387894 kJ/mol
# GULP energy per Si atom -5576.292526 kJ/mol
# Density = 2.186789 g / cm^3
# Si number density = 21.917778 Si / 1000 Ang^3
#
#
#
# Elastic Constant Matrix: (Units=GPa)
#
#
# Indices 1 2 3 4 5 6 
#
# 1 111.0309 47.1570 24.1447 -9.7456 -4.6150 -9.5005
# 2 47.1570 94.1732 29.3917 -14.7431 5.5956 5.3047
# 3 24.1447 29.3917 78.0794 9.1930 9.9871 -8.6241
# 4 -9.7456 -14.7431 9.1930 26.6724 -2.2328 12.0507
# 5 -4.6150 5.5956 9.9871 -2.2328 21.1143 6.3409
# 6 -9.5005 5.3047 -8.6241 12.0507 6.3409 32.3590
#
#
#
# Elastic Compliance Matrix: (Units=1/GPa)
#
#
# Indices 1 2 3 4 5 6 
#
# 1 0.012462 -0.005822 -0.002091 0.001216 0.004571 0.002707
# 2 -0.005822 0.021229 -0.011549 0.022117 0.006226 -0.017724
# 3 -0.002091 -0.011549 0.026034 -0.027859 -0.019381 0.022390
# 4 0.001216 0.022117 -0.027859 0.084060 0.030902 -0.048053
# 5 0.004571 0.006226 -0.019381 0.030902 0.068061 -0.029689
# 6 0.002707 -0.017724 0.022390 -0.048053 -0.029689 0.064284
#
#
# Mechanical properties :
#
#
# Convention : Reuss Voigt Hill
#
# Bulk Modulus (GPa) = 48.07345 53.85224 50.96285
# Shear Modulus (GPa) = 15.52853 28.20184 21.86518
#
# Velocity S-wave (km/s) = 2.66464 3.59097 3.16191
# Velocity P-wave (km/s) = 5.60787 6.46659 6.05248
#
# Compressibility (1/GPa) = 0.02080150
#
# Stress axis : x y z
#
# Youngs Moduli (GPa) = 80.24312 47.10489 38.41178
#
# Poissons Ratio (x) = 0.27422 0.08032
# Poissons Ratio (y) = 0.46714 0.44362
# Poissons Ratio (z) = 0.16780 0.54402
#
# Static dielectric constant tensor:
#      x y z
#    x 1.681710 -0.082640 -0.268340 
#    y -0.082640 1.777670 -0.218610 
#    z -0.268340 -0.218610 1.078440 
# 
# From -- ./inp_files/158865.got.cif
#   From: 2010.05.17/outbox.cif.g08.bks.cpg/sg2_80_cif.got.tgz:158865.got - 2010.06.03 11:33:40.
