data_PCOD9018403
_publ_section_title
;
Structure prediction by ZEFSAII (Michael W. Deem and Ramdas Pophale) SiO2 
 PCOD9018403
Probable space group: P -1
;
_chemical_formula_sum "Si O2"
_cell_formula_units_Z 16
_cell_length_a 19.757124
_cell_length_b 9.002259
_cell_length_c 22.756856
_cell_angle_alpha 33.889240
_cell_angle_beta 157.667939
_cell_angle_gamma 150.033966
_cell_volume 759.305061
_symmetry_space_group_name_H-M "P -1"
_symmetry_group_IT_number 2
_symmetry_cell_setting 'triclinic'
loop_
_space_group_symop_operation_xyz
x,y,z
-x,-y,-z
loop_
_atom_site_type_symbol
_atom_site_label
_atom_site_fract_x
_atom_site_fract_y
_atom_site_fract_z
Si Si1 0.524393 0.467277 0.344097
Si Si2 0.787878 0.164962 0.331641
Si Si3 0.224591 0.795777 0.137968
Si Si4 0.167808 0.212342 0.232625
Si Si5 0.587671 0.289698 0.017160
Si Si6 0.623491 0.315815 0.260797
Si Si7 0.782018 0.785604 0.919439
Si Si8 0.800959 0.344684 0.521886
O O1 0.372119 0.313955 0.325852
O O2 0.368756 0.433466 0.177924
O O3 0.654155 0.325254 0.463909
O O4 0.679475 0.808734 0.371690
O O5 0.671576 0.224373 0.165272
O O6 0.768752 0.330281 0.320545
O O7 0.019879 0.316671 0.449719
O O8 0.207758 0.468496 0.228938
O O9 0.408679 0.022963 0.170643
O O10 0.280648 0.966502 0.188771
O O11 0.014483 0.784812 0.952581
O O12 0.111781 0.887323 0.319527
O O13 0.424199 0.404068 0.863454
O O14 0.760193 0.569680 0.027493
O O15 0.500000 0.000000 0.000000
O O16 0.700727 0.277359 0.399156
O O17 0.000000 0.000000 0.000000
#
# Coordination Sequence:
#
# PCOD9018403 Si02
#       8
#     2   2   2   2   2   2   2   2
#     4  12  23  43  68  94 137 174 215 273 336 388
#     4  12  25  44  66  96 134 179 227 266 327 395
#     4  10  21  43  70  93 136 166 218 280 326 384
#     4  11  24  42  70 102 126 175 221 271 339 392
#     4  11  22  42  68  99 129 172 224 274 326 389
#     4  11  23  44  67  94 137 179 216 281 326 388
#     4  11  21  40  67  96 133 165 211 275 331 384
#     4  12  25  44  66  96 137 177 223 269 330 395
#
# _framework density 21.071898999999998
#
# number of rings (size 3 to 8) (size 9 to 14) (size 15 to 20)
#    0.000    0.750    6.250    3.000    0.000    0.500 
#    2.250    0.000    0.000    0.000    0.000    0.000 
#    0.000    0.000    0.000    0.000    0.000    0.000 
#
# Total GULP energy -89309.100795 kJ/mol
# GULP energy per Si atom -5581.818800 kJ/mol
# Density = 2.102394 g / cm^3
# Si number density = 21.071899 Si / 1000 Ang^3
#
#
#
# Elastic Constant Matrix: (Units=GPa)
#
#
# Indices 1 2 3 4 5 6 
#
# 1 84.7905 27.2830 16.2245 0.3735 14.1495 -8.4465
# 2 27.2830 115.6117 19.2475 0.7744 6.7339 -4.1637
# 3 16.2245 19.2475 56.0594 0.7842 8.9755 -3.6007
# 4 0.3735 0.7744 0.7842 25.0060 4.8443 7.5581
# 5 14.1495 6.7339 8.9755 4.8443 22.6447 8.7128
# 6 -8.4465 -4.1637 -3.6007 7.5581 8.7128 34.3897
#
#
#
# Elastic Compliance Matrix: (Units=1/GPa)
#
#
# Indices 1 2 3 4 5 6 
#
# 1 0.015225 -0.002524 -0.001486 0.000143 -0.010475 0.005901
# 2 -0.002524 0.009705 -0.002498 -0.000237 -0.000445 0.000458
# 3 -0.001486 -0.002498 0.020603 -0.000087 -0.007820 0.003490
# 4 0.000143 -0.000237 -0.000087 0.043628 -0.006235 -0.008011
# 5 -0.010475 -0.000445 -0.007820 -0.006235 0.062126 -0.017815
# 6 0.005901 0.000458 0.003490 -0.008011 -0.017815 0.037223
#
#
# Mechanical properties :
#
#
# Convention : Reuss Voigt Hill
#
# Bulk Modulus (GPa) = 30.75150 42.44129 36.59639
# Shear Modulus (GPa) = 23.54443 29.32185 26.43314
#
# Velocity S-wave (km/s) = 3.34629 3.73435 3.54563
# Velocity P-wave (km/s) = 5.43649 6.22726 5.84526
#
# Compressibility (1/GPa) = 0.03251874
#
# Stress axis : x y z
#
# Youngs Moduli (GPa) = 65.67949 103.03860 48.53625
#
# Poissons Ratio (x) = 0.26007 0.07211
# Poissons Ratio (y) = 0.16577 0.12123
# Poissons Ratio (z) = 0.09758 0.25737
#
# Static dielectric constant tensor:
#      x y z
#    x 1.790370 0.005530 0.037760 
#    y 0.005530 1.780480 0.036070 
#    z 0.037760 0.036070 1.758400 
# 
# From -- ./inp_files/337873.got.cif
#   From: 2010.05.17/outbox.cif.g08.bks.cpg/sg2_169_cif.got.tgz:337873.got - 2010.06.03 11:33:40.
