data_PCOD9018320
_publ_section_title
;
Structure prediction by ZEFSAII (Michael W. Deem and Ramdas Pophale) SiO2 
 PCOD9018320
Probable space group: P -1
;
_chemical_formula_sum "Si O2"
_cell_formula_units_Z 14
_cell_length_a 10.789675
_cell_length_b 11.650685
_cell_length_c 10.572692
_cell_angle_alpha 57.066787
_cell_angle_beta 90.391132
_cell_angle_gamma 135.790003
_cell_volume 588.281062
_symmetry_space_group_name_H-M "P -1"
_symmetry_group_IT_number 2
_symmetry_cell_setting 'triclinic'
loop_
_space_group_symop_operation_xyz
x,y,z
-x,-y,-z
loop_
_atom_site_type_symbol
_atom_site_label
_atom_site_fract_x
_atom_site_fract_y
_atom_site_fract_z
Si Si1 0.747693 0.289717 0.778607
Si Si2 0.803012 0.471758 0.401667
Si Si3 0.758961 0.847679 0.557402
Si Si4 0.415388 0.718407 0.750373
Si Si5 0.773524 0.292710 0.034754
Si Si6 0.658018 0.645563 0.288374
Si Si7 0.905192 0.114988 0.132374
O O1 0.424166 0.829270 0.802981
O O2 0.728773 0.358578 0.610169
O O3 0.940096 0.353101 0.715406
O O4 0.500000 0.000000 0.000000
O O5 0.652763 0.284544 0.387786
O O6 0.784922 0.618051 0.306192
O O7 0.173462 0.567992 0.173191
O O8 0.652282 0.854819 0.652508
O O9 0.536521 0.538440 0.713775
O O10 0.813944 0.978122 0.349125
O O11 0.000000 0.000000 0.500000
O O12 0.184169 0.407063 0.962368
O O13 0.771062 0.130690 0.096719
O O14 0.000000 0.500000 0.000000
O O15 0.500000 0.500000 0.500000
O O16 0.832309 0.934802 0.135828
#
# Coordination Sequence:
#
# PCOD9018320 Si02
#       7
#     2   2   2   2   2   2   2
#     4  11  24  42  67 104 139 175 229 293 339 416
#     4  10  22  43  70 101 136 173 239 281 344 416
#     4  10  23  43  66 105 138 180 237 289 347 412
#     4  10  22  44  74 102 138 189 233 287 354 419
#     4  10  21  45  69 101 138 182 229 286 356 413
#     4   9  21  42  70  97 135 185 228 285 342 416
#     4  10  21  43  69  97 142 182 231 283 353 417
#
# _framework density 23.79815
#
# number of rings (size 3 to 8) (size 9 to 14) (size 15 to 20)
#    0.000    2.000    2.857    0.000    6.000    3.429 
#   15.429    0.000    0.000    0.857    0.000    0.000 
#    0.000    0.000    0.000    0.000    0.000    0.000 
#
# Total GULP energy -78136.724306 kJ/mol
# GULP energy per Si atom -5581.194593 kJ/mol
# Density = 2.374398 g / cm^3
# Si number density = 23.798150 Si / 1000 Ang^3
#
#
#
# Elastic Constant Matrix: (Units=GPa)
#
#
# Indices 1 2 3 4 5 6 
#
# 1 144.6840 52.4485 54.1065 -0.7386 -27.3717 -7.0684
# 2 52.4485 75.2651 42.3830 22.3304 9.8159 -6.5843
# 3 54.1065 42.3830 143.0720 21.1870 -13.1156 -3.6930
# 4 -0.7386 22.3304 21.1870 46.7226 -1.3135 -11.9027
# 5 -27.3717 9.8159 -13.1156 -1.3135 39.2055 -2.3077
# 6 -7.0684 -6.5843 -3.6930 -11.9027 -2.3077 33.3349
#
#
#
# Elastic Compliance Matrix: (Units=1/GPa)
#
#
# Indices 1 2 3 4 5 6 
#
# 1 0.015813 -0.014413 -0.001649 0.009505 0.014694 0.004735
# 2 -0.014413 0.032362 -0.003785 -0.015576 -0.020191 -0.004043
# 3 -0.001649 -0.003785 0.009352 -0.002580 0.002792 -0.000789
# 4 0.009505 -0.015576 -0.002580 0.033386 0.011460 0.011367
# 5 0.014694 -0.020191 0.002792 0.011460 0.042520 0.006473
# 6 0.004735 -0.004043 -0.000789 0.011367 0.006473 0.034624
#
#
# Mechanical properties :
#
#
# Convention : Reuss Voigt Hill
#
# Bulk Modulus (GPa) = 56.07350 73.43301 64.75326
# Shear Modulus (GPa) = 23.39806 38.12480 30.76143
#
# Velocity S-wave (km/s) = 3.13899 4.00685 3.59917
# Velocity P-wave (km/s) = 6.06225 7.23395 6.67387
#
# Compressibility (1/GPa) = 0.01783374
#
# Stress axis : x y z
#
# Youngs Moduli (GPa) = 63.24107 30.90030 106.92957
#
# Poissons Ratio (x) = 0.44536 0.17630
# Poissons Ratio (y) = 0.91148 0.40472
# Poissons Ratio (z) = 0.10427 0.11696
#
# Static dielectric constant tensor:
#      x y z
#    x 1.894810 -0.064060 0.041510 
#    y -0.064060 2.054790 0.064030 
#    z 0.041510 0.064030 1.941930 
# 
# From -- ./inp_files/425625.got.cif
#   From: 2010.05.17/outbox.cif.g08.bks.cpg/sg2_213_cif.got.tgz:425625.got - 2010.06.03 11:33:40.
