data_PCOD9018804
_publ_section_title
;
Structure prediction by ZEFSAII (Michael W. Deem and Ramdas Pophale) SiO2 
 PCOD9018804
Probable space group: P -1
;
_chemical_formula_sum "Si O2"
_cell_formula_units_Z 16
_cell_length_a 10.090270
_cell_length_b 16.107249
_cell_length_c 8.927606
_cell_angle_alpha 68.205296
_cell_angle_beta 37.855376
_cell_angle_gamma 51.643051
_cell_volume 676.660282
_symmetry_space_group_name_H-M "P -1"
_symmetry_group_IT_number 2
_symmetry_cell_setting 'triclinic'
loop_
_space_group_symop_operation_xyz
x,y,z
-x,-y,-z
loop_
_atom_site_type_symbol
_atom_site_label
_atom_site_fract_x
_atom_site_fract_y
_atom_site_fract_z
Si Si1 0.523263 0.895009 0.983761
Si Si2 0.906446 0.310431 0.276596
Si Si3 0.666363 0.629976 0.691130
Si Si4 0.132759 0.587590 0.475915
Si Si5 0.288336 0.835164 0.481838
Si Si6 0.897108 0.029537 0.901431
Si Si7 0.823941 0.730818 0.241773
Si Si8 0.089100 0.781617 0.206025
O O1 0.324215 0.879949 0.266615
O O2 0.413022 0.911543 0.901464
O O3 0.815740 0.788746 0.828645
O O4 0.500000 0.000000 0.000000
O O5 0.806642 0.412726 0.404267
O O6 0.719641 0.268629 0.468094
O O7 0.972167 0.323513 0.040452
O O8 0.673080 0.524998 0.709376
O O9 0.810936 0.648331 0.415929
O O10 0.845727 0.611210 0.686751
O O11 0.371512 0.732581 0.909149
O O12 0.132008 0.686323 0.337844
O O13 0.538829 0.805692 0.373870
O O14 0.038252 0.922647 0.744120
O O15 0.986427 0.108512 0.721972
O O16 0.000000 0.000000 0.000000
O O17 0.892510 0.797755 0.240884
#
# Coordination Sequence:
#
# PCOD9018804 Si02
#       8
#     2   2   2   2   2   2   2   2
#     4  11  24  40  63  88 128 172 207 254 313 370
#     4  11  22  41  64  92 127 163 211 253 317 375
#     4  10  21  44  64  92 126 157 210 265 321 369
#     4  10  23  39  68  93 119 166 208 261 318 383
#     4  11  24  42  61  90 132 169 208 254 311 380
#     4  12  24  39  64  95 126 170 213 257 308 372
#     4  10  23  41  63  90 127 168 203 266 312 374
#     4  11  23  41  63  90 129 165 213 259 316 369
#
# _framework density 23.645544999999998
#
# number of rings (size 3 to 8) (size 9 to 14) (size 15 to 20)
#    0.000    1.250    1.250    4.500    3.500    3.000 
#    0.000    2.500    0.000    0.000    0.000    0.000 
#    0.000    0.000    0.000    0.000    0.000    0.000 
#
# Total GULP energy -89530.595142 kJ/mol
# GULP energy per Si atom -5595.662196 kJ/mol
# Density = 2.359173 g / cm^3
# Si number density = 23.645545 Si / 1000 Ang^3
#
#
#
# Elastic Constant Matrix: (Units=GPa)
#
#
# Indices 1 2 3 4 5 6 
#
# 1 139.2815 6.9130 14.1553 -3.3026 -6.1410 20.8429
# 2 6.9130 59.2137 -1.8617 -10.6381 4.0366 28.7239
# 3 14.1553 -1.8617 64.8113 -17.1810 4.6024 10.2520
# 4 -3.3026 -10.6381 -17.1810 23.7835 -2.6311 -0.9279
# 5 -6.1410 4.0366 4.6024 -2.6311 28.7793 2.7467
# 6 20.8429 28.7239 10.2520 -0.9279 2.7467 37.6805
#
#
#
# Elastic Compliance Matrix: (Units=1/GPa)
#
#
# Indices 1 2 3 4 5 6 
#
# 1 0.008188 0.002239 -0.000406 0.001852 0.002263 -0.006245
# 2 0.002239 0.037023 0.012179 0.024264 -0.001383 -0.032076
# 3 -0.000406 0.012179 0.024242 0.022074 -0.002227 -0.014949
# 4 0.001852 0.024264 0.022074 0.068388 0.002004 -0.023989
# 5 0.002263 -0.001383 -0.002227 0.002004 0.036171 -0.002179
# 6 -0.006245 -0.032076 -0.014949 -0.023989 -0.002179 0.058081
#
#
# Mechanical properties :
#
#
# Convention : Reuss Voigt Hill
#
# Bulk Modulus (GPa) = 10.25878 33.52440 21.89159
# Shear Modulus (GPa) = 21.13611 34.32198 27.72904
#
# Velocity S-wave (km/s) = 2.99301 3.81402 3.42818
# Velocity P-wave (km/s) = 4.03635 5.79692 4.99482
#
# Compressibility (1/GPa) = 0.09747751
#
# Stress axis : x y z
#
# Youngs Moduli (GPa) = 122.12875 27.01032 41.25005
#
# Poissons Ratio (x) = -0.06048 0.01674
# Poissons Ratio (y) = -0.27346 -0.50238
# Poissons Ratio (z) = 0.04958 -0.32895
#
# Static dielectric constant tensor:
#      x y z
#    x 1.926080 -0.057760 0.040390 
#    y -0.057760 1.903100 -0.002440 
#    z 0.040390 -0.002440 1.924640 
# 
# From -- ./inp_files/38605.got.cif
#   From: 2010.05.17/outbox.cif.g08.bks.cpg/sg2_20_cif.got.tgz:38605.got - 2010.06.03 11:33:40.
