data_PCOD9018930
_publ_section_title
;
Structure prediction by ZEFSAII (Michael W. Deem and Ramdas Pophale) SiO2 
 PCOD9018930
Probable space group: P -1
;
_chemical_formula_sum "Si O2"
_cell_formula_units_Z 16
_cell_length_a 11.708544
_cell_length_b 9.607109
_cell_length_c 10.691234
_cell_angle_alpha 64.371405
_cell_angle_beta 55.618701
_cell_angle_gamma 98.406485
_cell_volume 761.772539
_symmetry_space_group_name_H-M "P -1"
_symmetry_group_IT_number 2
_symmetry_cell_setting 'triclinic'
loop_
_space_group_symop_operation_xyz
x,y,z
-x,-y,-z
loop_
_atom_site_type_symbol
_atom_site_label
_atom_site_fract_x
_atom_site_fract_y
_atom_site_fract_z
Si Si1 0.906533 0.942526 0.214758
Si Si2 0.260902 0.771218 0.315482
Si Si3 0.823288 0.235208 0.119880
Si Si4 0.669603 0.733016 0.075332
Si Si5 0.802951 0.512583 0.200784
Si Si6 0.097139 0.979513 0.337118
Si Si7 0.684805 0.517419 0.526295
Si Si8 0.389873 0.974603 0.896067
O O1 0.772991 0.730914 0.377540
O O2 0.832749 0.068366 0.233893
O O3 0.014208 0.959734 0.261646
O O4 0.000000 0.000000 0.000000
O O5 0.218291 0.567337 0.436516
O O6 0.122314 0.813890 0.411321
O O7 0.415781 0.899881 0.259148
O O8 0.324899 0.846079 0.107924
O O9 0.782428 0.345530 0.199755
O O10 0.691970 0.149716 0.124409
O O11 0.010987 0.377392 0.905692
O O12 0.779267 0.652439 0.078136
O O13 0.484176 0.570411 0.262726
O O14 0.671357 0.883490 0.107609
O O15 0.727835 0.836586 0.866886
O O16 0.673546 0.454351 0.414143
O O17 0.000000 0.000000 0.500000
#
# Coordination Sequence:
#
# PCOD9018930 Si02
#       8
#     2   2   2   2   2   2   2   2
#     4  12  23  45  69 101 132 179 234 269 329 407
#     4   9  21  40  66  95 129 174 224 263 334 403
#     4  11  23  39  65 100 135 172 220 290 338 377
#     4  10  21  44  66  94 132 180 217 272 331 402
#     4  11  23  38  64 100 138 168 225 283 339 387
#     4  11  24  43  72  97 138 178 216 285 342 399
#     4  11  23  40  68  98 131 181 226 272 322 409
#     4   9  19  42  70  90 129 179 220 270 326 410
#
# _framework density 21.003644000000001
#
# number of rings (size 3 to 8) (size 9 to 14) (size 15 to 20)
#    0.000    1.500    2.500    3.375    1.750    1.500 
#    4.500    3.750    0.000    0.000    0.000    0.000 
#    0.000    0.000    0.000    0.000    0.000    0.000 
#
# Total GULP energy -89331.414684 kJ/mol
# GULP energy per Si atom -5583.213418 kJ/mol
# Density = 2.095584 g / cm^3
# Si number density = 21.003644 Si / 1000 Ang^3
#
#
#
# Elastic Constant Matrix: (Units=GPa)
#
#
# Indices 1 2 3 4 5 6 
#
# 1 98.5510 50.8791 8.2499 -3.1867 2.0841 -0.7092
# 2 50.8791 128.7489 45.7140 -14.2260 3.7817 -5.3757
# 3 8.2499 45.7140 106.2605 -10.1369 -2.9737 1.7458
# 4 -3.1867 -14.2260 -10.1369 31.8620 -12.8974 1.1189
# 5 2.0841 3.7817 -2.9737 -12.8974 14.4862 -9.9878
# 6 -0.7092 -5.3757 1.7458 1.1189 -9.9878 31.1550
#
#
#
# Elastic Compliance Matrix: (Units=1/GPa)
#
#
# Indices 1 2 3 4 5 6 
#
# 1 0.013021 -0.005791 0.001216 -0.002127 -0.003189 -0.001717
# 2 -0.005791 0.012121 -0.004305 0.004503 0.002825 0.002945
# 3 0.001216 -0.004305 0.011974 0.005871 0.009670 0.001503
# 4 -0.002127 0.004503 0.005871 0.062953 0.070736 0.020816
# 5 -0.003189 0.002825 0.009670 0.070736 0.169297 0.051607
# 6 -0.001717 0.002945 0.001503 0.020816 0.051607 0.048279
#
#
# Mechanical properties :
#
#
# Convention : Reuss Voigt Hill
#
# Bulk Modulus (GPa) = 51.65684 60.36070 56.00877
# Shear Modulus (GPa) = 14.62598 30.74847 22.68722
#
# Velocity S-wave (km/s) = 2.64172 3.83032 3.29014
# Velocity P-wave (km/s) = 5.82688 6.95431 6.41541
#
# Compressibility (1/GPa) = 0.01935852
#
# Stress axis : x y z
#
# Youngs Moduli (GPa) = 76.79891 82.49842 83.51167
#
# Poissons Ratio (x) = 0.47771 -0.10157
# Poissons Ratio (y) = 0.44471 0.35951
# Poissons Ratio (z) = -0.09341 0.35515
#
# Static dielectric constant tensor:
#      x y z
#    x 1.820040 -0.002040 -0.039010 
#    y -0.002040 1.739770 -0.027470 
#    z -0.039010 -0.027470 1.804340 
# 
# From -- ./inp_files/419126.got.cif
#   From: 2010.05.17/outbox.cif.g08.bks.cpg/sg2_210_cif.got.tgz:419126.got - 2010.06.03 11:33:40.
