data_PCOD9018536
_publ_section_title
;
Structure prediction by ZEFSAII (Michael W. Deem and Ramdas Pophale) SiO2 
 PCOD9018536
Probable space group: P -1
;
_chemical_formula_sum "Si O2"
_cell_formula_units_Z 16
_cell_length_a 9.574858
_cell_length_b 24.778387
_cell_length_c 8.834837
_cell_angle_alpha 49.681831
_cell_angle_beta 103.509897
_cell_angle_gamma 143.572033
_cell_volume 734.002831
_symmetry_space_group_name_H-M "P -1"
_symmetry_group_IT_number 2
_symmetry_cell_setting 'triclinic'
loop_
_space_group_symop_operation_xyz
x,y,z
-x,-y,-z
loop_
_atom_site_type_symbol
_atom_site_label
_atom_site_fract_x
_atom_site_fract_y
_atom_site_fract_z
Si Si1 0.425242 0.452747 0.390423
Si Si2 0.716686 0.452841 0.936047
Si Si3 0.943654 0.611992 0.014059
Si Si4 0.802217 0.093045 0.849848
Si Si5 0.226313 0.605404 0.226710
Si Si6 0.064047 0.085098 0.128615
Si Si7 0.793347 0.123627 0.454441
Si Si8 0.098856 0.125691 0.406601
O O1 0.500000 0.500000 0.500000
O O2 0.392452 0.516407 0.195472
O O3 0.105779 0.272141 0.627668
O O4 0.678183 0.519101 0.235325
O O5 0.843797 0.521189 0.010908
O O6 0.885880 0.495590 0.753257
O O7 0.459968 0.280769 0.200931
O O8 0.075036 0.741018 0.744414
O O9 0.198373 0.675288 0.044471
O O10 0.743651 0.065125 0.707660
O O11 0.871909 0.049263 0.030679
O O12 0.500000 0.000000 0.000000
O O13 0.000000 0.500000 0.500000
O O14 0.577524 0.740895 0.109513
O O15 0.965079 0.057162 0.328807
O O16 0.016488 0.980071 0.307144
O O17 0.032166 0.176684 0.339227
O O18 0.500000 0.000000 0.500000
#
# Coordination Sequence:
#
# PCOD9018536 Si02
#       8
#     2   2   2   2   2   2   2   2
#     4  12  24  44  75 105 144 189 237 305 364 427
#     4  11  22  43  69 101 139 189 239 296 352 427
#     4  12  24  45  72 104 144 188 252 295 360 438
#     4  12  27  45  69 104 145 182 242 302 363 432
#     4  11  24  44  68 107 146 191 236 294 363 436
#     4  10  23  46  69 100 143 185 237 298 365 427
#     4  12  25  43  71 103 139 191 247 298 362 431
#     4  10  21  43  71  95 136 190 237 292 361 424
#
# _framework density 21.798280999999999
#
# number of rings (size 3 to 8) (size 9 to 14) (size 15 to 20)
#    0.000    0.750    2.500    6.000    1.750    2.500 
#    4.500    0.000    0.000    0.000    0.000    0.000 
#    0.000    0.000    0.000    0.000    0.000    0.000 
#
# Total GULP energy -89342.450245 kJ/mol
# GULP energy per Si atom -5583.903140 kJ/mol
# Density = 2.174867 g / cm^3
# Si number density = 21.798281 Si / 1000 Ang^3
#
#
#
# Elastic Constant Matrix: (Units=GPa)
#
#
# Indices 1 2 3 4 5 6 
#
# 1 120.6594 32.6304 30.8094 17.5362 -0.1903 10.4138
# 2 32.6304 116.5245 42.0712 23.4036 -0.4647 9.0667
# 3 30.8094 42.0712 86.5249 13.4736 4.1193 10.8818
# 4 17.5362 23.4036 13.4736 30.8415 -1.6185 7.1308
# 5 -0.1903 -0.4647 4.1193 -1.6185 48.9143 9.9277
# 6 10.4138 9.0667 10.8818 7.1308 9.9277 43.7626
#
#
#
# Elastic Compliance Matrix: (Units=1/GPa)
#
#
# Indices 1 2 3 4 5 6 
#
# 1 0.009766 -0.001142 -0.002272 -0.003438 0.000314 -0.001034
# 2 -0.001142 0.011742 -0.004315 -0.006333 0.000285 -0.000121
# 3 -0.002272 -0.004315 0.014991 -0.001619 -0.001000 -0.001802
# 4 -0.003438 -0.006333 -0.001619 0.041104 0.002378 -0.004704
# 5 0.000314 0.000285 -0.001000 0.002378 0.021664 -0.005187
# 6 -0.001034 -0.000121 -0.001802 -0.004704 -0.005187 0.025513
#
#
# Mechanical properties :
#
#
# Convention : Reuss Voigt Hill
#
# Bulk Modulus (GPa) = 47.52602 59.41455 53.47028
# Shear Modulus (GPa) = 33.95562 39.25018 36.60290
#
# Velocity S-wave (km/s) = 3.95108 4.24796 4.10221
# Velocity P-wave (km/s) = 6.53182 7.16770 6.85714
#
# Compressibility (1/GPa) = 0.02104110
#
# Stress axis : x y z
#
# Youngs Moduli (GPa) = 102.39425 85.16314 66.70845
#
# Poissons Ratio (x) = 0.09729 0.15153
# Poissons Ratio (y) = 0.11698 0.28784
# Poissons Ratio (z) = 0.23260 0.36747
#
# Static dielectric constant tensor:
#      x y z
#    x 1.865110 -0.036870 -0.073660 
#    y -0.036870 1.826590 0.070350 
#    z -0.073660 0.070350 1.785770 
# 
# From -- ./inp_files/226165.got.cif
#   From: 2010.05.17/outbox.cif.g08.bks.cpg/sg2_114_cif.got.tgz:226165.got - 2010.06.03 11:33:40.
