data_PCOD9018771
_publ_section_title
;
Structure prediction by ZEFSAII (Michael W. Deem and Ramdas Pophale) SiO2 
 PCOD9018771
Probable space group: P -1
;
_chemical_formula_sum "Si O2"
_cell_formula_units_Z 16
_cell_length_a 6.010857
_cell_length_b 19.772829
_cell_length_c 6.275859
_cell_angle_alpha 79.759846
_cell_angle_beta 98.063187
_cell_angle_gamma 105.287835
_cell_volume 704.605620
_symmetry_space_group_name_H-M "P -1"
_symmetry_group_IT_number 2
_symmetry_cell_setting 'triclinic'
loop_
_space_group_symop_operation_xyz
x,y,z
-x,-y,-z
loop_
_atom_site_type_symbol
_atom_site_label
_atom_site_fract_x
_atom_site_fract_y
_atom_site_fract_z
Si Si1 0.284507 0.343354 0.141378
Si Si2 0.662274 0.039069 0.688017
Si Si3 0.709339 0.414629 0.468622
Si Si4 0.374958 0.093382 0.988258
Si Si5 0.959892 0.547308 0.165595
Si Si6 0.087376 0.712024 0.548762
Si Si7 0.443661 0.210386 0.253579
Si Si8 0.916623 0.837093 0.397308
O O1 0.463654 0.380916 0.336174
O O2 0.397399 0.281769 0.100286
O O3 0.047036 0.300142 0.240980
O O4 0.194627 0.398389 0.951231
O O5 0.848676 0.103174 0.574082
O O6 0.500000 0.000000 0.500000
O O7 0.745600 0.976036 0.853585
O O8 0.530175 0.070905 0.838047
O O9 0.804146 0.492424 0.340909
O O10 0.882817 0.364612 0.463694
O O11 0.777422 0.421802 0.723954
O O12 0.504623 0.154287 0.132631
O O13 0.201704 0.130432 0.824842
O O14 0.000000 0.500000 0.000000
O O15 0.343890 0.759955 0.577866
O O16 0.952250 0.760428 0.375274
O O17 0.232076 0.173431 0.399802
#
# Coordination Sequence:
#
# PCOD9018771 Si02
#       8
#     2   2   2   2   2   2   2   2
#     4  10  22  43  66  96 134 181 221 281 340 394
#     4  11  25  44  66  93 136 171 215 276 334 397
#     4  10  23  42  64  95 135 172 227 276 335 403
#     4  11  24  41  66 100 124 172 223 268 336 400
#     4  11  22  42  67  97 133 177 223 279 335 401
#     4  10  21  44  63  92 133 171 219 275 333 391
#     4  10  24  44  65  96 134 173 224 276 331 400
#     4  11  23  41  67  94 131 172 218 273 336 393
#
# _framework density 22.707740000000001
#
# number of rings (size 3 to 8) (size 9 to 14) (size 15 to 20)
#    0.000    1.500    1.250    3.000    1.750    6.500 
#    9.000    0.000    0.000    0.000    0.000    0.000 
#    0.000    0.000    0.000    0.000    0.000    0.000 
#
# Total GULP energy -89227.429540 kJ/mol
# GULP energy per Si atom -5576.714346 kJ/mol
# Density = 2.265606 g / cm^3
# Si number density = 22.707740 Si / 1000 Ang^3
#
#
#
# Elastic Constant Matrix: (Units=GPa)
#
#
# Indices 1 2 3 4 5 6 
#
# 1 54.0738 26.8826 27.4042 -19.8087 7.3052 1.1733
# 2 26.8826 104.8649 40.8767 -41.6365 11.9864 -18.0447
# 3 27.4042 40.8767 86.9700 -21.1661 25.5697 -14.9551
# 4 -19.8087 -41.6365 -21.1661 43.0495 -14.7633 12.4521
# 5 7.3052 11.9864 25.5697 -14.7633 29.9153 -11.0326
# 6 1.1733 -18.0447 -14.9551 12.4521 -11.0326 43.8381
#
#
#
# Elastic Compliance Matrix: (Units=1/GPa)
#
#
# Indices 1 2 3 4 5 6 
#
# 1 0.026077 -0.001322 -0.007033 0.009933 0.002968 -0.005716
# 2 -0.001322 0.017952 -0.005757 0.015414 0.006677 0.002763
# 3 -0.007033 -0.005757 0.019940 -0.004622 -0.014453 0.002296
# 4 0.009933 0.015414 -0.004622 0.047679 0.017135 -0.004729
# 5 0.002968 0.006677 -0.014453 0.017135 0.053140 0.006245
# 6 -0.005716 0.002763 0.002296 -0.004729 0.006245 0.027800
#
#
# Mechanical properties :
#
#
# Convention : Reuss Voigt Hill
#
# Bulk Modulus (GPa) = 27.97797 48.47062 38.22429
# Shear Modulus (GPa) = 21.48434 33.41024 27.44729
#
# Velocity S-wave (km/s) = 3.07925 3.83993 3.48044
# Velocity P-wave (km/s) = 4.99900 6.40717 5.74639
#
# Compressibility (1/GPa) = 0.03574240
#
# Stress axis : x y z
#
# Youngs Moduli (GPa) = 38.34800 55.70555 50.15101
#
# Poissons Ratio (x) = 0.07365 0.35273
# Poissons Ratio (y) = 0.05070 0.28874
# Poissons Ratio (z) = 0.26971 0.32072
#
# Static dielectric constant tensor:
#      x y z
#    x 1.856760 0.038730 0.109650 
#    y 0.038730 1.824820 -0.074730 
#    z 0.109650 -0.074730 1.717660 
# 
# From -- ./inp_files/10854.got.cif
#   From: 2010.05.17/outbox.cif.g08.bks.cpg/sg2_6_cif.got.tgz:10854.got - 2010.06.03 11:33:40.
