data_PCOD9018902
_publ_section_title
;
Structure prediction by ZEFSAII (Michael W. Deem and Ramdas Pophale) SiO2 
 PCOD9018902
Probable space group: P -1
;
_chemical_formula_sum "Si O2"
_cell_formula_units_Z 16
_cell_length_a 16.821859
_cell_length_b 8.994956
_cell_length_c 18.054113
_cell_angle_alpha 33.928863
_cell_angle_beta 38.124969
_cell_angle_gamma 27.364110
_cell_volume 687.541385
_symmetry_space_group_name_H-M "P -1"
_symmetry_group_IT_number 2
_symmetry_cell_setting 'triclinic'
loop_
_space_group_symop_operation_xyz
x,y,z
-x,-y,-z
loop_
_atom_site_type_symbol
_atom_site_label
_atom_site_fract_x
_atom_site_fract_y
_atom_site_fract_z
Si Si1 0.768317 0.752195 0.311925
Si Si2 0.383841 0.861671 0.116518
Si Si3 0.415234 0.242401 0.289682
Si Si4 0.241710 0.830224 0.451881
Si Si5 0.390672 0.668237 0.698271
Si Si6 0.586649 0.638527 0.918234
Si Si7 0.126244 0.474451 0.169645
Si Si8 0.816124 0.912285 0.448893
O O1 0.831311 0.360242 0.433519
O O2 0.919777 0.757249 0.188528
O O3 0.622989 0.966913 0.265413
O O4 0.660657 0.985139 0.367089
O O5 0.335174 0.631285 0.219378
O O6 0.543412 0.593908 0.169582
O O7 0.231145 0.223169 0.124149
O O8 0.452846 0.897555 0.975366
O O9 0.390919 0.219437 0.230204
O O10 0.321719 0.132091 0.443004
O O11 0.437088 0.570073 0.381116
O O12 0.144103 0.213171 0.325891
O O13 0.233747 0.867243 0.530602
O O14 0.221598 0.850645 0.693658
O O15 0.775183 0.408954 0.915959
O O16 0.500000 0.500000 0.000000
O O17 0.000000 0.500000 0.500000
#
# Coordination Sequence:
#
# PCOD9018902 Si02
#       8
#     2   2   2   2   2   2   2   2
#     4  11  23  38  61  95 133 158 204 257 308 372
#     4   9  22  39  66  86 118 166 206 259 303 361
#     4  10  22  41  62  89 128 167 201 251 317 365
#     4  11  22  38  60  93 129 173 193 250 313 378
#     4  10  22  39  60  92 126 166 204 249 309 371
#     4  10  21  44  66  84 120 167 210 258 308 363
#     4  11  22  38  65  94 120 160 218 250 305 371
#     4  12  24  36  61  92 133 163 207 249 310 374
#
# _framework density 23.271326999999999
#
# number of rings (size 3 to 8) (size 9 to 14) (size 15 to 20)
#    0.000    1.500    2.500    2.250    5.250    0.000 
#    0.000    6.250    0.000    0.000    0.000    0.000 
#    0.000    0.000    0.000    0.000    0.000    0.000 
#
# Total GULP energy -89218.874165 kJ/mol
# GULP energy per Si atom -5576.179635 kJ/mol
# Density = 2.321836 g / cm^3
# Si number density = 23.271327 Si / 1000 Ang^3
#
#
#
# Elastic Constant Matrix: (Units=GPa)
#
#
# Indices 1 2 3 4 5 6 
#
# 1 147.2801 68.0103 32.3028 9.9173 9.0957 13.6930
# 2 68.0103 78.9867 12.5840 10.7290 3.4609 -14.0211
# 3 32.3028 12.5840 33.5118 7.0686 4.6103 9.2327
# 4 9.9173 10.7290 7.0686 20.5865 -1.2421 -5.4938
# 5 9.0957 3.4609 4.6103 -1.2421 63.6721 5.0493
# 6 13.6930 -14.0211 9.2327 -5.4938 5.0493 44.9101
#
#
#
# Elastic Compliance Matrix: (Units=1/GPa)
#
#
# Indices 1 2 3 4 5 6 
#
# 1 0.015237 -0.013155 -0.007815 0.000292 -0.000329 -0.007074
# 2 -0.013155 0.026646 0.000506 -0.004631 -0.000626 0.011730
# 3 -0.007815 0.000506 0.042262 -0.013129 -0.001627 -0.007571
# 4 0.000292 -0.004631 -0.013129 0.057597 0.001648 0.008025
# 5 -0.000329 -0.000626 -0.001627 0.001648 0.016045 -0.001363
# 6 -0.007074 0.011730 -0.007571 0.008025 -0.001363 0.030777
#
#
# Mechanical properties :
#
#
# Convention : Reuss Voigt Hill
#
# Bulk Modulus (GPa) = 23.13912 53.95253 38.54582
# Shear Modulus (GPa) = 20.50059 35.62585 28.06322
#
# Velocity S-wave (km/s) = 2.97128 3.91690 3.47639
# Velocity P-wave (km/s) = 4.66220 6.60989 5.71956
#
# Compressibility (1/GPa) = 0.04321686
#
# Stress axis : x y z
#
# Youngs Moduli (GPa) = 65.63004 37.52978 23.66212
#
# Poissons Ratio (x) = 0.49372 0.18491
# Poissons Ratio (y) = 0.86339 -0.01198
# Poissons Ratio (z) = 0.51288 -0.01901
#
# Static dielectric constant tensor:
#      x y z
#    x 1.888340 -0.035950 0.006810 
#    y -0.035950 1.894240 -0.057700 
#    z 0.006810 -0.057700 1.982960 
# 
# From -- ./inp_files/204433.got.cif
#   From: 2010.05.17/outbox.cif.g08.bks.cpg/sg2_103_cif.got.tgz:204433.got - 2010.06.03 11:33:40.
