data_PCOD9018418
_publ_section_title
;
Structure prediction by ZEFSAII (Michael W. Deem and Ramdas Pophale) SiO2 
 PCOD9018418
Probable space group: P -1
;
_chemical_formula_sum "Si O2"
_cell_formula_units_Z 16
_cell_length_a 23.219838
_cell_length_b 10.598227
_cell_length_c 6.454783
_cell_angle_alpha 65.004593
_cell_angle_beta 101.813631
_cell_angle_gamma 148.170786
_cell_volume 718.636851
_symmetry_space_group_name_H-M "P -1"
_symmetry_group_IT_number 2
_symmetry_cell_setting 'triclinic'
loop_
_space_group_symop_operation_xyz
x,y,z
-x,-y,-z
loop_
_atom_site_type_symbol
_atom_site_label
_atom_site_fract_x
_atom_site_fract_y
_atom_site_fract_z
Si Si1 0.389031 0.584730 0.713215
Si Si2 0.428229 0.917442 0.201579
Si Si3 0.071159 0.943270 0.565202
Si Si4 0.757667 0.820253 0.794802
Si Si5 0.376724 0.319463 0.551783
Si Si6 0.829743 0.545354 0.760966
Si Si7 0.149992 0.670778 0.833276
Si Si8 0.086762 0.754080 0.077910
O O1 0.396844 0.721425 0.456822
O O2 0.377690 0.418411 0.689483
O O3 0.498379 0.829003 0.775184
O O4 0.283269 0.382436 0.937237
O O5 0.305894 0.739371 0.184902
O O6 0.500000 0.000000 0.000000
O O7 0.935329 0.692685 0.605730
O O8 0.135234 0.990183 0.403539
O O9 0.134990 0.221963 0.395761
O O10 0.095803 0.908449 0.821597
O O11 0.651725 0.641398 0.693261
O O12 0.807123 0.036847 0.832722
O O13 0.500000 0.500000 0.500000
O O14 0.273523 0.995845 0.677880
O O15 0.841650 0.477770 0.027041
O O16 0.038563 0.481843 0.744401
O O17 0.102478 0.650692 0.020628
#
# Coordination Sequence:
#
# PCOD9018418 Si02
#       8
#     2   2   2   2   2   2   2   2
#     4  11  25  44  67 100 131 180 239 279 331 420
#     4  11  24  45  72  97 135 182 230 284 344 403
#     4  10  21  44  68  99 132 175 218 285 357 405
#     4  12  22  43  73  92 131 183 231 276 350 408
#     4  12  27  44  65  95 140 186 229 279 343 403
#     4  10  22  40  69  96 137 171 220 287 340 405
#     4  10  22  43  64  97 137 168 225 288 329 403
#     4  10  21  43  70  95 131 176 227 282 337 412
#
# _framework density 22.264374
#
# number of rings (size 3 to 8) (size 9 to 14) (size 15 to 20)
#    0.000    1.250    2.500    3.000    3.500    2.000 
#    2.250   10.000    0.000    0.000    0.000    0.000 
#    0.000    0.000    0.000    0.000    0.000    0.000 
#
# Total GULP energy -89078.498544 kJ/mol
# GULP energy per Si atom -5567.406159 kJ/mol
# Density = 2.221370 g / cm^3
# Si number density = 22.264374 Si / 1000 Ang^3
#
#
#
# Elastic Constant Matrix: (Units=GPa)
#
#
# Indices 1 2 3 4 5 6 
#
# 1 58.8146 34.0666 29.5036 13.1356 3.9593 7.7066
# 2 34.0666 124.0288 41.3907 7.8026 -7.1785 25.5104
# 3 29.5036 41.3907 108.1759 -14.9082 0.7573 -0.5509
# 4 13.1356 7.8026 -14.9082 38.0016 -6.4789 5.0742
# 5 3.9593 -7.1785 0.7573 -6.4789 25.7565 -19.8413
# 6 7.7066 25.5104 -0.5509 5.0742 -19.8413 35.7102
#
#
#
# Elastic Compliance Matrix: (Units=1/GPa)
#
#
# Indices 1 2 3 4 5 6 
#
# 1 0.029061 -0.002558 -0.008873 -0.014431 -0.018355 -0.012730
# 2 -0.002558 0.012330 -0.004427 -0.002806 -0.004986 -0.010696
# 3 -0.008873 -0.004427 0.014734 0.010119 0.009128 0.008938
# 4 -0.014431 -0.002806 0.010119 0.037634 0.018443 0.010175
# 5 -0.018355 -0.004986 0.009128 0.018443 0.084815 0.052168
# 6 -0.012730 -0.010696 0.008938 0.010175 0.052168 0.066069
#
#
# Mechanical properties :
#
#
# Convention : Reuss Voigt Hill
#
# Bulk Modulus (GPa) = 40.96328 55.66013 48.31171
# Shear Modulus (GPa) = 17.57497 32.29757 24.93627
#
# Velocity S-wave (km/s) = 2.81263 3.81286 3.35028
# Velocity P-wave (km/s) = 5.38390 6.66617 6.05905
#
# Compressibility (1/GPa) = 0.02441211
#
# Stress axis : x y z
#
# Youngs Moduli (GPa) = 34.41000 81.10060 67.87054
#
# Poissons Ratio (x) = 0.20742 0.60219
# Poissons Ratio (y) = 0.08800 0.30044
# Poissons Ratio (z) = 0.30531 0.35900
#
# Static dielectric constant tensor:
#      x y z
#    x 1.807430 -0.001800 0.021290 
#    y -0.001800 1.956340 -0.030620 
#    z 0.021290 -0.030620 1.877530 
# 
# From -- ./inp_files/123595.got.cif
#   From: 2010.05.17/outbox.cif.g08.bks.cpg/sg2_62_cif.got.tgz:123595.got - 2010.06.03 11:33:40.
