data_PCOD9018837
_publ_section_title
;
Structure prediction by ZEFSAII (Michael W. Deem and Ramdas Pophale) SiO2 
 PCOD9018837
Probable space group: P -1
;
_chemical_formula_sum "Si O2"
_cell_formula_units_Z 16
_cell_length_a 14.465069
_cell_length_b 20.745542
_cell_length_c 11.786571
_cell_angle_alpha 46.905161
_cell_angle_beta 29.369300
_cell_angle_gamma 28.629397
_cell_volume 779.274586
_symmetry_space_group_name_H-M "P -1"
_symmetry_group_IT_number 2
_symmetry_cell_setting 'triclinic'
loop_
_space_group_symop_operation_xyz
x,y,z
-x,-y,-z
loop_
_atom_site_type_symbol
_atom_site_label
_atom_site_fract_x
_atom_site_fract_y
_atom_site_fract_z
Si Si1 0.211754 0.669973 0.132407
Si Si2 0.813794 0.142835 0.462433
Si Si3 0.796644 0.832840 0.924644
Si Si4 0.464814 0.846439 0.454982
Si Si5 0.184576 0.344316 0.022982
Si Si6 0.657401 0.664552 0.676414
Si Si7 0.386671 0.055522 0.681732
Si Si8 0.720878 0.764988 0.701949
O O1 0.959482 0.779729 0.168455
O O2 0.022473 0.702970 0.403260
O O3 0.500000 0.500000 0.000000
O O4 0.382883 0.697223 0.942529
O O5 0.769560 0.123327 0.405541
O O6 0.497390 0.252356 0.735561
O O7 0.961434 0.184054 0.271518
O O8 0.000000 0.000000 0.500000
O O9 0.690541 0.810826 0.168261
O O10 0.908270 0.719219 0.849726
O O11 0.500000 0.000000 0.000000
O O12 0.618746 0.724675 0.524569
O O13 0.386390 0.958843 0.482848
O O14 0.214379 0.317823 0.157642
O O15 0.000000 0.500000 0.000000
O O16 0.628686 0.740868 0.721115
O O17 0.000000 0.500000 0.500000
O O18 0.500000 0.000000 0.500000
O O19 0.458267 0.934630 0.807501
#
# Coordination Sequence:
#
# PCOD9018837 Si02
#       8
#     2   2   2   2   2   2   2   2
#     4  11  23  43  69 100 140 185 229 273 356 421
#     4  11  25  45  75 105 133 193 243 283 354 427
#     4  11  23  47  74 104 142 184 242 295 346 426
#     4  11  23  41  71 102 142 176 235 289 347 419
#     4  11  27  48  70 106 146 182 239 303 362 413
#     4  12  25  43  67 104 141 182 234 283 348 430
#     4  10  21  44  65 103 142 177 223 287 356 413
#     4  11  25  46  68  99 149 178 229 297 354 421
#
# _framework density 20.531917
#
# number of rings (size 3 to 8) (size 9 to 14) (size 15 to 20)
#    0.000    1.000    6.250    0.750    5.250    2.000 
#    4.500    0.000    0.000    0.000    0.000    0.000 
#    0.000    0.000    0.000    0.000    0.000    0.000 
#
# Total GULP energy -89186.276635 kJ/mol
# GULP energy per Si atom -5574.142290 kJ/mol
# Density = 2.048519 g / cm^3
# Si number density = 20.531917 Si / 1000 Ang^3
#
#
#
# Elastic Constant Matrix: (Units=GPa)
#
#
# Indices 1 2 3 4 5 6 
#
# 1 161.7705 71.5938 55.0349 -18.3129 -13.9504 -3.9027
# 2 71.5938 168.8847 37.5801 0.8674 -5.7948 -14.8839
# 3 55.0349 37.5801 88.3905 -16.6725 -20.9808 11.0705
# 4 -18.3129 0.8674 -16.6725 43.3158 3.2844 3.0034
# 5 -13.9504 -5.7948 -20.9808 3.2844 40.1059 -18.1840
# 6 -3.9027 -14.8839 11.0705 3.0034 -18.1840 30.0251
#
#
#
# Elastic Compliance Matrix: (Units=1/GPa)
#
#
# Indices 1 2 3 4 5 6 
#
# 1 0.009206 -0.002795 -0.004052 0.002151 0.001373 0.001922
# 2 -0.002795 0.008329 -0.002688 -0.002954 0.001871 0.006185
# 3 -0.004052 -0.002688 0.017772 0.005312 0.004148 -0.006431
# 4 0.002151 -0.002954 0.005312 0.026785 -0.002389 -0.007270
# 5 0.001373 0.001871 0.004148 -0.002389 0.038549 0.023162
# 6 0.001922 0.006185 -0.006431 -0.007270 0.023162 0.053747
#
#
# Mechanical properties :
#
#
# Convention : Reuss Voigt Hill
#
# Bulk Modulus (GPa) = 61.59855 83.05146 72.32500
# Shear Modulus (GPa) = 27.95312 39.67850 33.81581
#
# Velocity S-wave (km/s) = 3.69378 4.40082 4.06271
# Velocity P-wave (km/s) = 6.94684 8.14621 7.57031
#
# Compressibility (1/GPa) = 0.01623415
#
# Stress axis : x y z
#
# Youngs Moduli (GPa) = 108.63023 120.06392 56.26951
#
# Poissons Ratio (x) = 0.33561 0.22802
# Poissons Ratio (y) = 0.30365 0.15128
# Poissons Ratio (z) = 0.44019 0.32278
#
# Static dielectric constant tensor:
#      x y z
#    x 1.813130 0.165820 -0.015600 
#    y 0.165820 1.502230 0.114330 
#    z -0.015600 0.114330 1.691310 
# 
# From -- ./inp_files/457475.got.cif
#   From: 2010.05.17/outbox.cif.g08.bks.cpg/sg2_229_cif.got.tgz:457475.got - 2010.06.03 11:33:40.
