data_PCOD9018096
_publ_section_title
;
Structure prediction by ZEFSAII (Michael W. Deem and Ramdas Pophale) SiO2 
 PCOD9018096
Probable space group: P -1
;
_chemical_formula_sum "Si O2"
_cell_formula_units_Z 16
_cell_length_a 8.271671
_cell_length_b 17.454312
_cell_length_c 7.728154
_cell_angle_alpha 87.291217
_cell_angle_beta 111.146096
_cell_angle_gamma 137.598532
_cell_volume 657.747492
_symmetry_space_group_name_H-M "P -1"
_symmetry_group_IT_number 2
_symmetry_cell_setting 'triclinic'
loop_
_space_group_symop_operation_xyz
x,y,z
-x,-y,-z
loop_
_atom_site_type_symbol
_atom_site_label
_atom_site_fract_x
_atom_site_fract_y
_atom_site_fract_z
Si Si1 0.213636 0.195743 0.260699
Si Si2 0.290493 0.679064 0.748562
Si Si3 0.730084 0.526851 0.679248
Si Si4 0.474285 0.340542 0.871060
Si Si5 0.450834 0.937622 0.265398
Si Si6 0.118015 0.310576 0.970613
Si Si7 0.011569 0.092745 0.555008
Si Si8 0.329347 0.051110 0.017942
O O1 0.534067 0.287714 0.353015
O O2 0.151447 0.247671 0.114132
O O3 0.114311 0.174533 0.417915
O O4 0.000417 0.057634 0.124395
O O5 0.478410 0.813866 0.868663
O O6 0.975428 0.594702 0.632554
O O7 0.318875 0.623607 0.913192
O O8 0.500000 0.500000 0.500000
O O9 0.606589 0.408835 0.733465
O O10 0.851181 0.611047 0.888401
O O11 0.232828 0.194164 0.770469
O O12 0.336969 0.369459 0.898567
O O13 0.385281 0.001438 0.178184
O O14 0.559596 0.937406 0.127852
O O15 0.704809 0.014649 0.483676
O O16 0.179326 0.797519 0.219871
O O17 0.000000 0.000000 0.500000
#
# Coordination Sequence:
#
# PCOD9018096 Si02
#       8
#     2   2   2   2   2   2   2   2
#     4   9  20  38  63  95 124 167 211 266 314 392
#     4  11  22  41  66  92 125 173 217 262 329 383
#     4  12  26  44  68  94 127 174 224 273 319 380
#     4  11  25  43  65  96 131 172 216 272 319 390
#     4   9  18  33  60  94 124 169 199 265 315 391
#     4  10  21  43  68  92 128 171 220 264 328 382
#     4  11  23  39  62  99 141 166 211 266 331 381
#     4   9  16  31  63  91 124 159 212 250 325 376
#
# _framework density 24.325447
#
# number of rings (size 3 to 8) (size 9 to 14) (size 15 to 20)
#    0.000    1.750    1.250    4.125    1.750    2.500 
#    2.250    6.875    0.000    0.000    0.000    0.000 
#    0.000    0.000    0.000    0.000    0.000    0.000 
#
# Total GULP energy -89421.777387 kJ/mol
# GULP energy per Si atom -5588.861087 kJ/mol
# Density = 2.427008 g / cm^3
# Si number density = 24.325447 Si / 1000 Ang^3
#
#
#
# Elastic Constant Matrix: (Units=GPa)
#
#
# Indices 1 2 3 4 5 6 
#
# 1 76.3612 27.2901 23.7083 12.2436 18.7312 34.6419
# 2 27.2901 77.8149 -0.4555 19.9076 9.0720 13.5228
# 3 23.7083 -0.4555 47.5754 15.5929 17.3127 10.6047
# 4 12.2436 19.9076 15.5929 32.4022 8.6504 -2.4771
# 5 18.7312 9.0720 17.3127 8.6504 46.3100 15.5677
# 6 34.6419 13.5228 10.6047 -2.4771 15.5677 38.4172
#
#
#
# Elastic Compliance Matrix: (Units=1/GPa)
#
#
# Indices 1 2 3 4 5 6 
#
# 1 0.027822 -0.004423 -0.007228 -0.006294 0.001004 -0.022348
# 2 -0.004423 0.019312 0.008723 -0.014714 -0.000503 -0.005963
# 3 -0.007228 0.008723 0.033825 -0.017436 -0.006733 -0.004286
# 4 -0.006294 -0.014714 -0.017436 0.053690 -0.005225 0.021247
# 5 0.001004 -0.000503 -0.006733 -0.005225 0.028378 -0.010706
# 6 -0.022348 -0.005963 -0.004286 0.021247 -0.010706 0.055172
#
#
# Mechanical properties :
#
#
# Convention : Reuss Voigt Hill
#
# Bulk Modulus (GPa) = 13.31479 33.64861 23.48170
# Shear Modulus (GPa) = 20.07323 33.50646 26.78984
#
# Velocity S-wave (km/s) = 2.87574 3.71539 3.32220
# Velocity P-wave (km/s) = 4.06349 5.68051 4.93863
#
# Compressibility (1/GPa) = 0.07510442
#
# Stress axis : x y z
#
# Youngs Moduli (GPa) = 35.94326 51.78082 29.56418
#
# Poissons Ratio (x) = 0.22901 0.21368
# Poissons Ratio (y) = 0.15896 -0.25790
# Poissons Ratio (z) = 0.25979 -0.45170
#
# Static dielectric constant tensor:
#      x y z
#    x 1.988160 -0.012560 -0.017870 
#    y -0.012560 1.932790 0.051160 
#    z -0.017870 0.051160 1.936450 
# 
# From -- ./inp_files/217541.got.cif
#   From: 2010.05.17/outbox.cif.g08.bks.cpg/sg2_109_cif.got.tgz:217541.got - 2010.06.03 11:33:40.
