data_PCOD9018244
_publ_section_title
;
Structure prediction by ZEFSAII (Michael W. Deem and Ramdas Pophale) SiO2 
 PCOD9018244
Probable space group: P -1
;
_chemical_formula_sum "Si O2"
_cell_formula_units_Z 10
_cell_length_a 5.984344
_cell_length_b 4.869887
_cell_length_c 20.069787
_cell_angle_alpha 124.585854
_cell_angle_beta 123.866236
_cell_angle_gamma 85.707314
_cell_volume 374.059491
_symmetry_space_group_name_H-M "P -1"
_symmetry_group_IT_number 2
_symmetry_cell_setting 'triclinic'
loop_
_space_group_symop_operation_xyz
x,y,z
-x,-y,-z
loop_
_atom_site_type_symbol
_atom_site_label
_atom_site_fract_x
_atom_site_fract_y
_atom_site_fract_z
Si Si1 0.484615 0.309223 0.901447
Si Si2 0.631063 0.657469 0.833461
Si Si3 0.210473 0.202124 0.437378
Si Si4 0.133245 0.864118 0.248985
Si Si5 0.309023 0.508819 0.628873
O O1 0.539918 0.555599 0.879787
O O2 0.151528 0.057348 0.804976
O O3 0.683918 0.072393 0.894105
O O4 0.500000 0.500000 0.000000
O O5 0.882760 0.513739 0.835598
O O6 0.386567 0.451420 0.709494
O O7 0.500000 0.500000 0.500000
O O8 0.247687 0.188087 0.521070
O O9 0.953135 0.349091 0.401310
O O10 0.165584 0.872894 0.335501
O O11 0.407936 0.167346 0.304696
#
# Coordination Sequence:
#
# PCOD9018244 Si02
#       5
#     2   2   2   2   2
#     4  12  29  49  72 103 140 184 237 296 357 411
#     4  12  25  47  73 105 140 181 240 288 348 426
#     4   9  19  39  71 105 145 188 226 282 346 413
#     4  11  23  44  74 100 147 186 228 292 347 411
#     4  10  21  43  69 108 143 183 238 277 342 427
#
# _framework density 26.733712000000001
#
# number of rings (size 3 to 8) (size 9 to 14) (size 15 to 20)
#    0.000    1.200    4.000    0.600    2.800    2.400 
#    0.000   14.000    0.000    0.000    0.000    0.000 
#    0.000    0.000    0.000    0.000    0.000    0.000 
#
# Total GULP energy -56076.882178 kJ/mol
# GULP energy per Si atom -5607.688218 kJ/mol
# Density = 2.667287 g / cm^3
# Si number density = 26.733712 Si / 1000 Ang^3
#
#
#
# Elastic Constant Matrix: (Units=GPa)
#
#
# Indices 1 2 3 4 5 6 
#
# 1 79.8553 11.0530 36.4779 -8.2022 -25.7956 2.9433
# 2 11.0530 87.8258 26.4426 -7.6585 -21.0837 5.1428
# 3 36.4779 26.4426 157.2402 -9.4950 -71.5056 6.6477
# 4 -8.2022 -7.6585 -9.4950 32.9393 1.7135 -16.9397
# 5 -25.7956 -21.0837 -71.5056 1.7135 76.1273 -3.5747
# 6 2.9433 5.1428 6.6477 -16.9397 -3.5747 40.3537
#
#
#
# Elastic Compliance Matrix: (Units=1/GPa)
#
#
# Indices 1 2 3 4 5 6 
#
# 1 0.014718 -0.000312 -0.001714 0.003432 0.003260 0.000978
# 2 -0.000312 0.012485 -0.000661 0.002381 0.002667 -0.000224
# 3 -0.001714 -0.000661 0.011580 0.002320 0.010069 0.000167
# 4 0.003432 0.002381 0.002320 0.040720 0.003860 0.016500
# 5 0.003260 0.002667 0.010069 0.003860 0.024423 0.001547
# 6 0.000978 -0.000224 0.000167 0.016500 0.001547 0.031774
#
#
# Mechanical properties :
#
#
# Convention : Reuss Voigt Hill
#
# Bulk Modulus (GPa) = 29.93048 52.54094 41.23571
# Shear Modulus (GPa) = 32.84911 46.61391 39.73151
#
# Velocity S-wave (km/s) = 3.50916 4.18022 3.85930
# Velocity P-wave (km/s) = 5.25728 6.55706 5.94281
#
# Compressibility (1/GPa) = 0.03341076
#
# Stress axis : x y z
#
# Youngs Moduli (GPa) = 67.94352 80.09308 86.35206
#
# Poissons Ratio (x) = 0.02497 0.14798
# Poissons Ratio (y) = 0.02118 0.05710
# Poissons Ratio (z) = 0.11643 0.05296
#
# Static dielectric constant tensor:
#      x y z
#    x 2.067690 0.018710 -0.012280 
#    y 0.018710 2.047530 -0.004880 
#    z -0.012280 -0.004880 2.120710 
# 
# From -- ./inp_files/2538.got.cif
#   From: 2010.05.17/outbox.cif.g08.bks.cpg/sg2_2_cif.got.tgz:2538.got - 2010.06.03 11:33:40.
