data_PCOD9018892
_publ_section_title
;
Structure prediction by ZEFSAII (Michael W. Deem and Ramdas Pophale) SiO2 
 PCOD9018892
Probable space group: P -1
;
_chemical_formula_sum "Si O2"
_cell_formula_units_Z 16
_cell_length_a 20.320612
_cell_length_b 11.216084
_cell_length_c 10.596089
_cell_angle_alpha 57.320697
_cell_angle_beta 43.466690
_cell_angle_gamma 25.194896
_cell_volume 648.571272
_symmetry_space_group_name_H-M "P -1"
_symmetry_group_IT_number 2
_symmetry_cell_setting 'triclinic'
loop_
_space_group_symop_operation_xyz
x,y,z
-x,-y,-z
loop_
_atom_site_type_symbol
_atom_site_label
_atom_site_fract_x
_atom_site_fract_y
_atom_site_fract_z
Si Si1 0.578479 0.740579 0.689997
Si Si2 0.446173 0.769543 0.112276
Si Si3 0.695656 0.650645 0.962029
Si Si4 0.185376 0.356486 0.720424
Si Si5 0.640085 0.204659 0.396857
Si Si6 0.680024 0.370815 0.588303
Si Si7 0.976785 0.334308 0.985348
Si Si8 0.092944 0.175119 0.526585
O O1 0.723654 0.686005 0.504399
O O2 0.711174 0.439978 0.614971
O O3 0.375216 0.044752 0.717035
O O4 0.502580 0.782657 0.903768
O O5 0.446139 0.599709 0.198159
O O6 0.208426 0.107860 0.293575
O O7 0.611662 0.602646 0.081382
O O8 0.789785 0.546827 0.029251
O O9 0.866457 0.473170 0.723815
O O10 0.500000 0.000000 0.000000
O O11 0.041913 0.414622 0.849028
O O12 0.078288 0.608886 0.822337
O O13 0.500000 0.500000 0.500000
O O14 0.467381 0.358953 0.462986
O O15 0.767650 0.963757 0.467446
O O16 0.824687 0.004989 0.157264
O O17 0.861569 0.049533 0.447620
#
# Coordination Sequence:
#
# PCOD9018892 Si02
#       8
#     2   2   2   2   2   2   2   2
#     4  11  21  43  68  99 134 188 227 284 341 417
#     4  10  23  42  63 104 139 177 231 274 353 417
#     4  11  23  45  66  97 135 182 228 281 353 413
#     4  10  23  41  69 102 134 177 245 277 350 410
#     4   9  16  37  67  96 126 178 221 274 344 398
#     4   9  19  40  67  96 139 181 219 288 343 400
#     4  10  21  44  66 102 137 174 230 296 339 406
#     4   8  21  40  64  98 135 171 230 280 338 415
#
# _framework density 24.669609000000001
#
# number of rings (size 3 to 8) (size 9 to 14) (size 15 to 20)
#    0.750    1.500    1.250    1.125    0.000    1.500 
#   15.750    1.875    0.000    0.000    0.000    0.000 
#    0.000    0.000    0.000    0.000    0.000    0.000 
#
# Total GULP energy -89257.703497 kJ/mol
# GULP energy per Si atom -5578.606469 kJ/mol
# Density = 2.461346 g / cm^3
# Si number density = 24.669609 Si / 1000 Ang^3
#
#
#
# Elastic Constant Matrix: (Units=GPa)
#
#
# Indices 1 2 3 4 5 6 
#
# 1 57.4028 17.9569 35.0931 3.9140 -4.2040 13.9887
# 2 17.9569 66.7667 43.3851 17.8647 9.4731 5.3068
# 3 35.0931 43.3851 171.6589 6.3661 12.1057 -2.5845
# 4 3.9140 17.8647 6.3661 39.0725 10.4971 3.0690
# 5 -4.2040 9.4731 12.1057 10.4971 42.1700 7.7503
# 6 13.9887 5.3068 -2.5845 3.0690 7.7503 25.0033
#
#
#
# Elastic Compliance Matrix: (Units=1/GPa)
#
#
# Indices 1 2 3 4 5 6 
#
# 1 0.026643 -0.003092 -0.005471 -0.001267 0.008410 -0.017267
# 2 -0.003092 0.021146 -0.004334 -0.008120 -0.001471 -0.001753
# 3 -0.005471 -0.004334 0.008305 0.001646 -0.003412 0.005695
# 4 -0.001267 -0.008120 0.001646 0.030875 -0.006619 0.000864
# 5 0.008410 -0.001471 -0.003412 -0.006619 0.029938 -0.013213
# 6 -0.017267 -0.001753 0.005695 0.000864 -0.013213 0.054605
#
#
# Mechanical properties :
#
#
# Convention : Reuss Voigt Hill
#
# Bulk Modulus (GPa) = 33.00448 54.29983 43.65216
# Shear Modulus (GPa) = 24.10727 34.54206 29.32467
#
# Velocity S-wave (km/s) = 3.12942 3.74597 3.45149
# Velocity P-wave (km/s) = 5.14445 6.38500 5.79800
#
# Compressibility (1/GPa) = 0.03029892
#
# Stress axis : x y z
#
# Youngs Moduli (GPa) = 37.53327 47.29049 120.41365
#
# Poissons Ratio (x) = 0.14623 0.65882
# Poissons Ratio (y) = 0.11606 0.52185
# Poissons Ratio (z) = 0.20536 0.20495
#
# Static dielectric constant tensor:
#      x y z
#    x 2.021640 0.031080 0.030140 
#    y 0.031080 2.018100 0.003870 
#    z 0.030140 0.003870 1.963540 
# 
# From -- ./inp_files/471166.got.cif
#   From: 2010.05.17/outbox.cif.g08.bks.cpg/sg2_236_cif.got.tgz:471166.got - 2010.06.03 11:33:40.
