data_PCOD9018398
_publ_section_title
;
Structure prediction by ZEFSAII (Michael W. Deem and Ramdas Pophale) SiO2 
 PCOD9018398
Probable space group: P -1
;
_chemical_formula_sum "Si O2"
_cell_formula_units_Z 12
_cell_length_a 6.905120
_cell_length_b 10.005111
_cell_length_c 7.979277
_cell_angle_alpha 90.000349
_cell_angle_beta 125.294078
_cell_angle_gamma 90.886071
_cell_volume 449.856338
_symmetry_space_group_name_H-M "P -1"
_symmetry_group_IT_number 2
_symmetry_cell_setting 'triclinic'
loop_
_space_group_symop_operation_xyz
x,y,z
-x,-y,-z
loop_
_atom_site_type_symbol
_atom_site_label
_atom_site_fract_x
_atom_site_fract_y
_atom_site_fract_z
Si Si1 0.311436 0.399555 0.243627
Si Si2 0.340848 0.368513 0.887460
Si Si3 0.311435 0.899556 0.567809
Si Si4 0.659152 0.131487 0.046613
Si Si5 0.172250 0.632201 0.376126
Si Si6 0.172251 0.132201 0.296125
O O1 0.198473 0.541523 0.223417
O O2 0.595541 0.413862 0.405639
O O3 0.216199 0.291461 0.330929
O O4 0.262951 0.333348 0.039973
O O5 0.087826 0.389795 0.676875
O O6 0.500000 0.500000 0.000000
O O7 0.500001 0.250000 0.897777
O O8 0.262951 0.833349 0.722977
O O9 0.216198 0.791462 0.385270
O O10 0.595540 0.913861 0.689902
O O11 0.801526 0.958476 0.524944
O O12 0.912175 0.110205 0.089051
O O13 0.500000 0.000000 0.000000
#
# Coordination Sequence:
#
# PCOD9018398 Si02
#       6
#     2   2   2   2   2   2
#     4  10  22  46  66  99 131 175 227 270 330 394
#     4  12  25  44  64 103 137 174 220 277 331 396
#     4  10  22  46  66  99 131 175 227 270 330 394
#     4  12  25  44  64 103 137 174 220 277 331 396
#     4  10  21  43  70  92 134 176 218 273 330 389
#     4  10  21  43  70  92 134 176 218 273 330 389
#
# _framework density 26.675183000000001
#
# number of rings (size 3 to 8) (size 9 to 14) (size 15 to 20)
#    0.000    1.333    3.333    3.000    0.000    1.333 
#   30.000    0.000    0.000    0.000    0.000    0.000 
#    0.000    0.000    0.000    0.000    0.000    0.000 
#
# Total GULP energy -67113.338176 kJ/mol
# GULP energy per Si atom -5592.778181 kJ/mol
# Density = 2.661447 g / cm^3
# Si number density = 26.675183 Si / 1000 Ang^3
#
#
#
# Elastic Constant Matrix: (Units=GPa)
#
#
# Indices 1 2 3 4 5 6 
#
# 1 133.6770 55.0688 43.3374 -2.3018 61.4051 -10.6534
# 2 55.0688 145.2309 34.6104 12.9256 36.7278 -4.2139
# 3 43.3374 34.6104 85.3634 8.6870 35.3287 -8.7122
# 4 -2.3018 12.9256 8.6870 39.6499 4.0739 7.8017
# 5 61.4051 36.7278 35.3287 4.0739 75.7973 -6.5441
# 6 -10.6534 -4.2139 -8.7122 7.8017 -6.5441 43.1561
#
#
#
# Elastic Compliance Matrix: (Units=1/GPa)
#
#
# Indices 1 2 3 4 5 6 
#
# 1 0.013351 -0.002560 -0.002424 0.002871 -0.008536 0.000743
# 2 -0.002560 0.008774 -0.001408 -0.002600 -0.001364 0.000204
# 3 -0.002424 -0.001408 0.015899 -0.003183 -0.004388 0.002384
# 4 0.002871 -0.002600 -0.003183 0.028181 -0.001574 -0.005521
# 5 -0.008536 -0.001364 -0.004388 -0.001574 0.022954 0.000639
# 6 0.000743 0.000204 0.002384 -0.005521 0.000639 0.024951
#
#
# Mechanical properties :
#
#
# Convention : Reuss Voigt Hill
#
# Bulk Modulus (GPa) = 39.61841 70.03381 54.82611
# Shear Modulus (GPa) = 36.95315 47.13765 42.04540
#
# Velocity S-wave (km/s) = 3.72600 4.20825 3.97444
# Velocity P-wave (km/s) = 5.77886 7.06567 6.45441
#
# Compressibility (1/GPa) = 0.02524079
#
# Stress axis : x y z
#
# Youngs Moduli (GPa) = 74.90254 113.97143 62.89650
#
# Poissons Ratio (x) = 0.29178 0.15244
# Poissons Ratio (y) = 0.19176 0.08854
# Poissons Ratio (z) = 0.18154 0.16045
#
# Static dielectric constant tensor:
#      x y z
#    x 2.111080 0.026200 -0.069220 
#    y 0.026200 2.069780 -0.008240 
#    z -0.069220 -0.008240 2.150870 
# 
# From -- ./inp_files/131933.got.cif
#   From: 2010.05.17/outbox.cif.g08.bks.cpg/sg2_66_cif.got.tgz:131933.got - 2010.06.03 11:33:40.
