data_PCOD9018982
_publ_section_title
;
Structure prediction by ZEFSAII (Michael W. Deem and Ramdas Pophale) SiO2 
 PCOD9018982
Probable space group: P -1
;
_chemical_formula_sum "Si O2"
_cell_formula_units_Z 16
_cell_length_a 16.347046
_cell_length_b 13.271660
_cell_length_c 23.433367
_cell_angle_alpha 21.042915
_cell_angle_beta 22.728351
_cell_angle_gamma 24.682054
_cell_volume 662.102595
_symmetry_space_group_name_H-M "P -1"
_symmetry_group_IT_number 2
_symmetry_cell_setting 'triclinic'
loop_
_space_group_symop_operation_xyz
x,y,z
-x,-y,-z
loop_
_atom_site_type_symbol
_atom_site_label
_atom_site_fract_x
_atom_site_fract_y
_atom_site_fract_z
Si Si1 0.096121 0.744139 0.012605
Si Si2 0.115849 0.688518 0.560044
Si Si3 0.066750 0.154335 0.115943
Si Si4 0.068729 0.994088 0.318803
Si Si5 0.404329 0.780823 0.641659
Si Si6 0.642601 0.156230 0.103636
Si Si7 0.583911 0.272178 0.476345
Si Si8 0.451473 0.258204 0.963561
O O1 0.993698 0.533887 0.225725
O O2 0.233385 0.875681 0.898078
O O3 0.295876 0.517096 0.967431
O O4 0.863713 0.995190 0.006735
O O5 0.382311 0.574701 0.458755
O O6 0.078902 0.731980 0.493309
O O7 0.000000 0.000000 0.500000
O O8 0.046320 0.949496 0.290551
O O9 0.862764 0.147787 0.211547
O O10 0.328910 0.992217 0.018087
O O11 0.000000 0.500000 0.000000
O O12 0.830454 0.263258 0.340838
O O13 0.279179 0.099889 0.137015
O O14 0.428649 0.782548 0.555747
O O15 0.511093 0.445329 0.774894
O O16 0.500000 0.000000 0.500000
O O17 0.473597 0.974920 0.318049
O O18 0.500000 0.500000 0.000000
#
# Coordination Sequence:
#
# PCOD9018982 Si02
#       8
#     2   2   2   2   2   2   2   2
#     4  10  23  40  64  96 127 171 222 272 329 394
#     4  11  22  40  62  99 134 173 218 283 331 394
#     4  11  25  43  70 101 133 177 224 270 339 402
#     4  11  23  39  66  97 131 177 214 273 333 389
#     4  11  25  45  69 101 134 176 223 283 334 396
#     4  10  21  44  67  88 129 174 220 272 334 392
#     4  10  24  42  67  98 133 173 226 273 337 399
#     4  12  24  42  69  99 133 175 225 273 332 402
#
# _framework density 24.165438999999999
#
# number of rings (size 3 to 8) (size 9 to 14) (size 15 to 20)
#    0.000    1.250    2.500    2.625    3.500    2.000 
#    2.250    3.750    0.000    0.000    0.000    0.000 
#    0.000    0.000    0.000    0.000    0.000    0.000 
#
# Total GULP energy -89315.430913 kJ/mol
# GULP energy per Si atom -5582.214432 kJ/mol
# Density = 2.411044 g / cm^3
# Si number density = 24.165439 Si / 1000 Ang^3
#
#
#
# Elastic Constant Matrix: (Units=GPa)
#
#
# Indices 1 2 3 4 5 6 
#
# 1 52.9819 43.6904 23.6763 2.4678 -9.2638 -9.6905
# 2 43.6904 227.0321 65.2125 12.1516 -7.7540 -24.5716
# 3 23.6763 65.2125 82.0878 15.6414 -18.5075 -12.5402
# 4 2.4678 12.1516 15.6414 29.6727 -6.4701 -5.3244
# 5 -9.2638 -7.7540 -18.5075 -6.4701 48.1375 2.8765
# 6 -9.6905 -24.5716 -12.5402 -5.3244 2.8765 45.3683
#
#
#
# Elastic Compliance Matrix: (Units=1/GPa)
#
#
# Indices 1 2 3 4 5 6 
#
# 1 0.024129 -0.003334 -0.003758 0.002391 0.002839 0.002410
# 2 -0.003334 0.006371 -0.004113 -0.000152 -0.001317 0.001667
# 3 -0.003758 -0.004113 0.019127 -0.006793 0.004987 0.001143
# 4 0.002391 -0.000152 -0.006793 0.038269 0.002797 0.002865
# 5 0.002839 -0.001317 0.004987 0.002797 0.023394 0.000116
# 6 0.002410 0.001667 0.001143 0.002865 0.000116 0.024104
#
#
# Mechanical properties :
#
#
# Convention : Reuss Voigt Hill
#
# Bulk Modulus (GPa) = 36.74261 69.69559 53.21910
# Shear Modulus (GPa) = 29.96206 39.93720 34.94963
#
# Velocity S-wave (km/s) = 3.52500 4.06970 3.80710
# Velocity P-wave (km/s) = 5.63960 7.14051 6.43397
#
# Compressibility (1/GPa) = 0.02721636
#
# Stress axis : x y z
#
# Youngs Moduli (GPa) = 41.44387 156.95249 52.28247
#
# Poissons Ratio (x) = 0.52330 0.19649
# Poissons Ratio (y) = 0.13818 0.21505
# Poissons Ratio (z) = 0.15575 0.64557
#
# Static dielectric constant tensor:
#      x y z
#    x 2.022680 0.033670 0.074200 
#    y 0.033670 2.033380 0.078520 
#    z 0.074200 0.078520 1.902570 
# 
# From -- ./inp_files/544318.got.cif
#   From: 2010.05.17/outbox.cif.g08.bks.cpg/sg2_273_cif.got.tgz:544318.got - 2010.06.03 11:33:40.
