data_PCOD9018531
_publ_section_title
;
Structure prediction by ZEFSAII (Michael W. Deem and Ramdas Pophale) SiO2 
 PCOD9018531
Probable space group: P -1
;
_chemical_formula_sum "Si O2"
_cell_formula_units_Z 14
_cell_length_a 14.799531
_cell_length_b 7.410788
_cell_length_c 13.373446
_cell_angle_alpha 40.454531
_cell_angle_beta 141.466090
_cell_angle_gamma 143.356076
_cell_volume 509.120844
_symmetry_space_group_name_H-M "P -1"
_symmetry_group_IT_number 2
_symmetry_cell_setting 'triclinic'
loop_
_space_group_symop_operation_xyz
x,y,z
-x,-y,-z
loop_
_atom_site_type_symbol
_atom_site_label
_atom_site_fract_x
_atom_site_fract_y
_atom_site_fract_z
Si Si1 0.697043 0.601500 0.765298
Si Si2 0.902187 0.245868 0.608611
Si Si3 0.746761 0.190040 0.683816
Si Si4 0.902694 0.283410 0.157039
Si Si5 0.215685 0.282214 0.857667
Si Si6 0.515028 0.246376 0.236358
Si Si7 0.394011 0.150027 0.797768
O O1 0.499656 0.331767 0.713654
O O2 0.734323 0.850545 0.786008
O O3 0.804162 0.431938 0.950818
O O4 0.772080 0.868478 0.630449
O O5 0.061438 0.252896 0.800014
O O6 0.000000 0.500000 0.500000
O O7 0.798562 0.344152 0.552451
O O8 0.905360 0.437894 0.780793
O O9 0.569229 0.076476 0.632126
O O10 0.881247 0.987259 0.197445
O O11 0.800931 0.121398 0.241116
O O12 0.338848 0.641551 0.766851
O O13 0.347961 0.200767 0.055092
O O14 0.576727 0.563299 0.223497
O O15 0.500000 0.000000 0.000000
#
# Coordination Sequence:
#
# PCOD9018531 Si02
#       7
#     2   2   2   2   2   2   2
#     4   8  17  30  52  75 104 136 170 217 254 326
#     4  10  22  37  53  74 104 151 187 212 249 311
#     4   9  19  32  56  74 106 141 182 208 261 332
#     4  10  17  30  53  89 101 133 166 227 285 300
#     4  10  21  32  55  82 118 128 167 230 270 317
#     4   9  18  34  50  84 109 136 165 215 288 311
#     4   8  15  26  49  79 107 127 166 206 266 329
#
# _framework density 27.498384999999999
#
# number of rings (size 3 to 8) (size 9 to 14) (size 15 to 20)
#    0.857    2.000    0.000    1.286    6.000    2.286 
#    0.000    1.429    0.000    0.857    0.000    0.000 
#    0.000    0.000    0.000    0.000    0.000    0.000 
#
# Total GULP energy -78156.154175 kJ/mol
# GULP energy per Si atom -5582.582441 kJ/mol
# Density = 2.743580 g / cm^3
# Si number density = 27.498385 Si / 1000 Ang^3
#
#
#
# Elastic Constant Matrix: (Units=GPa)
#
#
# Indices 1 2 3 4 5 6 
#
# 1 101.0237 64.2710 30.6040 -16.8828 -7.9011 51.8600
# 2 64.2710 172.3671 31.1781 -30.4692 7.4207 31.2609
# 3 30.6040 31.1781 92.7662 -20.2439 -4.7150 15.0108
# 4 -16.8828 -30.4692 -20.2439 39.0649 13.2255 -5.2114
# 5 -7.9011 7.4207 -4.7150 13.2255 46.4925 -15.8323
# 6 51.8600 31.2609 15.0108 -5.2114 -15.8323 62.0577
#
#
#
# Elastic Compliance Matrix: (Units=1/GPa)
#
#
# Indices 1 2 3 4 5 6 
#
# 1 0.021829 -0.004056 -0.002606 0.003593 -0.002331 -0.015861
# 2 -0.004056 0.009009 -0.000232 0.006474 -0.004577 -0.001716
# 3 -0.002606 -0.000232 0.013004 0.005657 -0.000903 -0.000606
# 4 0.003593 0.006474 0.005657 0.038662 -0.013515 -0.007833
# 5 -0.002331 -0.004577 -0.000903 -0.013515 0.029276 0.010805
# 6 -0.015861 -0.001716 -0.000606 -0.007833 0.010805 0.032479
#
#
# Mechanical properties :
#
#
# Convention : Reuss Voigt Hill
#
# Bulk Modulus (GPa) = 33.27346 68.69592 50.98469
# Shear Modulus (GPa) = 29.75048 45.52994 37.64021
#
# Velocity S-wave (km/s) = 3.29279 4.07348 3.70376
# Velocity P-wave (km/s) = 5.15588 6.86734 6.07221
#
# Compressibility (1/GPa) = 0.03005399
#
# Stress axis : x y z
#
# Youngs Moduli (GPa) = 45.81050 111.00551 76.89914
#
# Poissons Ratio (x) = 0.45023 0.20041
# Poissons Ratio (y) = 0.18581 0.01782
# Poissons Ratio (z) = 0.11939 0.02573
#
# Static dielectric constant tensor:
#      x y z
#    x 2.315020 0.026490 -0.175330 
#    y 0.026490 2.093750 0.039160 
#    z -0.175330 0.039160 2.271730 
# 
# From -- ./inp_files/347111.got.cif
#   From: 2010.05.17/outbox.cif.g08.bks.cpg/sg2_174_cif.got.tgz:347111.got - 2010.06.03 11:33:40.
