data_PCOD9018183
_publ_section_title
;
Structure prediction by ZEFSAII (Michael W. Deem and Ramdas Pophale) SiO2 
 PCOD9018183
Probable space group: P -1
;
_chemical_formula_sum "Si O2"
_cell_formula_units_Z 16
_cell_length_a 8.460938
_cell_length_b 15.105158
_cell_length_c 14.167517
_cell_angle_alpha 28.551724
_cell_angle_beta 121.737477
_cell_angle_gamma 109.661199
_cell_volume 699.987031
_symmetry_space_group_name_H-M "P -1"
_symmetry_group_IT_number 2
_symmetry_cell_setting 'triclinic'
loop_
_space_group_symop_operation_xyz
x,y,z
-x,-y,-z
loop_
_atom_site_type_symbol
_atom_site_label
_atom_site_fract_x
_atom_site_fract_y
_atom_site_fract_z
Si Si1 0.954732 0.796823 0.180646
Si Si2 0.731053 0.447344 0.618469
Si Si3 0.074122 0.334670 0.103795
Si Si4 0.718050 0.420870 0.185601
Si Si5 0.284254 0.137216 0.764497
Si Si6 0.359383 0.935472 0.589470
Si Si7 0.746387 0.206630 0.021977
Si Si8 0.379581 0.320490 0.921513
O O1 0.860517 0.813455 0.238473
O O2 0.150286 0.622562 0.375594
O O3 0.790282 0.763289 0.089674
O O4 0.000000 0.000000 0.000000
O O5 0.500000 0.500000 0.500000
O O6 0.746645 0.644558 0.483564
O O7 0.799691 0.266304 0.879370
O O8 0.218429 0.145603 0.375405
O O9 0.167148 0.439345 0.954266
O O10 0.000000 0.500000 0.000000
O O11 0.896126 0.263850 0.080877
O O12 0.759815 0.196506 0.376052
O O13 0.500000 0.500000 0.000000
O O14 0.704964 0.473133 0.243802
O O15 0.500000 0.000000 0.000000
O O16 0.236844 0.016634 0.776896
O O17 0.483583 0.820708 0.824060
O O18 0.500000 0.000000 0.500000
O O19 0.527323 0.318017 0.884394
#
# Coordination Sequence:
#
# PCOD9018183 Si02
#       8
#     2   2   2   2   2   2   2   2
#     4  12  24  45  77 106 147 191 241 302 358 435
#     4  12  25  46  74 105 145 195 237 297 370 426
#     4  12  26  46  70 108 142 186 241 302 365 424
#     4  10  21  43  68  98 141 178 238 294 346 431
#     4  12  24  49  71 108 148 187 244 300 355 438
#     4  11  24  45  77 102 144 192 240 296 364 426
#     4  12  27  45  71 104 152 185 241 300 362 426
#     4  11  24  45  72 108 145 191 242 300 361 427
#
# _framework density 22.857565999999998
#
# number of rings (size 3 to 8) (size 9 to 14) (size 15 to 20)
#    0.000    0.500    6.250    2.625    0.000    5.000 
#    0.000    1.250    0.000    0.000    0.000    0.000 
#    0.000    0.000    0.000    0.000    0.000    0.000 
#
# Total GULP energy -89309.520950 kJ/mol
# GULP energy per Si atom -5581.845059 kJ/mol
# Density = 2.280554 g / cm^3
# Si number density = 22.857566 Si / 1000 Ang^3
#
#
#
# Elastic Constant Matrix: (Units=GPa)
#
#
# Indices 1 2 3 4 5 6 
#
# 1 116.7400 51.3168 23.2856 -9.0058 13.8302 0.2420
# 2 51.3168 163.9185 29.4727 -37.8872 13.7711 11.4596
# 3 23.2856 29.4727 73.9705 -35.2186 12.7724 2.3616
# 4 -9.0058 -37.8872 -35.2186 45.5093 0.7187 1.4263
# 5 13.8302 13.7711 12.7724 0.7187 39.8207 -6.8862
# 6 0.2420 11.4596 2.3616 1.4263 -6.8862 48.3442
#
#
#
# Elastic Compliance Matrix: (Units=1/GPa)
#
#
# Indices 1 2 3 4 5 6 
#
# 1 0.010652 -0.003477 -0.003437 -0.003455 -0.001181 0.000872
# 2 -0.003477 0.009379 0.002415 0.009141 -0.003510 -0.003093
# 3 -0.003437 0.002415 0.025382 0.021227 -0.008802 -0.003675
# 4 -0.003455 0.009141 0.021227 0.045685 -0.010641 -0.006050
# 5 -0.001181 -0.003510 -0.008802 -0.010641 0.030784 0.005967
# 6 0.000872 -0.003093 -0.003675 -0.006050 0.005967 0.022622
#
#
# Mechanical properties :
#
#
# Convention : Reuss Voigt Hill
#
# Bulk Modulus (GPa) = 27.46086 62.53101 44.99593
# Shear Modulus (GPa) = 30.18601 43.43843 36.81222
#
# Velocity S-wave (km/s) = 3.63797 4.36408 4.01746
# Velocity P-wave (km/s) = 5.44852 7.26704 6.42247
#
# Compressibility (1/GPa) = 0.03641547
#
# Stress axis : x y z
#
# Youngs Moduli (GPa) = 93.88284 106.62156 39.39747
#
# Poissons Ratio (x) = 0.37072 0.13539
# Poissons Ratio (y) = 0.32643 -0.09514
# Poissons Ratio (z) = 0.32263 -0.25747
#
# Static dielectric constant tensor:
#      x y z
#    x 1.949250 0.005550 0.010120 
#    y 0.005550 1.878600 0.012500 
#    z 0.010120 0.012500 1.910200 
# 
# From -- ./inp_files/505127.got.cif
#   From: 2010.05.17/outbox.cif.g08.bks.cpg/sg2_253_cif.got.tgz:505127.got - 2010.06.03 11:33:40.
