data_PCOD9018210
_publ_section_title
;
Structure prediction by ZEFSAII (Michael W. Deem and Ramdas Pophale) SiO2 
 PCOD9018210
Probable space group: P -1
;
_chemical_formula_sum "Si O2"
_cell_formula_units_Z 15
_cell_length_a 5.366238
_cell_length_b 12.157120
_cell_length_c 14.860644
_cell_angle_alpha 135.592620
_cell_angle_beta 60.703902
_cell_angle_gamma 107.804133
_cell_volume 590.106768
_symmetry_space_group_name_H-M "P -1"
_symmetry_group_IT_number 2
_symmetry_cell_setting 'triclinic'
loop_
_space_group_symop_operation_xyz
x,y,z
-x,-y,-z
loop_
_atom_site_type_symbol
_atom_site_label
_atom_site_fract_x
_atom_site_fract_y
_atom_site_fract_z
Si Si1 0.000000 0.500000 0.000000
Si Si2 0.626225 0.685262 0.480732
Si Si3 0.587913 0.315438 0.794735
Si Si4 0.833003 0.112422 0.997558
Si Si5 0.217635 0.879651 0.196743
Si Si6 0.653858 0.121740 0.220814
Si Si7 0.026798 0.558830 0.826588
Si Si8 0.789693 0.145011 0.493712
O O1 0.739009 0.636599 0.102375
O O2 0.870329 0.481926 0.114672
O O3 0.424246 0.715195 0.620216
O O4 0.725230 0.514836 0.325847
O O5 0.452815 0.780523 0.486922
O O6 0.927334 0.756066 0.495340
O O7 0.733038 0.278435 0.845724
O O8 0.665036 0.165840 0.629105
O O9 0.748456 0.459546 0.809389
O O10 0.597951 0.119100 0.122096
O O11 0.024852 0.257026 0.074327
O O12 0.760173 0.148409 0.928992
O O13 0.021523 0.948121 0.869287
O O14 0.472280 0.996130 0.233035
O O15 0.926741 0.975722 0.337412
#
# Coordination Sequence:
#
# PCOD9018210 Si02
#       8
#     1   2   2   2   2   2   2   2
#     4  12  22  40  64  90 144 172 218 274 342 420
#     4  10  21  44  71  95 141 179 234 285 340 413
#     4  11  24  41  65 103 135 183 221 280 347 419
#     4  11  23  42  68  95 137 174 230 288 342 405
#     4  11  22  42  69  98 136 179 231 286 338 410
#     4  10  23  43  68  97 126 182 237 283 339 395
#     4  11  24  40  64 100 137 177 222 277 350 412
#     4  10  21  43  69 101 136 184 231 283 341 415
#
# _framework density 25.419125999999999
#
# number of rings (size 3 to 8) (size 9 to 14) (size 15 to 20)
#    0.000    1.333    2.667    2.800    0.000    1.600 
#    0.000    2.667    0.000    3.200    0.000    0.933 
#    0.000    0.000    0.000    0.000    0.000    0.000 
#
# Total GULP energy -83708.975899 kJ/mol
# GULP energy per Si atom -5580.598393 kJ/mol
# Density = 2.536127 g / cm^3
# Si number density = 25.419126 Si / 1000 Ang^3
#
#
#
# Elastic Constant Matrix: (Units=GPa)
#
#
# Indices 1 2 3 4 5 6 
#
# 1 83.1479 23.7391 24.0937 -3.9574 -5.3406 -12.4038
# 2 23.7391 101.4342 38.2546 -12.2185 -3.9139 -1.5088
# 3 24.0937 38.2546 209.9766 -29.3120 -10.7311 -18.5262
# 4 -3.9574 -12.2185 -29.3120 31.9183 -3.5773 6.0601
# 5 -5.3406 -3.9139 -10.7311 -3.5773 24.6002 -6.1053
# 6 -12.4038 -1.5088 -18.5262 6.0601 -6.1053 29.9655
#
#
#
# Elastic Compliance Matrix: (Units=1/GPa)
#
#
# Indices 1 2 3 4 5 6 
#
# 1 0.014173 -0.002985 -0.000390 -0.000513 0.003941 0.006382
# 2 -0.002985 0.011476 -0.001475 0.003121 0.000466 -0.002106
# 3 -0.000390 -0.001475 0.006275 0.004941 0.003995 0.003459
# 4 -0.000513 0.003121 0.004941 0.038442 0.007315 -0.003285
# 5 0.003941 0.000466 0.003995 0.007315 0.047442 0.012311
# 6 0.006382 -0.002106 0.003459 -0.003285 0.012311 0.041218
#
#
# Mechanical properties :
#
#
# Convention : Reuss Voigt Hill
#
# Bulk Modulus (GPa) = 44.99338 62.97040 53.98189
# Shear Modulus (GPa) = 28.38787 37.86155 33.12471
#
# Velocity S-wave (km/s) = 3.34547 3.86358 3.61382
# Velocity P-wave (km/s) = 5.71506 6.68802 6.22059
#
# Compressibility (1/GPa) = 0.02222549
#
# Stress axis : x y z
#
# Youngs Moduli (GPa) = 70.55851 87.13964 159.36748
#
# Poissons Ratio (x) = 0.26009 0.06208
# Poissons Ratio (y) = 0.21060 0.23500
# Poissons Ratio (z) = 0.02749 0.12849
#
# Static dielectric constant tensor:
#      x y z
#    x 1.578690 -0.134260 -0.193610 
#    y -0.134260 1.891970 -0.104120 
#    z -0.193610 -0.104120 1.884070 
# 
# From -- ./inp_files/482320.got.cif
#   From: 2010.05.17/outbox.cif.g08.bks.cpg/sg2_242_cif.got.tgz:482320.got - 2010.06.03 11:33:40.
