data_PCOD9018533
_publ_section_title
;
Structure prediction by ZEFSAII (Michael W. Deem and Ramdas Pophale) SiO2 
 PCOD9018533
Probable space group: P -1
;
_chemical_formula_sum "Si O2"
_cell_formula_units_Z 16
_cell_length_a 5.714958
_cell_length_b 11.737323
_cell_length_c 14.794976
_cell_angle_alpha 77.499165
_cell_angle_beta 46.847557
_cell_angle_gamma 97.884600
_cell_volume 647.692915
_symmetry_space_group_name_H-M "P -1"
_symmetry_group_IT_number 2
_symmetry_cell_setting 'triclinic'
loop_
_space_group_symop_operation_xyz
x,y,z
-x,-y,-z
loop_
_atom_site_type_symbol
_atom_site_label
_atom_site_fract_x
_atom_site_fract_y
_atom_site_fract_z
Si Si1 0.666595 0.177218 0.976855
Si Si2 0.814303 0.202735 0.405888
Si Si3 0.951131 0.297343 0.597678
Si Si4 0.597550 0.984310 0.614387
Si Si5 0.335327 0.613242 0.695054
Si Si6 0.588588 0.921320 0.111508
Si Si7 0.394078 0.764236 0.824302
Si Si8 0.319828 0.351365 0.686328
O O1 0.456225 0.179968 0.941376
O O2 0.053639 0.220798 0.825467
O O3 0.708671 0.260901 0.040345
O O4 0.474303 0.032664 0.087426
O O5 0.591980 0.111504 0.400104
O O6 0.824023 0.339587 0.355808
O O7 0.200447 0.211307 0.291160
O O8 0.613772 0.123143 0.560181
O O9 0.681320 0.159207 0.727206
O O10 0.706037 0.362681 0.608860
O O11 0.245729 0.309678 0.444007
O O12 0.188881 0.352070 0.617047
O O13 0.396010 0.899684 0.767034
O O14 0.000000 0.000000 0.500000
O O15 0.221373 0.657540 0.811392
O O16 0.263275 0.467181 0.729904
O O17 0.000000 0.000000 0.000000
#
# Coordination Sequence:
#
# PCOD9018533 Si02
#       8
#     2   2   2   2   2   2   2   2
#     4  10  23  43  67 102 135 180 230 283 345 414
#     4   9  19  35  56  88 132 172 220 267 336 409
#     4  11  25  45  74 103 133 183 237 296 343 402
#     4   8  16  34  54  81 128 171 211 266 331 400
#     4  11  25  41  68 101 136 183 226 284 352 410
#     4  10  21  43  71  95 133 178 232 286 343 407
#     4  10  22  39  62  99 138 176 220 279 350 418
#     4  11  25  47  72  99 139 186 239 288 336 406
#
# _framework density 24.703064999999999
#
# number of rings (size 3 to 8) (size 9 to 14) (size 15 to 20)
#    0.000    2.000    1.250    0.750    3.500    8.500 
#    0.000    3.125    0.000    0.000    0.000    0.000 
#    0.000    0.000    0.000    0.000    0.000    0.000 
#
# Total GULP energy -89262.264976 kJ/mol
# GULP energy per Si atom -5578.891561 kJ/mol
# Density = 2.464684 g / cm^3
# Si number density = 24.703065 Si / 1000 Ang^3
#
#
#
# Elastic Constant Matrix: (Units=GPa)
#
#
# Indices 1 2 3 4 5 6 
#
# 1 91.6080 7.7133 29.3248 6.8863 14.5523 5.2905
# 2 7.7133 73.0185 9.7472 -4.5669 20.3457 0.9113
# 3 29.3248 9.7472 95.4965 11.7904 14.3708 19.6625
# 4 6.8863 -4.5669 11.7904 38.5959 14.8377 11.6074
# 5 14.5523 20.3457 14.3708 14.8377 35.9994 6.8795
# 6 5.2905 0.9113 19.6625 11.6074 6.8795 43.4396
#
#
#
# Elastic Compliance Matrix: (Units=1/GPa)
#
#
# Indices 1 2 3 4 5 6 
#
# 1 0.012588 0.000271 -0.003430 0.000221 -0.004078 0.000601
# 2 0.000271 0.017807 -0.000883 0.007229 -0.012818 0.000092
# 3 -0.003430 -0.000883 0.013051 -0.001313 -0.001861 -0.004826
# 4 0.000221 0.007229 -0.001313 0.035629 -0.017114 -0.006394
# 5 -0.004078 -0.012818 -0.001861 -0.017114 0.044637 -0.000888
# 6 0.000601 0.000092 -0.004826 -0.006394 -0.000888 0.026979
#
#
# Mechanical properties :
#
#
# Convention : Reuss Voigt Hill
#
# Bulk Modulus (GPa) = 28.28038 39.29928 33.78983
# Shear Modulus (GPa) = 29.31480 37.82949 33.57214
#
# Velocity S-wave (km/s) = 3.44857 3.91752 3.69050
# Velocity P-wave (km/s) = 5.22779 6.03372 5.64516
#
# Compressibility (1/GPa) = 0.03536021
#
# Stress axis : x y z
#
# Youngs Moduli (GPa) = 79.44142 56.15800 76.62368
#
# Poissons Ratio (x) = -0.01521 0.26285
# Poissons Ratio (y) = -0.02152 0.06767
# Poissons Ratio (z) = 0.27252 0.04960
#
# Static dielectric constant tensor:
#      x y z
#    x 2.100590 0.003300 0.080530 
#    y 0.003300 2.041310 0.030950 
#    z 0.080530 0.030950 1.942400 
# 
# From -- ./inp_files/482806.got.cif
#   From: 2010.05.17/outbox.cif.g08.bks.cpg/sg2_242_cif.got.tgz:482806.got - 2010.06.03 11:33:40.
