data_PCOD9018245
_publ_section_title
;
Structure prediction by ZEFSAII (Michael W. Deem and Ramdas Pophale) SiO2 
 PCOD9018245
Probable space group: P -1
;
_chemical_formula_sum "Si O2"
_cell_formula_units_Z 14
_cell_length_a 5.103545
_cell_length_b 12.267471
_cell_length_c 11.108442
_cell_angle_alpha 81.280227
_cell_angle_beta 108.647242
_cell_angle_gamma 67.151765
_cell_volume 576.181008
_symmetry_space_group_name_H-M "P -1"
_symmetry_group_IT_number 2
_symmetry_cell_setting 'triclinic'
loop_
_space_group_symop_operation_xyz
x,y,z
-x,-y,-z
loop_
_atom_site_type_symbol
_atom_site_label
_atom_site_fract_x
_atom_site_fract_y
_atom_site_fract_z
Si Si1 0.768920 0.135379 0.991247
Si Si2 0.786258 0.763729 0.298930
Si Si3 0.576389 0.201783 0.202249
Si Si4 0.507837 0.592679 0.381788
Si Si5 0.309714 0.006013 0.587878
Si Si6 0.075023 0.638497 0.994275
Si Si7 0.640992 0.420835 0.218950
O O1 0.454601 0.182267 0.857833
O O2 0.779763 0.114300 0.140675
O O3 0.855985 0.248535 0.977296
O O4 0.000000 0.000000 0.000000
O O5 0.671738 0.682803 0.381338
O O6 0.768582 0.876470 0.358801
O O7 0.133737 0.685895 0.307829
O O8 0.695046 0.283377 0.282271
O O9 0.293220 0.305144 0.065828
O O10 0.482520 0.120405 0.286308
O O11 0.500000 0.500000 0.500000
O O12 0.702807 0.494560 0.320610
O O13 0.500000 0.000000 0.500000
O O14 0.000000 0.000000 0.500000
O O15 0.181037 0.599344 0.877879
O O16 0.278458 0.519314 0.123640
#
# Coordination Sequence:
#
# PCOD9018245 Si02
#       7
#     2   2   2   2   2   2   2
#     4  11  25  43  75 111 149 191 251 317 387 440
#     4  12  28  51  78 110 153 192 257 317 375 440
#     4  11  26  43  76 106 147 201 246 307 379 450
#     4  12  28  48  76 110 150 205 249 310 369 449
#     4  12  31  52  77 105 151 202 255 304 365 448
#     4  10  21  43  69 109 144 189 240 307 379 446
#     4  10  23  40  72 104 151 183 247 296 380 435
#
# _framework density 24.297922
#
# number of rings (size 3 to 8) (size 9 to 14) (size 15 to 20)
#    0.000    0.857    1.429    3.429   14.000    1.143 
#    0.000    0.000    0.000    0.000    0.000    0.000 
#    0.000    0.000    0.000    0.000    0.000    0.000 
#
# Total GULP energy -78231.050308 kJ/mol
# GULP energy per Si atom -5587.932165 kJ/mol
# Density = 2.424262 g / cm^3
# Si number density = 24.297922 Si / 1000 Ang^3
#
#
#
# Elastic Constant Matrix: (Units=GPa)
#
#
# Indices 1 2 3 4 5 6 
#
# 1 89.5686 37.8003 -2.3762 5.2634 1.7476 18.7249
# 2 37.8003 168.7065 38.5477 34.0800 -9.6578 15.0437
# 3 -2.3762 38.5477 38.8398 4.3577 0.5506 24.1590
# 4 5.2634 34.0800 4.3577 45.1465 5.5988 5.2019
# 5 1.7476 -9.6578 0.5506 5.5988 41.3697 -7.4903
# 6 18.7249 15.0437 24.1590 5.2019 -7.4903 42.0468
#
#
#
# Elastic Compliance Matrix: (Units=1/GPa)
#
#
# Indices 1 2 3 4 5 6 
#
# 1 0.020061 -0.009646 0.023346 0.006118 -0.008056 -0.021089
# 2 -0.009646 0.014760 -0.023817 -0.010547 0.008404 0.015502
# 3 0.023346 -0.023817 0.083880 0.016035 -0.019900 -0.055600
# 4 0.006118 -0.010547 0.016035 0.030608 -0.009548 -0.013652
# 5 -0.008056 0.008404 -0.019900 -0.009548 0.031435 0.018796
# 6 -0.021089 0.015502 -0.055600 -0.013652 0.018796 0.064612
#
#
# Mechanical properties :
#
#
# Convention : Reuss Voigt Hill
#
# Bulk Modulus (GPa) = 10.15561 49.45096 29.80328
# Shear Modulus (GPa) = 16.75532 40.58879 28.67206
#
# Velocity S-wave (km/s) = 2.62883 4.09156 3.43887
# Velocity P-wave (km/s) = 3.66101 6.53585 5.29719
#
# Compressibility (1/GPa) = 0.09846779
#
# Stress axis : x y z
#
# Youngs Moduli (GPa) = 49.84724 67.75023 11.92177
#
# Poissons Ratio (x) = 0.65351 -0.27833
# Poissons Ratio (y) = 0.48082 0.28394
# Poissons Ratio (z) = -1.16375 1.61362
#
# Static dielectric constant tensor:
#      x y z
#    x 1.955620 0.018210 0.047260 
#    y 0.018210 1.926080 -0.004380 
#    z 0.047260 -0.004380 2.015560 
# 
# From -- ./inp_files/364853.got.cif
#   From: 2010.05.17/outbox.cif.g08.bks.cpg/sg2_183_cif.got.tgz:364853.got - 2010.06.03 11:33:40.
