data_PCOD9018689
_publ_section_title
;
Structure prediction by ZEFSAII (Michael W. Deem and Ramdas Pophale) SiO2 
 PCOD9018689
Probable space group: P -1
;
_chemical_formula_sum "Si O2"
_cell_formula_units_Z 14
_cell_length_a 8.386916
_cell_length_b 11.633575
_cell_length_c 9.938286
_cell_angle_alpha 127.602287
_cell_angle_beta 63.809470
_cell_angle_gamma 80.671188
_cell_volume 547.933686
_symmetry_space_group_name_H-M "P -1"
_symmetry_group_IT_number 2
_symmetry_cell_setting 'triclinic'
loop_
_space_group_symop_operation_xyz
x,y,z
-x,-y,-z
loop_
_atom_site_type_symbol
_atom_site_label
_atom_site_fract_x
_atom_site_fract_y
_atom_site_fract_z
Si Si1 0.451013 0.618609 0.280885
Si Si2 0.785704 0.689512 0.154383
Si Si3 0.185944 0.129987 0.504578
Si Si4 0.302633 0.216311 0.255140
Si Si5 0.920709 0.801345 0.924851
Si Si6 0.739289 0.230209 0.795108
Si Si7 0.357241 0.764479 0.717306
O O1 0.615613 0.645214 0.158877
O O2 0.236555 0.753315 0.364332
O O3 0.441253 0.665680 0.471451
O O4 0.545785 0.414251 0.069988
O O5 0.677661 0.843203 0.420373
O O6 0.843574 0.752355 0.048205
O O7 0.000000 0.500000 0.000000
O O8 0.172694 0.235434 0.453417
O O9 0.973346 0.188202 0.716915
O O10 0.280479 0.928421 0.281297
O O11 0.131307 0.278879 0.240124
O O12 0.441129 0.293342 0.298004
O O13 0.500000 0.000000 0.000000
O O14 0.171533 0.737902 0.809286
O O15 0.775209 0.019052 0.107434
#
# Coordination Sequence:
#
# PCOD9018689 Si02
#       7
#     2   2   2   2   2   2   2
#     4  11  22  43  68 107 141 179 244 292 351 421
#     4  12  25  45  71 102 143 184 236 294 356 419
#     4  11  22  44  70 100 140 185 235 289 360 421
#     4  10  22  40  68 105 136 179 240 288 349 427
#     4  10  24  44  69 107 146 186 231 297 361 425
#     4  10  24  38  69 104 139 181 235 300 350 417
#     4  10  21  43  75 104 142 187 240 290 359 425
#
# _framework density 25.550538
#
# number of rings (size 3 to 8) (size 9 to 14) (size 15 to 20)
#    0.000    1.429    2.857    1.714    4.000    6.857 
#    0.000    2.857    0.000    0.000    3.714    0.000 
#    0.000    0.000    0.000    0.000    0.000    0.000 
#
# Total GULP energy -78319.743639 kJ/mol
# GULP energy per Si atom -5594.267403 kJ/mol
# Density = 2.549238 g / cm^3
# Si number density = 25.550538 Si / 1000 Ang^3
#
#
#
# Elastic Constant Matrix: (Units=GPa)
#
#
# Indices 1 2 3 4 5 6 
#
# 1 148.6583 38.3326 52.2742 -15.4910 24.3212 10.7361
# 2 38.3326 88.9475 32.4535 -31.0178 4.8121 16.1496
# 3 52.2742 32.4535 72.8726 -25.5199 28.2913 10.8604
# 4 -15.4910 -31.0178 -25.5199 42.8724 -3.7689 1.7718
# 5 24.3212 4.8121 28.2913 -3.7689 49.0214 -7.2430
# 6 10.7361 16.1496 10.8604 1.7718 -7.2430 35.0804
#
#
#
# Elastic Compliance Matrix: (Units=1/GPa)
#
#
# Indices 1 2 3 4 5 6 
#
# 1 0.009440 -0.002568 -0.005872 -0.002047 -0.001205 -0.000034
# 2 -0.002568 0.018379 -0.000668 0.012273 -0.000408 -0.008172
# 3 -0.005872 -0.000668 0.031350 0.015159 -0.015663 -0.011600
# 4 -0.002047 0.012273 0.015159 0.040354 -0.007810 -0.013367
# 5 -0.001205 -0.000408 -0.015663 -0.007810 0.031288 0.012260
# 6 -0.000034 -0.008172 -0.011600 -0.013367 0.012260 0.039076
#
#
# Mechanical properties :
#
#
# Convention : Reuss Voigt Hill
#
# Bulk Modulus (GPa) = 24.41843 61.84433 43.13138
# Shear Modulus (GPa) = 24.78254 37.88938 31.33596
#
# Velocity S-wave (km/s) = 3.11777 3.85505 3.50584
# Velocity P-wave (km/s) = 4.74745 6.63871 5.77108
#
# Compressibility (1/GPa) = 0.04095267
#
# Stress axis : x y z
#
# Youngs Moduli (GPa) = 105.92976 54.41017 31.89757
#
# Poissons Ratio (x) = 0.13974 0.18730
# Poissons Ratio (y) = 0.27205 0.02132
# Poissons Ratio (z) = 0.62200 0.03636
#
# Static dielectric constant tensor:
#      x y z
#    x 2.108450 -0.123680 -0.057000 
#    y -0.123680 2.048550 0.063120 
#    z -0.057000 0.063120 2.035060 
# 
# From -- ./inp_files/189865.got.cif
#   From: 2010.05.17/outbox.cif.g08.bks.cpg/sg2_95_cif.got.tgz:189865.got - 2010.06.03 11:33:40.
