data_PCOD9018697
_publ_section_title
;
Structure prediction by ZEFSAII (Michael W. Deem and Ramdas Pophale) SiO2 
 PCOD9018697
Probable space group: P -1
;
_chemical_formula_sum "Si O2"
_cell_formula_units_Z 16
_cell_length_a 11.641137
_cell_length_b 8.868500
_cell_length_c 14.601340
_cell_angle_alpha 120.342637
_cell_angle_beta 31.903500
_cell_angle_gamma 104.413633
_cell_volume 631.769763
_symmetry_space_group_name_H-M "P -1"
_symmetry_group_IT_number 2
_symmetry_cell_setting 'triclinic'
loop_
_space_group_symop_operation_xyz
x,y,z
-x,-y,-z
loop_
_atom_site_type_symbol
_atom_site_label
_atom_site_fract_x
_atom_site_fract_y
_atom_site_fract_z
Si Si1 0.451794 0.858584 0.058685
Si Si2 0.396069 0.747523 0.313709
Si Si3 0.356295 0.407752 0.313258
Si Si4 0.010868 0.222241 0.537432
Si Si5 0.820973 0.763359 0.943500
Si Si6 0.893860 0.819408 0.327373
Si Si7 0.769585 0.470173 0.300670
Si Si8 0.202529 0.829431 0.950262
O O1 0.202417 0.009208 0.315552
O O2 0.499389 0.677591 0.905882
O O3 0.662088 0.789738 0.968860
O O4 0.500000 0.000000 0.000000
O O5 0.339176 0.621580 0.389475
O O6 0.239659 0.731886 0.327764
O O7 0.305863 0.970469 0.463289
O O8 0.671900 0.690171 0.092274
O O9 0.522773 0.282057 0.242754
O O10 0.122620 0.363726 0.462090
O O11 0.004327 0.240385 0.657097
O O12 0.085161 0.611787 0.729895
O O13 0.827154 0.971283 0.012977
O O14 0.798669 0.661871 0.312805
O O15 0.066195 0.848070 0.143991
O O16 0.500000 0.500000 0.500000
O O17 0.875078 0.301893 0.103571
#
# Coordination Sequence:
#
# PCOD9018697 Si02
#       8
#     2   2   2   2   2   2   2   2
#     4  10  21  43  75 108 161 190 245 302 375 442
#     4  12  26  42  74 116 157 201 243 301 379 453
#     4  11  24  44  73 114 156 200 249 302 370 446
#     4  11  23  45  70 110 162 200 239 304 376 450
#     4  12  26  48  77 112 149 196 254 302 388 436
#     4  12  27  46  75 108 152 201 251 303 372 451
#     4  12  29  54  80 103 143 199 259 322 372 433
#     4  12  26  51  78 107 152 196 253 314 369 441
#
# _framework density 25.325682
#
# number of rings (size 3 to 8) (size 9 to 14) (size 15 to 20)
#    0.000    0.500    3.750    4.500    5.250    2.500 
#    0.000    1.875    0.000    0.000    0.000    0.000 
#    0.000    0.000    0.000    0.000    0.000    0.000 
#
# Total GULP energy -89584.952263 kJ/mol
# GULP energy per Si atom -5599.059516 kJ/mol
# Density = 2.526804 g / cm^3
# Si number density = 25.325682 Si / 1000 Ang^3
#
#
#
# Elastic Constant Matrix: (Units=GPa)
#
#
# Indices 1 2 3 4 5 6 
#
# 1 69.9356 21.2574 40.8974 2.2490 -10.5831 14.0580
# 2 21.2574 190.7613 32.4267 -9.9016 -17.5687 14.7453
# 3 40.8974 32.4267 110.8420 -22.9284 -14.8986 -2.4189
# 4 2.2490 -9.9016 -22.9284 47.2322 -1.2905 -2.5366
# 5 -10.5831 -17.5687 -14.8986 -1.2905 51.5989 4.3485
# 6 14.0580 14.7453 -2.4189 -2.5366 4.3485 45.4668
#
#
#
# Elastic Compliance Matrix: (Units=1/GPa)
#
#
# Indices 1 2 3 4 5 6 
#
# 1 0.021714 -0.000406 -0.008964 -0.005818 0.002222 -0.007596
# 2 -0.000406 0.005841 -0.001250 0.000578 0.001725 -0.001968
# 3 -0.008964 -0.001250 0.014581 0.007517 0.001780 0.004202
# 4 -0.005818 0.000578 0.007517 0.025438 0.001534 0.003284
# 5 0.002222 0.001725 0.001780 0.001534 0.021236 -0.003097
# 6 -0.007596 -0.001968 0.004202 0.003284 -0.003097 0.025684
#
#
# Mechanical properties :
#
#
# Convention : Reuss Voigt Hill
#
# Bulk Modulus (GPa) = 47.85683 62.30021 55.07852
# Shear Modulus (GPa) = 35.03856 47.32341 41.18099
#
# Velocity S-wave (km/s) = 3.72360 4.32741 4.03681
# Velocity P-wave (km/s) = 6.11756 7.04427 6.59721
#
# Compressibility (1/GPa) = 0.02089566
#
# Stress axis : x y z
#
# Youngs Moduli (GPa) = 46.05236 171.20545 68.58307
#
# Poissons Ratio (x) = 0.06955 0.61476
# Poissons Ratio (y) = 0.01871 0.08576
# Poissons Ratio (z) = 0.41280 0.21407
#
# Static dielectric constant tensor:
#      x y z
#    x 2.032980 0.012460 0.056050 
#    y 0.012460 1.981250 0.024750 
#    z 0.056050 0.024750 2.110470 
# 
# From -- ./inp_files/515827.got.cif
#   From: 2010.05.17/outbox.cif.g08.bks.cpg/sg2_258_cif.got.tgz:515827.got - 2010.06.03 11:33:40.
