data_PCOD9018482
_publ_section_title
;
Structure prediction by ZEFSAII (Michael W. Deem and Ramdas Pophale) SiO2 
 PCOD9018482
Probable space group: P -1
;
_chemical_formula_sum "Si O2"
_cell_formula_units_Z 14
_cell_length_a 14.588041
_cell_length_b 5.008414
_cell_length_c 8.532831
_cell_angle_alpha 111.729710
_cell_angle_beta 77.565278
_cell_angle_gamma 76.835167
_cell_volume 532.070859
_symmetry_space_group_name_H-M "P -1"
_symmetry_group_IT_number 2
_symmetry_cell_setting 'triclinic'
loop_
_space_group_symop_operation_xyz
x,y,z
-x,-y,-z
loop_
_atom_site_type_symbol
_atom_site_label
_atom_site_fract_x
_atom_site_fract_y
_atom_site_fract_z
Si Si1 0.565245 0.853856 0.791794
Si Si2 0.858260 0.280008 0.532306
Si Si3 0.724116 0.254849 0.290581
Si Si4 0.379072 0.241156 0.773258
Si Si5 0.013273 0.632266 0.268244
Si Si6 0.318532 0.703135 0.194342
Si Si7 0.904599 0.292769 0.069041
O O1 0.609364 0.496190 0.736581
O O2 0.487577 0.996737 0.713272
O O3 0.653019 0.998328 0.783760
O O4 0.500000 0.000000 0.000000
O O5 0.778886 0.343849 0.436294
O O6 0.793736 0.215696 0.686512
O O7 0.913639 0.492342 0.639110
O O8 0.951854 0.990919 0.381589
O O9 0.632489 0.539108 0.323392
O O10 0.806609 0.210189 0.113646
O O11 0.694554 0.955883 0.260441
O O12 0.347150 0.471542 0.985268
O O13 0.922561 0.511549 0.243322
O O14 0.081336 0.574518 0.074996
O O15 0.000000 0.000000 0.000000
#
# Coordination Sequence:
#
# PCOD9018482 Si02
#       7
#     2   2   2   2   2   2   2
#     4  10  21  43  71 102 130 171 229 287 332 394
#     4  11  25  44  64 100 139 184 215 281 346 402
#     4  12  25  42  66 101 137 178 226 276 333 406
#     4  11  23  44  71  97 131 178 230 280 330 402
#     4  10  24  47  66  93 141 178 230 279 335 397
#     4  11  23  42  72 102 133 174 228 281 340 402
#     4  11  23  43  70  97 126 181 234 278 324 395
#
# _framework density 26.312282
#
# number of rings (size 3 to 8) (size 9 to 14) (size 15 to 20)
#    0.000    1.143    1.429    6.000    4.000    2.857 
#    2.571    4.286    0.000    0.000    0.000    0.000 
#    0.000    0.000    0.000    0.000    0.000    0.000 
#
# Total GULP energy -78345.672387 kJ/mol
# GULP energy per Si atom -5596.119456 kJ/mol
# Density = 2.625239 g / cm^3
# Si number density = 26.312282 Si / 1000 Ang^3
#
#
#
# Elastic Constant Matrix: (Units=GPa)
#
#
# Indices 1 2 3 4 5 6 
#
# 1 89.4409 0.4615 30.6192 -9.4368 20.4191 5.3254
# 2 0.4615 85.9600 8.6739 -7.1570 26.5428 3.1969
# 3 30.6192 8.6739 77.0096 -0.4091 14.2288 -4.4379
# 4 -9.4368 -7.1570 -0.4091 20.4932 -7.8509 3.7513
# 5 20.4191 26.5428 14.2288 -7.8509 56.2632 -16.1764
# 6 5.3254 3.1969 -4.4379 3.7513 -16.1764 60.0704
#
#
#
# Elastic Compliance Matrix: (Units=1/GPa)
#
#
# Indices 1 2 3 4 5 6 
#
# 1 0.015282 0.002931 -0.005534 0.006459 -0.005740 -0.003869
# 2 0.002931 0.014742 -0.001513 0.004019 -0.008107 -0.003590
# 3 -0.005534 -0.001513 0.015665 -0.003546 -0.001272 0.001607
# 4 0.006459 0.004019 -0.003546 0.055027 0.003301 -0.003596
# 5 -0.005740 -0.008107 -0.001272 0.003301 0.026716 0.007835
# 6 -0.003869 -0.003590 0.001607 -0.003596 0.007835 0.019634
#
#
# Mechanical properties :
#
#
# Convention : Reuss Voigt Hill
#
# Bulk Modulus (GPa) = 26.69875 36.87996 31.78935
# Shear Modulus (GPa) = 29.79990 41.54242 35.67116
#
# Velocity S-wave (km/s) = 3.36898 3.97775 3.68596
# Velocity P-wave (km/s) = 5.03014 5.92818 5.49753
#
# Compressibility (1/GPa) = 0.03745494
#
# Stress axis : x y z
#
# Youngs Moduli (GPa) = 65.43433 67.83491 63.83597
#
# Poissons Ratio (x) = -0.19880 0.35330
# Poissons Ratio (y) = -0.19176 0.09660
# Poissons Ratio (z) = 0.36214 0.10265
#
# Static dielectric constant tensor:
#      x y z
#    x 2.497980 0.253190 0.314790 
#    y 0.253190 2.301310 0.178440 
#    z 0.314790 0.178440 2.338300 
# 
# From -- ./inp_files/289144.got.cif
#   From: 2010.05.17/outbox.cif.g08.bks.cpg/sg2_145_cif.got.tgz:289144.got - 2010.06.03 11:33:40.
