data_PCOD9018805
_publ_section_title
;
Structure prediction by ZEFSAII (Michael W. Deem and Ramdas Pophale) SiO2 
 PCOD9018805
Probable space group: P -1
;
_chemical_formula_sum "Si O2"
_cell_formula_units_Z 15
_cell_length_a 23.447967
_cell_length_b 12.631038
_cell_length_c 14.548798
_cell_angle_alpha 41.709350
_cell_angle_beta 158.443356
_cell_angle_gamma 149.614951
_cell_volume 763.876414
_symmetry_space_group_name_H-M "P -1"
_symmetry_group_IT_number 2
_symmetry_cell_setting 'triclinic'
loop_
_space_group_symop_operation_xyz
x,y,z
-x,-y,-z
loop_
_atom_site_type_symbol
_atom_site_label
_atom_site_fract_x
_atom_site_fract_y
_atom_site_fract_z
Si Si1 0.662220 0.231429 0.405982
Si Si2 0.984439 0.725614 0.184709
Si Si3 0.500000 0.000000 0.500000
Si Si4 0.454146 0.572971 0.190646
Si Si5 0.719418 0.816801 0.943617
Si Si6 0.695156 0.891130 0.175795
Si Si7 0.817642 0.693774 0.352332
Si Si8 0.149110 0.144409 0.267093
O O1 0.623298 0.091474 0.525250
O O2 0.729752 0.456731 0.389797
O O3 0.854489 0.295970 0.591747
O O4 0.449741 0.100975 0.110997
O O5 0.775284 0.523211 0.058379
O O6 0.894189 0.755508 0.940892
O O7 0.113496 0.947756 0.293647
O O8 0.399077 0.105480 0.258606
O O9 0.399804 0.362855 0.200135
O O10 0.566590 0.757940 0.161202
O O11 0.622102 0.676954 0.457826
O O12 0.732248 0.708319 0.120154
O O13 0.961091 0.024442 0.138822
O O14 0.747858 0.764276 0.282764
O O15 0.926009 0.129624 0.384690
#
# Coordination Sequence:
#
# PCOD9018805 Si02
#       8
#     2   2   1   2   2   2   2   2
#     4  12  24  44  65  97 130 166 209 268 320 378
#     4  10  24  41  65  92 132 168 212 265 319 371
#     4  12  24  42  70  96 132 164 206 268 324 374
#     4  11  22  40  70  93 123 176 219 252 320 379
#     4  11  21  42  69  96 127 169 210 262 318 383
#     4  11  23  40  67  95 125 175 212 260 314 385
#     4  11  23  43  67  94 131 168 213 257 322 383
#     4  10  21  44  64  92 128 172 214 262 314 380
#
# _framework density 19.636685
#
# number of rings (size 3 to 8) (size 9 to 14) (size 15 to 20)
#    0.000    1.067    5.333    1.600    0.000    1.600 
#    2.400    2.667    0.000    0.000    0.000    0.000 
#    0.000    0.000    0.000    0.000    0.000    0.000 
#
# Total GULP energy -83609.471994 kJ/mol
# GULP energy per Si atom -5573.964800 kJ/mol
# Density = 1.959199 g / cm^3
# Si number density = 19.636685 Si / 1000 Ang^3
#
#
#
# Elastic Constant Matrix: (Units=GPa)
#
#
# Indices 1 2 3 4 5 6 
#
# 1 72.2240 19.0007 34.0468 3.3161 10.6899 15.8374
# 2 19.0007 50.8673 53.3840 7.3910 -4.5833 13.7141
# 3 34.0468 53.3840 116.7723 19.6752 1.4908 -3.3884
# 4 3.3161 7.3910 19.6752 31.2674 -1.8019 -0.4935
# 5 10.6899 -4.5833 1.4908 -1.8019 33.9088 5.4482
# 6 15.8374 13.7141 -3.3884 -0.4935 5.4482 32.7482
#
#
#
# Elastic Compliance Matrix: (Units=1/GPa)
#
#
# Indices 1 2 3 4 5 6 
#
# 1 0.019473 0.003172 -0.007676 0.001639 -0.003530 -0.010928
# 2 0.003172 0.058310 -0.029449 0.004693 0.013433 -0.031164
# 3 -0.007676 -0.029449 0.026418 -0.008904 -0.006361 0.019702
# 4 0.001639 0.004693 -0.008904 0.036419 0.003028 -0.003634
# 5 -0.003530 0.013433 -0.006361 0.003028 0.034510 -0.010272
# 6 -0.010928 -0.031164 0.019702 -0.003634 -0.010272 0.052564
#
#
# Mechanical properties :
#
#
# Convention : Reuss Voigt Hill
#
# Bulk Modulus (GPa) = 27.55146 50.30295 38.92721
# Shear Modulus (GPa) = 16.24966 28.48038 22.36502
#
# Velocity S-wave (km/s) = 2.87978 3.81250 3.37848
# Velocity P-wave (km/s) = 5.01184 6.71213 5.92331
#
# Compressibility (1/GPa) = 0.03629571
#
# Stress axis : x y z
#
# Youngs Moduli (GPa) = 51.35198 17.14969 37.85337
#
# Poissons Ratio (x) = -0.05440 0.29057
# Poissons Ratio (y) = -0.16289 1.11473
# Poissons Ratio (z) = 0.39418 0.50503
#
# Static dielectric constant tensor:
#      x y z
#    x 1.711330 0.002080 0.008410 
#    y 0.002080 1.661360 0.025690 
#    z 0.008410 0.025690 1.664680 
# 
# From -- ./inp_files/400107.got.cif
#   From: 2010.05.17/outbox.cif.g08.bks.cpg/sg2_201_cif.got.tgz:400107.got - 2010.06.03 11:33:40.
