data_PCOD9018217
_publ_section_title
;
Structure prediction by ZEFSAII (Michael W. Deem and Ramdas Pophale) SiO2 
 PCOD9018217
Probable space group: P -1
;
_chemical_formula_sum "Si O2"
_cell_formula_units_Z 16
_cell_length_a 11.994240
_cell_length_b 11.649019
_cell_length_c 8.120114
_cell_angle_alpha 102.570150
_cell_angle_beta 111.077573
_cell_angle_gamma 35.770971
_cell_volume 613.080651
_symmetry_space_group_name_H-M "P -1"
_symmetry_group_IT_number 2
_symmetry_cell_setting 'triclinic'
loop_
_space_group_symop_operation_xyz
x,y,z
-x,-y,-z
loop_
_atom_site_type_symbol
_atom_site_label
_atom_site_fract_x
_atom_site_fract_y
_atom_site_fract_z
Si Si1 0.943171 0.544907 0.231005
Si Si2 0.325929 0.194749 0.147705
Si Si3 0.143278 0.845303 0.179944
Si Si4 0.415002 0.160883 0.638364
Si Si5 0.192253 0.598266 0.954011
Si Si6 0.561212 0.226091 0.231018
Si Si7 0.845445 0.202721 0.307020
Si Si8 0.436098 0.404526 0.579178
O O1 0.810005 0.686672 0.362756
O O2 0.177930 0.378216 0.259873
O O3 0.812049 0.694851 0.053028
O O4 0.938923 0.405672 0.178580
O O5 0.525956 0.116639 0.211047
O O6 0.414503 0.998233 0.181268
O O7 0.108883 0.733022 0.111179
O O8 0.383404 0.672090 0.251329
O O9 0.076678 0.986623 0.334631
O O10 0.000000 0.000000 0.000000
O O11 0.416130 0.294123 0.621612
O O12 0.500000 0.000000 0.500000
O O13 0.400644 0.378903 0.051313
O O14 0.221282 0.669300 0.847970
O O15 0.754633 0.144256 0.251585
O O16 0.496483 0.337854 0.402473
O O17 0.761944 0.355950 0.448175
#
# Coordination Sequence:
#
# PCOD9018217 Si02
#       8
#     2   2   2   2   2   2   2   2
#     4  10  23  46  71 100 139 174 231 288 332 398
#     4  10  24  46  68 102 132 183 229 282 339 395
#     4  10  25  40  66 105 126 171 231 268 336 408
#     4  12  25  45  70 100 137 182 233 272 344 411
#     4  10  21  43  69 102 131 177 227 277 339 402
#     4  11  23  44  67  96 143 176 221 280 340 403
#     4  11  23  43  70  94 135 180 217 279 343 391
#     4  12  25  45  64  99 143 174 221 285 334 400
#
# _framework density 26.097707
#
# number of rings (size 3 to 8) (size 9 to 14) (size 15 to 20)
#    0.000    1.250    3.750    1.125    5.250    1.000 
#    9.000    0.000    0.000    0.000    0.000    0.000 
#    0.000    0.000    0.000    0.000    0.000    0.000 
#
# Total GULP energy -89345.180720 kJ/mol
# GULP energy per Si atom -5584.073795 kJ/mol
# Density = 2.603831 g / cm^3
# Si number density = 26.097707 Si / 1000 Ang^3
#
#
#
# Elastic Constant Matrix: (Units=GPa)
#
#
# Indices 1 2 3 4 5 6 
#
# 1 88.5878 36.0649 29.5716 -4.1272 -14.6836 13.2201
# 2 36.0649 149.9654 25.4013 23.8031 -5.8959 5.1059
# 3 29.5716 25.4013 67.6822 4.3846 1.1463 -2.6245
# 4 -4.1272 23.8031 4.3846 44.9199 2.5043 -2.3765
# 5 -14.6836 -5.8959 1.1463 2.5043 31.2518 5.6276
# 6 13.2201 5.1059 -2.6245 -2.3765 5.6276 25.6107
#
#
#
# Elastic Compliance Matrix: (Units=1/GPa)
#
#
# Indices 1 2 3 4 5 6 
#
# 1 0.018735 -0.002771 -0.007967 0.002747 0.010511 -0.011990
# 2 -0.002771 0.008437 -0.001710 -0.004666 0.000918 -0.001062
# 3 -0.007967 -0.001710 0.019361 -0.000970 -0.006082 0.007684
# 4 0.002747 -0.004666 -0.000970 0.025308 -0.001977 0.002196
# 5 0.010511 0.000918 -0.006082 -0.001977 0.040239 -0.015257
# 6 -0.011990 -0.001062 0.007684 0.002196 -0.015257 0.049791
#
#
# Mechanical properties :
#
#
# Convention : Reuss Voigt Hill
#
# Bulk Modulus (GPa) = 46.21494 54.25676 50.23585
# Shear Modulus (GPa) = 25.77601 34.70299 30.23950
#
# Velocity S-wave (km/s) = 3.14614 3.65051 3.40767
# Velocity P-wave (km/s) = 5.56277 6.21315 5.89694
#
# Compressibility (1/GPa) = 0.02163803
#
# Stress axis : x y z
#
# Youngs Moduli (GPa) = 53.37596 118.52542 51.64908
#
# Poissons Ratio (x) = 0.32840 0.41147
# Poissons Ratio (y) = 0.14789 0.08834
# Poissons Ratio (z) = 0.42523 0.20272
#
# Static dielectric constant tensor:
#      x y z
#    x 2.108090 -0.039330 -0.086480 
#    y -0.039330 2.022000 0.083320 
#    z -0.086480 0.083320 2.228590 
# 
# From -- ./inp_files/259045.got.cif
#   From: 2010.05.17/outbox.cif.g08.bks.cpg/sg2_130_cif.got.tgz:259045.got - 2010.06.03 11:33:40.
