data_PCOD9018399
_publ_section_title
;
Structure prediction by ZEFSAII (Michael W. Deem and Ramdas Pophale) SiO2 
 PCOD9018399
Probable space group: P -1
;
_chemical_formula_sum "Si O2"
_cell_formula_units_Z 16
_cell_length_a 12.221174
_cell_length_b 15.695138
_cell_length_c 16.446852
_cell_angle_alpha 153.631792
_cell_angle_beta 32.968880
_cell_angle_gamma 131.776264
_cell_volume 713.222973
_symmetry_space_group_name_H-M "P -1"
_symmetry_group_IT_number 2
_symmetry_cell_setting 'triclinic'
loop_
_space_group_symop_operation_xyz
x,y,z
-x,-y,-z
loop_
_atom_site_type_symbol
_atom_site_label
_atom_site_fract_x
_atom_site_fract_y
_atom_site_fract_z
Si Si1 0.447243 0.924292 0.199652
Si Si2 0.826769 0.595151 0.619214
Si Si3 0.308368 0.336366 0.902661
Si Si4 0.823111 0.411699 0.289518
Si Si5 0.668144 0.848228 0.703164
Si Si6 0.974316 0.971084 0.820519
Si Si7 0.647953 0.021780 0.309264
Si Si8 0.843465 0.190093 0.592844
O O1 0.254242 0.913639 0.366610
O O2 0.376187 0.063996 0.284637
O O3 0.597461 0.003459 0.231595
O O4 0.588202 0.692303 0.886600
O O5 0.838059 0.458834 0.416512
O O6 0.879030 0.792980 0.727112
O O7 0.000000 0.500000 0.500000
O O8 0.469510 0.216049 0.628924
O O9 0.360839 0.185453 0.819113
O O10 0.296716 0.568234 0.121567
O O11 0.060326 0.366827 0.065602
O O12 0.670365 0.618654 0.520558
O O13 0.795841 0.194423 0.111862
O O14 0.911256 0.835298 0.561219
O O15 0.500000 0.000000 0.000000
O O16 0.120644 0.968142 0.804846
O O17 0.140922 0.918752 0.596702
#
# Coordination Sequence:
#
# PCOD9018399 Si02
#       8
#     2   2   2   2   2   2   2   2
#     4  12  25  41  64 101 140 173 231 281 331 405
#     4  12  25  42  67 101 140 180 219 284 337 405
#     4   9  18  39  62  97 132 172 218 276 341 399
#     4  10  21  43  70  93 129 181 227 275 336 395
#     4  11  22  48  71  93 135 186 229 280 336 402
#     4  11  23  44  71  98 138 178 231 273 346 411
#     4  10  22  36  64 102 136 175 224 279 342 402
#     4  11  23  41  72  99 131 182 229 278 345 393
#
# _framework density 22.433377
#
# number of rings (size 3 to 8) (size 9 to 14) (size 15 to 20)
#    0.000    1.250    3.750    4.125    1.750    3.000 
#    0.000    9.375    0.000    0.000    0.000    0.000 
#    0.000    0.000    0.000    0.000    0.000    0.000 
#
# Total GULP energy -89539.789355 kJ/mol
# GULP energy per Si atom -5596.236835 kJ/mol
# Density = 2.238232 g / cm^3
# Si number density = 22.433377 Si / 1000 Ang^3
#
#
#
# Elastic Constant Matrix: (Units=GPa)
#
#
# Indices 1 2 3 4 5 6 
#
# 1 92.8475 26.5218 31.9446 8.3433 -3.9369 -22.0689
# 2 26.5218 92.0709 43.7823 5.4146 8.1350 -13.5402
# 3 31.9446 43.7823 156.2057 19.8301 2.4880 -14.5166
# 4 8.3433 5.4146 19.8301 45.0179 4.3883 -6.6297
# 5 -3.9369 8.1350 2.4880 4.3883 37.9286 0.9419
# 6 -22.0689 -13.5402 -14.5166 -6.6297 0.9419 36.8325
#
#
#
# Elastic Compliance Matrix: (Units=1/GPa)
#
#
# Indices 1 2 3 4 5 6 
#
# 1 0.013666 -0.002418 -0.001435 -0.000840 0.001966 0.006533
# 2 -0.002418 0.013663 -0.003158 0.000880 -0.003140 0.002568
# 3 -0.001435 -0.003158 0.007990 -0.002814 0.000315 0.000614
# 4 -0.000840 0.000880 -0.002814 0.024257 -0.002976 0.003154
# 5 0.001966 -0.003140 0.000315 -0.002976 0.027594 -0.001093
# 6 0.006533 0.002568 0.000614 0.003154 -0.001093 0.032846
#
#
# Mechanical properties :
#
#
# Convention : Reuss Voigt Hill
#
# Bulk Modulus (GPa) = 46.95502 60.62462 53.78982
# Shear Modulus (GPa) = 35.42688 39.88084 37.65386
#
# Velocity S-wave (km/s) = 3.97823 4.22091 4.10136
# Velocity P-wave (km/s) = 6.48676 7.13006 6.81600
#
# Compressibility (1/GPa) = 0.02129698
#
# Stress axis : x y z
#
# Youngs Moduli (GPa) = 73.17308 73.19149 125.16231
#
# Poissons Ratio (x) = 0.17698 0.17957
# Poissons Ratio (y) = 0.17694 0.39527
# Poissons Ratio (z) = 0.10498 0.23114
#
# Static dielectric constant tensor:
#      x y z
#    x 1.857450 0.038680 -0.025390 
#    y 0.038680 1.867400 -0.001610 
#    z -0.025390 -0.001610 1.831410 
# 
# From -- ./inp_files/522574.got.cif
#   From: 2010.05.17/outbox.cif.g08.bks.cpg/sg2_262_cif.got.tgz:522574.got - 2010.06.03 11:33:40.
