data_PCOD9018724
_publ_section_title
;
Structure prediction by ZEFSAII (Michael W. Deem and Ramdas Pophale) SiO2 
 PCOD9018724
Probable space group: P -1
;
_chemical_formula_sum "Si O2"
_cell_formula_units_Z 12
_cell_length_a 9.889905
_cell_length_b 7.890684
_cell_length_c 10.766789
_cell_angle_alpha 37.801383
_cell_angle_beta 71.658871
_cell_angle_gamma 82.347760
_cell_volume 479.105214
_symmetry_space_group_name_H-M "P -1"
_symmetry_group_IT_number 2
_symmetry_cell_setting 'triclinic'
loop_
_space_group_symop_operation_xyz
x,y,z
-x,-y,-z
loop_
_atom_site_type_symbol
_atom_site_label
_atom_site_fract_x
_atom_site_fract_y
_atom_site_fract_z
Si Si1 0.316223 0.984314 0.376480
Si Si2 0.166289 0.011819 0.983832
Si Si3 0.041792 0.687434 0.502562
Si Si4 0.587833 0.750320 0.411563
Si Si5 0.747930 0.596376 0.682532
Si Si6 0.116593 0.515714 0.845695
O O1 0.207264 0.849081 0.375515
O O2 0.482829 0.973535 0.316185
O O3 0.255283 0.773052 0.633420
O O4 0.291445 0.293997 0.236437
O O5 0.262820 0.152966 0.760322
O O6 0.177289 0.228885 0.970857
O O7 0.222647 0.719761 0.155123
O O8 0.000000 0.000000 0.000000
O O9 0.028580 0.550311 0.723887
O O10 0.000000 0.500000 0.500000
O O11 0.898493 0.819438 0.473355
O O12 0.500000 0.500000 0.500000
O O13 0.624243 0.640331 0.598081
O O14 0.000000 0.500000 0.000000
#
# Coordination Sequence:
#
# PCOD9018724 Si02
#       6
#     2   2   2   2   2   2
#     4  10  24  47  75 114 155 207 260 332 399 469
#     4  12  26  48  76 116 152 205 270 329 393 482
#     4  10  21  43  77 112 144 208 265 309 389 478
#     4  12  26  52  75 109 164 209 261 333 398 482
#     4  12  26  43  80 113 151 209 262 325 409 470
#     4  10  23  45  73 109 162 194 260 328 390 458
#
# _framework density 25.046688
#
# number of rings (size 3 to 8) (size 9 to 14) (size 15 to 20)
#    1.000    0.000    3.333    3.000    2.333    1.333 
#    3.000    0.000    0.000    0.000    0.000    0.000 
#    0.000    0.000    0.000    0.000    0.000    0.000 
#
# Total GULP energy -66852.773302 kJ/mol
# GULP energy per Si atom -5571.064442 kJ/mol
# Density = 2.498968 g / cm^3
# Si number density = 25.046688 Si / 1000 Ang^3
#
#
#
# Elastic Constant Matrix: (Units=GPa)
#
#
# Indices 1 2 3 4 5 6 
#
# 1 138.8277 57.6275 15.8926 -4.6466 5.2016 -7.6824
# 2 57.6275 167.4630 39.6731 0.1820 8.4112 -27.2661
# 3 15.8926 39.6731 79.6106 11.8161 2.1697 -0.8489
# 4 -4.6466 0.1820 11.8161 41.3792 -3.4086 7.3095
# 5 5.2016 8.4112 2.1697 -3.4086 31.9070 10.8696
# 6 -7.6824 -27.2661 -0.8489 7.3095 10.8696 52.8245
#
#
#
# Elastic Compliance Matrix: (Units=1/GPa)
#
#
# Indices 1 2 3 4 5 6 
#
# 1 0.008468 -0.002847 -0.000430 0.001112 -0.000372 -0.000322
# 2 -0.002847 0.008742 -0.003582 -0.000449 -0.003272 0.004776
# 3 -0.000430 -0.003582 0.015037 -0.004143 -0.000083 -0.001079
# 4 0.001112 -0.000449 -0.004143 0.026713 0.004708 -0.004801
# 5 -0.000372 -0.003272 -0.000083 0.004708 0.036121 -0.009828
# 6 -0.000322 0.004776 -0.001079 -0.004801 -0.009828 0.024018
#
#
# Mechanical properties :
#
#
# Convention : Reuss Voigt Hill
#
# Bulk Modulus (GPa) = 53.96640 68.03197 60.99919
# Shear Modulus (GPa) = 35.97310 43.40269 39.68789
#
# Velocity S-wave (km/s) = 3.79389 4.16729 3.98497
# Velocity P-wave (km/s) = 6.38628 7.09761 6.75132
#
# Compressibility (1/GPa) = 0.01853005
#
# Stress axis : x y z
#
# Youngs Moduli (GPa) = 118.09833 114.38870 66.50066
#
# Poissons Ratio (x) = 0.32566 0.02860
# Poissons Ratio (y) = 0.33622 0.23817
# Poissons Ratio (z) = 0.05078 0.40969
#
# Static dielectric constant tensor:
#      x y z
#    x 1.976550 -0.032310 -0.064610 
#    y -0.032310 2.060430 -0.045330 
#    z -0.064610 -0.045330 2.223030 
# 
# From -- ./inp_files/377482.got.cif
#   From: 2010.05.17/outbox.cif.g08.bks.cpg/sg2_189_cif.got.tgz:377482.got - 2010.06.03 11:33:40.
