data_PCOD9018057
_publ_section_title
;
Structure prediction by ZEFSAII (Michael W. Deem and Ramdas Pophale) SiO2 
 PCOD9018057
Probable space group: P -1
;
_chemical_formula_sum "Si O2"
_cell_formula_units_Z 16
_cell_length_a 12.862679
_cell_length_b 14.676020
_cell_length_c 9.173694
_cell_angle_alpha 50.069250
_cell_angle_beta 132.656927
_cell_angle_gamma 149.829516
_cell_volume 632.660781
_symmetry_space_group_name_H-M "P -1"
_symmetry_group_IT_number 2
_symmetry_cell_setting 'triclinic'
loop_
_space_group_symop_operation_xyz
x,y,z
-x,-y,-z
loop_
_atom_site_type_symbol
_atom_site_label
_atom_site_fract_x
_atom_site_fract_y
_atom_site_fract_z
Si Si1 0.305026 0.183285 0.388568
Si Si2 0.547365 0.665498 0.923388
Si Si3 0.824633 0.622603 0.926355
Si Si4 0.153934 0.221991 0.670481
Si Si5 0.017307 0.636373 0.572165
Si Si6 0.208424 0.755660 0.308755
Si Si7 0.519368 0.324112 0.745335
Si Si8 0.436404 0.905742 0.878849
O O1 0.412380 0.229660 0.286063
O O2 0.467312 0.265519 0.589961
O O3 0.552092 0.057434 0.708116
O O4 0.081219 0.968248 0.413698
O O5 0.762212 0.720508 0.770706
O O6 0.765877 0.800181 0.088940
O O7 0.500000 0.500000 0.000000
O O8 0.335202 0.553328 0.934531
O O9 0.062387 0.753673 0.076649
O O10 0.757378 0.525790 0.806162
O O11 0.345201 0.310851 0.648699
O O12 0.134464 0.345497 0.572349
O O13 0.151901 0.734149 0.447269
O O14 0.184113 0.738418 0.761735
O O15 0.877566 0.427714 0.635629
O O16 0.483310 0.178535 0.946478
O O17 0.500000 0.000000 0.000000
#
# Coordination Sequence:
#
# PCOD9018057 Si02
#       8
#     2   2   2   2   2   2   2   2
#     4  11  21  38  64 103 138 188 227 290 356 421
#     4   9  20  38  63 100 138 170 230 295 352 414
#     4  10  21  43  68 102 135 185 234 293 360 410
#     4  11  23  42  69 107 140 177 239 299 357 423
#     4  11  25  49  75 111 139 191 249 294 364 422
#     4  11  25  50  79 100 146 193 243 302 355 431
#     4  11  24  45  68 102 147 186 238 289 351 438
#     4  12  27  51  72 108 149 192 241 291 364 436
#
# _framework density 25.290012000000001
#
# number of rings (size 3 to 8) (size 9 to 14) (size 15 to 20)
#    0.000    1.250    1.250    4.500    0.000    3.500 
#   24.750    0.000    0.000    0.000    0.000    0.000 
#    0.000    0.000    0.000    0.000    0.000    0.000 
#
# Total GULP energy -89681.582444 kJ/mol
# GULP energy per Si atom -5605.098903 kJ/mol
# Density = 2.523245 g / cm^3
# Si number density = 25.290012 Si / 1000 Ang^3
#
#
#
# Elastic Constant Matrix: (Units=GPa)
#
#
# Indices 1 2 3 4 5 6 
#
# 1 95.2435 29.5904 34.3396 -1.8718 -2.0861 -9.4746
# 2 29.5904 87.9206 23.5442 -0.5424 3.0696 -8.1415
# 3 34.3396 23.5442 109.3752 1.6631 -11.8662 -7.9242
# 4 -1.8718 -0.5424 1.6631 50.4173 -12.4927 -5.1568
# 5 -2.0861 3.0696 -11.8662 -12.4927 37.6448 2.9183
# 6 -9.4746 -8.1415 -7.9242 -5.1568 2.9183 34.4335
#
#
#
# Elastic Compliance Matrix: (Units=1/GPa)
#
#
# Indices 1 2 3 4 5 6 
#
# 1 0.012902 -0.003286 -0.003192 0.000787 0.000071 0.002150
# 2 -0.003286 0.013239 -0.001901 -0.000237 -0.002089 0.001930
# 3 -0.003192 -0.001901 0.011000 0.000472 0.003527 0.000975
# 4 0.000787 -0.000237 0.000472 0.021947 0.007267 0.002940
# 5 0.000071 -0.002089 0.003527 0.007267 0.030351 -0.001147
# 6 0.002150 0.001930 0.000975 0.002940 -0.001147 0.030852
#
#
# Mechanical properties :
#
#
# Convention : Reuss Voigt Hill
#
# Bulk Modulus (GPa) = 49.06048 51.94307 50.50178
# Shear Modulus (GPa) = 34.75997 38.17010 36.46504
#
# Velocity S-wave (km/s) = 3.71139 3.88918 3.80132
# Velocity P-wave (km/s) = 6.14875 6.38367 6.26731
#
# Compressibility (1/GPa) = 0.02038300
#
# Stress axis : x y z
#
# Youngs Moduli (GPa) = 77.50706 75.53302 90.90613
#
# Poissons Ratio (x) = 0.24821 0.29016
# Poissons Ratio (y) = 0.25469 0.17285
# Poissons Ratio (z) = 0.24739 0.14362
#
# Static dielectric constant tensor:
#      x y z
#    x 2.032770 0.017560 -0.020030 
#    y 0.017560 1.970680 -0.001290 
#    z -0.020030 -0.001290 1.985910 
# 
# From -- ./inp_files/433857.got.cif
#   From: 2010.05.17/outbox.cif.g08.bks.cpg/sg2_217_cif.got.tgz:433857.got - 2010.06.03 11:33:40.
