data_PCOD9018477
_publ_section_title
;
Structure prediction by ZEFSAII (Michael W. Deem and Ramdas Pophale) SiO2 
 PCOD9018477
Probable space group: P -1
;
_chemical_formula_sum "Si O2"
_cell_formula_units_Z 12
_cell_length_a 14.239433
_cell_length_b 13.687175
_cell_length_c 13.390698
_cell_angle_alpha 157.897919
_cell_angle_beta 32.781475
_cell_angle_gamma 151.023479
_cell_volume 469.134654
_symmetry_space_group_name_H-M "P -1"
_symmetry_group_IT_number 2
_symmetry_cell_setting 'triclinic'
loop_
_space_group_symop_operation_xyz
x,y,z
-x,-y,-z
loop_
_atom_site_type_symbol
_atom_site_label
_atom_site_fract_x
_atom_site_fract_y
_atom_site_fract_z
Si Si1 0.867362 0.969464 0.993123
Si Si2 0.021971 0.785563 0.357401
Si Si3 0.447445 0.823062 0.202194
Si Si4 0.333691 0.664418 0.844209
Si Si5 0.032668 0.588415 0.437966
Si Si6 0.636254 0.716653 0.379715
O O1 0.645804 0.881014 0.135402
O O2 0.958254 0.284766 0.158363
O O3 0.893363 0.733672 0.680724
O O4 0.000000 0.000000 0.000000
O O5 0.806419 0.506149 0.286037
O O6 0.142049 0.010142 0.550750
O O7 0.175173 0.681612 0.079360
O O8 0.000000 0.000000 0.500000
O O9 0.263772 0.772439 0.387031
O O10 0.483697 0.107221 0.372957
O O11 0.392327 0.529744 0.909082
O O12 0.406718 0.457497 0.641404
O O13 0.500000 0.000000 0.000000
O O14 0.000000 0.500000 0.500000
#
# Coordination Sequence:
#
# PCOD9018477 Si02
#       6
#     2   2   2   2   2   2
#     4  10  23  43  68 103 134 180 246 287 353 442
#     4   9  20  41  67  96 136 180 240 283 345 429
#     4  12  24  44  69  99 151 187 226 314 361 409
#     4  10  21  43  71 101 134 189 246 286 338 431
#     4  10  23  43  70 101 131 181 245 283 356 438
#     4  11  23  43  68 100 144 191 231 290 378 409
#
# _framework density 25.579008999999999
#
# number of rings (size 3 to 8) (size 9 to 14) (size 15 to 20)
#    0.000    1.667    1.667    2.000    0.000    8.000 
#    3.000    8.333    0.000    0.000    0.000    0.000 
#    0.000    0.000    0.000    0.000    0.000    0.000 
#
# Total GULP energy -67049.104352 kJ/mol
# GULP energy per Si atom -5587.425363 kJ/mol
# Density = 2.552079 g / cm^3
# Si number density = 25.579009 Si / 1000 Ang^3
#
#
#
# Elastic Constant Matrix: (Units=GPa)
#
#
# Indices 1 2 3 4 5 6 
#
# 1 99.3102 51.1427 36.4923 -4.8237 -9.1237 23.7515
# 2 51.1427 183.9081 60.8444 -2.6307 -14.9984 23.1791
# 3 36.4923 60.8444 168.7315 26.1245 -35.5636 9.6829
# 4 -4.8237 -2.6307 26.1245 60.2357 10.6810 4.5849
# 5 -9.1237 -14.9984 -35.5636 10.6810 37.1401 -4.8806
# 6 23.7515 23.1791 9.6829 4.5849 -4.8806 38.8035
#
#
#
# Elastic Compliance Matrix: (Units=1/GPa)
#
#
# Indices 1 2 3 4 5 6 
#
# 1 0.013845 -0.002184 -0.002653 0.003028 -0.001824 -0.007095
# 2 -0.002184 0.007098 -0.002291 0.001434 -0.000615 -0.002578
# 3 -0.002653 -0.002291 0.010562 -0.007019 0.010891 0.002556
# 4 0.003028 0.001434 -0.007019 0.022577 -0.012576 -0.005208
# 5 -0.001824 -0.000615 0.010891 -0.012576 0.040985 0.005407
# 6 -0.007095 -0.002578 0.002556 -0.005208 0.005407 0.032312
#
#
# Mechanical properties :
#
#
# Convention : Reuss Voigt Hill
#
# Bulk Modulus (GPa) = 57.97016 83.21206 70.59111
# Shear Modulus (GPa) = 33.92487 47.46722 40.69604
#
# Velocity S-wave (km/s) = 3.64576 4.31247 3.99305
# Velocity P-wave (km/s) = 6.35881 7.57618 6.99403
#
# Compressibility (1/GPa) = 0.01725026
#
# Stress axis : x y z
#
# Youngs Moduli (GPa) = 72.22665 140.88404 94.67760
#
# Poissons Ratio (x) = 0.30765 0.25118
# Poissons Ratio (y) = 0.15772 0.21690
# Poissons Ratio (z) = 0.19162 0.32276
#
# Static dielectric constant tensor:
#      x y z
#    x 2.033470 -0.067820 -0.039240 
#    y -0.067820 1.990860 -0.065830 
#    z -0.039240 -0.065830 1.989350 
# 
# From -- ./inp_files/576226.got.cif
#   From: 2010.05.17/outbox.cif.g08.bks.cpg/sg2_289_cif.got.tgz:576226.got - 2010.06.03 11:33:40.
