data_PCOD9018797
_publ_section_title
;
Structure prediction by ZEFSAII (Michael W. Deem and Ramdas Pophale) SiO2 
 PCOD9018797
Probable space group: P -1
;
_chemical_formula_sum "Si O2"
_cell_formula_units_Z 16
_cell_length_a 28.810976
_cell_length_b 5.269007
_cell_length_c 9.239469
_cell_angle_alpha 49.637672
_cell_angle_beta 38.735958
_cell_angle_gamma 44.346614
_cell_volume 600.408835
_symmetry_space_group_name_H-M "P -1"
_symmetry_group_IT_number 2
_symmetry_cell_setting 'triclinic'
loop_
_space_group_symop_operation_xyz
x,y,z
-x,-y,-z
loop_
_atom_site_type_symbol
_atom_site_label
_atom_site_fract_x
_atom_site_fract_y
_atom_site_fract_z
Si Si1 0.987943 0.565930 0.336610
Si Si2 0.591878 0.315376 0.451144
Si Si3 0.226423 0.543784 0.361855
Si Si4 0.173704 0.407915 0.241864
Si Si5 0.423547 0.784205 0.787002
Si Si6 0.281108 0.590215 0.737698
Si Si7 0.360779 0.446983 0.293707
Si Si8 0.074489 0.556928 0.874581
O O1 0.918209 0.426856 0.527127
O O2 0.000000 0.500000 0.500000
O O3 0.951030 0.003133 0.229892
O O4 0.070497 0.407200 0.099687
O O5 0.522694 0.641112 0.592133
O O6 0.583224 0.431625 0.262816
O O7 0.685463 0.183345 0.325102
O O8 0.577426 0.953564 0.649036
O O9 0.228903 0.432817 0.230468
O O10 0.310994 0.395998 0.297336
O O11 0.163865 0.402357 0.642001
O O12 0.193583 0.991203 0.296731
O O13 0.193073 0.610570 0.985378
O O14 0.348234 0.178712 0.781753
O O15 0.404387 0.673540 0.031123
O O16 0.299481 0.629441 0.511003
O O17 0.000000 0.500000 0.000000
#
# Coordination Sequence:
#
# PCOD9018797 Si02
#       8
#     2   2   2   2   2   2   2   2
#     4  10  23  42  67  97 131 174 222 274 327 390
#     4  10  23  40  66  94 124 171 220 276 324 402
#     4  11  24  44  71  93 139 181 216 275 336 389
#     4  11  24  45  68  96 138 181 216 272 337 394
#     4  10  21  44  64  88 132 169 214 276 337 386
#     4  11  24  39  62  96 129 170 225 266 334 394
#     4  11  24  39  63  98 127 173 222 270 329 395
#     4  10  21  44  65  96 131 173 223 270 329 391
#
# _framework density 26.648508
#
# number of rings (size 3 to 8) (size 9 to 14) (size 15 to 20)
#    0.000    1.500    2.500    1.500    5.250    2.000 
#    2.250    0.000    0.000    0.000    0.000    0.000 
#    0.000    0.000    0.000    0.000    0.000    0.000 
#
# Total GULP energy -89392.060547 kJ/mol
# GULP energy per Si atom -5587.003784 kJ/mol
# Density = 2.658785 g / cm^3
# Si number density = 26.648508 Si / 1000 Ang^3
#
#
#
# Elastic Constant Matrix: (Units=GPa)
#
#
# Indices 1 2 3 4 5 6 
#
# 1 97.4860 -17.3339 21.9139 6.0615 9.4954 10.9522
# 2 -17.3339 69.3320 14.4612 3.5165 8.0692 1.7170
# 3 21.9139 14.4612 172.7136 13.2884 32.0615 9.5633
# 4 6.0615 3.5165 13.2884 31.6985 -4.2475 0.5171
# 5 9.4954 8.0692 32.0615 -4.2475 48.1613 -0.0719
# 6 10.9522 1.7170 9.5633 0.5171 -0.0719 25.6211
#
#
#
# Elastic Compliance Matrix: (Units=1/GPa)
#
#
# Indices 1 2 3 4 5 6 
#
# 1 0.012122 0.003785 -0.000872 -0.002649 -0.002685 -0.005064
# 2 0.003785 0.016103 -0.000946 -0.002483 -0.003037 -0.002302
# 3 -0.000872 -0.000946 0.007253 -0.003376 -0.004799 -0.002216
# 4 -0.002649 -0.002483 -0.003376 0.034549 0.006235 0.001879
# 5 -0.002685 -0.003037 -0.004799 0.006235 0.025551 0.003088
# 6 -0.005064 -0.002302 -0.002216 0.001879 0.003088 0.042147
#
#
# Mechanical properties :
#
#
# Convention : Reuss Voigt Hill
#
# Bulk Modulus (GPa) = 25.37368 41.95711 33.66540
# Shear Modulus (GPa) = 34.02963 42.46221 38.24592
#
# Velocity S-wave (km/s) = 3.57736 3.99609 3.79251
# Velocity P-wave (km/s) = 5.15807 6.08856 5.64252
#
# Compressibility (1/GPa) = 0.03941091
#
# Stress axis : x y z
#
# Youngs Moduli (GPa) = 82.49403 62.09882 137.87108
#
# Poissons Ratio (x) = -0.23503 0.12028
# Poissons Ratio (y) = -0.31223 0.13047
# Poissons Ratio (z) = 0.07197 0.05877
#
# Static dielectric constant tensor:
#      x y z
#    x 1.241270 1.024840 0.440220 
#    y 1.024840 1.057910 -0.586700 
#    z 0.440220 -0.586700 1.816880 
# 
# From -- ./inp_files/10553.got.cif
#   From: 2010.05.17/outbox.cif.g08.bks.cpg/sg2_6_cif.got.tgz:10553.got - 2010.06.03 11:33:40.
