data_PCOD9018298
_publ_section_title
;
Structure prediction by ZEFSAII (Michael W. Deem and Ramdas Pophale) SiO2 
 PCOD9018298
Probable space group: P -1
;
_chemical_formula_sum "Si O2"
_cell_formula_units_Z 16
_cell_length_a 11.594436
_cell_length_b 9.919354
_cell_length_c 9.049311
_cell_angle_alpha 136.996978
_cell_angle_beta 91.478408
_cell_angle_gamma 69.182530
_cell_volume 617.139188
_symmetry_space_group_name_H-M "P -1"
_symmetry_group_IT_number 2
_symmetry_cell_setting 'triclinic'
loop_
_space_group_symop_operation_xyz
x,y,z
-x,-y,-z
loop_
_atom_site_type_symbol
_atom_site_label
_atom_site_fract_x
_atom_site_fract_y
_atom_site_fract_z
Si Si1 0.631925 0.832988 0.782070
Si Si2 0.571088 0.501570 0.317778
Si Si3 0.197340 0.323464 0.050182
Si Si4 0.657279 0.028844 0.654121
Si Si5 0.647208 0.632745 0.149289
Si Si6 0.271537 0.839125 0.521449
Si Si7 0.995278 0.346237 0.246635
Si Si8 0.187967 0.819419 0.794747
O O1 0.588433 0.685381 0.561505
O O2 0.687990 0.944099 0.754601
O O3 0.736689 0.698402 0.805846
O O4 0.500000 0.000000 0.000000
O O5 0.640588 0.461874 0.128671
O O6 0.415969 0.617546 0.371144
O O7 0.657980 0.278526 0.238126
O O8 0.242734 0.453714 0.043253
O O9 0.261221 0.067701 0.779757
O O10 0.042314 0.414328 0.152048
O O11 0.501467 0.220384 0.802387
O O12 0.738441 0.106494 0.609987
O O13 0.665692 0.813515 0.393656
O O14 0.174181 0.808978 0.607762
O O15 0.000000 0.500000 0.500000
O O16 0.860228 0.337175 0.248945
O O17 0.100495 0.077812 0.048365
#
# Coordination Sequence:
#
# PCOD9018298 Si02
#       8
#     2   2   2   2   2   2   2   2
#     4  11  16  25  49  86 120 147 184 225 274 340
#     4  10  18  30  52  84 118 144 181 231 282 342
#     4  10  17  30  53  81 112 147 189 229 280 333
#     4   8  14  25  44  76 117 149 181 217 274 344
#     4   8  14  26  45  76 112 147 181 223 273 339
#     4   9  17  31  53  79 113 152 180 226 284 341
#     4  10  22  40  59  81 108 148 196 248 282 326
#     4  10  21  37  60  83 109 150 200 230 281 347
#
# _framework density 25.926079000000001
#
# number of rings (size 3 to 8) (size 9 to 14) (size 15 to 20)
#    0.000    2.500    2.500    2.625    0.000    0.000 
#    0.000    0.625    0.000   11.250    0.000    0.000 
#    0.000    0.000    0.000    0.000    0.000    0.000 
#
# Total GULP energy -89417.351622 kJ/mol
# GULP energy per Si atom -5588.584476 kJ/mol
# Density = 2.586707 g / cm^3
# Si number density = 25.926079 Si / 1000 Ang^3
#
#
#
# Elastic Constant Matrix: (Units=GPa)
#
#
# Indices 1 2 3 4 5 6 
#
# 1 81.2797 21.9353 38.3345 -17.5249 -17.0162 30.9857
# 2 21.9353 86.1997 49.3750 -29.2315 -14.9439 28.2529
# 3 38.3345 49.3750 159.4037 -27.4647 -16.0981 17.3905
# 4 -17.5249 -29.2315 -27.4647 51.4004 9.9442 -13.2647
# 5 -17.0162 -14.9439 -16.0981 9.9442 44.2634 -10.5954
# 6 30.9857 28.2529 17.3905 -13.2647 -10.5954 31.7393
#
#
#
# Elastic Compliance Matrix: (Units=1/GPa)
#
#
# Indices 1 2 3 4 5 6 
#
# 1 0.022358 0.005077 -0.003839 0.002097 0.003096 -0.022333
# 2 0.005077 0.021373 -0.004577 0.006407 0.001700 -0.018229
# 3 -0.003839 -0.004577 0.008510 0.001543 0.000693 0.004035
# 4 0.002097 0.006407 0.001543 0.025351 -0.001833 0.001387
# 5 0.003096 0.001700 0.000693 -0.001833 0.025715 0.002903
# 6 -0.022333 -0.018229 0.004035 0.001387 0.002903 0.068874
#
#
# Mechanical properties :
#
#
# Convention : Reuss Voigt Hill
#
# Bulk Modulus (GPa) = 21.94755 60.68585 41.31670
# Shear Modulus (GPa) = 25.76727 39.96318 32.86522
#
# Velocity S-wave (km/s) = 3.15600 3.93036 3.56427
# Velocity P-wave (km/s) = 4.66522 6.63740 5.73669
#
# Compressibility (1/GPa) = 0.04556317
#
# Stress axis : x y z
#
# Youngs Moduli (GPa) = 44.72722 46.78851 117.51125
#
# Poissons Ratio (x) = -0.23756 0.45113
# Poissons Ratio (y) = -0.22709 0.53783
# Poissons Ratio (z) = 0.17171 0.21414
#
# Static dielectric constant tensor:
#      x y z
#    x 2.144770 0.102440 0.009370 
#    y 0.102440 2.048200 0.003380 
#    z 0.009370 0.003380 2.058400 
# 
# From -- ./inp_files/304138.got.cif
#   From: 2010.05.17/outbox.cif.g08.bks.cpg/sg2_153_cif.got.tgz:304138.got - 2010.06.03 11:33:40.
