data_PCOD9018834
_publ_section_title
;
Structure prediction by ZEFSAII (Michael W. Deem and Ramdas Pophale) SiO2 
 PCOD9018834
Probable space group: P -1
;
_chemical_formula_sum "Si O2"
_cell_formula_units_Z 16
_cell_length_a 7.480281
_cell_length_b 14.507040
_cell_length_c 14.898272
_cell_angle_alpha 139.341711
_cell_angle_beta 99.265030
_cell_angle_gamma 110.194732
_cell_volume 714.091703
_symmetry_space_group_name_H-M "P -1"
_symmetry_group_IT_number 2
_symmetry_cell_setting 'triclinic'
loop_
_space_group_symop_operation_xyz
x,y,z
-x,-y,-z
loop_
_atom_site_type_symbol
_atom_site_label
_atom_site_fract_x
_atom_site_fract_y
_atom_site_fract_z
Si Si1 0.739534 0.713926 0.330559
Si Si2 0.941326 0.850577 0.641341
Si Si3 0.252309 0.814965 0.906635
Si Si4 0.477463 0.718261 0.985026
Si Si5 0.561537 0.864728 0.707414
Si Si6 0.519074 0.053284 0.697319
Si Si7 0.205873 0.947754 0.419862
Si Si8 0.752185 0.539627 0.535151
O O1 0.928661 0.825529 0.515672
O O2 0.630900 0.812371 0.398657
O O3 0.572497 0.476912 0.153142
O O4 0.905379 0.804240 0.318534
O O5 0.715085 0.830608 0.640724
O O6 0.882480 0.669424 0.551145
O O7 0.219078 0.072755 0.856965
O O8 0.980562 0.672841 0.726259
O O9 0.311185 0.701547 0.880384
O O10 0.500000 0.000000 0.000000
O O11 0.241929 0.925297 0.066447
O O12 0.427230 0.771934 0.115393
O O13 0.368114 0.683645 0.630023
O O14 0.422385 0.888316 0.642788
O O15 0.327743 0.946489 0.517514
O O16 0.775415 0.131326 0.727451
O O17 0.500000 0.500000 0.500000
#
# Coordination Sequence:
#
# PCOD9018834 Si02
#       8
#     2   2   2   2   2   2   2   2
#     4  11  24  42  68  96 129 184 221 278 347 415
#     4  11  22  44  63  99 140 174 225 281 334 416
#     4  11  24  43  64 102 136 177 232 284 332 405
#     4  11  25  41  69  99 138 176 224 286 343 398
#     4  10  24  42  69  93 141 180 225 279 339 409
#     4  10  21  44  65 100 132 171 223 294 334 397
#     4  10  22  43  70  92 134 173 230 280 344 411
#     4  10  24  41  69  98 134 185 223 271 343 410
#
# _framework density 22.406085999999998
#
# number of rings (size 3 to 8) (size 9 to 14) (size 15 to 20)
#    0.000    1.500    3.750    0.000    3.500    5.500 
#    0.000    1.250    0.000    0.000    0.000    0.000 
#    0.000    0.000    0.000    0.000    0.000    0.000 
#
# Total GULP energy -89295.930612 kJ/mol
# GULP energy per Si atom -5580.995663 kJ/mol
# Density = 2.235509 g / cm^3
# Si number density = 22.406086 Si / 1000 Ang^3
#
#
#
# Elastic Constant Matrix: (Units=GPa)
#
#
# Indices 1 2 3 4 5 6 
#
# 1 57.9138 24.3364 30.0775 3.5590 -2.8870 -1.0471
# 2 24.3364 97.4436 26.1652 12.6119 -8.9361 -12.2934
# 3 30.0775 26.1652 72.1384 15.0734 -1.3548 -12.7456
# 4 3.5590 12.6119 15.0734 33.7299 -2.9489 -2.7891
# 5 -2.8870 -8.9361 -1.3548 -2.9489 30.6391 -3.8013
# 6 -1.0471 -12.2934 -12.7456 -2.7891 -3.8013 35.8861
#
#
#
# Elastic Compliance Matrix: (Units=1/GPa)
#
#
# Indices 1 2 3 4 5 6 
#
# 1 0.023860 -0.004200 -0.009764 0.003127 0.000406 -0.003924
# 2 -0.004200 0.012936 -0.001545 -0.003076 0.003495 0.003891
# 3 -0.009764 -0.001545 0.021094 -0.007351 -0.000393 0.006065
# 4 0.003127 -0.003076 -0.007351 0.033891 0.002247 -0.000701
# 5 0.000406 0.003495 -0.000393 0.002247 0.034502 0.004899
# 6 -0.003924 0.003891 0.006065 -0.000701 0.004899 0.031703
#
#
# Mechanical properties :
#
#
# Convention : Reuss Voigt Hill
#
# Bulk Modulus (GPa) = 37.21360 43.18377 40.19868
# Shear Modulus (GPa) = 25.25753 29.84547 27.55150
#
# Velocity S-wave (km/s) = 3.36111 3.65365 3.51043
# Velocity P-wave (km/s) = 5.63095 6.09212 5.86607
#
# Compressibility (1/GPa) = 0.02687190
#
# Stress axis : x y z
#
# Youngs Moduli (GPa) = 41.91132 77.30571 47.40715
#
# Poissons Ratio (x) = 0.32467 0.46288
# Poissons Ratio (y) = 0.17602 0.07324
# Poissons Ratio (z) = 0.40922 0.11943
#
# Static dielectric constant tensor:
#      x y z
#    x 1.968160 -0.009680 -0.000740 
#    y -0.009680 1.832000 0.009600 
#    z -0.000740 0.009600 1.795440 
# 
# From -- ./inp_files/138965.got.cif
#   From: 2010.05.17/outbox.cif.g08.bks.cpg/sg2_70_cif.got.tgz:138965.got - 2010.06.03 11:33:40.
