data_PCOD9018716
_publ_section_title
;
Structure prediction by ZEFSAII (Michael W. Deem and Ramdas Pophale) SiO2 
 PCOD9018716
Probable space group: P -1
;
_chemical_formula_sum "Si O2"
_cell_formula_units_Z 16
_cell_length_a 15.163862
_cell_length_b 10.064802
_cell_length_c 18.739402
_cell_angle_alpha 39.175138
_cell_angle_beta 29.760257
_cell_angle_gamma 36.552613
_cell_volume 815.631798
_symmetry_space_group_name_H-M "P -1"
_symmetry_group_IT_number 2
_symmetry_cell_setting 'triclinic'
loop_
_space_group_symop_operation_xyz
x,y,z
-x,-y,-z
loop_
_atom_site_type_symbol
_atom_site_label
_atom_site_fract_x
_atom_site_fract_y
_atom_site_fract_z
Si Si1 0.569003 0.707258 0.866096
Si Si2 0.799728 0.417192 0.104645
Si Si3 0.151404 0.256077 0.466708
Si Si4 0.156039 0.383853 0.153071
Si Si5 0.735118 0.769767 0.125689
Si Si6 0.391787 0.893244 0.568188
Si Si7 0.282321 0.443069 0.623993
Si Si8 0.971911 0.057719 0.412235
O O1 0.681571 0.719131 0.709873
O O2 0.719353 0.662941 0.844208
O O3 0.391338 0.956867 0.899476
O O4 0.500000 0.500000 0.000000
O O5 0.709121 0.634666 0.131425
O O6 0.716292 0.231629 0.258601
O O7 0.766834 0.508580 0.008997
O O8 0.033160 0.299196 0.003056
O O9 0.000000 0.500000 0.500000
O O10 0.247377 0.086728 0.535983
O O11 0.038141 0.144245 0.543026
O O12 0.134235 0.152025 0.237934
O O13 0.926834 0.549091 0.258839
O O14 0.682898 0.663902 0.277400
O O15 0.549477 0.699863 0.488019
O O16 0.231403 0.715320 0.549854
O O17 0.500000 0.000000 0.500000
O O18 0.000000 0.000000 0.500000
#
# Coordination Sequence:
#
# PCOD9018716 Si02
#       8
#     2   2   2   2   2   2   2   2
#     4  12  27  44  69  99 141 188 224 276 356 421
#     4  10  24  43  70  98 137 172 228 291 337 398
#     4  12  28  46  69 103 144 184 232 293 352 409
#     4   9  23  44  70 101 130 179 228 282 342 410
#     4  10  22  45  69 100 128 179 234 281 337 411
#     4  12  28  42  69 105 141 182 229 294 351 407
#     4   9  21  44  72  98 130 174 242 274 342 410
#     4  10  21  43  76  97 130 183 233 284 342 406
#
# _framework density 19.616696000000001
#
# number of rings (size 3 to 8) (size 9 to 14) (size 15 to 20)
#    0.750    0.750    2.500    0.750   10.500    1.500 
#    0.000    2.500    0.000    0.000    0.000    0.000 
#    0.000    0.000    0.000    0.000    0.000    0.000 
#
# Total GULP energy -89379.734694 kJ/mol
# GULP energy per Si atom -5586.233418 kJ/mol
# Density = 1.957205 g / cm^3
# Si number density = 19.616696 Si / 1000 Ang^3
#
#
#
# Elastic Constant Matrix: (Units=GPa)
#
#
# Indices 1 2 3 4 5 6 
#
# 1 84.1402 48.1359 32.1060 -13.3080 9.6895 4.8758
# 2 48.1359 147.4185 49.3475 -8.4401 4.3223 0.5787
# 3 32.1060 49.3475 134.1738 -24.5064 9.8945 5.0560
# 4 -13.3080 -8.4401 -24.5064 34.7714 -1.5294 -1.1241
# 5 9.6895 4.3223 9.8945 -1.5294 25.1887 -12.9357
# 6 4.8758 0.5787 5.0560 -1.1241 -12.9357 27.3816
#
#
#
# Elastic Compliance Matrix: (Units=1/GPa)
#
#
# Indices 1 2 3 4 5 6 
#
# 1 0.016921 -0.004795 -0.000615 0.004283 -0.008624 -0.006697
# 2 -0.004795 0.009099 -0.002710 -0.001358 0.002421 0.002250
# 3 -0.000615 -0.002710 0.010185 0.005949 -0.004876 -0.003773
# 4 0.004283 -0.001358 0.005949 0.034099 -0.002513 -0.001620
# 5 -0.008624 0.002421 -0.004876 -0.002513 0.060124 0.030686
# 6 -0.006697 0.002250 -0.003773 -0.001620 0.030686 0.052793
#
#
# Mechanical properties :
#
#
# Convention : Reuss Voigt Hill
#
# Bulk Modulus (GPa) = 50.08777 69.43458 59.76117
# Shear Modulus (GPa) = 24.25816 33.21120 28.73468
#
# Velocity S-wave (km/s) = 3.52036 4.11908 3.83143
# Velocity P-wave (km/s) = 6.48942 7.62200 7.07840
#
# Compressibility (1/GPa) = 0.01996495
#
# Stress axis : x y z
#
# Youngs Moduli (GPa) = 59.09676 109.90404 98.18127
#
# Poissons Ratio (x) = 0.52700 0.06037
# Poissons Ratio (y) = 0.28337 0.26610
# Poissons Ratio (z) = 0.03634 0.29788
#
# Static dielectric constant tensor:
#      x y z
#    x 1.537710 -0.359180 -0.039400 
#    y -0.359180 0.765160 -0.065670 
#    z -0.039400 -0.065670 1.682860 
# 
# From -- ./inp_files/575500.got.cif
#   From: 2010.05.17/outbox.cif.g08.bks.cpg/sg2_288_cif.got.tgz:575500.got - 2010.06.03 11:33:40.
