data_PCOD9018897
_publ_section_title
;
Structure prediction by ZEFSAII (Michael W. Deem and Ramdas Pophale) SiO2 
 PCOD9018897
Probable space group: P -1
;
_chemical_formula_sum "Si O2"
_cell_formula_units_Z 16
_cell_length_a 16.247185
_cell_length_b 6.560178
_cell_length_c 13.564280
_cell_angle_alpha 137.657134
_cell_angle_beta 139.747980
_cell_angle_gamma 49.487627
_cell_volume 616.960683
_symmetry_space_group_name_H-M "P -1"
_symmetry_group_IT_number 2
_symmetry_cell_setting 'triclinic'
loop_
_space_group_symop_operation_xyz
x,y,z
-x,-y,-z
loop_
_atom_site_type_symbol
_atom_site_label
_atom_site_fract_x
_atom_site_fract_y
_atom_site_fract_z
Si Si1 0.843971 0.135350 0.772899
Si Si2 0.564366 0.702966 0.242874
Si Si3 0.113848 0.082843 0.057896
Si Si4 0.354904 0.565484 0.582940
Si Si5 0.078887 0.968744 0.419556
Si Si6 0.384981 0.205534 0.878157
Si Si7 0.645250 0.681705 0.718532
Si Si8 0.114711 0.367774 0.770431
O O1 0.883707 0.013544 0.655088
O O2 0.707586 0.379550 0.730947
O O3 0.842311 0.913308 0.786315
O O4 0.971167 0.271673 0.970256
O O5 0.623970 0.677975 0.396675
O O6 0.666212 0.691554 0.243018
O O7 0.461742 0.020245 0.246971
O O8 0.488638 0.421075 0.063230
O O9 0.101828 0.733029 0.897834
O O10 0.224524 0.185681 0.134157
O O11 0.205903 0.739781 0.498518
O O12 0.397432 0.435471 0.468077
O O13 0.429756 0.839123 0.779226
O O14 0.956971 0.810084 0.278624
O O15 0.063821 0.269843 0.582665
O O16 0.270549 0.256102 0.870652
#
# Coordination Sequence:
#
# PCOD9018897 Si02
#       8
#     2   2   2   2   2   2   2   2
#     4  10  25  42  66  98 141 176 220 284 337 409
#     4  11  23  45  71  97 131 184 235 274 334 400
#     4  11  24  41  70 101 137 180 227 273 349 411
#     4  10  23  42  68  97 142 175 224 282 335 402
#     4   9  22  44  67 101 144 178 217 282 348 401
#     4  10  23  46  66  99 135 178 230 283 336 394
#     4  11  24  43  66 102 136 177 227 282 337 401
#     4  10  21  44  66 104 135 178 226 276 347 406
#
# _framework density 25.933582999999999
#
# number of rings (size 3 to 8) (size 9 to 14) (size 15 to 20)
#    0.000    1.750    1.250    1.125    8.750    5.000 
#   15.750    0.000    0.000    0.000    0.000    0.000 
#    0.000    0.000    0.000    0.000    0.000    0.000 
#
# Total GULP energy -89427.605329 kJ/mol
# GULP energy per Si atom -5589.225333 kJ/mol
# Density = 2.587456 g / cm^3
# Si number density = 25.933583 Si / 1000 Ang^3
#
#
#
# Elastic Constant Matrix: (Units=GPa)
#
#
# Indices 1 2 3 4 5 6 
#
# 1 62.9218 23.8611 25.2950 -7.0242 3.2396 -2.1373
# 2 23.8611 94.9253 51.1991 -11.2610 -15.2267 10.4638
# 3 25.2950 51.1991 118.2390 16.6536 -14.9664 -4.4509
# 4 -7.0242 -11.2610 16.6536 63.5093 3.0353 -9.9707
# 5 3.2396 -15.2267 -14.9664 3.0353 44.4969 -1.1747
# 6 -2.1373 10.4638 -4.4509 -9.9707 -1.1747 25.9256
#
#
#
# Elastic Compliance Matrix: (Units=1/GPa)
#
#
# Indices 1 2 3 4 5 6 
#
# 1 0.019300 -0.003711 -0.003319 0.003088 -0.003909 0.003530
# 2 -0.003711 0.016762 -0.006735 0.003086 0.003349 -0.006889
# 3 -0.003319 -0.006735 0.013209 -0.004681 0.002779 0.003038
# 4 0.003088 0.003086 -0.004681 0.018791 -0.001884 0.005347
# 5 -0.003909 0.003349 0.002779 -0.001884 0.024946 -0.000791
# 6 0.003530 -0.006889 0.003038 0.005347 -0.000791 0.044186
#
#
# Mechanical properties :
#
#
# Convention : Reuss Voigt Hill
#
# Bulk Modulus (GPa) = 45.99250 52.97739 49.48495
# Shear Modulus (GPa) = 29.07462 38.50176 33.78819
#
# Velocity S-wave (km/s) = 3.35194 3.85727 3.61345
# Velocity P-wave (km/s) = 5.72310 6.34905 6.04419
#
# Compressibility (1/GPa) = 0.02174267
#
# Stress axis : x y z
#
# Youngs Moduli (GPa) = 51.81327 59.65708 75.70591
#
# Poissons Ratio (x) = 0.22140 0.25124
# Poissons Ratio (y) = 0.19229 0.50984
# Poissons Ratio (z) = 0.17195 0.40176
#
# Static dielectric constant tensor:
#      x y z
#    x 2.114000 -0.021850 -0.040770 
#    y -0.021850 2.019350 -0.000270 
#    z -0.040770 -0.000270 2.123730 
# 
# From -- ./inp_files/536465.got.cif
#   From: 2010.05.17/outbox.cif.g08.bks.cpg/sg2_269_cif.got.tgz:536465.got - 2010.06.03 11:33:40.
