data_PCOD9018378
_publ_section_title
;
Structure prediction by ZEFSAII (Michael W. Deem and Ramdas Pophale) SiO2 
 PCOD9018378
Probable space group: P -1
;
_chemical_formula_sum "Si O2"
_cell_formula_units_Z 15
_cell_length_a 14.699145
_cell_length_b 4.897312
_cell_length_c 16.457630
_cell_angle_alpha 69.449167
_cell_angle_beta 148.582458
_cell_angle_gamma 115.130451
_cell_volume 558.943092
_symmetry_space_group_name_H-M "P -1"
_symmetry_group_IT_number 2
_symmetry_cell_setting 'triclinic'
loop_
_space_group_symop_operation_xyz
x,y,z
-x,-y,-z
loop_
_atom_site_type_symbol
_atom_site_label
_atom_site_fract_x
_atom_site_fract_y
_atom_site_fract_z
Si Si1 0.589712 0.089226 0.232158
Si Si2 0.626746 0.033427 0.451959
Si Si3 0.868984 0.396970 0.300705
Si Si4 0.991472 0.913991 0.687562
Si Si5 0.500000 0.000000 0.500000
Si Si6 0.632986 0.471938 0.973322
Si Si7 0.274779 0.518650 0.252829
Si Si8 0.895368 0.460929 0.052341
O O1 0.793417 0.221267 0.342428
O O2 0.472107 0.309104 0.089831
O O3 0.574026 0.108757 0.315027
O O4 0.504076 0.763130 0.164142
O O5 0.637089 0.247994 0.513851
O O6 0.447167 0.795677 0.381632
O O7 0.803471 0.929925 0.580521
O O8 0.910397 0.753267 0.303113
O O9 0.028487 0.306864 0.382420
O O10 0.709717 0.307641 0.121587
O O11 0.099725 0.810688 0.854386
O O12 0.667963 0.792071 0.661206
O O13 0.800681 0.642358 0.024940
O O14 0.097986 0.552262 0.162718
O O15 0.228423 0.572784 0.118278
#
# Coordination Sequence:
#
# PCOD9018378 Si02
#       8
#     2   2   2   2   1   2   2   2
#     4  12  24  45  68 103 140 183 235 287 354 415
#     4  10  24  44  67 103 143 188 228 288 353 421
#     4  11  25  42  73 101 137 185 232 293 348 416
#     4  11  26  45  71 103 144 180 235 287 354 417
#     4   8  20  42  64 104 134 188 228 280 356 412
#     4  11  22  41  70 102 141 177 228 295 349 418
#     4   9  20  43  69 104 138 188 234 289 348 423
#     4  10  21  43  70 106 138 184 237 290 346 419
#
# _framework density 26.836366000000002
#
# number of rings (size 3 to 8) (size 9 to 14) (size 15 to 20)
#    0.800    0.800    1.333    3.200    3.733    2.667 
#    4.800    1.333    0.000    0.000    0.000    0.000 
#    0.000    0.000    0.000    0.000    0.000    0.000 
#
# Total GULP energy -83773.290658 kJ/mol
# GULP energy per Si atom -5584.886044 kJ/mol
# Density = 2.677529 g / cm^3
# Si number density = 26.836366 Si / 1000 Ang^3
#
#
#
# Elastic Constant Matrix: (Units=GPa)
#
#
# Indices 1 2 3 4 5 6 
#
# 1 186.2978 16.8766 26.5280 -2.0374 12.9364 27.9930
# 2 16.8766 82.1998 20.7743 4.6320 -6.6392 -4.4160
# 3 26.5280 20.7743 124.0971 -9.4633 -6.2424 9.2406
# 4 -2.0374 4.6320 -9.4633 11.0140 -1.7576 3.6022
# 5 12.9364 -6.6392 -6.2424 -1.7576 50.2504 -5.9817
# 6 27.9930 -4.4160 9.2406 3.6022 -5.9817 40.8737
#
#
#
# Elastic Compliance Matrix: (Units=1/GPa)
#
#
# Indices 1 2 3 4 5 6 
#
# 1 0.006613 -0.001836 -0.000638 0.002740 -0.002547 -0.005197
# 2 -0.001836 0.014305 -0.003014 -0.010132 0.002193 0.004698
# 3 -0.000638 -0.003014 0.009778 0.010657 0.001009 -0.002890
# 4 0.002740 -0.010132 0.010657 0.109794 0.001352 -0.014859
# 5 -0.002547 0.002193 0.001009 0.001352 0.021589 0.004793
# 6 -0.005197 0.004698 -0.002890 -0.014859 0.004793 0.031197
#
#
# Mechanical properties :
#
#
# Convention : Reuss Voigt Hill
#
# Bulk Modulus (GPa) = 50.71426 57.88362 54.29894
# Shear Modulus (GPa) = 23.71636 42.32201 33.01919
#
# Velocity S-wave (km/s) = 2.97600 3.97550 3.51150
# Velocity P-wave (km/s) = 5.54503 6.53366 6.05954
#
# Compressibility (1/GPa) = 0.01971832
#
# Stress axis : x y z
#
# Youngs Moduli (GPa) = 151.22466 69.90749 102.27005
#
# Poissons Ratio (x) = 0.12832 0.06530
# Poissons Ratio (y) = 0.27759 0.30828
# Poissons Ratio (z) = 0.09656 0.21073
#
# Static dielectric constant tensor:
#      x y z
#    x 2.097180 0.023220 -0.003410 
#    y 0.023220 2.118710 0.018750 
#    z -0.003410 0.018750 2.146500 
# 
# From -- ./inp_files/571513.got.cif
#   From: 2010.05.17/outbox.cif.g08.bks.cpg/sg2_286_cif.got.tgz:571513.got - 2010.06.03 11:33:40.
