data_PCOD9018840
_publ_section_title
;
Structure prediction by ZEFSAII (Michael W. Deem and Ramdas Pophale) SiO2 
 PCOD9018840
Probable space group: P -1
;
_chemical_formula_sum "Si O2"
_cell_formula_units_Z 16
_cell_length_a 8.470704
_cell_length_b 11.136314
_cell_length_c 17.498953
_cell_angle_alpha 48.257689
_cell_angle_beta 96.232453
_cell_angle_gamma 60.705608
_cell_volume 799.884832
_symmetry_space_group_name_H-M "P -1"
_symmetry_group_IT_number 2
_symmetry_cell_setting 'triclinic'
loop_
_space_group_symop_operation_xyz
x,y,z
-x,-y,-z
loop_
_atom_site_type_symbol
_atom_site_label
_atom_site_fract_x
_atom_site_fract_y
_atom_site_fract_z
Si Si1 0.268235 0.228150 0.149059
Si Si2 0.237569 0.777364 0.885007
Si Si3 0.972555 0.765012 0.144483
Si Si4 0.425807 0.572451 0.339376
Si Si5 0.561280 0.068065 0.088890
Si Si6 0.242379 0.895200 0.345068
Si Si7 0.521473 0.332671 0.853362
Si Si8 0.275829 0.516782 0.123886
O O1 0.404062 0.099963 0.129719
O O2 0.382523 0.285544 0.180967
O O3 0.268485 0.065779 0.265848
O O4 0.000000 0.500000 0.000000
O O5 0.286954 0.913009 0.864888
O O6 0.500000 0.500000 0.000000
O O7 0.133423 0.737741 0.961679
O O8 0.044203 0.925361 0.745129
O O9 0.810638 0.332368 0.750640
O O10 0.794714 0.046115 0.988116
O O11 0.227795 0.184157 0.840431
O O12 0.098886 0.594854 0.148875
O O13 0.344419 0.737069 0.338952
O O14 0.611012 0.296445 0.497176
O O15 0.543990 0.588940 0.270975
O O16 0.406652 0.293862 0.923965
O O17 0.540367 0.494498 0.824394
#
# Coordination Sequence:
#
# PCOD9018840 Si02
#       8
#     2   2   2   2   2   2   2   2
#     4  12  23  34  51  88 125 142 176 239 302 335
#     4  11  17  32  56  82 107 147 195 227 264 335
#     4   9  17  33  61  82 102 146 205 227 259 331
#     4  10  18  36  58  85 112 148 190 242 274 337
#     4   9  19  32  58  84 104 144 199 233 263 327
#     4  11  22  33  56  86 121 146 181 234 304 327
#     4   8  17  31  61  79 105 143 205 226 258 328
#     4  10  17  30  54  82 106 145 187 235 270 327
#
# _framework density 20.002879
#
# number of rings (size 3 to 8) (size 9 to 14) (size 15 to 20)
#    0.750    1.250    3.750    2.250    0.000    0.000 
#    0.000    5.625    0.000   12.000    0.000    0.000 
#    0.000    0.000    0.000    0.000    0.000    0.000 
#
# Total GULP energy -89105.898712 kJ/mol
# GULP energy per Si atom -5569.118670 kJ/mol
# Density = 1.995735 g / cm^3
# Si number density = 20.002879 Si / 1000 Ang^3
#
#
#
# Elastic Constant Matrix: (Units=GPa)
#
#
# Indices 1 2 3 4 5 6 
#
# 1 42.9501 15.2730 23.3922 1.6719 -0.8233 -3.4360
# 2 15.2730 72.6661 17.0550 8.2886 1.5153 -10.6816
# 3 23.3922 17.0550 118.3356 14.0675 -3.0422 1.5223
# 4 1.6719 8.2886 14.0675 24.4940 -2.5546 -2.9127
# 5 -0.8233 1.5153 -3.0422 -2.5546 13.1320 -1.6505
# 6 -3.4360 -10.6816 1.5223 -2.9127 -1.6505 36.6427
#
#
#
# Elastic Compliance Matrix: (Units=1/GPa)
#
#
# Indices 1 2 3 4 5 6 
#
# 1 0.027848 -0.004775 -0.005157 0.003088 0.001925 0.001766
# 2 -0.004775 0.016115 -0.000975 -0.004401 -0.002761 0.003816
# 3 -0.005157 -0.000975 0.010287 -0.005315 0.000940 -0.001575
# 4 0.003088 -0.004401 -0.005315 0.046484 0.008931 0.003325
# 5 0.001925 -0.002761 0.000940 0.008931 0.078997 0.003605
# 6 0.001766 0.003816 -0.001575 0.003325 0.003605 0.029061
#
#
# Mechanical properties :
#
#
# Convention : Reuss Voigt Hill
#
# Bulk Modulus (GPa) = 30.83216 38.37694 34.60455
# Shear Modulus (GPa) = 20.71095 26.73583 23.72339
#
# Velocity S-wave (km/s) = 3.22125 3.65992 3.44757
# Velocity P-wave (km/s) = 5.41134 6.08994 5.76064
#
# Compressibility (1/GPa) = 0.03243366
#
# Stress axis : x y z
#
# Youngs Moduli (GPa) = 35.90980 62.05489 97.21186
#
# Poissons Ratio (x) = 0.29634 0.50131
# Poissons Ratio (y) = 0.17149 0.09482
# Poissons Ratio (z) = 0.18518 0.06053
#
# Static dielectric constant tensor:
#      x y z
#    x 1.787880 -0.029290 0.008740 
#    y -0.029290 1.795610 0.020890 
#    z 0.008740 0.020890 1.674540 
# 
# From -- ./inp_files/588955.got.cif
#   From: 2010.05.17/outbox.cif.g08.bks.cpg/sg2_295_cif.got.tgz:588955.got - 2010.06.03 11:33:40.
