data_PCOD9018877
_publ_section_title
;
Structure prediction by ZEFSAII (Michael W. Deem and Ramdas Pophale) SiO2 
 PCOD9018877
Probable space group: P -1
;
_chemical_formula_sum "Si O2"
_cell_formula_units_Z 16
_cell_length_a 8.387631
_cell_length_b 12.601527
_cell_length_c 28.541203
_cell_angle_alpha 27.531986
_cell_angle_beta 38.389778
_cell_angle_gamma 31.817451
_cell_volume 729.474045
_symmetry_space_group_name_H-M "P -1"
_symmetry_group_IT_number 2
_symmetry_cell_setting 'triclinic'
loop_
_space_group_symop_operation_xyz
x,y,z
-x,-y,-z
loop_
_atom_site_type_symbol
_atom_site_label
_atom_site_fract_x
_atom_site_fract_y
_atom_site_fract_z
Si Si1 0.435129 0.242666 0.886045
Si Si2 0.521567 0.718087 0.712548
Si Si3 0.648291 0.224394 0.633868
Si Si4 0.245573 0.305280 0.151938
Si Si5 0.414581 0.995440 0.902131
Si Si6 0.080824 0.689698 0.377952
Si Si7 0.292276 0.557332 0.126616
Si Si8 0.030338 0.548383 0.593052
O O1 0.531686 0.447422 0.799948
O O2 0.070257 0.430664 0.892890
O O3 0.559029 0.115628 0.855656
O O4 0.500000 0.000000 0.000000
O O5 0.626960 0.648653 0.769109
O O6 0.751414 0.740259 0.616609
O O7 0.192295 0.993957 0.678751
O O8 0.316355 0.345534 0.640014
O O9 0.840328 0.303939 0.525658
O O10 0.645800 0.332003 0.645253
O O11 0.812148 0.900449 0.725575
O O12 0.424420 0.141923 0.129206
O O13 0.413920 0.395487 0.113133
O O14 0.411470 0.758904 0.024718
O O15 0.071292 0.237799 0.874551
O O16 0.081229 0.593170 0.362561
O O17 0.000000 0.500000 0.500000
#
# Coordination Sequence:
#
# PCOD9018877 Si02
#       8
#     2   2   2   2   2   2   2   2
#     4  11  24  42  61  95 136 167 224 273 312 406
#     4  12  23  43  68  97 133 177 215 273 340 385
#     4  10  21  44  65  98 133 168 226 273 321 408
#     4  11  22  41  65  90 129 178 214 269 339 383
#     4  10  22  41  63  92 128 178 216 269 333 389
#     4  10  23  44  65  97 133 171 225 278 322 400
#     4  10  22  40  63  95 132 160 228 276 316 404
#     4  10  24  43  69  96 135 174 220 276 334 393
#
# _framework density 21.933612
#
# number of rings (size 3 to 8) (size 9 to 14) (size 15 to 20)
#    0.000    1.500    2.500    1.875    1.750    2.500 
#    4.500   10.000    0.000    0.000    0.000    0.000 
#    0.000    0.000    0.000    0.000    0.000    0.000 
#
# Total GULP energy -89341.681531 kJ/mol
# GULP energy per Si atom -5583.855096 kJ/mol
# Density = 2.188369 g / cm^3
# Si number density = 21.933612 Si / 1000 Ang^3
#
#
#
# Elastic Constant Matrix: (Units=GPa)
#
#
# Indices 1 2 3 4 5 6 
#
# 1 98.9494 20.5786 28.8519 0.9912 13.7720 28.7803
# 2 20.5786 77.7721 18.1683 4.8989 22.8314 25.4004
# 3 28.8519 18.1683 72.2326 -18.5654 12.4075 0.1763
# 4 0.9912 4.8989 -18.5654 34.3937 2.2588 2.5822
# 5 13.7720 22.8314 12.4075 2.2588 33.1847 -1.2583
# 6 28.7803 25.4004 0.1763 2.5822 -1.2583 28.3889
#
#
#
# Elastic Compliance Matrix: (Units=1/GPa)
#
#
# Indices 1 2 3 4 5 6 
#
# 1 0.022789 0.012386 -0.010769 -0.004674 -0.014937 -0.034355
# 2 0.012386 0.034441 -0.010534 -0.005933 -0.026159 -0.043927
# 3 -0.010769 -0.010534 0.023603 0.012935 0.002738 0.019142
# 4 -0.004674 -0.005933 0.012935 0.036611 -0.001057 0.006589
# 5 -0.014937 -0.026159 0.002738 -0.001057 0.054937 0.041063
# 6 -0.034355 -0.043927 0.019142 0.006589 0.041063 0.110458
#
#
# Mechanical properties :
#
#
# Convention : Reuss Voigt Hill
#
# Bulk Modulus (GPa) = 15.87388 42.68354 29.27871
# Shear Modulus (GPa) = 15.54368 31.28382 23.41375
#
# Velocity S-wave (km/s) = 2.66497 3.78073 3.27078
# Velocity P-wave (km/s) = 4.08930 6.20976 5.25754
#
# Compressibility (1/GPa) = 0.06299659
#
# Stress axis : x y z
#
# Youngs Moduli (GPa) = 43.88151 29.03480 42.36758
#
# Poissons Ratio (x) = -0.35961 0.45628
# Poissons Ratio (y) = -0.54350 0.44631
# Poissons Ratio (z) = 0.47258 0.30586
#
# Static dielectric constant tensor:
#      x y z
#    x 1.850330 0.037950 -0.006080 
#    y 0.037950 1.939790 -0.244400 
#    z -0.006080 -0.244400 2.210580 
# 
# From -- ./inp_files/117284.got.cif
#   From: 2010.05.17/outbox.cif.g08.bks.cpg/sg2_59_cif.got.tgz:117284.got - 2010.06.03 11:33:40.
