data_PCOD9018090
_publ_section_title
;
Structure prediction by ZEFSAII (Michael W. Deem and Ramdas Pophale) SiO2 
 PCOD9018090
Probable space group: P -1
;
_chemical_formula_sum "Si O2"
_cell_formula_units_Z 12
_cell_length_a 9.170330
_cell_length_b 13.527383
_cell_length_c 16.326082
_cell_angle_alpha 28.424355
_cell_angle_beta 37.371151
_cell_angle_gamma 47.535065
_cell_volume 583.152115
_symmetry_space_group_name_H-M "P -1"
_symmetry_group_IT_number 2
_symmetry_cell_setting 'triclinic'
loop_
_space_group_symop_operation_xyz
x,y,z
-x,-y,-z
loop_
_atom_site_type_symbol
_atom_site_label
_atom_site_fract_x
_atom_site_fract_y
_atom_site_fract_z
Si Si1 0.606736 0.285064 0.631466
Si Si2 0.772482 0.635441 0.992999
Si Si3 0.998573 0.939481 0.448652
Si Si4 0.433837 0.279991 0.149871
Si Si5 0.722529 0.939132 0.181775
Si Si6 0.722015 0.491567 0.595482
O O1 0.500000 0.500000 0.500000
O O2 0.416029 0.105523 0.810639
O O3 0.685207 0.316595 0.667536
O O4 0.843667 0.252531 0.496843
O O5 0.515850 0.559342 0.204236
O O6 0.717766 0.653029 0.909109
O O7 0.000000 0.500000 0.000000
O O8 0.878208 0.870876 0.797221
O O9 0.723976 0.863996 0.610464
O O10 0.000000 0.000000 0.500000
O O11 0.619142 0.129550 0.137769
O O12 0.500000 0.500000 0.000000
O O13 0.693474 0.721622 0.402883
O O14 0.000000 0.000000 0.000000
O O15 0.000000 0.500000 0.500000
#
# Coordination Sequence:
#
# PCOD9018090 Si02
#       6
#     2   2   2   2   2   2
#     4  10  23  41  72  92 130 182 225 266 338 402
#     4  11  24  43  67  97 136 172 222 285 342 388
#     4  10  21  43  68  90 131 173 229 262 331 406
#     4  11  25  43  69  96 132 178 227 272 328 411
#     4  11  23  45  69  98 132 179 230 268 332 416
#     4  11  26  44  67 103 142 167 226 290 341 392
#
# _framework density 20.577822000000001
#
# number of rings (size 3 to 8) (size 9 to 14) (size 15 to 20)
#    0.000    1.333    3.333    2.000   14.000    0.667 
#    3.000    1.667    0.000    0.000    0.000    0.000 
#    0.000    0.000    0.000    0.000    0.000    0.000 
#
# Total GULP energy -66807.063971 kJ/mol
# GULP energy per Si atom -5567.255331 kJ/mol
# Density = 2.053099 g / cm^3
# Si number density = 20.577822 Si / 1000 Ang^3
#
#
#
# Elastic Constant Matrix: (Units=GPa)
#
#
# Indices 1 2 3 4 5 6 
#
# 1 105.8019 64.7203 50.2417 8.1599 -22.7221 -5.2275
# 2 64.7203 174.4559 59.5243 -5.7823 -23.4179 -15.9483
# 3 50.2417 59.5243 158.5844 9.5728 -30.2448 -2.5300
# 4 8.1599 -5.7823 9.5728 38.4578 -5.8315 -7.1474
# 5 -22.7221 -23.4179 -30.2448 -5.8315 38.4868 -6.3399
# 6 -5.2275 -15.9483 -2.5300 -7.1474 -6.3399 41.2159
#
#
#
# Elastic Compliance Matrix: (Units=1/GPa)
#
#
# Indices 1 2 3 4 5 6 
#
# 1 0.013882 -0.004002 -0.002010 -0.002413 0.003859 0.000264
# 2 -0.004002 0.008603 -0.001587 0.003668 0.002805 0.003791
# 3 -0.002010 -0.001587 0.008436 -0.001242 0.004304 0.000096
# 4 -0.002413 0.003668 -0.001242 0.029501 0.005453 0.006992
# 5 0.003859 0.002805 0.004304 0.005453 0.035536 0.008251
# 6 0.000264 0.003791 0.000096 0.006992 0.008251 0.028251
#
#
# Mechanical properties :
#
#
# Convention : Reuss Voigt Hill
#
# Bulk Modulus (GPa) = 63.60388 87.53495 75.56942
# Shear Modulus (GPa) = 34.56669 41.25584 37.91127
#
# Velocity S-wave (km/s) = 4.10299 4.48243 4.29690
# Velocity P-wave (km/s) = 7.30904 8.33189 7.83717
#
# Compressibility (1/GPa) = 0.01572231
#
# Stress axis : x y z
#
# Youngs Moduli (GPa) = 72.03522 116.23834 118.54331
#
# Poissons Ratio (x) = 0.46519 0.23828
# Poissons Ratio (y) = 0.28829 0.18815
# Poissons Ratio (z) = 0.14479 0.18449
#
# Static dielectric constant tensor:
#      x y z
#    x 1.828720 -0.035490 -0.071600 
#    y -0.035490 1.684240 0.041470 
#    z -0.071600 0.041470 1.828830 
# 
# From -- ./inp_files/153563.got.cif
#   From: 2010.05.17/outbox.cif.g08.bks.cpg/sg2_77_cif.got.tgz:153563.got - 2010.06.03 11:33:40.
