data_PCOD9019108
_publ_section_title
;
Structure prediction by ZEFSAII (Michael W. Deem and Ramdas Pophale) SiO2 
 PCOD9019108
Probable space group: P -1
;
_chemical_formula_sum "Si O2"
_cell_formula_units_Z 16
_cell_length_a 5.219815
_cell_length_b 9.382174
_cell_length_c 14.635345
_cell_angle_alpha 90.585912
_cell_angle_beta 114.585492
_cell_angle_gamma 90.780718
_cell_volume 651.601202
_symmetry_space_group_name_H-M "P -1"
_symmetry_group_IT_number 2
_symmetry_cell_setting 'triclinic'
loop_
_space_group_symop_operation_xyz
x,y,z
-x,-y,-z
loop_
_atom_site_type_symbol
_atom_site_label
_atom_site_fract_x
_atom_site_fract_y
_atom_site_fract_z
Si Si1 0.876680 0.370505 0.036897
Si Si2 0.073676 0.496427 0.404849
Si Si3 0.263405 0.118988 0.664870
Si Si4 0.538384 0.827943 0.109978
Si Si5 0.509335 0.720855 0.468580
Si Si6 0.731727 0.930711 0.641960
Si Si7 0.161636 0.699320 0.774983
Si Si8 0.299040 0.122180 0.068990
O O1 0.052567 0.225044 0.061565
O O2 0.866836 0.402760 0.142196
O O3 0.000000 0.500000 0.000000
O O4 0.594766 0.321069 0.943354
O O5 0.212224 0.647875 0.395987
O O6 0.337280 0.390735 0.443923
O O7 0.000000 0.500000 0.500000
O O8 0.838714 0.409713 0.311310
O O9 0.297920 0.182376 0.771706
O O10 0.304567 0.236525 0.591977
O O11 0.530855 0.019422 0.678905
O O12 0.976871 0.024151 0.627714
O O13 0.320251 0.956860 0.096106
O O14 0.695320 0.876146 0.040970
O O15 0.522762 0.856857 0.537002
O O16 0.910410 0.810628 0.720826
O O17 0.427767 0.799341 0.843639
#
# Coordination Sequence:
#
# PCOD9019108 Si02
#       8
#     2   2   2   2   2   2   2   2
#     4  11  25  42  65  97 142 179 231 293 351 422
#     4  10  24  44  68  95 137 185 235 279 343 422
#     4  12  25  42  72 106 138 179 229 295 350 412
#     4  10  23  39  68 101 129 181 231 288 347 413
#     4  10  25  43  65 100 137 181 231 288 347 415
#     4  11  25  43  71 103 139 178 233 286 355 413
#     4  10  23  42  68  96 130 185 230 279 353 413
#     4  10  21  44  68  94 135 179 236 283 350 420
#
# _framework density 24.554895999999999
#
# number of rings (size 3 to 8) (size 9 to 14) (size 15 to 20)
#    0.000    1.500    1.250    1.875    8.750    4.000 
#    2.250    0.000    0.000    0.000    0.000    0.000 
#    0.000    0.000    0.000    0.000    0.000    0.000 
#
# Total GULP energy -89354.721895 kJ/mol
# GULP energy per Si atom -5584.670118 kJ/mol
# Density = 2.449901 g / cm^3
# Si number density = 24.554896 Si / 1000 Ang^3
#
#
#
# Elastic Constant Matrix: (Units=GPa)
#
#
# Indices 1 2 3 4 5 6 
#
# 1 84.4139 17.2024 39.3151 9.4321 2.4111 10.1928
# 2 17.2024 92.7278 50.1655 -10.0870 -0.8331 33.0701
# 3 39.3151 50.1655 175.8741 14.7460 -8.5835 14.9056
# 4 9.4321 -10.0870 14.7460 21.8949 -5.7801 -4.3425
# 5 2.4111 -0.8331 -8.5835 -5.7801 29.4587 -3.1463
# 6 10.1928 33.0701 14.9056 -4.3425 -3.1463 34.9576
#
#
#
# Elastic Compliance Matrix: (Units=1/GPa)
#
#
# Indices 1 2 3 4 5 6 
#
# 1 0.014366 -0.000983 -0.002245 -0.006754 -0.003553 -0.003460
# 2 -0.000983 0.020415 -0.005148 0.010053 -0.000539 -0.015630
# 3 -0.002245 -0.005148 0.008126 -0.006248 0.001330 0.001403
# 4 -0.006754 0.010053 -0.006248 0.061181 0.011422 0.003751
# 5 -0.003553 -0.000539 0.001330 0.011422 0.037466 0.005770
# 6 -0.003460 -0.015630 0.001403 0.003751 0.005770 0.044788
#
#
# Mechanical properties :
#
#
# Convention : Reuss Voigt Hill
#
# Bulk Modulus (GPa) = 38.23338 62.93131 50.58235
# Shear Modulus (GPa) = 23.60580 33.68440 28.64510
#
# Velocity S-wave (km/s) = 3.10392 3.70780 3.41922
# Velocity P-wave (km/s) = 5.33387 6.63437 6.01934
#
# Compressibility (1/GPa) = 0.02615516
#
# Stress axis : x y z
#
# Youngs Moduli (GPa) = 69.60764 48.98430 123.06445
#
# Poissons Ratio (x) = 0.04817 0.27625
# Poissons Ratio (y) = 0.06845 0.63350
# Poissons Ratio (z) = 0.15625 0.25216
#
# Static dielectric constant tensor:
#      x y z
#    x 2.035350 -0.049030 0.033630 
#    y -0.049030 2.027720 -0.008320 
#    z 0.033630 -0.008320 1.943060 
# 
# From -- ./inp_files/90825.got.cif
#   From: 2010.05.17/outbox.cif.g08.bks.cpg/sg2_46_cif.got.tgz:90825.got - 2010.06.03 11:33:40.
