data_PCOD9019687
_publ_section_title
;
Structure prediction by ZEFSAII (Michael W. Deem and Ramdas Pophale) SiO2 
 PCOD9019687
Probable space group: P -1
;
_chemical_formula_sum "Si O2"
_cell_formula_units_Z 12
_cell_length_a 14.916549
_cell_length_b 8.611803
_cell_length_c 5.321301
_cell_angle_alpha 61.702118
_cell_angle_beta 62.278103
_cell_angle_gamma 66.663847
_cell_volume 519.092221
_symmetry_space_group_name_H-M "P -1"
_symmetry_group_IT_number 2
_symmetry_cell_setting 'triclinic'
loop_
_space_group_symop_operation_xyz
x,y,z
-x,-y,-z
loop_
_atom_site_type_symbol
_atom_site_label
_atom_site_fract_x
_atom_site_fract_y
_atom_site_fract_z
Si Si1 0.062311 0.092034 0.652887
Si Si2 0.326318 0.472891 0.355841
Si Si3 0.486722 0.664819 0.131147
Si Si4 0.847603 0.163902 0.652803
Si Si5 0.431279 0.882853 0.538563
Si Si6 0.227303 0.147348 0.694857
O O1 0.130175 0.221496 0.581011
O O2 0.966761 0.182292 0.529418
O O3 0.144236 0.916865 0.574277
O O4 0.000000 0.000000 0.000000
O O5 0.414962 0.520183 0.389034
O O6 0.233513 0.650809 0.328002
O O7 0.274563 0.306626 0.628858
O O8 0.395050 0.405809 0.065607
O O9 0.472419 0.799269 0.281448
O O10 0.428753 0.748157 0.880722
O O11 0.815578 0.993720 0.965468
O O12 0.500000 0.000000 0.500000
O O13 0.322474 0.018445 0.527475
#
# Coordination Sequence:
#
# PCOD9019687 Si02
#       6
#     2   2   2   2   2   2
#     4   9  21  43  69  92 131 175 225 285 354 412
#     4  11  24  42  67 103 136 184 230 289 339 414
#     4  11  26  46  65 104 147 186 234 285 343 407
#     4  10  21  45  66  94 133 177 224 290 349 409
#     4  12  24  46  71  99 144 190 233 286 343 412
#     4  11  23  40  67 100 129 183 229 282 345 411
#
# _framework density 23.117277999999999
#
# number of rings (size 3 to 8) (size 9 to 14) (size 15 to 20)
#    0.000    1.333    3.333    1.500    0.000    3.333 
#    9.000    7.500    0.000    0.000    0.000    0.000 
#    0.000    0.000    0.000    0.000    0.000    0.000 
#
# Total GULP energy -66812.180561 kJ/mol
# GULP energy per Si atom -5567.681713 kJ/mol
# Density = 2.306466 g / cm^3
# Si number density = 23.117278 Si / 1000 Ang^3
#
#
#
# Elastic Constant Matrix: (Units=GPa)
#
#
# Indices 1 2 3 4 5 6 
#
# 1 135.1232 57.9483 25.7009 11.2517 -31.6766 12.1862
# 2 57.9483 137.7198 60.4960 15.5685 -15.9078 4.3251
# 3 25.7009 60.4960 73.1819 19.4131 -10.5842 13.4913
# 4 11.2517 15.5685 19.4131 46.2626 7.0061 3.0303
# 5 -31.6766 -15.9078 -10.5842 7.0061 31.7143 1.5633
# 6 12.1862 4.3251 13.4913 3.0303 1.5633 42.4201
#
#
#
# Elastic Compliance Matrix: (Units=1/GPa)
#
#
# Indices 1 2 3 4 5 6 
#
# 1 0.012383 -0.004530 0.003119 -0.004384 0.012314 -0.004228
# 2 -0.004530 0.013417 -0.010659 0.001109 -0.001760 0.003309
# 3 0.003119 -0.010659 0.026592 -0.009183 0.009064 -0.007945
# 4 -0.004384 0.001109 -0.009183 0.027993 -0.013197 0.002553
# 5 0.012314 -0.001760 0.009064 -0.013197 0.049239 -0.007113
# 6 -0.004228 0.003309 -0.007945 0.002553 -0.007113 0.027057
#
#
# Mechanical properties :
#
#
# Convention : Reuss Voigt Hill
#
# Bulk Modulus (GPa) = 35.39505 70.47948 52.93727
# Shear Modulus (GPa) = 26.28284 37.53804 31.91044
#
# Velocity S-wave (km/s) = 3.37550 4.03402 3.71937
# Velocity P-wave (km/s) = 5.52597 7.22854 6.43382
#
# Compressibility (1/GPa) = 0.02825254
#
# Stress axis : x y z
#
# Youngs Moduli (GPa) = 80.75433 74.53444 37.60578
#
# Poissons Ratio (x) = 0.33763 -0.11730
# Poissons Ratio (y) = 0.36581 0.40083
# Poissons Ratio (z) = -0.25189 0.79445
#
# Static dielectric constant tensor:
#      x y z
#    x 2.003310 -0.012650 0.078440 
#    y -0.012650 1.968230 -0.114660 
#    z 0.078440 -0.114660 2.063220 
# 
# From -- ./inp_files/40872.got.cif
#   From: 2010.05.17/outbox.cif.g08.bks.cpg/sg2_21_cif.got.tgz:40872.got - 2010.06.03 11:33:40.
