data_PCOD9019152
_publ_section_title
;
Structure prediction by ZEFSAII (Michael W. Deem and Ramdas Pophale) SiO2 
 PCOD9019152
Probable space group: P -1
;
_chemical_formula_sum "Si O2"
_cell_formula_units_Z 14
_cell_length_a 13.705417
_cell_length_b 7.268463
_cell_length_c 9.402786
_cell_angle_alpha 129.938600
_cell_angle_beta 119.161139
_cell_angle_gamma 52.652147
_cell_volume 563.532479
_symmetry_space_group_name_H-M "P -1"
_symmetry_group_IT_number 2
_symmetry_cell_setting 'triclinic'
loop_
_space_group_symop_operation_xyz
x,y,z
-x,-y,-z
loop_
_atom_site_type_symbol
_atom_site_label
_atom_site_fract_x
_atom_site_fract_y
_atom_site_fract_z
Si Si1 0.212129 0.555858 0.881559
Si Si2 0.548017 0.915211 0.148623
Si Si3 0.375071 0.163337 0.402546
Si Si4 0.354452 0.671455 0.511634
Si Si5 0.958136 0.668135 0.199811
Si Si6 0.923856 0.254931 0.406903
Si Si7 0.184232 0.965073 0.288683
O O1 0.361336 0.396431 0.922817
O O2 0.144677 0.404785 0.841335
O O3 0.938088 0.387174 0.630430
O O4 0.160875 0.836856 0.066059
O O5 0.426113 0.034424 0.220312
O O6 0.640550 0.052371 0.313142
O O7 0.500000 0.000000 0.000000
O O8 0.332450 0.480506 0.513989
O O9 0.500000 0.000000 0.500000
O O10 0.271869 0.096403 0.365758
O O11 0.500000 0.500000 0.500000
O O12 0.264313 0.730967 0.342166
O O13 0.910439 0.983620 0.295814
O O14 0.171846 0.589223 0.706830
O O15 0.000000 0.500000 0.000000
O O16 0.058841 0.152860 0.373639
#
# Coordination Sequence:
#
# PCOD9019152 Si02
#       7
#     2   2   2   2   2   2   2
#     4  12  26  48  75 111 154 195 253 318 374 456
#     4  11  25  48  71 106 150 193 253 320 376 444
#     4  11  24  46  75 104 140 201 253 305 383 447
#     4  10  21  44  68  98 144 189 245 312 368 434
#     4  11  25  50  76 110 152 203 249 309 385 446
#     4  11  27  50  75 114 156 195 256 315 377 457
#     4  12  24  45  76 111 150 201 250 313 380 450
#
# _framework density 24.843288000000001
#
# number of rings (size 3 to 8) (size 9 to 14) (size 15 to 20)
#    0.000    0.857    4.286    3.429    0.000    4.000 
#    7.714    0.000    0.000    0.000    0.000    0.000 
#    0.000    0.000    0.000    0.000    0.000    0.000 
#
# Total GULP energy -78419.620497 kJ/mol
# GULP energy per Si atom -5601.401464 kJ/mol
# Density = 2.478674 g / cm^3
# Si number density = 24.843288 Si / 1000 Ang^3
#
#
#
# Elastic Constant Matrix: (Units=GPa)
#
#
# Indices 1 2 3 4 5 6 
#
# 1 114.1248 49.3551 33.1754 -8.9683 0.2416 29.1461
# 2 49.3551 101.2800 25.6835 -21.9136 -14.3574 4.7946
# 3 33.1754 25.6835 148.8428 -12.7175 -33.2437 -4.5824
# 4 -8.9683 -21.9136 -12.7175 46.6334 13.6751 9.1261
# 5 0.2416 -14.3574 -33.2437 13.6751 39.5379 3.8056
# 6 29.1461 4.7946 -4.5824 9.1261 3.8056 54.2019
#
#
#
# Elastic Compliance Matrix: (Units=1/GPa)
#
#
# Indices 1 2 3 4 5 6 
#
# 1 0.014480 -0.006151 -0.003372 0.001939 -0.005106 -0.007495
# 2 -0.006151 0.014230 0.000151 0.004229 0.003765 0.001085
# 3 -0.003372 0.000151 0.009202 -0.000802 0.007882 0.002159
# 4 0.001939 0.004229 -0.000802 0.026990 -0.007959 -0.005470
# 5 -0.005106 0.003765 0.007882 -0.007959 0.035888 0.001899
# 6 -0.007495 0.001085 0.002159 -0.005470 0.001899 0.023354
#
#
# Mechanical properties :
#
#
# Convention : Reuss Voigt Hill
#
# Bulk Modulus (GPa) = 52.16542 64.51952 58.34247
# Shear Modulus (GPa) = 33.49499 45.14355 39.31927
#
# Velocity S-wave (km/s) = 3.67584 4.26741 3.98262
# Velocity P-wave (km/s) = 6.24973 7.09281 6.68458
#
# Compressibility (1/GPa) = 0.01916979
#
# Stress axis : x y z
#
# Youngs Moduli (GPa) = 69.06201 70.27460 108.66746
#
# Poissons Ratio (x) = 0.43223 0.36638
# Poissons Ratio (y) = 0.42478 -0.01642
# Poissons Ratio (z) = 0.23285 -0.01062
#
# Static dielectric constant tensor:
#      x y z
#    x 2.441240 0.137720 -0.065070 
#    y 0.137720 1.942270 0.133330 
#    z -0.065070 0.133330 1.963150 
# 
# From -- ./inp_files/293560.got.cif
#   From: 2010.05.17/outbox.cif.g08.bks.cpg/sg2_147_cif.got.tgz:293560.got - 2010.06.03 11:33:40.
