data_PCOD9019599
_publ_section_title
;
Structure prediction by ZEFSAII (Michael W. Deem and Ramdas Pophale) SiO2 
 PCOD9019599
Probable space group: P -1
;
_chemical_formula_sum "Si O2"
_cell_formula_units_Z 10
_cell_length_a 11.926359
_cell_length_b 5.041849
_cell_length_c 6.686632
_cell_angle_alpha 72.669241
_cell_angle_beta 86.282782
_cell_angle_gamma 117.386432
_cell_volume 330.997412
_symmetry_space_group_name_H-M "P -1"
_symmetry_group_IT_number 2
_symmetry_cell_setting 'triclinic'
loop_
_space_group_symop_operation_xyz
x,y,z
-x,-y,-z
loop_
_atom_site_type_symbol
_atom_site_label
_atom_site_fract_x
_atom_site_fract_y
_atom_site_fract_z
Si Si1 0.214966 0.181359 0.440734
Si Si2 0.363745 0.909725 0.141212
Si Si3 0.224323 0.646558 0.820429
Si Si4 0.473695 0.662669 0.655922
Si Si5 0.997979 0.221920 0.701904
O O1 0.305061 0.567598 0.336805
O O2 0.096267 0.130701 0.607896
O O3 0.415265 0.222795 0.208713
O O4 0.148218 0.060351 0.257031
O O5 0.263422 0.818099 0.991752
O O6 0.500000 0.000000 0.000000
O O7 0.327393 0.523193 0.789417
O O8 0.073413 0.378378 0.863734
O O9 0.248915 0.929083 0.596046
O O10 0.500000 0.500000 0.500000
O O11 0.500000 0.000000 0.500000
O O12 0.000000 0.500000 0.500000
#
# Coordination Sequence:
#
# PCOD9019599 Si02
#       5
#     2   2   2   2   2
#     4  10  21  44  77 108 154 207 250 315 392 458
#     4  10  24  47  74 115 154 197 260 319 384 464
#     4  10  23  45  76 112 153 198 260 319 380 463
#     4  11  26  46  75 105 152 211 251 315 393 458
#     4   9  20  42  73 111 148 203 255 312 388 459
#
# _framework density 30.211715000000002
#
# number of rings (size 3 to 8) (size 9 to 14) (size 15 to 20)
#    0.000    2.000    0.000    1.200    5.600    3.200 
#    7.200   12.000    0.000    0.000    0.000    0.000 
#    0.000    0.000    0.000    0.000    0.000    0.000 
#
# Total GULP energy -56012.007804 kJ/mol
# GULP energy per Si atom -5601.200780 kJ/mol
# Density = 3.014295 g / cm^3
# Si number density = 30.211715 Si / 1000 Ang^3
#
#
#
# Elastic Constant Matrix: (Units=GPa)
#
#
# Indices 1 2 3 4 5 6 
#
# 1 192.2954 94.4293 57.1090 37.5891 17.8959 25.0620
# 2 94.4293 264.7549 80.5595 50.0987 9.4032 34.5609
# 3 57.1090 80.5595 128.6282 39.5338 3.5367 1.2127
# 4 37.5891 50.0987 39.5338 89.1135 2.5088 10.2622
# 5 17.8959 9.4032 3.5367 2.5088 60.9621 22.6362
# 6 25.0620 34.5609 1.2127 10.2622 22.6362 85.2591
#
#
#
# Elastic Compliance Matrix: (Units=1/GPa)
#
#
# Indices 1 2 3 4 5 6 
#
# 1 0.006943 -0.001580 -0.001695 -0.001149 -0.001319 -0.000888
# 2 -0.001580 0.005493 -0.002370 -0.001186 0.000435 -0.001701
# 3 -0.001695 -0.002370 0.010922 -0.002990 -0.000294 0.001742
# 4 -0.001149 -0.001186 -0.002990 0.013793 0.000469 -0.000924
# 5 -0.001319 0.000435 -0.000294 0.000469 0.018485 -0.004748
# 6 -0.000888 -0.001701 0.001742 -0.000924 -0.004748 0.014026
#
#
# Mechanical properties :
#
#
# Convention : Reuss Voigt Hill
#
# Bulk Modulus (GPa) = 82.86921 116.65267 99.76094
# Shear Modulus (GPa) = 58.84114 70.63899 64.74006
#
# Velocity S-wave (km/s) = 4.41798 4.84067 4.63415
# Velocity P-wave (km/s) = 7.31531 8.36291 7.85659
#
# Compressibility (1/GPa) = 0.01206721
#
# Stress axis : x y z
#
# Youngs Moduli (GPa) = 144.03392 182.05108 91.55978
#
# Poissons Ratio (x) = 0.28772 0.15519
# Poissons Ratio (y) = 0.22764 0.21698
# Poissons Ratio (z) = 0.24413 0.43142
#
# Static dielectric constant tensor:
#      x y z
#    x 2.422080 0.140820 -0.063960 
#    y 0.140820 2.525220 -0.005620 
#    z -0.063960 -0.005620 2.654800 
# 
# From -- ./inp_files/228305.got.cif
#   From: 2010.05.17/outbox.cif.g08.bks.cpg/sg2_115_cif.got.tgz:228305.got - 2010.06.03 11:33:40.
