data_PCOD9019956
_publ_section_title
;
Structure prediction by ZEFSAII (Michael W. Deem and Ramdas Pophale) SiO2 
 PCOD9019956
Probable space group: P -1
;
_chemical_formula_sum "Si O2"
_cell_formula_units_Z 15
_cell_length_a 13.905090
_cell_length_b 8.808865
_cell_length_c 8.951086
_cell_angle_alpha 117.645729
_cell_angle_beta 139.170740
_cell_angle_gamma 56.220056
_cell_volume 593.924191
_symmetry_space_group_name_H-M "P -1"
_symmetry_group_IT_number 2
_symmetry_cell_setting 'triclinic'
loop_
_space_group_symop_operation_xyz
x,y,z
-x,-y,-z
loop_
_atom_site_type_symbol
_atom_site_label
_atom_site_fract_x
_atom_site_fract_y
_atom_site_fract_z
Si Si1 0.870614 0.336019 0.075384
Si Si2 0.336730 0.884926 0.333497
Si Si3 0.336576 0.268677 0.473560
Si Si4 0.918449 0.843919 0.329498
Si Si5 0.598958 0.609842 0.082850
Si Si6 0.000000 0.500000 0.500000
Si Si7 0.876770 0.371969 0.751660
Si Si8 0.659493 0.140109 0.319925
O O1 0.762575 0.484076 0.138668
O O2 0.031727 0.332755 0.331714
O O3 0.808991 0.168117 0.921347
O O4 0.856218 0.393149 0.913668
O O5 0.499187 0.728109 0.403318
O O6 0.347658 0.899204 0.531342
O O7 0.328996 0.072946 0.337711
O O8 0.359771 0.285915 0.684481
O O9 0.193688 0.430868 0.312819
O O10 0.987434 0.661666 0.429051
O O11 0.953068 0.757351 0.165750
O O12 0.745992 0.959636 0.240894
O O13 0.000000 0.000000 0.500000
O O14 0.500000 0.500000 0.000000
O O15 0.497649 0.740477 0.895233
O O16 0.764314 0.269280 0.507573
#
# Coordination Sequence:
#
# PCOD9019956 Si02
#       8
#     2   2   2   2   2   1   2   2
#     4  11  25  47  74 105 142 196 245 309 371 440
#     4  10  23  42  66 109 151 186 237 305 367 442
#     4  11  22  40  72 112 146 192 235 299 377 443
#     4  10  25  47  73 104 149 194 247 308 357 443
#     4  12  22  40  77 109 145 194 238 307 373 439
#     4  12  28  50  78 104 142 198 258 302 372 438
#     4  10  21  45  73  99 146 193 244 299 366 442
#     4  10  22  42  70 107 147 188 239 300 372 436
#
# _framework density 25.255748000000001
#
# number of rings (size 3 to 8) (size 9 to 14) (size 15 to 20)
#    0.000    1.333    2.667    1.600    5.600    3.200 
#    7.200    7.333    0.000    0.000    0.000    0.000 
#    0.000    0.000    0.000    0.000    0.000    0.000 
#
# Total GULP energy -83694.785629 kJ/mol
# GULP energy per Si atom -5579.652375 kJ/mol
# Density = 2.519826 g / cm^3
# Si number density = 25.255748 Si / 1000 Ang^3
#
#
#
# Elastic Constant Matrix: (Units=GPa)
#
#
# Indices 1 2 3 4 5 6 
#
# 1 90.9335 34.5023 1.2036 13.0718 -1.7340 -0.8124
# 2 34.5023 91.2348 16.4714 8.3743 -2.8724 1.9890
# 3 1.2036 16.4714 89.5313 25.7025 2.8987 11.2337
# 4 13.0718 8.3743 25.7025 27.7750 -0.2580 4.5060
# 5 -1.7340 -2.8724 2.8987 -0.2580 31.8880 13.4551
# 6 -0.8124 1.9890 11.2337 4.5060 13.4551 51.8306
#
#
#
# Elastic Compliance Matrix: (Units=1/GPa)
#
#
# Indices 1 2 3 4 5 6 
#
# 1 0.014042 -0.005141 0.002964 -0.007890 -0.000255 0.000527
# 2 -0.005141 0.013349 -0.002639 0.000923 0.001362 -0.000455
# 3 0.002964 -0.002639 0.016289 -0.015388 -0.000920 -0.001806
# 4 -0.007890 0.000923 -0.015388 0.054049 0.002395 -0.002144
# 5 -0.000255 0.001362 -0.000920 0.002395 0.035486 -0.009277
# 6 0.000527 -0.000455 -0.001806 -0.002144 -0.009277 0.022306
#
#
# Mechanical properties :
#
#
# Convention : Reuss Voigt Hill
#
# Bulk Modulus (GPa) = 29.36904 41.78378 35.57641
# Shear Modulus (GPa) = 28.32826 36.93354 32.63090
#
# Velocity S-wave (km/s) = 3.35275 3.82826 3.59837
# Velocity P-wave (km/s) = 5.16157 6.01007 5.60191
#
# Compressibility (1/GPa) = 0.03404946
#
# Stress axis : x y z
#
# Youngs Moduli (GPa) = 71.21311 74.91002 61.39106
#
# Poissons Ratio (x) = 0.38510 -0.18197
# Poissons Ratio (y) = 0.36610 0.16200
# Poissons Ratio (z) = -0.21108 0.19767
#
# Static dielectric constant tensor:
#      x y z
#    x 2.018300 0.010090 -0.053940 
#    y 0.010090 1.937610 0.066980 
#    z -0.053940 0.066980 1.818420 
# 
# From -- ./inp_files/296503.got.cif
#   From: 2010.05.17/outbox.cif.g08.bks.cpg/sg2_149_cif.got.tgz:296503.got - 2010.06.03 11:33:40.
