data_PCOD9019546
_publ_section_title
;
Structure prediction by ZEFSAII (Michael W. Deem and Ramdas Pophale) SiO2 
 PCOD9019546
Probable space group: P -1
;
_chemical_formula_sum "Si O2"
_cell_formula_units_Z 16
_cell_length_a 12.275488
_cell_length_b 11.420647
_cell_length_c 8.545105
_cell_angle_alpha 87.533523
_cell_angle_beta 100.642303
_cell_angle_gamma 146.955525
_cell_volume 627.887900
_symmetry_space_group_name_H-M "P -1"
_symmetry_group_IT_number 2
_symmetry_cell_setting 'triclinic'
loop_
_space_group_symop_operation_xyz
x,y,z
-x,-y,-z
loop_
_atom_site_type_symbol
_atom_site_label
_atom_site_fract_x
_atom_site_fract_y
_atom_site_fract_z
Si Si1 0.778431 0.988573 0.621810
Si Si2 0.730353 0.535977 0.790914
Si Si3 0.545048 0.158212 0.639619
Si Si4 0.282250 0.840898 0.871540
Si Si5 0.944405 0.384273 0.650980
Si Si6 0.259216 0.295680 0.498613
Si Si7 0.346629 0.314272 0.840841
Si Si8 0.872304 0.065468 0.993482
O O1 0.558187 0.843709 0.510380
O O2 0.828398 0.913451 0.546921
O O3 0.941799 0.241873 0.639510
O O4 0.767947 0.951906 0.805546
O O5 0.714456 0.385339 0.767307
O O6 0.815905 0.675198 0.648028
O O7 0.497488 0.362714 0.781365
O O8 0.880158 0.704376 0.962053
O O9 0.698630 0.192852 0.624678
O O10 0.360314 0.954324 0.715789
O O11 0.197623 0.875191 0.947477
O O12 0.109457 0.585071 0.809171
O O13 0.500000 0.000000 0.000000
O O14 0.000000 0.500000 0.500000
O O15 0.500000 0.500000 0.500000
O O16 0.262669 0.323593 0.682748
O O17 0.179341 0.088294 0.898856
O O18 0.500000 0.500000 0.000000
#
# Coordination Sequence:
#
# PCOD9019546 Si02
#       8
#     2   2   2   2   2   2   2   2
#     4  12  25  44  74 106 148 190 243 297 364 434
#     4  11  24  46  74 102 145 190 241 299 363 432
#     4  12  24  49  73 104 147 191 239 300 361 437
#     4  12  27  47  73 105 144 192 244 299 368 427
#     4  12  28  46  75 108 142 192 247 294 362 436
#     4  10  21  44  74 101 141 194 237 296 362 433
#     4  11  24  44  72 104 145 188 245 300 364 428
#     4  12  26  44  70 108 143 185 243 301 361 433
#
# _framework density 25.482254000000001
#
# number of rings (size 3 to 8) (size 9 to 14) (size 15 to 20)
#    0.000    0.500    6.250    2.625    3.500    3.500 
#    0.000    1.250    0.000    0.000    0.000    0.000 
#    0.000    0.000    0.000    0.000    0.000    0.000 
#
# Total GULP energy -89525.537759 kJ/mol
# GULP energy per Si atom -5595.346110 kJ/mol
# Density = 2.542425 g / cm^3
# Si number density = 25.482254 Si / 1000 Ang^3
#
#
#
# Elastic Constant Matrix: (Units=GPa)
#
#
# Indices 1 2 3 4 5 6 
#
# 1 82.2009 9.5840 1.0824 8.6302 -7.2735 -2.9909
# 2 9.5840 106.7164 27.5395 17.8000 2.4731 -11.5827
# 3 1.0824 27.5395 139.1612 6.3534 -7.8659 8.4155
# 4 8.6302 17.8000 6.3534 51.7547 3.1729 2.6310
# 5 -7.2735 2.4731 -7.8659 3.1729 32.6731 19.0917
# 6 -2.9909 -11.5827 8.4155 2.6310 19.0917 39.9374
#
#
#
# Elastic Compliance Matrix: (Units=1/GPa)
#
#
# Indices 1 2 3 4 5 6 
#
# 1 0.012813 -0.001191 0.000531 -0.001973 0.004014 -0.001287
# 2 -0.001191 0.011644 -0.002848 -0.003465 -0.005413 0.006704
# 3 0.000531 -0.002848 0.008364 -0.000205 0.005340 -0.005088
# 4 -0.001973 -0.003465 -0.000205 0.021036 -0.001125 -0.001958
# 5 0.004014 -0.005413 0.005340 -0.001125 0.048095 -0.025312
# 6 -0.001287 0.006704 -0.005088 -0.001958 -0.025312 0.040188
#
#
# Mechanical properties :
#
#
# Convention : Reuss Voigt Hill
#
# Bulk Modulus (GPa) = 38.75448 44.94336 41.84892
# Shear Modulus (GPa) = 31.69410 44.19787 37.94598
#
# Velocity S-wave (km/s) = 3.53054 4.16920 3.86309
# Velocity P-wave (km/s) = 5.64456 6.39153 6.02963
#
# Compressibility (1/GPa) = 0.02580347
#
# Stress axis : x y z
#
# Youngs Moduli (GPa) = 78.04782 85.88380 119.55552
#
# Poissons Ratio (x) = 0.10231 -0.06346
# Poissons Ratio (y) = 0.09298 0.34051
# Poissons Ratio (z) = -0.04143 0.24461
#
# Static dielectric constant tensor:
#      x y z
#    x 2.094970 0.021680 -0.035300 
#    y 0.021680 2.004420 0.005560 
#    z -0.035300 0.005560 2.107690 
# 
# From -- ./inp_files/307392.got.cif
#   From: 2010.05.17/outbox.cif.g08.bks.cpg/sg2_154_cif.got.tgz:307392.got - 2010.06.03 11:33:40.
