data_PCOD9019614
_publ_section_title
;
Structure prediction by ZEFSAII (Michael W. Deem and Ramdas Pophale) SiO2 
 PCOD9019614
Probable space group: P -1
;
_chemical_formula_sum "Si O2"
_cell_formula_units_Z 16
_cell_length_a 12.262795
_cell_length_b 7.536179
_cell_length_c 21.383816
_cell_angle_alpha 58.720334
_cell_angle_beta 20.779184
_cell_angle_gamma 57.857598
_cell_volume 592.062208
_symmetry_space_group_name_H-M "P -1"
_symmetry_group_IT_number 2
_symmetry_cell_setting 'triclinic'
loop_
_space_group_symop_operation_xyz
x,y,z
-x,-y,-z
loop_
_atom_site_type_symbol
_atom_site_label
_atom_site_fract_x
_atom_site_fract_y
_atom_site_fract_z
Si Si1 0.408936 0.295057 0.150083
Si Si2 0.293006 0.513304 0.926583
Si Si3 0.316713 0.020961 0.525881
Si Si4 0.727516 0.450376 0.322534
Si Si5 0.875939 0.275842 0.612349
Si Si6 0.991805 0.284040 0.767842
Si Si7 0.227129 0.791301 0.465070
Si Si8 0.268108 0.931056 0.815367
O O1 0.544241 0.353485 0.133368
O O2 0.236627 0.523274 0.178387
O O3 0.119323 0.169547 0.327470
O O4 0.712714 0.185387 0.970008
O O5 0.530381 0.313610 0.817633
O O6 0.251084 0.684576 0.863255
O O7 0.986112 0.452674 0.130842
O O8 0.742209 0.215792 0.384557
O O9 0.652218 0.013957 0.310653
O O10 0.088458 0.144669 0.574196
O O11 0.211299 0.154526 0.621051
O O12 0.419919 0.579620 0.431163
O O13 0.835256 0.594294 0.294016
O O14 0.841069 0.225536 0.567789
O O15 0.000000 0.500000 0.500000
O O16 0.451892 0.963589 0.323216
O O17 0.000000 0.000000 0.000000
#
# Coordination Sequence:
#
# PCOD9019614 Si02
#       8
#     2   2   2   2   2   2   2   2
#     4  10  21  44  81 109 161 214 265 342 402 478
#     4  11  23  52  79 113 167 218 272 343 411 489
#     4  12  26  52  90 123 158 226 283 334 422 497
#     4  11  28  52  82 122 175 212 275 349 422 490
#     4  12  24  50  85 120 162 213 290 340 399 506
#     4  10  23  49  78 117 172 213 264 345 417 487
#     4  12  26  51  82 120 165 218 278 344 413 498
#     4  12  27  51  81 114 167 224 271 333 427 496
#
# _framework density 27.024186
#
# number of rings (size 3 to 8) (size 9 to 14) (size 15 to 20)
#    0.000    0.750    5.000    0.750    0.000    6.000 
#   11.250    3.125    2.750    0.000    0.000    0.000 
#    0.000    0.000    0.000    0.000    0.000    0.000 
#
# Total GULP energy -89430.600919 kJ/mol
# GULP energy per Si atom -5589.412557 kJ/mol
# Density = 2.696268 g / cm^3
# Si number density = 27.024186 Si / 1000 Ang^3
#
#
#
# Elastic Constant Matrix: (Units=GPa)
#
#
# Indices 1 2 3 4 5 6 
#
# 1 180.0060 67.5828 76.3030 -5.8980 22.8690 3.8753
# 2 67.5828 142.0606 84.3292 -0.7643 13.3721 -19.0660
# 3 76.3030 84.3292 267.9930 17.2487 21.1686 3.5330
# 4 -5.8980 -0.7643 17.2487 54.4653 -4.1965 13.0808
# 5 22.8690 13.3721 21.1686 -4.1965 38.3061 0.9779
# 6 3.8753 -19.0660 3.5330 13.0808 0.9779 58.6334
#
#
#
# Elastic Compliance Matrix: (Units=1/GPa)
#
#
# Indices 1 2 3 4 5 6 
#
# 1 0.007519 -0.002892 -0.001080 0.001296 -0.002700 -0.001616
# 2 -0.002892 0.010437 -0.002431 -0.000370 -0.000712 0.003826
# 3 -0.001080 -0.002431 0.005038 -0.001711 -0.001462 -0.000617
# 4 0.001296 -0.000370 -0.001711 0.020368 0.002652 -0.004691
# 5 -0.002700 -0.000712 -0.001462 0.002652 0.029091 -0.001042
# 6 -0.001616 0.003826 -0.000617 -0.004691 -0.001042 0.019507
#
#
# Mechanical properties :
#
#
# Convention : Reuss Voigt Hill
#
# Bulk Modulus (GPa) = 98.15658 116.27663 107.21661
# Shear Modulus (GPa) = 46.22742 54.40395 50.31568
#
# Velocity S-wave (km/s) = 4.14042 4.49169 4.31963
# Velocity P-wave (km/s) = 7.69792 8.36783 8.03986
#
# Compressibility (1/GPa) = 0.01018780
#
# Stress axis : x y z
#
# Youngs Moduli (GPa) = 132.99578 95.81636 198.50799
#
# Poissons Ratio (x) = 0.27710 0.21432
# Poissons Ratio (y) = 0.38462 0.48259
# Poissons Ratio (z) = 0.14359 0.23294
#
# Static dielectric constant tensor:
#      x y z
#    x 2.167820 -0.044870 0.025450 
#    y -0.044870 2.282140 0.031550 
#    z 0.025450 0.031550 2.180200 
# 
# From -- ./inp_files/428518.got.cif
#   From: 2010.05.17/outbox.cif.g08.bks.cpg/sg2_215_cif.got.tgz:428518.got - 2010.06.03 11:33:40.
