data_PCOD9019479
_publ_section_title
;
Structure prediction by ZEFSAII (Michael W. Deem and Ramdas Pophale) SiO2 
 PCOD9019479
Probable space group: P -1
;
_chemical_formula_sum "Si O2"
_cell_formula_units_Z 16
_cell_length_a 13.022972
_cell_length_b 13.623401
_cell_length_c 9.133682
_cell_angle_alpha 107.418751
_cell_angle_beta 107.358194
_cell_angle_gamma 134.654112
_cell_volume 728.087962
_symmetry_space_group_name_H-M "P -1"
_symmetry_group_IT_number 2
_symmetry_cell_setting 'triclinic'
loop_
_space_group_symop_operation_xyz
x,y,z
-x,-y,-z
loop_
_atom_site_type_symbol
_atom_site_label
_atom_site_fract_x
_atom_site_fract_y
_atom_site_fract_z
Si Si1 0.648094 0.429876 0.696098
Si Si2 0.830556 0.731492 0.714977
Si Si3 0.572205 0.151848 0.988986
Si Si4 0.174898 0.032474 0.229032
Si Si5 0.793478 0.526227 0.372548
Si Si6 0.951966 0.533570 0.697637
Si Si7 0.074334 0.317466 0.821827
Si Si8 0.320960 0.878046 0.490498
O O1 0.671582 0.565749 0.706197
O O2 0.419435 0.197268 0.438544
O O3 0.853510 0.540166 0.762815
O O4 0.698449 0.468015 0.905338
O O5 0.821345 0.841039 0.712275
O O6 0.761016 0.595026 0.497435
O O7 0.069718 0.915310 0.974917
O O8 0.601094 0.286147 0.141289
O O9 0.812014 0.316967 0.106152
O O10 0.500000 0.000000 0.000000
O O11 0.419885 0.031584 0.728336
O O12 0.023049 0.862636 0.218193
O O13 0.952309 0.582883 0.557822
O O14 0.888494 0.651024 0.320297
O O15 0.771251 0.296261 0.538771
O O16 0.887302 0.246767 0.733586
O O17 0.500000 0.000000 0.500000
#
# Coordination Sequence:
#
# PCOD9019479 Si02
#       8
#     2   2   2   2   2   2   2   2
#     4  10  22  41  67  95 129 167 217 268 328 381
#     4   9  22  44  69  96 127 162 223 270 324 391
#     4  12  24  42  66  89 133 182 221 260 328 384
#     4  10  21  44  72  95 122 173 213 273 328 393
#     4  11  23  43  62  94 136 170 205 280 321 382
#     4  11  23  42  61  93 130 172 226 269 307 393
#     4  11  24  39  61  96 135 164 213 276 319 388
#     4  12  25  39  63  94 128 181 220 266 321 380
#
# _framework density 21.975366999999999
#
# number of rings (size 3 to 8) (size 9 to 14) (size 15 to 20)
#    0.000    1.250    2.500    3.000    3.500    3.500 
#    4.500    0.625    0.000    0.000    0.000    0.000 
#    0.000    0.000    0.000    0.000    0.000    0.000 
#
# Total GULP energy -89299.366384 kJ/mol
# GULP energy per Si atom -5581.210399 kJ/mol
# Density = 2.192535 g / cm^3
# Si number density = 21.975367 Si / 1000 Ang^3
#
#
#
# Elastic Constant Matrix: (Units=GPa)
#
#
# Indices 1 2 3 4 5 6 
#
# 1 62.1420 30.1543 44.3904 4.4533 -17.8940 -16.4994
# 2 30.1543 117.3388 39.7027 -10.1758 -9.6647 -7.4175
# 3 44.3904 39.7027 129.9789 -7.2876 -0.9636 0.6987
# 4 4.4533 -10.1758 -7.2876 36.6928 -3.8625 -2.6114
# 5 -17.8940 -9.6647 -0.9636 -3.8625 32.6857 9.4707
# 6 -16.4994 -7.4175 0.6987 -2.6114 9.4707 34.0711
#
#
#
# Elastic Compliance Matrix: (Units=1/GPa)
#
#
# Indices 1 2 3 4 5 6 
#
# 1 0.031738 -0.003467 -0.010013 -0.004722 0.012298 0.011040
# 2 -0.003467 0.010446 -0.001823 0.003134 0.001364 0.000494
# 3 -0.010013 -0.001823 0.011791 0.002315 -0.004199 -0.004143
# 4 -0.004722 0.003134 0.002315 0.029356 0.001855 0.000083
# 5 0.012298 0.001364 -0.004199 0.001855 0.039097 -0.004387
# 6 0.011040 0.000494 -0.004143 0.000083 -0.004387 0.036115
#
#
# Mechanical properties :
#
#
# Convention : Reuss Voigt Hill
#
# Bulk Modulus (GPa) = 42.79376 59.77274 51.28325
# Shear Modulus (GPa) = 25.38855 33.70407 29.54631
#
# Velocity S-wave (km/s) = 3.40269 3.92052 3.67075
# Velocity P-wave (km/s) = 5.91215 6.91035 6.43065
#
# Compressibility (1/GPa) = 0.02336789
#
# Stress axis : x y z
#
# Youngs Moduli (GPa) = 31.50792 95.73391 84.80949
#
# Poissons Ratio (x) = 0.33190 0.84921
# Poissons Ratio (y) = 0.10923 0.15465
# Poissons Ratio (z) = 0.31549 0.17457
#
# Static dielectric constant tensor:
#      x y z
#    x 1.822260 -0.015210 -0.012080 
#    y -0.015210 1.829430 0.018120 
#    z -0.012080 0.018120 1.846850 
# 
# From -- ./inp_files/313588.got.cif
#   From: 2010.05.17/outbox.cif.g08.bks.cpg/sg2_157_cif.got.tgz:313588.got - 2010.06.03 11:33:40.
