data_PCOD9019247
_publ_section_title
;
Structure prediction by ZEFSAII (Michael W. Deem and Ramdas Pophale) SiO2 
 PCOD9019247
Probable space group: P -1
;
_chemical_formula_sum "Si O2"
_cell_formula_units_Z 14
_cell_length_a 7.800760
_cell_length_b 14.969344
_cell_length_c 7.806225
_cell_angle_alpha 94.879654
_cell_angle_beta 125.932475
_cell_angle_gamma 118.461957
_cell_volume 557.232748
_symmetry_space_group_name_H-M "P -1"
_symmetry_group_IT_number 2
_symmetry_cell_setting 'triclinic'
loop_
_space_group_symop_operation_xyz
x,y,z
-x,-y,-z
loop_
_atom_site_type_symbol
_atom_site_label
_atom_site_fract_x
_atom_site_fract_y
_atom_site_fract_z
Si Si1 0.209592 0.625640 0.913858
Si Si2 0.695696 0.725463 0.761357
Si Si3 0.841309 0.205774 0.222993
Si Si4 0.341974 0.371114 0.961542
Si Si5 0.132408 0.965894 0.201400
Si Si6 0.361561 0.995774 0.681222
Si Si7 0.161706 0.653107 0.286671
O O1 0.516424 0.671087 0.064509
O O2 0.187166 0.662000 0.096489
O O3 0.143673 0.682244 0.740320
O O4 0.998886 0.482862 0.775671
O O5 0.466493 0.729938 0.558535
O O6 0.896248 0.748431 0.733307
O O7 0.569204 0.611563 0.782727
O O8 0.894373 0.824593 0.036902
O O9 0.828236 0.127988 0.350679
O O10 0.543865 0.105822 0.935597
O O11 0.020170 0.312953 0.756220
O O12 0.500000 0.500000 0.000000
O O13 0.205495 0.009391 0.445788
O O14 0.405653 0.000256 0.278481
O O15 0.000000 0.000000 0.000000
#
# Coordination Sequence:
#
# PCOD9019247 Si02
#       7
#     2   2   2   2   2   2   2
#     4  10  22  42  71  99 133 186 227 278 351 405
#     4  11  24  42  66 100 138 182 221 285 355 400
#     4  10  21  44  70 101 134 181 230 286 351 406
#     4  10  23  45  65  97 138 179 235 279 334 413
#     4  10  23  41  67  99 129 181 229 280 347 413
#     4   9  22  44  66  96 138 172 230 289 337 415
#     4  10  23  45  65  98 143 176 228 288 333 416
#
# _framework density 25.124148999999999
#
# number of rings (size 3 to 8) (size 9 to 14) (size 15 to 20)
#    0.000    2.000    1.429    0.000    4.000    5.143 
#    5.143    2.143    0.000    0.000    0.000    0.000 
#    0.000    0.000    0.000    0.000    0.000    0.000 
#
# Total GULP energy -78316.948005 kJ/mol
# GULP energy per Si atom -5594.067715 kJ/mol
# Density = 2.506697 g / cm^3
# Si number density = 25.124149 Si / 1000 Ang^3
#
#
#
# Elastic Constant Matrix: (Units=GPa)
#
#
# Indices 1 2 3 4 5 6 
#
# 1 98.8770 25.3152 30.4018 7.4490 28.7260 12.9168
# 2 25.3152 115.8431 33.3488 -30.8630 1.6581 13.2691
# 3 30.4018 33.3488 111.8465 -28.6522 19.1071 5.2361
# 4 7.4490 -30.8630 -28.6522 35.4870 -2.1692 0.0723
# 5 28.7260 1.6581 19.1071 -2.1692 37.9067 -8.0074
# 6 12.9168 13.2691 5.2361 0.0723 -8.0074 32.8607
#
#
#
# Elastic Compliance Matrix: (Units=1/GPa)
#
#
# Indices 1 2 3 4 5 6 
#
# 1 0.018900 -0.005184 -0.003923 -0.012517 -0.014574 -0.008235
# 2 -0.005184 0.013462 0.000350 0.013290 0.003361 -0.002664
# 3 -0.003923 0.000350 0.013653 0.011935 -0.003596 -0.001677
# 4 -0.012517 0.013290 0.011935 0.052349 0.005655 -0.001085
# 5 -0.014574 0.003361 -0.003596 0.005655 0.042651 0.015325
# 6 -0.008235 -0.002664 -0.001677 -0.001085 0.015325 0.038748
#
#
# Mechanical properties :
#
#
# Convention : Reuss Voigt Hill
#
# Bulk Modulus (GPa) = 35.08555 56.07756 45.58155
# Shear Modulus (GPa) = 24.18063 37.08428 30.63245
#
# Velocity S-wave (km/s) = 3.10570 3.84610 3.49555
# Velocity P-wave (km/s) = 5.18224 6.48783 5.87144
#
# Compressibility (1/GPa) = 0.02850177
#
# Stress axis : x y z
#
# Youngs Moduli (GPa) = 52.91074 74.28253 73.24419
#
# Poissons Ratio (x) = 0.38507 0.28733
# Poissons Ratio (y) = 0.27428 -0.02565
# Poissons Ratio (z) = 0.20757 -0.02602
#
# Static dielectric constant tensor:
#      x y z
#    x 1.962220 0.065510 -0.039160 
#    y 0.065510 2.259340 -0.030970 
#    z -0.039160 -0.030970 2.002160 
# 
# From -- ./inp_files/207249.got.cif
#   From: 2010.05.17/outbox.cif.g08.bks.cpg/sg2_104_cif.got.tgz:207249.got - 2010.06.03 11:33:40.
