data_PCOD9019490
_publ_section_title
;
Structure prediction by ZEFSAII (Michael W. Deem and Ramdas Pophale) SiO2 
 PCOD9019490
Probable space group: P -1
;
_chemical_formula_sum "Si O2"
_cell_formula_units_Z 14
_cell_length_a 9.309707
_cell_length_b 18.298995
_cell_length_c 10.880876
_cell_angle_alpha 25.877420
_cell_angle_beta 117.796282
_cell_angle_gamma 124.452159
_cell_volume 662.412208
_symmetry_space_group_name_H-M "P -1"
_symmetry_group_IT_number 2
_symmetry_cell_setting 'triclinic'
loop_
_space_group_symop_operation_xyz
x,y,z
-x,-y,-z
loop_
_atom_site_type_symbol
_atom_site_label
_atom_site_fract_x
_atom_site_fract_y
_atom_site_fract_z
Si Si1 0.983129 0.706427 0.930115
Si Si2 0.444813 0.157889 0.688115
Si Si3 0.393348 0.354787 0.578186
Si Si4 0.300007 0.679489 0.669980
Si Si5 0.815744 0.438152 0.942798
Si Si6 0.045223 0.993075 0.716729
Si Si7 0.838856 0.003344 0.851183
O O1 0.943660 0.852111 0.610360
O O2 0.677735 0.349336 0.131944
O O3 0.016722 0.801918 0.931090
O O4 0.150998 0.680876 0.973074
O O5 0.502633 0.324989 0.552720
O O6 0.525992 0.229057 0.479767
O O7 0.234632 0.071338 0.736529
O O8 0.500000 0.000000 0.000000
O O9 0.500000 0.500000 0.500000
O O10 0.240070 0.410957 0.372345
O O11 0.322582 0.167120 0.907136
O O12 0.176842 0.487124 0.852928
O O13 0.197539 0.815890 0.418067
O O14 0.000000 0.500000 0.000000
O O15 0.891230 0.980537 0.767622
O O16 0.000000 0.000000 0.000000
#
# Coordination Sequence:
#
# PCOD9019490 Si02
#       7
#     2   2   2   2   2   2   2
#     4  10  23  41  71 101 126 169 235 289 316 397
#     4  12  25  45  63 100 143 177 215 284 353 401
#     4  12  28  44  69 102 147 178 225 287 350 406
#     4  11  23  42  73  97 130 181 231 276 344 401
#     4  10  21  44  72  98 131 181 234 275 334 410
#     4  11  24  43  68  99 136 171 230 280 335 401
#     4  12  22  45  68  97 132 190 224 272 343 417
#
# _framework density 21.134875000000001
#
# number of rings (size 3 to 8) (size 9 to 14) (size 15 to 20)
#    0.000    0.857    4.286    3.429    4.000    2.286 
#    2.571    3.571    0.000    0.000    0.000    0.000 
#    0.000    0.000    0.000    0.000    0.000    0.000 
#
# Total GULP energy -78192.605445 kJ/mol
# GULP energy per Si atom -5585.186103 kJ/mol
# Density = 2.108677 g / cm^3
# Si number density = 21.134875 Si / 1000 Ang^3
#
#
#
# Elastic Constant Matrix: (Units=GPa)
#
#
# Indices 1 2 3 4 5 6 
#
# 1 89.9988 16.3658 23.7066 -4.8133 3.5030 -28.7932
# 2 16.3658 56.0257 22.4538 -11.7450 18.4836 -20.6827
# 3 23.7066 22.4538 115.8864 -9.7075 12.7953 -5.8236
# 4 -4.8133 -11.7450 -9.7075 30.6721 -9.6860 12.2527
# 5 3.5030 18.4836 12.7953 -9.6860 43.8293 -1.4321
# 6 -28.7932 -20.6827 -5.8236 12.2527 -1.4321 27.4738
#
#
#
# Elastic Compliance Matrix: (Units=1/GPa)
#
#
# Indices 1 2 3 4 5 6 
#
# 1 0.019565 0.005372 -0.003963 -0.008094 -0.003574 0.027131
# 2 0.005372 0.032848 -0.004877 -0.004406 -0.012831 0.030620
# 3 -0.003963 -0.004877 0.010334 0.003664 -0.000071 -0.007272
# 4 -0.008094 -0.004406 0.003664 0.046693 0.010732 -0.031288
# 5 -0.003574 -0.012831 -0.000071 0.010732 0.030362 -0.016624
# 6 0.027131 0.030620 -0.007272 -0.031288 -0.016624 0.099430
#
#
# Mechanical properties :
#
#
# Convention : Reuss Voigt Hill
#
# Bulk Modulus (GPa) = 17.91800 42.99590 30.45695
# Shear Modulus (GPa) = 18.88423 33.68736 26.28580
#
# Velocity S-wave (km/s) = 2.99241 3.99673 3.53046
# Velocity P-wave (km/s) = 4.52058 6.45648 5.57323
#
# Compressibility (1/GPa) = 0.05580979
#
# Stress axis : x y z
#
# Youngs Moduli (GPa) = 51.11243 30.44341 96.76668
#
# Poissons Ratio (x) = -0.16353 0.38349
# Poissons Ratio (y) = -0.27455 0.47193
# Poissons Ratio (z) = 0.20256 0.14847
#
# Static dielectric constant tensor:
#      x y z
#    x 1.787260 -0.025190 -0.018820 
#    y -0.025190 1.825130 -0.003160 
#    z -0.018820 -0.003160 1.751510 
# 
# From -- ./inp_files/401705.got.cif
#   From: 2010.05.17/outbox.cif.g08.bks.cpg/sg2_201_cif.got.tgz:401705.got - 2010.06.03 11:33:40.
