data_PCOD9019586
_publ_section_title
;
Structure prediction by ZEFSAII (Michael W. Deem and Ramdas Pophale) SiO2 
 PCOD9019586
Probable space group: P -1
;
_chemical_formula_sum "Si O2"
_cell_formula_units_Z 13
_cell_length_a 5.479681
_cell_length_b 19.132385
_cell_length_c 5.382882
_cell_angle_alpha 98.215528
_cell_angle_beta 88.749262
_cell_angle_gamma 64.985492
_cell_volume 504.022313
_symmetry_space_group_name_H-M "P -1"
_symmetry_group_IT_number 2
_symmetry_cell_setting 'triclinic'
loop_
_space_group_symop_operation_xyz
x,y,z
-x,-y,-z
loop_
_atom_site_type_symbol
_atom_site_label
_atom_site_fract_x
_atom_site_fract_y
_atom_site_fract_z
Si Si1 0.850838 0.736264 0.603166
Si Si2 0.500000 0.000000 0.000000
Si Si3 0.930171 0.151807 0.162720
Si Si4 0.788383 0.590347 0.547649
Si Si5 0.514758 0.800348 0.146074
Si Si6 0.670018 0.551489 0.030360
Si Si7 0.703258 0.061470 0.471295
O O1 0.026238 0.785024 0.634588
O O2 0.951076 0.643256 0.565248
O O3 0.672610 0.758008 0.366786
O O4 0.698448 0.765271 0.885045
O O5 0.813123 0.926835 0.958234
O O6 0.460435 0.970693 0.710048
O O7 0.748060 0.122012 0.315665
O O8 0.772000 0.194362 0.937246
O O9 0.617938 0.603182 0.809994
O O10 0.000000 0.500000 0.500000
O O11 0.612550 0.600472 0.309872
O O12 0.438204 0.892267 0.251186
O O13 0.500000 0.500000 0.000000
O O14 0.000000 0.500000 0.000000
O O15 0.000000 0.000000 0.500000
#
# Coordination Sequence:
#
# PCOD9019586 Si02
#       7
#     2   1   2   2   2   2   2
#     4  12  28  50  75 107 159 198 248 319 391 453
#     4  12  24  44  74  98 146 192 248 316 366 440
#     4  12  27  46  74 110 149 199 255 313 379 458
#     4  10  23  49  76 113 148 196 259 316 390 470
#     4  12  26  49  70 110 150 196 251 304 385 454
#     4  10  21  44  75 112 153 194 254 321 388 466
#     4  12  27  45  73 109 145 197 259 311 377 451
#
# _framework density 25.792507000000001
#
# number of rings (size 3 to 8) (size 9 to 14) (size 15 to 20)
#    0.000    0.615    4.615    1.846    4.308    1.846 
#   16.615    0.000    0.000    0.000    0.000    0.000 
#    0.000    0.000    0.000    0.000    0.000    0.000 
#
# Total GULP energy -72502.410355 kJ/mol
# GULP energy per Si atom -5577.108489 kJ/mol
# Density = 2.573380 g / cm^3
# Si number density = 25.792507 Si / 1000 Ang^3
#
#
#
# Elastic Constant Matrix: (Units=GPa)
#
#
# Indices 1 2 3 4 5 6 
#
# 1 56.7971 19.3566 38.7079 -4.4433 8.9710 6.0425
# 2 19.3566 103.4470 36.8916 18.1711 14.4017 11.2025
# 3 38.7079 36.8916 224.8879 -23.3368 25.3618 2.6871
# 4 -4.4433 18.1711 -23.3368 37.2765 8.2533 2.0795
# 5 8.9710 14.4017 25.3618 8.2533 41.2783 -3.7396
# 6 6.0425 11.2025 2.6871 2.0795 -3.7396 25.7303
#
#
#
# Elastic Compliance Matrix: (Units=1/GPa)
#
#
# Indices 1 2 3 4 5 6 
#
# 1 0.021478 -0.002807 -0.002476 0.003332 -0.003223 -0.004301
# 2 -0.002807 0.012965 -0.002201 -0.007465 -0.001464 -0.004365
# 3 -0.002476 -0.002201 0.006209 0.005468 -0.003609 -0.000075
# 4 0.003332 -0.007465 0.005468 0.036403 -0.008971 -0.002350
# 5 -0.003223 -0.001464 -0.003609 -0.008971 0.030070 0.006867
# 6 -0.004301 -0.004365 -0.000075 -0.002350 0.006867 0.042971
#
#
# Mechanical properties :
#
#
# Convention : Reuss Voigt Hill
#
# Bulk Modulus (GPa) = 38.93379 63.89380 51.41379
# Shear Modulus (GPa) = 28.79779 40.20209 34.49994
#
# Velocity S-wave (km/s) = 3.34506 3.95229 3.66128
# Velocity P-wave (km/s) = 5.48151 6.75673 6.15225
#
# Compressibility (1/GPa) = 0.02568463
#
# Stress axis : x y z
#
# Youngs Moduli (GPa) = 46.56011 77.13296 161.05028
#
# Poissons Ratio (x) = 0.21649 0.39871
# Poissons Ratio (y) = 0.13068 0.35448
# Poissons Ratio (z) = 0.11527 0.16977
#
# Static dielectric constant tensor:
#      x y z
#    x 1.817000 -0.217970 0.129600 
#    y -0.217970 1.811970 0.088740 
#    z 0.129600 0.088740 1.976770 
# 
# From -- ./inp_files/7117.got.cif
#   From: 2010.05.17/outbox.cif.g08.bks.cpg/sg2_4_cif.got.tgz:7117.got - 2010.06.03 11:33:40.
