data_PCOD9019651
_publ_section_title
;
Structure prediction by ZEFSAII (Michael W. Deem and Ramdas Pophale) SiO2 
 PCOD9019651
Probable space group: P -1
;
_chemical_formula_sum "Si O2"
_cell_formula_units_Z 16
_cell_length_a 20.050439
_cell_length_b 8.500362
_cell_length_c 7.615765
_cell_angle_alpha 128.258827
_cell_angle_beta 128.889356
_cell_angle_gamma 42.076913
_cell_volume 647.168518
_symmetry_space_group_name_H-M "P -1"
_symmetry_group_IT_number 2
_symmetry_cell_setting 'triclinic'
loop_
_space_group_symop_operation_xyz
x,y,z
-x,-y,-z
loop_
_atom_site_type_symbol
_atom_site_label
_atom_site_fract_x
_atom_site_fract_y
_atom_site_fract_z
Si Si1 0.388708 0.447120 0.315223
Si Si2 0.891088 0.649808 0.811802
Si Si3 0.999070 0.296146 0.244095
Si Si4 0.628265 0.200028 0.174621
Si Si5 0.468572 0.074247 0.702485
Si Si6 0.311208 0.589436 0.894685
Si Si7 0.075304 0.810443 0.639192
Si Si8 0.777045 0.678022 0.971611
O O1 0.606502 0.376727 0.420879
O O2 0.303141 0.399176 0.210835
O O3 0.496653 0.173363 0.310834
O O4 0.354142 0.558022 0.140889
O O5 0.892292 0.450973 0.558619
O O6 0.798195 0.750212 0.866889
O O7 0.906802 0.810218 0.812410
O O8 0.000000 0.500000 0.000000
O O9 0.992686 0.125435 0.253064
O O10 0.000000 0.500000 0.500000
O O11 0.887521 0.451876 0.068885
O O12 0.645485 0.314436 0.110587
O O13 0.538492 0.162606 0.953145
O O14 0.729776 0.921257 0.178820
O O15 0.352267 0.313416 0.709765
O O16 0.500000 0.000000 0.500000
O O17 0.185702 0.771091 0.812000
O O18 0.000000 0.000000 0.500000
#
# Coordination Sequence:
#
# PCOD9019651 Si02
#       8
#     2   2   2   2   2   2   2   2
#     4  11  24  48  73 109 152 189 244 309 365 453
#     4   9  20  39  67  90 135 193 238 294 366 426
#     4   9  19  40  65  93 138 186 249 297 361 432
#     4  11  26  45  74 108 152 185 248 306 370 443
#     4  11  25  50  77 106 154 194 236 313 373 444
#     4  12  25  46  74 109 146 198 250 300 380 438
#     4  11  24  42  68 106 146 188 249 312 363 433
#     4  10  21  45  65 102 143 193 239 299 368 438
#
# _framework density 24.723084
#
# number of rings (size 3 to 8) (size 9 to 14) (size 15 to 20)
#    0.000    1.500    2.500    1.500    7.000    0.500 
#    9.000    2.500    0.000    0.000    0.000    0.000 
#    0.000    0.000    0.000    0.000    0.000    0.000 
#
# Total GULP energy -89615.311106 kJ/mol
# GULP energy per Si atom -5600.956944 kJ/mol
# Density = 2.466681 g / cm^3
# Si number density = 24.723084 Si / 1000 Ang^3
#
#
#
# Elastic Constant Matrix: (Units=GPa)
#
#
# Indices 1 2 3 4 5 6 
#
# 1 149.8865 49.0486 61.7291 -2.7566 -18.7532 16.7274
# 2 49.0486 124.7448 58.2048 5.1979 -7.8260 -0.8795
# 3 61.7291 58.2048 136.0127 16.9139 -17.5799 4.7294
# 4 -2.7566 5.1979 16.9139 47.3951 8.1066 -8.8631
# 5 -18.7532 -7.8260 -17.5799 8.1066 36.0619 -3.3955
# 6 16.7274 -0.8795 4.7294 -8.8631 -3.3955 36.5150
#
#
#
# Elastic Compliance Matrix: (Units=1/GPa)
#
#
# Indices 1 2 3 4 5 6 
#
# 1 0.009314 -0.002191 -0.002947 0.000759 0.002429 -0.003528
# 2 -0.002191 0.010574 -0.003731 0.000485 -0.000603 0.001803
# 3 -0.002947 -0.003731 0.011458 -0.004757 0.004220 -0.000986
# 4 0.000759 0.000485 -0.004757 0.025039 -0.006910 0.005715
# 5 0.002429 -0.000603 0.004220 -0.006910 0.032441 -0.000334
# 6 -0.003528 0.001803 -0.000986 0.005715 -0.000334 0.030529
#
#
# Mechanical properties :
#
#
# Convention : Reuss Voigt Hill
#
# Bulk Modulus (GPa) = 73.49652 83.17877 78.33765
# Shear Modulus (GPa) = 35.30334 40.10517 37.70425
#
# Velocity S-wave (km/s) = 3.78292 4.03199 3.90944
# Velocity P-wave (km/s) = 6.99093 7.44266 7.22033
#
# Compressibility (1/GPa) = 0.01360609
#
# Stress axis : x y z
#
# Youngs Moduli (GPa) = 107.36460 94.57527 87.27556
#
# Poissons Ratio (x) = 0.20723 0.25722
# Poissons Ratio (y) = 0.23525 0.32565
# Poissons Ratio (z) = 0.31643 0.35289
#
# Static dielectric constant tensor:
#      x y z
#    x 2.049680 0.023430 -0.008630 
#    y 0.023430 2.008780 0.003860 
#    z -0.008630 0.003860 1.923720 
# 
# From -- ./inp_files/327734.got.cif
#   From: 2010.05.17/outbox.cif.g08.bks.cpg/sg2_164_cif.got.tgz:327734.got - 2010.06.03 11:33:40.
