data_PCOD9019721
_publ_section_title
;
Structure prediction by ZEFSAII (Michael W. Deem and Ramdas Pophale) SiO2 
 PCOD9019721
Probable space group: P -1
;
_chemical_formula_sum "Si O2"
_cell_formula_units_Z 14
_cell_length_a 13.308825
_cell_length_b 15.740698
_cell_length_c 7.918156
_cell_angle_alpha 84.291004
_cell_angle_beta 113.891452
_cell_angle_gamma 152.676910
_cell_volume 546.012453
_symmetry_space_group_name_H-M "P -1"
_symmetry_group_IT_number 2
_symmetry_cell_setting 'triclinic'
loop_
_space_group_symop_operation_xyz
x,y,z
-x,-y,-z
loop_
_atom_site_type_symbol
_atom_site_label
_atom_site_fract_x
_atom_site_fract_y
_atom_site_fract_z
Si Si1 0.627923 0.165628 0.680003
Si Si2 0.802052 0.401134 0.237699
Si Si3 0.753655 0.126254 0.040433
Si Si4 0.146682 0.277597 0.108638
Si Si5 0.095995 0.917593 0.382159
Si Si6 0.725220 0.772103 0.566385
Si Si7 0.246433 0.476303 0.584321
O O1 0.622721 0.115034 0.865658
O O2 0.410505 0.091089 0.540618
O O3 0.971024 0.429965 0.799647
O O4 0.500000 0.000000 0.500000
O O5 0.714858 0.428858 0.256439
O O6 0.000000 0.500000 0.500000
O O7 0.504045 0.130738 0.054418
O O8 0.961302 0.229597 0.022267
O O9 0.978622 0.311918 0.308240
O O10 0.490260 0.554125 0.327244
O O11 0.065132 0.147926 0.221092
O O12 0.066887 0.188044 0.887862
O O13 0.150844 0.051519 0.463814
O O14 0.880116 0.702361 0.388743
O O15 0.531774 0.666042 0.620129
#
# Coordination Sequence:
#
# PCOD9019721 Si02
#       7
#     2   2   2   2   2   2   2
#     4  12  22  42  64  93 131 168 208 254 310 382
#     4  12  22  39  63  87 125 170 204 251 313 361
#     4  11  24  43  63  91 130 166 206 260 311 366
#     4  10  21  45  67  89 130 164 206 262 313 375
#     4  12  23  42  65  92 129 165 208 259 313 371
#     4  10  24  43  67  94 123 166 209 260 318 365
#     4  11  25  40  62  97 124 159 220 257 299 383
#
# _framework density 25.640442
#
# number of rings (size 3 to 8) (size 9 to 14) (size 15 to 20)
#    0.000    0.857    4.286    2.143    0.000    6.286 
#    0.000   15.000    0.000    0.000    0.000    0.000 
#    0.000    0.000    0.000    0.000    0.000    0.000 
#
# Total GULP energy -78526.916047 kJ/mol
# GULP energy per Si atom -5609.065432 kJ/mol
# Density = 2.558208 g / cm^3
# Si number density = 25.640442 Si / 1000 Ang^3
#
#
#
# Elastic Constant Matrix: (Units=GPa)
#
#
# Indices 1 2 3 4 5 6 
#
# 1 122.7200 19.0495 34.1341 10.0527 -4.8627 -15.8341
# 2 19.0495 121.9119 31.9369 2.6785 -9.0527 -22.9872
# 3 34.1341 31.9369 102.8989 1.1476 -1.7390 -25.9683
# 4 10.0527 2.6785 1.1476 22.9503 -11.2865 14.9228
# 5 -4.8627 -9.0527 -1.7390 -11.2865 33.6610 1.6340
# 6 -15.8341 -22.9872 -25.9683 14.9228 1.6340 46.0014
#
#
#
# Elastic Compliance Matrix: (Units=1/GPa)
#
#
# Indices 1 2 3 4 5 6 
#
# 1 0.009980 -0.000026 -0.001941 -0.008477 -0.001757 0.005139
# 2 -0.000026 0.009777 -0.001657 -0.003944 0.000966 0.005187
# 3 -0.001941 -0.001657 0.012849 -0.005787 -0.002377 0.007719
# 4 -0.008477 -0.003944 -0.005787 0.085870 0.028004 -0.037007
# 5 -0.001757 0.000966 -0.002377 0.028004 0.039561 -0.011954
# 6 0.005139 0.005187 0.007719 -0.037007 -0.011954 0.042887
#
#
# Mechanical properties :
#
#
# Convention : Reuss Voigt Hill
#
# Bulk Modulus (GPa) = 39.43390 57.53019 48.48204
# Shear Modulus (GPa) = 23.08141 38.01656 30.54898
#
# Velocity S-wave (km/s) = 3.00358 3.85474 3.45547
# Velocity P-wave (km/s) = 5.23848 6.50369 5.90507
#
# Compressibility (1/GPa) = 0.02535889
#
# Stress axis : x y z
#
# Youngs Moduli (GPa) = 100.19627 102.28012 77.82894
#
# Poissons Ratio (x) = 0.00269 0.15105
# Poissons Ratio (y) = 0.00264 0.12893
# Poissons Ratio (z) = 0.19446 0.16943
#
# Static dielectric constant tensor:
#      x y z
#    x 2.044870 0.051550 0.005670 
#    y 0.051550 2.033310 -0.009670 
#    z 0.005670 -0.009670 1.955370 
# 
# From -- ./inp_files/314997.got.cif
#   From: 2010.05.17/outbox.cif.g08.bks.cpg/sg2_158_cif.got.tgz:314997.got - 2010.06.03 11:33:40.
