data_PCOD9019744
_publ_section_title
;
Structure prediction by ZEFSAII (Michael W. Deem and Ramdas Pophale) SiO2 
 PCOD9019744
Probable space group: P -1
;
_chemical_formula_sum "Si O2"
_cell_formula_units_Z 15
_cell_length_a 8.246831
_cell_length_b 13.132685
_cell_length_c 16.320462
_cell_angle_alpha 26.128935
_cell_angle_beta 105.035885
_cell_angle_gamma 113.974190
_cell_volume 686.442083
_symmetry_space_group_name_H-M "P -1"
_symmetry_group_IT_number 2
_symmetry_cell_setting 'triclinic'
loop_
_space_group_symop_operation_xyz
x,y,z
-x,-y,-z
loop_
_atom_site_type_symbol
_atom_site_label
_atom_site_fract_x
_atom_site_fract_y
_atom_site_fract_z
Si Si1 0.649816 0.455164 0.107124
Si Si2 0.664916 0.965610 0.379400
Si Si3 0.000000 0.000000 0.000000
Si Si4 0.242052 0.467766 0.267941
Si Si5 0.371919 0.288303 0.928453
Si Si6 0.289412 0.773842 0.385301
Si Si7 0.950725 0.323670 0.041004
Si Si8 0.106559 0.525085 0.385769
O O1 0.597641 0.474570 0.179701
O O2 0.658598 0.194574 0.267249
O O3 0.500000 0.500000 0.000000
O O4 0.855452 0.674768 0.962187
O O5 0.761994 0.807639 0.551650
O O6 0.458233 0.786658 0.453797
O O7 0.784079 0.075985 0.232099
O O8 0.187778 0.218811 0.904112
O O9 0.082967 0.786884 0.183303
O O10 0.451807 0.659523 0.141582
O O11 0.186089 0.472462 0.350692
O O12 0.118583 0.551458 0.131127
O O13 0.352099 0.056599 0.153593
O O14 0.239257 0.575391 0.446079
O O15 0.093727 0.690467 0.464807
O O16 0.000000 0.500000 0.000000
#
# Coordination Sequence:
#
# PCOD9019744 Si02
#       8
#     2   2   1   2   2   2   2   2
#     4  11  22  42  71  98 135 193 230 288 349 424
#     4  11  24  42  71 101 144 186 237 294 355 422
#     4  10  22  42  66  98 136 184 228 294 342 424
#     4  12  25  44  69 110 141 185 236 299 354 426
#     4  11  22  42  68  98 145 180 242 289 353 415
#     4  10  21  45  67  99 139 190 236 289 352 426
#     4  10  23  44  65 100 142 178 234 293 355 415
#     4  10  24  42  69 103 141 185 242 290 354 425
#
# _framework density 21.851806
#
# number of rings (size 3 to 8) (size 9 to 14) (size 15 to 20)
#    0.000    1.333    2.667    2.400    1.867    5.333 
#    4.800    1.333    0.000    0.000    0.000    0.000 
#    0.000    0.000    0.000    0.000    0.000    0.000 
#
# Total GULP energy -83575.774661 kJ/mol
# GULP energy per Si atom -5571.718311 kJ/mol
# Density = 2.180207 g / cm^3
# Si number density = 21.851806 Si / 1000 Ang^3
#
#
#
# Elastic Constant Matrix: (Units=GPa)
#
#
# Indices 1 2 3 4 5 6 
#
# 1 101.0880 68.3096 34.8131 13.0796 -15.2084 9.3808
# 2 68.3096 103.5342 17.8856 10.6445 -22.2425 12.2127
# 3 34.8131 17.8856 83.4740 -10.3400 -3.8312 -12.7646
# 4 13.0796 10.6445 -10.3400 22.0957 -4.8331 -3.3660
# 5 -15.2084 -22.2425 -3.8312 -4.8331 35.6489 11.2688
# 6 9.3808 12.2127 -12.7646 -3.3660 11.2688 42.3187
#
#
#
# Elastic Compliance Matrix: (Units=1/GPa)
#
#
# Indices 1 2 3 4 5 6 
#
# 1 0.023725 -0.011149 -0.010175 -0.013965 0.002342 -0.006845
# 2 -0.011149 0.020025 -0.000406 -0.002123 0.009329 -0.006083
# 3 -0.010175 -0.000406 0.019784 0.016302 -0.003607 0.010597
# 4 -0.013965 -0.002123 0.016302 0.064035 -0.001294 0.014063
# 5 0.002342 0.009329 -0.003607 -0.001294 0.038981 -0.014782
# 6 -0.006845 -0.006083 0.010597 0.014063 -0.014782 0.035154
#
#
# Mechanical properties :
#
#
# Convention : Reuss Voigt Hill
#
# Bulk Modulus (GPa) = 49.81399 58.90142 54.35770
# Shear Modulus (GPa) = 19.85274 31.15185 25.50230
#
# Velocity S-wave (km/s) = 3.01743 3.77980 3.41993
# Velocity P-wave (km/s) = 5.91487 6.78695 6.36586
#
# Compressibility (1/GPa) = 0.02007468
#
# Stress axis : x y z
#
# Youngs Moduli (GPa) = 42.15024 49.93853 50.54485
#
# Poissons Ratio (x) = 0.55677 0.51427
# Poissons Ratio (y) = 0.46993 0.02051
# Poissons Ratio (z) = 0.42886 0.02027
#
# Static dielectric constant tensor:
#      x y z
#    x 1.857620 -0.000370 0.008290 
#    y -0.000370 1.803560 0.001540 
#    z 0.008290 0.001540 1.882510 
# 
# From -- ./inp_files/499747.got.cif
#   From: 2010.05.17/outbox.cif.g08.bks.cpg/sg2_250_cif.got.tgz:499747.got - 2010.06.03 11:33:40.
