data_PCOD9019209
_publ_section_title
;
Structure prediction by ZEFSAII (Michael W. Deem and Ramdas Pophale) SiO2 
 PCOD9019209
Probable space group: P -1
;
_chemical_formula_sum "Si O2"
_cell_formula_units_Z 12
_cell_length_a 4.999071
_cell_length_b 13.208516
_cell_length_c 11.384694
_cell_angle_alpha 138.691542
_cell_angle_beta 101.926422
_cell_angle_gamma 88.724849
_cell_volume 475.115422
_symmetry_space_group_name_H-M "P -1"
_symmetry_group_IT_number 2
_symmetry_cell_setting 'triclinic'
loop_
_space_group_symop_operation_xyz
x,y,z
-x,-y,-z
loop_
_atom_site_type_symbol
_atom_site_label
_atom_site_fract_x
_atom_site_fract_y
_atom_site_fract_z
Si Si1 0.235653 0.067792 0.989780
Si Si2 0.380581 0.221049 0.717665
Si Si3 0.177886 0.533684 0.927004
Si Si4 0.314862 0.340285 0.387717
Si Si5 0.138027 0.674383 0.463322
Si Si6 0.012412 0.020159 0.364307
O O1 0.280994 0.247833 0.182569
O O2 0.500000 0.000000 0.000000
O O3 0.098390 0.030011 0.818648
O O4 0.000000 0.000000 0.000000
O O5 0.354054 0.393052 0.814443
O O6 0.335029 0.090379 0.494358
O O7 0.136159 0.124553 0.694925
O O8 0.643389 0.289165 0.887293
O O9 0.973282 0.488179 0.757619
O O10 0.000000 0.500000 0.000000
O O11 0.500000 0.500000 0.500000
O O12 0.536628 0.280384 0.438856
O O13 0.042417 0.334785 0.439395
O O14 0.086584 0.813112 0.494309
#
# Coordination Sequence:
#
# PCOD9019209 Si02
#       6
#     2   2   2   2   2   2
#     4  12  24  45  70 100 138 183 228 284 348 412
#     4   9  22  44  65  98 132 175 232 282 349 407
#     4  10  23  41  68  99 137 177 230 285 359 415
#     4  12  26  46  68 103 140 186 236 283 355 415
#     4  11  25  44  70  99 142 182 226 299 344 417
#     4  10  21  44  69  95 133 180 229 286 342 413
#
# _framework density 25.257024000000001
#
# number of rings (size 3 to 8) (size 9 to 14) (size 15 to 20)
#    0.000    1.333    3.333    0.500    9.333    0.000 
#    6.000    2.500    0.000    0.000    0.000    0.000 
#    0.000    0.000    0.000    0.000    0.000    0.000 
#
# Total GULP energy -66849.829992 kJ/mol
# GULP energy per Si atom -5570.819166 kJ/mol
# Density = 2.519954 g / cm^3
# Si number density = 25.257024 Si / 1000 Ang^3
#
#
#
# Elastic Constant Matrix: (Units=GPa)
#
#
# Indices 1 2 3 4 5 6 
#
# 1 91.1927 12.2879 26.0373 -10.8637 10.2286 12.7627
# 2 12.2879 105.8111 35.7162 1.4257 -1.7964 1.0141
# 3 26.0373 35.7162 289.6043 -11.5505 43.5988 14.9386
# 4 -10.8637 1.4257 -11.5505 55.8243 3.1849 11.7760
# 5 10.2286 -1.7964 43.5988 3.1849 24.4661 -2.0432
# 6 12.7627 1.0141 14.9386 11.7760 -2.0432 37.5522
#
#
#
# Elastic Compliance Matrix: (Units=1/GPa)
#
#
# Indices 1 2 3 4 5 6 
#
# 1 0.013466 -0.001996 0.000856 0.004772 -0.008494 -0.006822
# 2 -0.001996 0.010535 -0.002210 -0.001920 0.005980 0.002201
# 3 0.000856 -0.002210 0.005681 0.002894 -0.011355 -0.004016
# 4 0.004772 -0.001920 0.002894 0.022297 -0.011057 -0.010315
# 5 -0.008494 0.005980 -0.011355 -0.011057 0.067740 0.014395
# 6 -0.006822 0.002201 -0.004016 -0.010315 0.014395 0.034505
#
#
# Mechanical properties :
#
#
# Convention : Reuss Voigt Hill
#
# Bulk Modulus (GPa) = 43.51200 70.52120 57.01660
# Shear Modulus (GPa) = 29.65889 51.07295 40.36592
#
# Velocity S-wave (km/s) = 3.43050 4.50169 4.00209
# Velocity P-wave (km/s) = 5.74075 7.41635 6.63168
#
# Compressibility (1/GPa) = 0.02298217
#
# Stress axis : x y z
#
# Youngs Moduli (GPa) = 74.25968 94.92185 176.03520
#
# Poissons Ratio (x) = 0.18947 -0.15075
# Poissons Ratio (y) = 0.14822 0.38908
# Poissons Ratio (z) = -0.06360 0.20980
#
# Static dielectric constant tensor:
#      x y z
#    x 1.159180 0.555720 0.011610 
#    y 0.555720 1.520130 -0.087720 
#    z 0.011610 -0.087720 1.959600 
# 
# From -- ./inp_files/35960.got.cif
#   From: 2010.05.17/outbox.cif.g08.bks.cpg/sg2_18_cif.got.tgz:35960.got - 2010.06.03 11:33:40.
