data_PCOD9019778
_publ_section_title
;
Structure prediction by ZEFSAII (Michael W. Deem and Ramdas Pophale) SiO2 
 PCOD9019778
Probable space group: P -1
;
_chemical_formula_sum "Si O2"
_cell_formula_units_Z 14
_cell_length_a 8.247149
_cell_length_b 10.544596
_cell_length_c 9.938210
_cell_angle_alpha 45.102600
_cell_angle_beta 106.512923
_cell_angle_gamma 105.019123
_cell_volume 584.780642
_symmetry_space_group_name_H-M "P -1"
_symmetry_group_IT_number 2
_symmetry_cell_setting 'triclinic'
loop_
_space_group_symop_operation_xyz
x,y,z
-x,-y,-z
loop_
_atom_site_type_symbol
_atom_site_label
_atom_site_fract_x
_atom_site_fract_y
_atom_site_fract_z
Si Si1 0.698257 0.930286 0.968381
Si Si2 0.977458 0.077447 0.111023
Si Si3 0.464702 0.182688 0.564997
Si Si4 0.334579 0.452363 0.651050
Si Si5 0.883170 0.734910 0.467794
Si Si6 0.397741 0.641205 0.788445
Si Si7 0.073931 0.690610 0.819291
O O1 0.576444 0.034970 0.766336
O O2 0.800874 0.068262 0.993323
O O3 0.612690 0.750908 0.156327
O O4 0.855262 0.855712 0.980299
O O5 0.998291 0.868276 0.301022
O O6 0.030075 0.828008 0.819757
O O7 0.529720 0.384507 0.480127
O O8 0.274708 0.161033 0.590973
O O9 0.489207 0.213208 0.385814
O O10 0.190694 0.426146 0.523785
O O11 0.289585 0.530202 0.729152
O O12 0.981572 0.700119 0.649514
O O13 0.272342 0.716163 0.810080
O O14 0.500000 0.500000 0.000000
O O15 0.000000 0.500000 0.000000
#
# Coordination Sequence:
#
# PCOD9019778 Si02
#       7
#     2   2   2   2   2   2   2
#     4  10  21  45  68  96 125 173 216 267 327 375
#     4  10  24  42  65  95 133 160 221 272 316 397
#     4  10  23  40  69  93 128 172 217 263 320 387
#     4   9  23  41  69  91 133 166 223 266 310 393
#     4  11  23  43  62  98 129 169 218 267 323 380
#     4  10  23  42  62  95 131 169 217 261 319 387
#     4  12  25  39  65  94 131 173 209 271 327 377
#
# _framework density 23.9406
#
# number of rings (size 3 to 8) (size 9 to 14) (size 15 to 20)
#    0.857    0.857    0.000    3.429    2.000    5.143 
#    0.000    2.143    0.000    0.000    0.000    0.000 
#    0.000    0.000    0.000    0.000    0.000    0.000 
#
# Total GULP energy -78148.730307 kJ/mol
# GULP energy per Si atom -5582.052165 kJ/mol
# Density = 2.388611 g / cm^3
# Si number density = 23.940600 Si / 1000 Ang^3
#
#
#
# Elastic Constant Matrix: (Units=GPa)
#
#
# Indices 1 2 3 4 5 6 
#
# 1 63.0088 14.6614 34.9372 3.5027 -6.2924 -8.0058
# 2 14.6614 85.5148 13.1536 16.2600 0.3951 -0.5735
# 3 34.9372 13.1536 137.4781 11.6027 1.8103 2.3176
# 4 3.5027 16.2600 11.6027 43.4640 8.9003 -15.9752
# 5 -6.2924 0.3951 1.8103 8.9003 37.4905 -3.9605
# 6 -8.0058 -0.5735 2.3176 -15.9752 -3.9605 26.1676
#
#
#
# Elastic Compliance Matrix: (Units=1/GPa)
#
#
# Indices 1 2 3 4 5 6 
#
# 1 0.021231 -0.003472 -0.005613 0.003911 0.003989 0.009908
# 2 -0.003472 0.013487 0.000231 -0.006662 0.000338 -0.004803
# 3 -0.005613 0.000231 0.009082 -0.003648 -0.001035 -0.004900
# 4 0.003911 -0.006662 -0.003648 0.035367 -0.005150 0.022186
# 5 0.003989 0.000338 -0.001035 -0.005150 0.028881 0.002547
# 6 0.009908 -0.004803 -0.004900 0.022186 0.002547 0.055505
#
#
# Mechanical properties :
#
#
# Convention : Reuss Voigt Hill
#
# Bulk Modulus (GPa) = 38.32733 45.72289 42.02511
# Shear Modulus (GPa) = 26.32154 36.30772 31.31463
#
# Velocity S-wave (km/s) = 3.31940 3.89855 3.62057
# Velocity P-wave (km/s) = 5.54394 6.27733 5.92200
#
# Compressibility (1/GPa) = 0.02609104
#
# Stress axis : x y z
#
# Youngs Moduli (GPa) = 47.10138 74.14767 110.10483
#
# Poissons Ratio (x) = 0.25746 0.61800
# Poissons Ratio (y) = 0.16355 -0.02541
# Poissons Ratio (z) = 0.26437 -0.01711
#
# Static dielectric constant tensor:
#      x y z
#    x 1.932470 0.016150 0.003890 
#    y 0.016150 1.860170 -0.014460 
#    z 0.003890 -0.014460 1.908300 
# 
# From -- ./inp_files/395299.got.cif
#   From: 2010.05.17/outbox.cif.g08.bks.cpg/sg2_198_cif.got.tgz:395299.got - 2010.06.03 11:33:40.
