data_PCOD9019093
_publ_section_title
;
Structure prediction by ZEFSAII (Michael W. Deem and Ramdas Pophale) SiO2 
 PCOD9019093
Probable space group: P -1
;
_chemical_formula_sum "Si O2"
_cell_formula_units_Z 14
_cell_length_a 8.810005
_cell_length_b 21.431245
_cell_length_c 8.668869
_cell_angle_alpha 35.460673
_cell_angle_beta 119.438894
_cell_angle_gamma 131.509666
_cell_volume 706.659094
_symmetry_space_group_name_H-M "P -1"
_symmetry_group_IT_number 2
_symmetry_cell_setting 'triclinic'
loop_
_space_group_symop_operation_xyz
x,y,z
-x,-y,-z
loop_
_atom_site_type_symbol
_atom_site_label
_atom_site_fract_x
_atom_site_fract_y
_atom_site_fract_z
Si Si1 0.998402 0.807965 0.081820
Si Si2 0.061201 0.257940 0.172911
Si Si3 0.813215 0.369192 0.971783
Si Si4 0.545415 0.668714 0.614954
Si Si5 0.901427 0.938806 0.237082
Si Si6 0.162930 0.651070 0.615546
Si Si7 0.555032 0.628231 0.353039
O O1 0.790187 0.730444 0.232427
O O2 0.148431 0.762491 0.306143
O O3 0.945720 0.770185 0.953729
O O4 0.086816 0.953980 0.864083
O O5 0.293960 0.346941 0.170174
O O6 0.989854 0.129098 0.491812
O O7 0.926342 0.316552 0.031931
O O8 0.807648 0.329011 0.226778
O O9 0.593188 0.328822 0.877697
O O10 0.951395 0.521169 0.737810
O O11 0.672372 0.820247 0.342526
O O12 0.341415 0.634862 0.668311
O O13 0.515191 0.607020 0.557753
O O14 0.000000 0.000000 0.000000
O O15 0.500000 0.500000 0.500000
#
# Coordination Sequence:
#
# PCOD9019093 Si02
#       7
#     2   2   2   2   2   2   2
#     4  12  22  43  68  93 135 165 220 259 323 375
#     4  10  24  41  66  96 125 175 207 269 312 386
#     4  11  24  42  63  94 136 165 219 258 326 375
#     4  10  24  42  65  97 125 170 216 255 331 366
#     4  10  21  44  68  91 131 170 213 265 316 380
#     4  11  24  41  66  96 128 175 209 270 313 386
#     4  12  24  40  66  99 125 175 209 267 320 386
#
# _framework density 19.811533000000001
#
# number of rings (size 3 to 8) (size 9 to 14) (size 15 to 20)
#    0.857    0.286    2.857    3.857    4.000    2.286 
#    0.000    0.714    0.000    0.000    0.000    0.000 
#    0.000    0.000    0.000    0.000    0.000    0.000 
#
# Total GULP energy -78235.073817 kJ/mol
# GULP energy per Si atom -5588.219558 kJ/mol
# Density = 1.976644 g / cm^3
# Si number density = 19.811533 Si / 1000 Ang^3
#
#
#
# Elastic Constant Matrix: (Units=GPa)
#
#
# Indices 1 2 3 4 5 6 
#
# 1 86.6290 20.6255 -8.6594 11.7009 14.9327 -1.7674
# 2 20.6255 81.6523 4.8182 3.7818 14.3010 -23.8883
# 3 -8.6594 4.8182 51.1683 4.0442 18.3684 3.6652
# 4 11.7009 3.7818 4.0442 26.0106 -0.2195 -1.9496
# 5 14.9327 14.3010 18.3684 -0.2195 41.3524 1.6375
# 6 -1.7674 -23.8883 3.6652 -1.9496 1.6375 31.8366
#
#
#
# Elastic Compliance Matrix: (Units=1/GPa)
#
#
# Indices 1 2 3 4 5 6 
#
# 1 0.015120 -0.003335 0.006150 -0.007518 -0.006981 -0.002472
# 2 -0.003335 0.018077 -0.001494 0.000098 -0.004930 0.013810
# 3 0.006150 -0.001494 0.026303 -0.007018 -0.013284 -0.003554
# 4 -0.007518 0.000098 -0.007018 0.043165 0.005916 0.002803
# 5 -0.006981 -0.004930 -0.013284 0.005916 0.034498 -0.003970
# 6 -0.002472 0.013810 -0.003554 0.002803 -0.003970 0.042420
#
#
# Mechanical properties :
#
#
# Convention : Reuss Voigt Hill
#
# Bulk Modulus (GPa) = 16.09179 28.11313 22.10246
# Shear Modulus (GPa) = 25.29673 33.35095 29.32384
#
# Velocity S-wave (km/s) = 3.57721 4.10739 3.85143
# Velocity P-wave (km/s) = 5.02015 6.05932 5.56405
#
# Compressibility (1/GPa) = 0.06214350
#
# Stress axis : x y z
#
# Youngs Moduli (GPa) = 66.13545 55.31922 38.01869
#
# Poissons Ratio (x) = 0.18448 -0.23382
# Poissons Ratio (y) = 0.22055 0.05679
# Poissons Ratio (z) = -0.40674 0.08263
#
# Static dielectric constant tensor:
#      x y z
#    x 1.655300 0.008290 -0.005690 
#    y 0.008290 1.681850 -0.014160 
#    z -0.005690 -0.014160 1.700730 
# 
# From -- ./inp_files/169262.got.cif
#   From: 2010.05.17/outbox.cif.g08.bks.cpg/sg2_85_cif.got.tgz:169262.got - 2010.06.03 11:33:40.
