data_PCOD9019237
_publ_section_title
;
Structure prediction by ZEFSAII (Michael W. Deem and Ramdas Pophale) SiO2 
 PCOD9019237
Probable space group: P -1
;
_chemical_formula_sum "Si O2"
_cell_formula_units_Z 14
_cell_length_a 12.919767
_cell_length_b 9.236021
_cell_length_c 12.460050
_cell_angle_alpha 127.326092
_cell_angle_beta 46.230981
_cell_angle_gamma 146.700316
_cell_volume 587.982766
_symmetry_space_group_name_H-M "P -1"
_symmetry_group_IT_number 2
_symmetry_cell_setting 'triclinic'
loop_
_space_group_symop_operation_xyz
x,y,z
-x,-y,-z
loop_
_atom_site_type_symbol
_atom_site_label
_atom_site_fract_x
_atom_site_fract_y
_atom_site_fract_z
Si Si1 0.639040 0.450720 0.905286
Si Si2 0.992954 0.122210 0.728076
Si Si3 0.371200 0.972679 0.318701
Si Si4 0.471455 0.188229 0.117902
Si Si5 0.522961 0.813231 0.428997
Si Si6 0.065494 0.009578 0.837899
Si Si7 0.935591 0.693128 0.462002
O O1 0.557098 0.174442 0.802353
O O2 0.868192 0.700981 0.806750
O O3 0.500000 0.500000 0.000000
O O4 0.636961 0.431153 0.028678
O O5 0.080411 0.336974 0.670157
O O6 0.750236 0.949713 0.829904
O O7 0.021773 0.958374 0.571201
O O8 0.076534 0.174462 0.811413
O O9 0.119264 0.725206 0.376863
O O10 0.453909 0.177476 0.254157
O O11 0.430966 0.134730 0.454709
O O12 0.500000 0.000000 0.000000
O O13 0.300763 0.527727 0.429354
O O14 0.500000 0.000000 0.500000
O O15 0.718238 0.896970 0.273461
O O16 0.000000 0.000000 0.000000
#
# Coordination Sequence:
#
# PCOD9019237 Si02
#       7
#     2   2   2   2   2   2   2
#     4  11  23  41  70  95 141 189 219 286 354 415
#     4  10  21  44  69  99 136 183 234 289 351 413
#     4  10  23  46  70 103 136 182 241 285 351 422
#     4   9  20  39  69  98 129 183 233 274 355 420
#     4  12  28  43  70 105 138 185 238 291 351 414
#     4  12  28  41  61 107 143 179 234 284 349 423
#     4  10  23  45  73  99 137 179 235 301 346 403
#
# _framework density 23.810220999999999
#
# number of rings (size 3 to 8) (size 9 to 14) (size 15 to 20)
#    0.000    1.429    2.857    0.857    6.000    2.857 
#    0.000    0.000    0.000    8.571    0.000    0.000 
#    0.000    0.000    0.000    0.000    0.000    0.000 
#
# Total GULP energy -78148.328579 kJ/mol
# GULP energy per Si atom -5582.023470 kJ/mol
# Density = 2.375603 g / cm^3
# Si number density = 23.810221 Si / 1000 Ang^3
#
#
#
# Elastic Constant Matrix: (Units=GPa)
#
#
# Indices 1 2 3 4 5 6 
#
# 1 120.5102 4.1750 44.5068 3.8865 7.1551 -12.2951
# 2 4.1750 48.7170 -0.5040 -14.3346 -4.3475 6.8606
# 3 44.5068 -0.5040 119.4650 -4.0766 7.0624 1.3494
# 4 3.8865 -14.3346 -4.0766 36.5206 1.8223 -4.7426
# 5 7.1551 -4.3475 7.0624 1.8223 45.7508 7.7950
# 6 -12.2951 6.8606 1.3494 -4.7426 7.7950 15.8711
#
#
#
# Elastic Compliance Matrix: (Units=1/GPa)
#
#
# Indices 1 2 3 4 5 6 
#
# 1 0.011464 -0.003411 -0.004261 -0.001300 -0.003457 0.012027
# 2 -0.003411 0.025713 0.001549 0.008623 0.004716 -0.013629
# 3 -0.004261 0.001549 0.010073 0.001631 -0.000073 -0.004304
# 4 -0.001300 0.008623 0.001631 0.031850 -0.001406 0.005335
# 5 -0.003457 0.004716 -0.000073 -0.001406 0.025960 -0.017881
# 6 0.012027 -0.013629 -0.004304 0.005335 -0.017881 0.088959
#
#
# Mechanical properties :
#
#
# Convention : Reuss Voigt Hill
#
# Bulk Modulus (GPa) = 28.56954 42.78309 35.67631
# Shear Modulus (GPa) = 22.94273 35.66278 29.30275
#
# Velocity S-wave (km/s) = 3.10750 3.87433 3.51191
# Velocity P-wave (km/s) = 4.99002 6.16614 5.60900
#
# Compressibility (1/GPa) = 0.03500231
#
# Stress axis : x y z
#
# Youngs Moduli (GPa) = 87.22733 38.89145 99.27227
#
# Poissons Ratio (x) = 0.13268 0.42303
# Poissons Ratio (y) = 0.29757 -0.15375
# Poissons Ratio (z) = 0.37170 -0.06023
#
# Static dielectric constant tensor:
#      x y z
#    x 2.032300 -0.055160 0.080990 
#    y -0.055160 1.957110 -0.054600 
#    z 0.080990 -0.054600 1.955720 
# 
# From -- ./inp_files/419708.got.cif
#   From: 2010.05.17/outbox.cif.g08.bks.cpg/sg2_210_cif.got.tgz:419708.got - 2010.06.03 11:33:40.
