data_PCOD9019769
_publ_section_title
;
Structure prediction by ZEFSAII (Michael W. Deem and Ramdas Pophale) SiO2 
 PCOD9019769
Probable space group: P -1
;
_chemical_formula_sum "Si O2"
_cell_formula_units_Z 12
_cell_length_a 10.082586
_cell_length_b 9.454384
_cell_length_c 12.681389
_cell_angle_alpha 31.621796
_cell_angle_beta 115.848797
_cell_angle_gamma 127.624406
_cell_volume 491.658803
_symmetry_space_group_name_H-M "P -1"
_symmetry_group_IT_number 2
_symmetry_cell_setting 'triclinic'
loop_
_space_group_symop_operation_xyz
x,y,z
-x,-y,-z
loop_
_atom_site_type_symbol
_atom_site_label
_atom_site_fract_x
_atom_site_fract_y
_atom_site_fract_z
Si Si1 0.234271 0.319218 0.461523
Si Si2 0.557391 0.937822 0.376383
Si Si3 0.062165 0.347498 0.205336
Si Si4 0.663122 0.553724 0.911566
Si Si5 0.697582 0.517377 0.178331
Si Si6 0.827818 0.516233 0.433991
O O1 0.408837 0.338243 0.472085
O O2 0.191633 0.341990 0.552952
O O3 0.174555 0.512301 0.244057
O O4 0.107430 0.954275 0.623746
O O5 0.360315 0.800000 0.428340
O O6 0.674198 0.180108 0.354224
O O7 0.601469 0.182864 0.139020
O O8 0.189785 0.277817 0.228016
O O9 0.000000 0.500000 0.000000
O O10 0.736176 0.683506 0.971706
O O11 0.493106 0.551786 0.822831
O O12 0.816971 0.670025 0.222407
O O13 0.000000 0.500000 0.500000
#
# Coordination Sequence:
#
# PCOD9019769 Si02
#       6
#     2   2   2   2   2   2
#     4  11  26  41  70  97 137 173 222 272 334 393
#     4  10  21  45  68  92 131 183 222 259 330 402
#     4  11  22  43  68  99 129 177 227 273 322 397
#     4   9  20  39  73  94 125 180 231 264 316 406
#     4   9  21  42  68  94 132 177 221 266 333 395
#     4  12  27  40  63 103 139 167 217 285 336 385
#
# _framework density 24.407171000000002
#
# number of rings (size 3 to 8) (size 9 to 14) (size 15 to 20)
#    1.000    0.667    1.667    2.000    9.333    0.000 
#    3.000    3.333    0.000    0.000    0.000    0.000 
#    0.000    0.000    0.000    0.000    0.000    0.000 
#
# Total GULP energy -66841.410137 kJ/mol
# GULP energy per Si atom -5570.117511 kJ/mol
# Density = 2.435162 g / cm^3
# Si number density = 24.407171 Si / 1000 Ang^3
#
#
#
# Elastic Constant Matrix: (Units=GPa)
#
#
# Indices 1 2 3 4 5 6 
#
# 1 162.1338 63.5374 7.9694 28.5427 -3.4642 1.1674
# 2 63.5374 108.7702 25.9235 53.2896 9.7542 -12.9107
# 3 7.9694 25.9235 57.5989 32.3644 2.3408 -0.8449
# 4 28.5427 53.2896 32.3644 42.9713 7.1892 -9.4867
# 5 -3.4642 9.7542 2.3408 7.1892 38.2951 -3.6086
# 6 1.1674 -12.9107 -0.8449 -9.4867 -3.6086 35.2930
#
#
#
# Elastic Compliance Matrix: (Units=1/GPa)
#
#
# Indices 1 2 3 4 5 6 
#
# 1 0.008381 -0.004995 0.001897 -0.001644 0.002007 -0.002296
# 2 -0.004995 0.030355 0.010858 -0.042342 -0.000893 0.000057
# 3 0.001897 0.010858 0.037094 -0.044671 0.002873 -0.006916
# 4 -0.001644 -0.042342 -0.044671 0.114674 -0.006878 0.013616
# 5 0.002007 -0.000893 0.002873 -0.006878 0.027700 0.000659
# 6 -0.002296 0.000057 -0.006916 0.013616 0.000659 0.031993
#
#
# Mechanical properties :
#
#
# Convention : Reuss Voigt Hill
#
# Bulk Modulus (GPa) = 10.94689 58.15151 34.54920
# Shear Modulus (GPa) = 18.85900 38.71671 28.78785
#
# Velocity S-wave (km/s) = 2.78273 3.98714 3.43809
# Velocity P-wave (km/s) = 3.84963 6.71369 5.47235
#
# Compressibility (1/GPa) = 0.09135016
#
# Stress axis : x y z
#
# Youngs Moduli (GPa) = 119.32313 32.94367 26.95847
#
# Poissons Ratio (x) = 0.16454 -0.05113
# Poissons Ratio (y) = 0.59598 -0.29272
# Poissons Ratio (z) = -0.22633 -0.35771
#
# Static dielectric constant tensor:
#      x y z
#    x 1.942430 0.002830 0.033900 
#    y 0.002830 2.085430 0.078190 
#    z 0.033900 0.078190 2.032900 
# 
# From -- ./inp_files/559601.got.cif
#   From: 2010.05.17/outbox.cif.g08.bks.cpg/sg2_280_cif.got.tgz:559601.got - 2010.06.03 11:33:40.
