data_PCOD9019138
_publ_section_title
;
Structure prediction by ZEFSAII (Michael W. Deem and Ramdas Pophale) SiO2 
 PCOD9019138
Probable space group: P -1
;
_chemical_formula_sum "Si O2"
_cell_formula_units_Z 14
_cell_length_a 9.266662
_cell_length_b 8.164232
_cell_length_c 16.299731
_cell_angle_alpha 65.865949
_cell_angle_beta 141.428629
_cell_angle_gamma 95.026117
_cell_volume 640.647780
_symmetry_space_group_name_H-M "P -1"
_symmetry_group_IT_number 2
_symmetry_cell_setting 'triclinic'
loop_
_space_group_symop_operation_xyz
x,y,z
-x,-y,-z
loop_
_atom_site_type_symbol
_atom_site_label
_atom_site_fract_x
_atom_site_fract_y
_atom_site_fract_z
Si Si1 0.871632 0.267151 0.168489
Si Si2 0.231208 0.235468 0.186177
Si Si3 0.947803 0.479983 0.574928
Si Si4 0.693687 0.831290 0.507679
Si Si5 0.028113 0.189138 0.937560
Si Si6 0.557195 0.571994 0.633711
Si Si7 0.321320 0.299854 0.919772
O O1 0.787969 0.488319 0.123641
O O2 0.001457 0.255066 0.140663
O O3 0.094071 0.125213 0.356259
O O4 0.621808 0.226365 0.064215
O O5 0.365229 0.367656 0.256827
O O6 0.450106 0.017577 0.334937
O O7 0.133194 0.274960 0.042414
O O8 0.831583 0.694457 0.521315
O O9 0.727575 0.402891 0.501459
O O10 0.000000 0.500000 0.500000
O O11 0.191301 0.348233 0.763319
O O12 0.611724 0.703836 0.562256
O O13 0.755502 0.347848 0.754768
O O14 0.221034 0.161282 0.954507
O O15 0.000000 0.000000 0.000000
#
# Coordination Sequence:
#
# PCOD9019138 Si02
#       7
#     2   2   2   2   2   2   2
#     4   9  19  40  71  95 130 169 226 273 339 381
#     4  11  23  40  71  99 128 172 235 270 330 397
#     4  11  24  40  68  98 132 175 223 271 342 396
#     4  10  21  44  68  98 129 176 223 281 328 392
#     4  12  25  41  64 102 139 178 220 272 328 403
#     4  11  22  42  68  94 132 179 226 271 329 394
#     4  10  22  41  64 101 135 174 214 282 336 387
#
# _framework density 21.852881
#
# number of rings (size 3 to 8) (size 9 to 14) (size 15 to 20)
#    0.000    1.429    4.286    3.429    4.000    2.286 
#    0.000    7.857    0.000    0.000    0.000    0.000 
#    0.000    0.000    0.000    0.000    0.000    0.000 
#
# Total GULP energy -78345.155334 kJ/mol
# GULP energy per Si atom -5596.082524 kJ/mol
# Density = 2.180314 g / cm^3
# Si number density = 21.852881 Si / 1000 Ang^3
#
#
#
# Elastic Constant Matrix: (Units=GPa)
#
#
# Indices 1 2 3 4 5 6 
#
# 1 118.8956 21.0212 70.9112 27.4589 -0.3865 6.7129
# 2 21.0212 47.3354 30.6332 6.6192 1.9440 11.8203
# 3 70.9112 30.6332 133.4018 12.6217 -0.8055 10.8048
# 4 27.4589 6.6192 12.6217 36.1770 -3.3317 -0.2759
# 5 -0.3865 1.9440 -0.8055 -3.3317 35.1173 10.9128
# 6 6.7129 11.8203 10.8048 -0.2759 10.9128 30.1136
#
#
#
# Elastic Compliance Matrix: (Units=1/GPa)
#
#
# Indices 1 2 3 4 5 6 
#
# 1 0.014572 -0.000797 -0.006721 -0.008633 -0.000655 -0.000366
# 2 -0.000797 0.027223 -0.004828 -0.002673 0.000963 -0.009149
# 3 -0.006721 -0.004828 0.012116 0.001844 0.001056 -0.001320
# 4 -0.008633 -0.002673 0.001844 0.034315 0.002856 0.001591
# 5 -0.000655 0.000963 0.001056 0.002856 0.032559 -0.012384
# 6 -0.000366 -0.009149 -0.001320 0.001591 -0.012384 0.041856
#
#
# Mechanical properties :
#
#
# Convention : Reuss Voigt Hill
#
# Bulk Modulus (GPa) = 34.22226 60.52932 47.37579
# Shear Modulus (GPa) = 25.37135 32.08606 28.72871
#
# Velocity S-wave (km/s) = 3.41105 3.83597 3.62973
# Velocity P-wave (km/s) = 5.58641 6.88318 6.26842
#
# Compressibility (1/GPa) = 0.02922075
#
# Stress axis : x y z
#
# Youngs Moduli (GPa) = 68.62380 36.73361 82.53565
#
# Poissons Ratio (x) = 0.02926 0.55469
# Poissons Ratio (y) = 0.05467 0.39849
# Poissons Ratio (z) = 0.46119 0.17735
#
# Static dielectric constant tensor:
#      x y z
#    x 1.759400 -0.023300 0.007470 
#    y -0.023300 1.869630 0.013470 
#    z 0.007470 0.013470 1.765520 
# 
# From -- ./inp_files/158840.got.cif
#   From: 2010.05.17/outbox.cif.g08.bks.cpg/sg2_80_cif.got.tgz:158840.got - 2010.06.03 11:33:40.
