data_PCOD9019798
_publ_section_title
;
Structure prediction by ZEFSAII (Michael W. Deem and Ramdas Pophale) SiO2 
 PCOD9019798
Probable space group: P -1
;
_chemical_formula_sum "Si O2"
_cell_formula_units_Z 16
_cell_length_a 8.274235
_cell_length_b 9.062396
_cell_length_c 11.659176
_cell_angle_alpha 79.954224
_cell_angle_beta 125.324234
_cell_angle_gamma 84.587850
_cell_volume 681.321071
_symmetry_space_group_name_H-M "P -1"
_symmetry_group_IT_number 2
_symmetry_cell_setting 'triclinic'
loop_
_space_group_symop_operation_xyz
x,y,z
-x,-y,-z
loop_
_atom_site_type_symbol
_atom_site_label
_atom_site_fract_x
_atom_site_fract_y
_atom_site_fract_z
Si Si1 0.095063 0.139375 0.550737
Si Si2 0.418604 0.471904 0.347552
Si Si3 0.719789 0.970123 0.814711
Si Si4 0.149818 0.730853 0.083502
Si Si5 0.614755 0.048818 0.147982
Si Si6 0.723669 0.821504 0.612597
Si Si7 0.806104 0.455479 0.362720
Si Si8 0.801989 0.339882 0.140059
O O1 0.264521 0.157163 0.522705
O O2 0.894259 0.275051 0.443632
O O3 0.202108 0.097647 0.722293
O O4 0.000000 0.000000 0.500000
O O5 0.500000 0.500000 0.500000
O O6 0.203156 0.594011 0.217015
O O7 0.398401 0.296256 0.369525
O O8 0.590761 0.507705 0.329307
O O9 0.536470 0.924280 0.810699
O O10 0.691482 0.967371 0.665454
O O11 0.739305 0.135707 0.848385
O O12 0.922214 0.836656 0.951596
O O13 0.227013 0.636536 0.010731
O O14 0.689974 0.203074 0.137937
O O15 0.500000 0.000000 0.000000
O O16 0.959118 0.734576 0.739178
O O17 0.764523 0.471279 0.205780
O O18 0.000000 0.500000 0.500000
#
# Coordination Sequence:
#
# PCOD9019798 Si02
#       8
#     2   2   2   2   2   2   2   2
#     4  11  24  46  73  98 141 188 235 305 350 415
#     4  12  27  45  66 100 143 193 235 281 353 435
#     4  10  23  42  72 104 132 175 237 295 355 407
#     4  10  24  46  68  97 142 180 229 292 353 419
#     4  12  23  39  71 105 137 178 234 293 360 409
#     4  10  23  43  68  99 140 176 241 285 355 422
#     4  11  25  45  70 103 140 183 245 283 352 424
#     4  10  21  45  68  99 136 178 234 296 343 424
#
# _framework density 23.483788000000001
#
# number of rings (size 3 to 8) (size 9 to 14) (size 15 to 20)
#    0.000    1.250    3.750    2.250    3.500    5.000 
#    0.000    3.750    0.000    0.000    0.000    0.000 
#    0.000    0.000    0.000    0.000    0.000    0.000 
#
# Total GULP energy -89242.300825 kJ/mol
# GULP energy per Si atom -5577.643802 kJ/mol
# Density = 2.343034 g / cm^3
# Si number density = 23.483788 Si / 1000 Ang^3
#
#
#
# Elastic Constant Matrix: (Units=GPa)
#
#
# Indices 1 2 3 4 5 6 
#
# 1 60.0378 -3.8779 -10.1809 11.6466 4.0912 2.2887
# 2 -3.8779 71.1283 21.2417 14.3306 1.3598 4.6931
# 3 -10.1809 21.2417 137.0077 10.3695 -3.0229 -3.0351
# 4 11.6466 14.3306 10.3695 44.1086 -4.3306 1.7706
# 5 4.0912 1.3598 -3.0229 -4.3306 22.9453 5.2386
# 6 2.2887 4.6931 -3.0351 1.7706 5.2386 33.7550
#
#
#
# Elastic Compliance Matrix: (Units=1/GPa)
#
#
# Indices 1 2 3 4 5 6 
#
# 1 0.018557 0.001955 0.001447 -0.006284 -0.004329 -0.000398
# 2 0.001955 0.016021 -0.002021 -0.005379 -0.002139 -0.001928
# 3 0.001447 -0.002021 0.007868 -0.001573 0.000393 0.000912
# 4 -0.006284 -0.005379 -0.001573 0.027162 0.006685 -0.001430
# 5 -0.004329 -0.002139 0.000393 0.006685 0.047411 -0.007082
# 6 -0.000398 -0.001928 0.000912 -0.001430 -0.007082 0.031176
#
#
# Mechanical properties :
#
#
# Convention : Reuss Voigt Hill
#
# Bulk Modulus (GPa) = 22.12059 31.39329 26.75694
# Shear Modulus (GPa) = 31.15205 37.56118 34.35662
#
# Velocity S-wave (km/s) = 3.64611 4.00365 3.82906
# Velocity P-wave (km/s) = 5.21205 5.89656 5.56484
#
# Compressibility (1/GPa) = 0.04520674
#
# Stress axis : x y z
#
# Youngs Moduli (GPa) = 53.88781 62.41758 127.10138
#
# Poissons Ratio (x) = -0.12201 -0.18394
# Poissons Ratio (y) = -0.10533 0.25693
# Poissons Ratio (z) = -0.07799 0.12618
#
# Static dielectric constant tensor:
#      x y z
#    x 1.909350 0.001960 -0.050810 
#    y 0.001960 1.946260 -0.024840 
#    z -0.050810 -0.024840 1.974330 
# 
# From -- ./inp_files/378876.got.cif
#   From: 2010.05.17/outbox.cif.g08.bks.cpg/sg2_190_cif.got.tgz:378876.got - 2010.06.03 11:33:40.
