data_PCOD9019230
_publ_section_title
;
Structure prediction by ZEFSAII (Michael W. Deem and Ramdas Pophale) SiO2 
 PCOD9019230
Probable space group: P -1
;
_chemical_formula_sum "Si O2"
_cell_formula_units_Z 16
_cell_length_a 11.000637
_cell_length_b 11.390377
_cell_length_c 11.810855
_cell_angle_alpha 131.790344
_cell_angle_beta 34.686841
_cell_angle_gamma 123.993273
_cell_volume 627.723647
_symmetry_space_group_name_H-M "P -1"
_symmetry_group_IT_number 2
_symmetry_cell_setting 'triclinic'
loop_
_space_group_symop_operation_xyz
x,y,z
-x,-y,-z
loop_
_atom_site_type_symbol
_atom_site_label
_atom_site_fract_x
_atom_site_fract_y
_atom_site_fract_z
Si Si1 0.901692 0.321749 0.943184
Si Si2 0.164729 0.726492 0.303807
Si Si3 0.418015 0.129440 0.823715
Si Si4 0.541446 0.824257 0.807132
Si Si5 0.577237 0.267968 0.578162
Si Si6 0.002256 0.852845 0.734182
Si Si7 0.194148 0.411167 0.391242
Si Si8 0.688642 0.832844 0.455581
O O1 0.869427 0.274659 0.804542
O O2 0.076331 0.207028 0.787844
O O3 0.670625 0.270772 0.133545
O O4 0.000000 0.500000 0.000000
O O5 0.415346 0.754856 0.158896
O O6 0.060170 0.854789 0.555527
O O7 0.019437 0.577031 0.360090
O O8 0.399282 0.211433 0.769070
O O9 0.563102 0.978269 0.596181
O O10 0.203111 0.062416 0.005898
O O11 0.658263 0.709433 0.730107
O O12 0.685866 0.848375 0.601480
O O13 0.500000 0.000000 0.000000
O O14 0.677277 0.435378 0.642578
O O15 0.469191 0.300332 0.561401
O O16 0.781640 0.154831 0.364636
O O17 0.891822 0.678095 0.710844
#
# Coordination Sequence:
#
# PCOD9019230 Si02
#       8
#     2   2   2   2   2   2   2   2
#     4  12  27  45  71 106 140 184 230 282 354 418
#     4   9  22  42  71  97 139 168 228 287 334 401
#     4  11  24  44  70 100 132 184 233 275 339 411
#     4  12  27  45  75 105 137 184 231 285 349 412
#     4  11  25  43  65  97 143 181 225 282 337 404
#     4   9  21  41  68  97 128 178 224 278 333 395
#     4  10  21  44  69  98 134 175 225 288 336 393
#     4  12  27  44  68 100 147 178 223 290 342 412
#
# _framework density 25.488921999999999
#
# number of rings (size 3 to 8) (size 9 to 14) (size 15 to 20)
#    0.750    0.500    1.250    3.750    3.500    5.000 
#    2.250    0.000    0.000    0.000    0.000    0.000 
#    0.000    0.000    0.000    0.000    0.000    0.000 
#
# Total GULP energy -89147.907791 kJ/mol
# GULP energy per Si atom -5571.744237 kJ/mol
# Density = 2.543091 g / cm^3
# Si number density = 25.488922 Si / 1000 Ang^3
#
#
#
# Elastic Constant Matrix: (Units=GPa)
#
#
# Indices 1 2 3 4 5 6 
#
# 1 127.4183 2.5852 46.6974 -4.8136 -10.0654 4.0839
# 2 2.5852 72.8790 15.9819 -5.0382 -10.3562 -0.7677
# 3 46.6974 15.9819 80.6529 -26.1811 -7.7286 2.4880
# 4 -4.8136 -5.0382 -26.1811 28.1407 8.6808 -2.5476
# 5 -10.0654 -10.3562 -7.7286 8.6808 39.3537 -3.5063
# 6 4.0839 -0.7677 2.4880 -2.5476 -3.5063 42.8782
#
#
#
# Elastic Compliance Matrix: (Units=1/GPa)
#
#
# Indices 1 2 3 4 5 6 
#
# 1 0.010933 0.001419 -0.008501 -0.006750 0.002928 -0.000684
# 2 0.001419 0.015003 -0.004100 -0.002072 0.004014 0.000577
# 3 -0.008501 -0.004100 0.024980 0.022066 -0.003185 0.000337
# 4 -0.006750 -0.002072 0.022066 0.057968 -0.010555 0.001906
# 5 0.002928 0.004014 -0.003185 -0.010555 0.029073 0.001728
# 6 -0.000684 0.000577 0.000337 0.001906 0.001728 0.023632
#
#
# Mechanical properties :
#
#
# Convention : Reuss Voigt Hill
#
# Bulk Modulus (GPa) = 35.02311 45.71993 40.37152
# Shear Modulus (GPa) = 25.84361 36.45357 31.14859
#
# Velocity S-wave (km/s) = 3.18766 3.78587 3.49957
# Velocity P-wave (km/s) = 5.22672 6.08987 5.67473
#
# Compressibility (1/GPa) = 0.02855258
#
# Stress axis : x y z
#
# Youngs Moduli (GPa) = 91.46616 66.65138 40.03154
#
# Poissons Ratio (x) = -0.09455 0.34029
# Poissons Ratio (y) = -0.12975 0.16413
# Poissons Ratio (z) = 0.77752 0.27327
#
# Static dielectric constant tensor:
#      x y z
#    x 2.121280 0.126330 -0.062090 
#    y 0.126330 2.189900 -0.005140 
#    z -0.062090 -0.005140 2.197430 
# 
# From -- ./inp_files/426616.got.cif
#   From: 2010.05.17/outbox.cif.g08.bks.cpg/sg2_214_cif.got.tgz:426616.got - 2010.06.03 11:33:40.
