data_PCOD9019971
_publ_section_title
;
Structure prediction by ZEFSAII (Michael W. Deem and Ramdas Pophale) SiO2 
 PCOD9019971
Probable space group: P -1
;
_chemical_formula_sum "Si O2"
_cell_formula_units_Z 15
_cell_length_a 4.975772
_cell_length_b 13.423894
_cell_length_c 12.187070
_cell_angle_alpha 133.655926
_cell_angle_beta 80.636511
_cell_angle_gamma 80.078345
_cell_volume 532.915409
_symmetry_space_group_name_H-M "P -1"
_symmetry_group_IT_number 2
_symmetry_cell_setting 'triclinic'
loop_
_space_group_symop_operation_xyz
x,y,z
-x,-y,-z
loop_
_atom_site_type_symbol
_atom_site_label
_atom_site_fract_x
_atom_site_fract_y
_atom_site_fract_z
Si Si1 0.160469 0.079153 0.119530
Si Si2 0.727004 0.628668 0.470775
Si Si3 0.977291 0.014040 0.707373
Si Si4 0.005138 0.237554 0.615538
Si Si5 0.529442 0.455153 0.169556
Si Si6 0.667902 0.796046 0.203682
Si Si7 0.500000 0.500000 0.000000
Si Si8 0.716639 0.654220 0.727003
O O1 0.088396 0.249297 0.220285
O O2 0.093686 0.055468 0.230250
O O3 0.500000 0.000000 0.000000
O O4 0.000000 0.000000 0.000000
O O5 0.779976 0.748298 0.482998
O O6 0.611966 0.535058 0.326064
O O7 0.565008 0.676764 0.634463
O O8 0.059143 0.517197 0.399281
O O9 0.674333 0.100640 0.726794
O O10 0.155328 0.116090 0.806095
O O11 0.137481 0.872000 0.506802
O O12 0.200419 0.193188 0.676570
O O13 0.733155 0.405599 0.776638
O O14 0.743725 0.415856 0.023237
O O15 0.471466 0.321907 0.130935
O O16 0.637754 0.635779 0.077439
#
# Coordination Sequence:
#
# PCOD9019971 Si02
#       8
#     2   2   2   2   2   2   1   2
#     4  12  29  49  73 110 155 201 247 303 372 454
#     4  10  21  45  74 106 139 188 253 314 375 425
#     4  12  28  49  80 109 151 198 254 311 378 446
#     4  11  24  47  73 111 143 189 255 315 374 438
#     4  11  25  43  75 108 147 199 244 311 378 448
#     4  12  28  49  77 111 148 202 246 311 379 451
#     4  12  28  48  72 106 158 194 250 300 374 462
#     4  10  24  44  72 107 143 193 251 312 367 443
#
# _framework density 28.147055000000002
#
# number of rings (size 3 to 8) (size 9 to 14) (size 15 to 20)
#    0.000    0.800    2.667    2.800    7.467    3.200 
#    0.000    0.000    0.000    0.000    0.000    0.000 
#    0.000    0.000    0.000    0.000    0.000    0.000 
#
# Total GULP energy -83778.518778 kJ/mol
# GULP energy per Si atom -5585.234585 kJ/mol
# Density = 2.808299 g / cm^3
# Si number density = 28.147055 Si / 1000 Ang^3
#
#
#
# Elastic Constant Matrix: (Units=GPa)
#
#
# Indices 1 2 3 4 5 6 
#
# 1 140.9617 30.8588 33.8224 0.3263 28.9229 32.2010
# 2 30.8588 179.5674 54.2926 -34.5938 11.1174 51.8112
# 3 33.8224 54.2926 131.1556 1.4831 33.2409 18.3761
# 4 0.3263 -34.5938 1.4831 64.8978 4.7372 5.3995
# 5 28.9229 11.1174 33.2409 4.7372 40.5075 5.1416
# 6 32.2010 51.8112 18.3761 5.3995 5.1416 56.4154
#
#
#
# Elastic Compliance Matrix: (Units=1/GPa)
#
#
# Indices 1 2 3 4 5 6 
#
# 1 0.009555 0.000702 -0.000453 0.001240 -0.006089 -0.005515
# 2 0.000702 0.010404 -0.003146 0.006429 -0.000318 -0.009517
# 3 -0.000453 -0.003146 0.010950 -0.001399 -0.007688 0.000416
# 4 0.001240 0.006429 -0.001399 0.019715 -0.002819 -0.007787
# 5 -0.006089 -0.000318 -0.007688 -0.002819 0.035339 0.003321
# 6 -0.005515 -0.009517 0.000416 -0.007787 0.003321 0.029921
#
#
# Mechanical properties :
#
#
# Convention : Reuss Voigt Hill
#
# Bulk Modulus (GPa) = 39.81799 76.62582 58.22191
# Shear Modulus (GPa) = 38.44688 54.54487 46.49587
#
# Velocity S-wave (km/s) = 3.69986 4.40688 4.06876
# Velocity P-wave (km/s) = 5.69465 7.29223 6.54239
#
# Compressibility (1/GPa) = 0.02511427
#
# Stress axis : x y z
#
# Youngs Moduli (GPa) = 104.65347 96.11814 91.32627
#
# Poissons Ratio (x) = -0.06746 0.04136
# Poissons Ratio (y) = -0.07345 0.28734
# Poissons Ratio (z) = 0.04739 0.30242
#
# Static dielectric constant tensor:
#      x y z
#    x 2.533900 0.201120 -0.633410 
#    y 0.201120 2.361470 -0.399780 
#    z -0.633410 -0.399780 3.403240 
# 
# From -- ./inp_files/365415.got.cif
#   From: 2010.05.17/outbox.cif.g08.bks.cpg/sg2_183_cif.got.tgz:365415.got - 2010.06.03 11:33:40.
