data_PCOD9019466
_publ_section_title
;
Structure prediction by ZEFSAII (Michael W. Deem and Ramdas Pophale) SiO2 
 PCOD9019466
Probable space group: P -1
;
_chemical_formula_sum "Si O2"
_cell_formula_units_Z 16
_cell_length_a 23.657946
_cell_length_b 24.165483
_cell_length_c 5.257450
_cell_angle_alpha 87.255865
_cell_angle_beta 88.830590
_cell_angle_gamma 11.942524
_cell_volume 616.159869
_symmetry_space_group_name_H-M "P -1"
_symmetry_group_IT_number 2
_symmetry_cell_setting 'triclinic'
loop_
_space_group_symop_operation_xyz
x,y,z
-x,-y,-z
loop_
_atom_site_type_symbol
_atom_site_label
_atom_site_fract_x
_atom_site_fract_y
_atom_site_fract_z
Si Si1 0.171225 0.218677 0.379010
Si Si2 0.233625 0.731051 0.619068
Si Si3 0.565797 0.133807 0.834664
Si Si4 0.599428 0.520493 0.997470
Si Si5 0.202333 0.427275 0.178823
Si Si6 0.114585 0.655199 0.704579
Si Si7 0.714080 0.776750 0.815560
Si Si8 0.930630 0.926034 0.356931
O O1 0.258882 0.199319 0.393876
O O2 0.006304 0.360226 0.617760
O O3 0.395557 0.958386 0.321497
O O4 0.973395 0.407948 0.104693
O O5 0.500000 0.500000 0.500000
O O6 0.403187 0.538729 0.878149
O O7 0.025869 0.876753 0.577276
O O8 0.000000 0.000000 0.500000
O O9 0.332783 0.397883 0.681931
O O10 0.446911 0.232790 0.102820
O O11 0.872867 0.865581 0.867733
O O12 0.686023 0.487373 0.182543
O O13 0.824788 0.302927 0.809744
O O14 0.329405 0.800212 0.819309
O O15 0.326625 0.247240 0.261457
O O16 0.933869 0.859710 0.462680
O O17 0.000000 0.500000 0.000000
O O18 0.500000 0.000000 0.000000
#
# Coordination Sequence:
#
# PCOD9019466 Si02
#       8
#     2   2   2   2   2   2   2   2
#     4  11  25  48  73 109 150 197 249 317 395 482
#     4  11  24  41  68 108 152 190 240 311 366 445
#     4  12  24  48  70 105 144 193 248 327 390 467
#     4  11  24  45  71 102 142 197 251 304 373 455
#     4  11  25  48  73 109 150 197 249 317 395 482
#     4  11  26  48  70 102 144 191 256 317 386 445
#     4  10  21  44  72 107 147 195 246 306 386 484
#     4  11  24  45  71 102 142 197 251 304 373 455
#
# _framework density 25.967288
#
# number of rings (size 3 to 8) (size 9 to 14) (size 15 to 20)
#    0.000    1.000    2.500    3.375    0.000    9.000 
#    9.000    2.500    0.000    0.000    0.000    0.000 
#    0.000    0.000    0.000    0.125    0.000    0.000 
#
# Total GULP energy -89339.675939 kJ/mol
# GULP energy per Si atom -5583.729746 kJ/mol
# Density = 2.590818 g / cm^3
# Si number density = 25.967288 Si / 1000 Ang^3
#
#
#
# Elastic Constant Matrix: (Units=GPa)
#
#
# Indices 1 2 3 4 5 6 
#
# 1 146.3997 58.1973 46.7163 -6.5433 -28.0827 26.1277
# 2 58.1973 247.0786 62.5320 -7.3175 -33.9161 31.0066
# 3 46.7163 62.5320 126.7959 15.2079 -29.8534 21.0000
# 4 -6.5433 -7.3175 15.2079 59.7071 -1.4100 -4.6820
# 5 -28.0827 -33.9161 -29.8534 -1.4100 50.0464 -0.3701
# 6 26.1277 31.0066 21.0000 -4.6820 -0.3701 70.1722
#
#
#
# Elastic Compliance Matrix: (Units=1/GPa)
#
#
# Indices 1 2 3 4 5 6 
#
# 1 0.008848 -0.000843 -0.001835 0.001234 0.003317 -0.002273
# 2 -0.000843 0.005140 -0.001612 0.000887 0.002063 -0.001405
# 3 -0.001835 -0.001612 0.011148 -0.003302 0.004419 -0.002138
# 4 0.001234 0.000887 -0.003302 0.017934 -0.000161 0.001333
# 5 0.003317 0.002063 0.004419 -0.000161 0.025848 -0.003344
# 6 -0.002273 -0.001405 -0.002138 0.001333 -0.003344 0.016429
#
#
# Mechanical properties :
#
#
# Convention : Reuss Voigt Hill
#
# Bulk Modulus (GPa) = 60.39806 95.01839 77.70823
# Shear Modulus (GPa) = 50.27900 59.50703 54.89302
#
# Velocity S-wave (km/s) = 4.40505 4.79228 4.60274
# Velocity P-wave (km/s) = 7.01302 8.20318 7.63134
#
# Compressibility (1/GPa) = 0.01655682
#
# Stress axis : x y z
#
# Youngs Moduli (GPa) = 113.01607 194.57070 89.69978
#
# Poissons Ratio (x) = 0.16393 0.16459
# Poissons Ratio (y) = 0.09522 0.14461
# Poissons Ratio (z) = 0.20738 0.31368
#
# Static dielectric constant tensor:
#      x y z
#    x 2.055750 0.011480 -0.024800 
#    y 0.011480 2.033890 -0.132210 
#    z -0.024800 -0.132210 2.154620 
# 
# From -- ./inp_files/127749.got.cif
#   From: 2010.05.17/outbox.cif.g08.bks.cpg/sg2_64_cif.got.tgz:127749.got - 2010.06.03 11:33:40.
