data_PCOD9019588
_publ_section_title
;
Structure prediction by ZEFSAII (Michael W. Deem and Ramdas Pophale) SiO2 
 PCOD9019588
Probable space group: P -1
;
_chemical_formula_sum "Si O2"
_cell_formula_units_Z 16
_cell_length_a 10.208126
_cell_length_b 7.332348
_cell_length_c 14.641843
_cell_angle_alpha 132.527589
_cell_angle_beta 63.910690
_cell_angle_gamma 100.449758
_cell_volume 714.154065
_symmetry_space_group_name_H-M "P -1"
_symmetry_group_IT_number 2
_symmetry_cell_setting 'triclinic'
loop_
_space_group_symop_operation_xyz
x,y,z
-x,-y,-z
loop_
_atom_site_type_symbol
_atom_site_label
_atom_site_fract_x
_atom_site_fract_y
_atom_site_fract_z
Si Si1 0.554280 0.748008 0.844015
Si Si2 0.803501 0.416726 0.775983
Si Si3 0.524026 0.135017 0.445001
Si Si4 0.685285 0.406015 0.249524
Si Si5 0.171681 0.938308 0.760986
Si Si6 0.990468 0.718086 0.946903
Si Si7 0.674578 0.930861 0.679500
Si Si8 0.045669 0.465673 0.579667
O O1 0.669052 0.573284 0.813376
O O2 0.414423 0.624845 0.817020
O O3 0.624896 0.821010 0.751926
O O4 0.500000 0.000000 0.000000
O O5 0.871676 0.585687 0.885724
O O6 0.748623 0.176265 0.753766
O O7 0.930532 0.350462 0.637732
O O8 0.423138 0.407645 0.586948
O O9 0.701072 0.100939 0.367674
O O10 0.500000 0.000000 0.500000
O O11 0.455384 0.019867 0.338970
O O12 0.729859 0.154931 0.211039
O O13 0.846822 0.447316 0.178603
O O14 0.066254 0.735376 0.704396
O O15 0.071307 0.204274 0.906201
O O16 0.000000 0.000000 0.000000
O O17 0.798706 0.717322 0.526150
O O18 0.000000 0.500000 0.500000
#
# Coordination Sequence:
#
# PCOD9019588 Si02
#       8
#     2   2   2   2   2   2   2   2
#     4  12  26  44  71 102 143 190 238 289 356 427
#     4  12  25  45  71 104 143 184 235 293 360 424
#     4  12  25  43  67 102 139 183 239 297 351 421
#     4  11  21  43  72  95 131 182 236 284 349 412
#     4  11  22  43  74  94 132 187 237 283 354 417
#     4  10  21  44  75  95 131 185 234 285 349 418
#     4  12  26  45  70 106 145 182 230 304 358 420
#     4  12  24  42  74 102 139 188 237 289 363 428
#
# _framework density 22.404132000000001
#
# number of rings (size 3 to 8) (size 9 to 14) (size 15 to 20)
#    0.000    0.500    6.250    3.750    1.750    0.500 
#    2.250    0.625    0.000    0.000    0.000    0.000 
#    0.000    0.000    0.000    0.000    0.000    0.000 
#
# Total GULP energy -89396.941641 kJ/mol
# GULP energy per Si atom -5587.308853 kJ/mol
# Density = 2.235314 g / cm^3
# Si number density = 22.404132 Si / 1000 Ang^3
#
#
#
# Elastic Constant Matrix: (Units=GPa)
#
#
# Indices 1 2 3 4 5 6 
#
# 1 115.0801 12.7511 22.5904 0.4794 22.9176 9.8482
# 2 12.7511 45.8899 3.3403 2.2676 -4.7930 5.6093
# 3 22.5904 3.3403 106.3275 -4.7513 -0.3410 5.3579
# 4 0.4794 2.2676 -4.7513 18.4595 19.6475 0.0185
# 5 22.9176 -4.7930 -0.3410 19.6475 42.2386 2.9486
# 6 9.8482 5.6093 5.3579 0.0185 2.9486 20.1288
#
#
#
# Elastic Compliance Matrix: (Units=1/GPa)
#
#
# Indices 1 2 3 4 5 6 
#
# 1 0.012615 -0.005372 -0.001772 0.015192 -0.014388 -0.002110
# 2 -0.005372 0.026786 -0.000183 -0.019909 0.015707 -0.007070
# 3 -0.001772 -0.000183 0.010000 0.002830 -0.000175 -0.001721
# 4 0.015192 -0.019909 0.002830 0.136068 -0.074339 0.008127
# 5 -0.014388 0.015707 -0.000175 -0.074339 0.068347 -0.007235
# 6 -0.002110 -0.007070 -0.001721 0.008127 -0.007235 0.054193
#
#
# Mechanical properties :
#
#
# Convention : Reuss Voigt Hill
#
# Bulk Modulus (GPa) = 28.78045 38.29568 33.53806
# Shear Modulus (GPa) = 14.95905 31.40641 23.18273
#
# Velocity S-wave (km/s) = 2.58678 3.74814 3.22025
# Velocity P-wave (km/s) = 4.66860 5.98846 5.36924
#
# Compressibility (1/GPa) = 0.03474581
#
# Stress axis : x y z
#
# Youngs Moduli (GPa) = 79.26841 37.33323 100.00162
#
# Poissons Ratio (x) = 0.20055 0.17725
# Poissons Ratio (y) = 0.42583 0.01832
# Poissons Ratio (z) = 0.14050 0.00684
#
# Static dielectric constant tensor:
#      x y z
#    x 1.890480 -0.033490 -0.055290 
#    y -0.033490 1.867620 -0.000960 
#    z -0.055290 -0.000960 1.849250 
# 
# From -- ./inp_files/557645.got.cif
#   From: 2010.05.17/outbox.cif.g08.bks.cpg/sg2_279_cif.got.tgz:557645.got - 2010.06.03 11:33:40.
