data_PCOD9019659
_publ_section_title
;
Structure prediction by ZEFSAII (Michael W. Deem and Ramdas Pophale) SiO2 
 PCOD9019659
Probable space group: P -1
;
_chemical_formula_sum "Si O2"
_cell_formula_units_Z 16
_cell_length_a 20.744473
_cell_length_b 7.099084
_cell_length_c 8.913473
_cell_angle_alpha 107.129266
_cell_angle_beta 126.811418
_cell_angle_gamma 44.553559
_cell_volume 716.516046
_symmetry_space_group_name_H-M "P -1"
_symmetry_group_IT_number 2
_symmetry_cell_setting 'triclinic'
loop_
_space_group_symop_operation_xyz
x,y,z
-x,-y,-z
loop_
_atom_site_type_symbol
_atom_site_label
_atom_site_fract_x
_atom_site_fract_y
_atom_site_fract_z
Si Si1 0.262542 0.993119 0.149151
Si Si2 0.104858 0.593732 0.927186
Si Si3 0.555618 0.864477 0.795962
Si Si4 0.674154 0.216018 0.346292
Si Si5 0.756271 0.667852 0.214744
Si Si6 0.153979 0.919925 0.235006
Si Si7 0.646379 0.475049 0.069800
Si Si8 0.485109 0.300016 0.580616
O O1 0.383787 0.890623 0.317378
O O2 0.207912 0.992561 0.219810
O O3 0.289624 0.770186 0.018734
O O4 0.172757 0.297807 0.026420
O O5 0.129603 0.542580 0.770969
O O6 0.973129 0.810241 0.832180
O O7 0.149524 0.721243 0.092805
O O8 0.576387 0.674854 0.646491
O O9 0.474441 0.156408 0.666279
O O10 0.662080 0.812118 0.983812
O O11 0.541287 0.761933 0.904567
O O12 0.625182 0.375927 0.158011
O O13 0.573622 0.404738 0.370282
O O14 0.732987 0.905703 0.328375
O O15 0.766872 0.208694 0.538816
O O16 0.727216 0.521349 0.232509
#
# Coordination Sequence:
#
# PCOD9019659 Si02
#       8
#     2   2   2   2   2   2   2   2
#     4  12  22  44  72  97 130 179 222 272 334 395
#     4  11  22  48  73  96 130 176 217 287 334 384
#     4   9  21  43  63  96 133 187 210 272 326 394
#     4  12  25  43  64 105 135 175 221 271 321 408
#     4  10  21  45  65  94 140 174 213 268 339 388
#     4  11  27  43  73 101 129 166 238 276 325 393
#     4  10  22  42  64  91 140 176 213 262 334 395
#     4  11  23  40  71  99 135 172 229 271 321 393
#
# _framework density 22.330276000000001
#
# number of rings (size 3 to 8) (size 9 to 14) (size 15 to 20)
#    0.750    0.500    3.750    1.875    1.750    6.000 
#    2.250    0.625    0.000    0.000    0.000    0.000 
#    0.000    0.000    0.000    0.000    0.000    0.000 
#
# Total GULP energy -89346.510523 kJ/mol
# GULP energy per Si atom -5584.156908 kJ/mol
# Density = 2.227945 g / cm^3
# Si number density = 22.330276 Si / 1000 Ang^3
#
#
#
# Elastic Constant Matrix: (Units=GPa)
#
#
# Indices 1 2 3 4 5 6 
#
# 1 60.4489 35.5840 17.2310 -6.4858 17.3837 4.5133
# 2 35.5840 126.7102 20.6782 17.1897 9.9741 -4.7412
# 3 17.2310 20.6782 51.8908 -3.8058 9.0420 -4.8863
# 4 -6.4858 17.1897 -3.8058 39.4570 3.4483 -1.6444
# 5 17.3837 9.9741 9.0420 3.4483 18.9384 -8.4664
# 6 4.5133 -4.7412 -4.8863 -1.6444 -8.4664 34.6657
#
#
#
# Elastic Compliance Matrix: (Units=1/GPa)
#
#
# Indices 1 2 3 4 5 6 
#
# 1 0.034462 -0.008676 -0.002481 0.011616 -0.034172 -0.013818
# 2 -0.008676 0.011410 -0.002938 -0.007078 0.006189 0.003452
# 3 -0.002481 -0.002938 0.022929 0.003771 -0.007094 0.001599
# 4 0.011616 -0.007078 0.003771 0.031961 -0.016556 -0.004476
# 5 -0.034172 0.006189 -0.007094 -0.016556 0.099774 0.027878
# 6 -0.013818 0.003452 0.001599 -0.004476 0.027878 0.037940
#
#
# Mechanical properties :
#
#
# Convention : Reuss Voigt Hill
#
# Bulk Modulus (GPa) = 24.62415 42.89291 33.75853
# Shear Modulus (GPa) = 17.84413 29.64934 23.74673
#
# Velocity S-wave (km/s) = 2.82990 3.64780 3.26457
# Velocity P-wave (km/s) = 4.66144 6.08211 5.41854
#
# Compressibility (1/GPa) = 0.04061053
#
# Stress axis : x y z
#
# Youngs Moduli (GPa) = 29.01712 87.64099 43.61224
#
# Poissons Ratio (x) = 0.76039 0.10821
# Poissons Ratio (y) = 0.25176 0.12815
# Poissons Ratio (z) = 0.07200 0.25752
#
# Static dielectric constant tensor:
#      x y z
#    x 1.854120 0.008300 -0.009050 
#    y 0.008300 1.837290 0.016430 
#    z -0.009050 0.016430 1.822660 
# 
# From -- ./inp_files/356499.got.cif
#   From: 2010.05.17/outbox.cif.g08.bks.cpg/sg2_179_cif.got.tgz:356499.got - 2010.06.03 11:33:40.
