data_PCOD9019610
_publ_section_title
;
Structure prediction by ZEFSAII (Michael W. Deem and Ramdas Pophale) SiO2 
 PCOD9019610
Probable space group: P -1
;
_chemical_formula_sum "Si O2"
_cell_formula_units_Z 14
_cell_length_a 9.802998
_cell_length_b 6.964754
_cell_length_c 18.146070
_cell_angle_alpha 138.962520
_cell_angle_beta 139.285193
_cell_angle_gamma 62.856288
_cell_volume 510.933172
_symmetry_space_group_name_H-M "P -1"
_symmetry_group_IT_number 2
_symmetry_cell_setting 'triclinic'
loop_
_space_group_symop_operation_xyz
x,y,z
-x,-y,-z
loop_
_atom_site_type_symbol
_atom_site_label
_atom_site_fract_x
_atom_site_fract_y
_atom_site_fract_z
Si Si1 0.976928 0.002452 0.393356
Si Si2 0.674158 0.383036 0.143049
Si Si3 0.304936 0.623338 0.544176
Si Si4 0.428647 0.344872 0.666048
Si Si5 0.213641 0.165916 0.237491
Si Si6 0.204474 0.086469 0.851917
Si Si7 0.088404 0.458912 0.122455
O O1 0.602875 0.485344 0.222841
O O2 0.884868 0.208403 0.472469
O O3 0.233048 0.038529 0.504103
O O4 0.916155 0.118071 0.323070
O O5 0.448390 0.241380 0.969465
O O6 0.832167 0.661881 0.247646
O O7 0.775304 0.109602 0.125496
O O8 0.366697 0.500393 0.612132
O O9 0.237217 0.354929 0.378256
O O10 0.538180 0.847971 0.680836
O O11 0.679584 0.359793 0.763931
O O12 0.145747 0.355138 0.196963
O O13 0.042795 0.838884 0.061964
O O14 0.072030 0.330101 0.878217
#
# Coordination Sequence:
#
# PCOD9019610 Si02
#       7
#     2   2   2   2   2   2   2
#     4  12  25  48  79 113 159 203 257 323 386 461
#     4  11  26  49  79 116 152 205 262 318 391 461
#     4  10  21  44  79 119 155 201 264 323 387 462
#     4  11  25  47  75 115 156 207 260 313 387 469
#     4   9  21  44  79 118 156 208 258 321 394 461
#     4  11  26  50  80 116 152 205 259 325 389 456
#     4  10  23  48  76 114 162 204 259 320 385 467
#
# _framework density 27.400845
#
# number of rings (size 3 to 8) (size 9 to 14) (size 15 to 20)
#    0.000    1.429    1.429    2.143    0.000    4.571 
#   10.286    5.000    3.143    0.000    0.000    0.000 
#    0.000    0.000    0.000    0.000    0.000    0.000 
#
# Total GULP energy -78602.724134 kJ/mol
# GULP energy per Si atom -5614.480295 kJ/mol
# Density = 2.733848 g / cm^3
# Si number density = 27.400845 Si / 1000 Ang^3
#
#
#
# Elastic Constant Matrix: (Units=GPa)
#
#
# Indices 1 2 3 4 5 6 
#
# 1 128.5013 53.3605 55.2969 5.9865 17.9371 -11.9242
# 2 53.3605 141.1976 47.6746 -13.2598 27.6957 -16.3058
# 3 55.2969 47.6746 182.6006 -5.9933 35.4381 -10.8329
# 4 5.9865 -13.2598 -5.9933 55.0328 5.6375 0.2449
# 5 17.9371 27.6957 35.4381 5.6375 73.1147 -7.0529
# 6 -11.9242 -16.3058 -10.8329 0.2449 -7.0529 52.3666
#
#
#
# Elastic Compliance Matrix: (Units=1/GPa)
#
#
# Indices 1 2 3 4 5 6 
#
# 1 0.010285 -0.003222 -0.002305 -0.002157 0.000066 0.000881
# 2 -0.003222 0.009527 -0.000840 0.002799 -0.002462 0.001714
# 3 -0.002305 -0.000840 0.006938 0.001062 -0.002532 0.000303
# 4 -0.002157 0.002799 0.001062 0.019454 -0.002530 0.000168
# 5 0.000066 -0.002462 -0.002532 -0.002530 0.016103 0.000905
# 6 0.000881 0.001714 0.000303 0.000168 0.000905 0.020014
#
#
# Mechanical properties :
#
#
# Convention : Reuss Voigt Hill
#
# Bulk Modulus (GPa) = 71.34880 84.99596 78.17238
# Shear Modulus (GPa) = 50.13640 55.83399 52.98519
#
# Velocity S-wave (km/s) = 4.28219 4.51896 4.40216
# Velocity P-wave (km/s) = 7.10949 7.63641 7.37766
#
# Compressibility (1/GPa) = 0.01401565
#
# Stress axis : x y z
#
# Youngs Moduli (GPa) = 97.23037 104.95954 144.13644
#
# Poissons Ratio (x) = 0.33822 0.33217
# Poissons Ratio (y) = 0.31331 0.12112
# Poissons Ratio (z) = 0.22407 0.08820
#
# Static dielectric constant tensor:
#      x y z
#    x 2.161820 0.041660 0.011380 
#    y 0.041660 2.109290 0.000530 
#    z 0.011380 0.000530 2.108330 
# 
# From -- ./inp_files/610128.got.cif
#   From: 2010.05.17/outbox.cif.g08.bks.cpg/sg2_306_cif.got.tgz:610128.got - 2010.06.03 11:33:40.
