data_PCOD9019161
_publ_section_title
;
Structure prediction by ZEFSAII (Michael W. Deem and Ramdas Pophale) SiO2 
 PCOD9019161
Probable space group: P -1
;
_chemical_formula_sum "Si O2"
_cell_formula_units_Z 15
_cell_length_a 18.702125
_cell_length_b 9.019199
_cell_length_c 13.633714
_cell_angle_alpha 148.247781
_cell_angle_beta 34.115305
_cell_angle_gamma 134.134857
_cell_volume 678.533544
_symmetry_space_group_name_H-M "P -1"
_symmetry_group_IT_number 2
_symmetry_cell_setting 'triclinic'
loop_
_space_group_symop_operation_xyz
x,y,z
-x,-y,-z
loop_
_atom_site_type_symbol
_atom_site_label
_atom_site_fract_x
_atom_site_fract_y
_atom_site_fract_z
Si Si1 0.607016 0.259894 0.226861
Si Si2 0.904546 0.729312 0.861200
Si Si3 0.848741 0.343619 0.880264
Si Si4 0.846520 0.197706 0.488124
Si Si5 0.500000 0.000000 0.500000
Si Si6 0.094735 0.197488 0.626217
Si Si7 0.551520 0.183272 0.765917
Si Si8 0.735883 0.269942 0.294639
O O1 0.500000 0.500000 0.500000
O O2 0.696286 0.229742 0.203944
O O3 0.527104 0.977737 0.151430
O O4 0.703051 0.335855 0.074578
O O5 0.875084 0.617884 0.940014
O O6 0.860005 0.479674 0.698029
O O7 0.053900 0.766782 0.692993
O O8 0.827394 0.011269 0.079639
O O9 0.951411 0.311142 0.832480
O O10 0.877513 0.072441 0.626556
O O11 0.701430 0.169043 0.606684
O O12 0.887499 0.928529 0.356334
O O13 0.520903 0.040211 0.616792
O O14 0.610167 0.239713 0.486456
O O15 0.191354 0.437998 0.621493
O O16 0.500000 0.500000 0.000000
#
# Coordination Sequence:
#
# PCOD9019161 Si02
#       8
#     2   2   2   2   1   2   2   2
#     4  11  25  44  64  98 139 180 229 284 344 423
#     4  10  23  41  70 102 138 173 235 297 338 420
#     4  10  24  43  67 101 138 177 231 288 344 418
#     4  10  21  44  69 101 135 183 230 279 358 415
#     4  10  26  42  64 104 140 168 242 280 330 432
#     4  10  23  43  69 100 134 179 228 288 352 412
#     4  11  25  44  73  99 138 192 227 287 353 415
#     4  11  24  43  65  96 135 179 222 293 344 401
#
# _framework density 22.106498999999999
#
# number of rings (size 3 to 8) (size 9 to 14) (size 15 to 20)
#    0.000    1.600    0.000    3.200    7.467    6.933 
#    0.000    2.000    0.000    0.000    0.000    0.000 
#    0.000    0.000    0.000    0.000    0.000    0.000 
#
# Total GULP energy -83684.426081 kJ/mol
# GULP energy per Si atom -5578.961739 kJ/mol
# Density = 2.205618 g / cm^3
# Si number density = 22.106499 Si / 1000 Ang^3
#
#
#
# Elastic Constant Matrix: (Units=GPa)
#
#
# Indices 1 2 3 4 5 6 
#
# 1 91.9830 46.9811 40.3227 -8.2129 -26.2372 4.7162
# 2 46.9811 194.9333 49.6209 -17.0485 -17.9278 -1.0966
# 3 40.3227 49.6209 63.4940 -6.0186 -23.9782 -5.8529
# 4 -8.2129 -17.0485 -6.0186 52.0768 -2.8060 0.4451
# 5 -26.2372 -17.9278 -23.9782 -2.8060 23.9167 1.4758
# 6 4.7162 -1.0966 -5.8529 0.4451 1.4758 40.9285
#
#
#
# Elastic Compliance Matrix: (Units=1/GPa)
#
#
# Indices 1 2 3 4 5 6 
#
# 1 0.018455 -0.001621 -0.005056 0.002605 0.014481 -0.003443
# 2 -0.001621 0.006683 -0.004510 0.001353 -0.001116 -0.000254
# 3 -0.005056 -0.004510 0.031803 0.002606 0.023008 0.004152
# 4 0.002605 0.001353 0.002606 0.020844 0.008958 -0.000441
# 5 0.014481 -0.001116 0.023008 0.008958 0.081067 -0.001429
# 6 -0.003443 -0.000254 0.004152 -0.000441 -0.001429 0.025473
#
#
# Mechanical properties :
#
#
# Convention : Reuss Voigt Hill
#
# Bulk Modulus (GPa) = 28.92771 69.36222 49.14496
# Shear Modulus (GPa) = 22.91259 37.61677 30.26468
#
# Velocity S-wave (km/s) = 3.22291 4.12954 3.70407
# Velocity P-wave (km/s) = 5.19264 7.36084 6.36967
#
# Compressibility (1/GPa) = 0.03456893
#
# Stress axis : x y z
#
# Youngs Moduli (GPa) = 54.18528 149.63596 31.44339
#
# Poissons Ratio (x) = 0.24252 0.15896
# Poissons Ratio (y) = 0.08782 0.14181
# Poissons Ratio (z) = 0.27394 0.67484
#
# Static dielectric constant tensor:
#      x y z
#    x 1.810220 0.026570 0.047300 
#    y 0.026570 1.972290 0.223370 
#    z 0.047300 0.223370 2.194630 
# 
# From -- ./inp_files/540354.got.cif
#   From: 2010.05.17/outbox.cif.g08.bks.cpg/sg2_271_cif.got.tgz:540354.got - 2010.06.03 11:33:40.
