data_PCOD9019030
_publ_section_title
;
Structure prediction by ZEFSAII (Michael W. Deem and Ramdas Pophale) SiO2 
 PCOD9019030
Probable space group: P -1
;
_chemical_formula_sum "Si O2"
_cell_formula_units_Z 16
_cell_length_a 22.823049
_cell_length_b 14.440618
_cell_length_c 6.463222
_cell_angle_alpha 98.667993
_cell_angle_beta 80.501902
_cell_angle_gamma 161.444841
_cell_volume 668.444393
_symmetry_space_group_name_H-M "P -1"
_symmetry_group_IT_number 2
_symmetry_cell_setting 'triclinic'
loop_
_space_group_symop_operation_xyz
x,y,z
-x,-y,-z
loop_
_atom_site_type_symbol
_atom_site_label
_atom_site_fract_x
_atom_site_fract_y
_atom_site_fract_z
Si Si1 0.540463 0.174557 0.311890
Si Si2 0.991168 0.386334 0.695481
Si Si3 0.792410 0.453355 0.588363
Si Si4 0.306318 0.986387 0.579056
Si Si5 0.237316 0.432738 0.046707
Si Si6 0.433891 0.381712 0.729097
Si Si7 0.810680 0.971891 0.915764
Si Si8 0.931896 0.955921 0.721242
O O1 0.712687 0.387604 0.409550
O O2 0.380636 0.859608 0.317183
O O3 0.464571 0.151765 0.468625
O O4 0.585662 0.268277 0.081127
O O5 0.063563 0.410662 0.512877
O O6 0.159799 0.711556 0.716658
O O7 0.817210 0.171245 0.604917
O O8 0.934808 0.247705 0.890924
O O9 0.846767 0.610044 0.779848
O O10 0.392978 0.209077 0.700022
O O11 0.243717 0.355941 0.173390
O O12 0.099923 0.200521 0.865669
O O13 0.500000 0.500000 0.500000
O O14 0.606293 0.684716 0.850672
O O15 0.242222 0.134563 0.854132
O O16 0.884200 0.993747 0.748970
O O17 0.000000 0.000000 0.500000
#
# Coordination Sequence:
#
# PCOD9019030 Si02
#       8
#     2   2   2   2   2   2   2   2
#     4  10  22  41  66  95 133 168 215 269 330 385
#     4  10  21  44  67  96 132 169 221 266 329 389
#     4  10  22  42  66  97 130 171 214 273 323 394
#     4  10  23  41  69  95 130 174 212 275 322 385
#     4  11  23  38  65  93 127 171 221 262 332 392
#     4  11  25  42  65  95 130 173 216 271 325 391
#     4  11  25  42  67  93 129 174 222 265 334 393
#     4  11  26  41  61  96 129 170 220 279 322 388
#
# _framework density 23.936171999999999
#
# number of rings (size 3 to 8) (size 9 to 14) (size 15 to 20)
#    0.000    1.500    1.250    2.625    7.000    1.500 
#    0.000    0.000    0.000    0.000    0.000    0.000 
#    0.000    0.000    0.000    0.000    0.000    0.000 
#
# Total GULP energy -89380.811828 kJ/mol
# GULP energy per Si atom -5586.300739 kJ/mol
# Density = 2.388169 g / cm^3
# Si number density = 23.936172 Si / 1000 Ang^3
#
#
#
# Elastic Constant Matrix: (Units=GPa)
#
#
# Indices 1 2 3 4 5 6 
#
# 1 92.2589 35.5200 13.2081 -10.1636 -6.8962 -20.7010
# 2 35.5200 77.4964 38.0375 -34.2929 12.6658 -25.3016
# 3 13.2081 38.0375 80.0528 -24.0890 -2.6119 -23.0090
# 4 -10.1636 -34.2929 -24.0890 52.0501 -17.5677 9.7285
# 5 -6.8962 12.6658 -2.6119 -17.5677 30.9537 2.2379
# 6 -20.7010 -25.3016 -23.0090 9.7285 2.2379 44.9529
#
#
#
# Elastic Compliance Matrix: (Units=1/GPa)
#
#
# Indices 1 2 3 4 5 6 
#
# 1 0.014801 -0.007851 0.002647 0.000649 0.006865 0.003270
# 2 -0.007851 0.027913 -0.007648 0.008954 -0.009219 0.006702
# 3 0.002647 -0.007648 0.019332 0.006402 0.008623 0.004995
# 4 0.000649 0.008954 0.006402 0.033490 0.015987 0.000572
# 5 0.006865 -0.009219 0.008623 0.015987 0.047658 -0.003446
# 6 0.003270 0.006702 0.004995 0.000572 -0.003446 0.030128
#
#
# Mechanical properties :
#
#
# Convention : Reuss Voigt Hill
#
# Bulk Modulus (GPa) = 27.51484 47.03769 37.27627
# Shear Modulus (GPa) = 23.68106 36.46083 30.07095
#
# Velocity S-wave (km/s) = 3.14879 3.90712 3.54827
# Velocity P-wave (km/s) = 4.97392 6.32836 5.69157
#
# Compressibility (1/GPa) = 0.03634402
#
# Stress axis : x y z
#
# Youngs Moduli (GPa) = 67.56331 35.82584 51.72681
#
# Poissons Ratio (x) = 0.28125 -0.13694
# Poissons Ratio (y) = 0.53041 0.39560
# Poissons Ratio (z) = -0.17886 0.27399
#
# Static dielectric constant tensor:
#      x y z
#    x 1.912190 -0.024860 0.045230 
#    y -0.024860 1.944740 -0.052310 
#    z 0.045230 -0.052310 2.048530 
# 
# From -- ./inp_files/124271.got.cif
#   From: 2010.05.17/outbox.cif.g08.bks.cpg/sg2_63_cif.got.tgz:124271.got - 2010.06.03 11:33:40.
