data_PCOD9019628
_publ_section_title
;
Structure prediction by ZEFSAII (Michael W. Deem and Ramdas Pophale) SiO2 
 PCOD9019628
Probable space group: P -1
;
_chemical_formula_sum "Si O2"
_cell_formula_units_Z 13
_cell_length_a 22.676122
_cell_length_b 8.202623
_cell_length_c 11.845705
_cell_angle_alpha 127.618141
_cell_angle_beta 30.145349
_cell_angle_gamma 147.471814
_cell_volume 534.420198
_symmetry_space_group_name_H-M "P -1"
_symmetry_group_IT_number 2
_symmetry_cell_setting 'triclinic'
loop_
_space_group_symop_operation_xyz
x,y,z
-x,-y,-z
loop_
_atom_site_type_symbol
_atom_site_label
_atom_site_fract_x
_atom_site_fract_y
_atom_site_fract_z
Si Si1 0.137746 0.310634 0.747528
Si Si2 0.674154 0.597631 0.717971
Si Si3 0.500000 0.500000 0.500000
Si Si4 0.205663 0.080469 0.008288
Si Si5 0.898545 0.253638 0.718085
Si Si6 0.195728 0.452190 0.957168
Si Si7 0.709039 0.371477 0.781749
O O1 0.322201 0.495453 0.449952
O O2 0.189049 0.499505 0.855670
O O3 0.990123 0.215580 0.866039
O O4 0.011415 0.938915 0.839523
O O5 0.703434 0.464062 0.705844
O O6 0.847714 0.000851 0.609943
O O7 0.500000 0.500000 0.000000
O O8 0.356719 0.504018 0.731288
O O9 0.381594 0.264506 0.713355
O O10 0.238013 0.364188 0.112427
O O11 0.172675 0.923819 0.116501
O O12 0.129495 0.581510 0.470634
O O13 0.793731 0.321889 0.895901
O O14 0.500000 0.000000 0.000000
#
# Coordination Sequence:
#
# PCOD9019628 Si02
#       7
#     2   2   1   2   2   2   2
#     4  10  21  45  63  96 137 183 223 278 352 394
#     4  11  24  42  68  99 142 185 223 284 342 411
#     4  10  24  44  64  94 136 180 228 276 346 406
#     4  10  21  45  68  94 142 181 221 289 344 406
#     4  11  23  46  69 102 137 179 233 285 348 406
#     4  10  25  40  72  97 134 186 226 290 334 416
#     4  11  24  42  70 105 138 180 232 284 343 415
#
# _framework density 24.325427999999999
#
# number of rings (size 3 to 8) (size 9 to 14) (size 15 to 20)
#    0.000    1.538    3.077    0.923    6.462    6.769 
#    2.769    0.000    0.000    0.000    0.000    0.000 
#    0.000    0.000    0.000    0.000    0.000    0.000 
#
# Total GULP energy -72459.860333 kJ/mol
# GULP energy per Si atom -5573.835410 kJ/mol
# Density = 2.427006 g / cm^3
# Si number density = 24.325428 Si / 1000 Ang^3
#
#
#
# Elastic Constant Matrix: (Units=GPa)
#
#
# Indices 1 2 3 4 5 6 
#
# 1 73.0975 14.3603 30.3834 14.5824 2.2979 3.2882
# 2 14.3603 65.0141 25.9784 9.0577 -12.9015 -15.2477
# 3 30.3834 25.9784 199.2300 -0.0195 5.4053 -9.6678
# 4 14.5824 9.0577 -0.0195 20.9778 3.8079 -4.7205
# 5 2.2979 -12.9015 5.4053 3.8079 48.9070 11.4930
# 6 3.2882 -15.2477 -9.6678 -4.7205 11.4930 20.6710
#
#
#
# Elastic Compliance Matrix: (Units=1/GPa)
#
#
# Indices 1 2 3 4 5 6 
#
# 1 0.019010 -0.003080 -0.003129 -0.014951 0.002525 -0.011578
# 2 -0.003080 0.020955 -0.001766 -0.004791 0.003387 0.012144
# 3 -0.003129 -0.001766 0.005998 0.004329 -0.002325 0.004282
# 4 -0.014951 -0.004791 0.004329 0.067356 -0.011621 0.022712
# 5 0.002525 0.003387 -0.002325 -0.011621 0.026192 -0.016207
# 6 -0.011578 0.012144 0.004282 0.022712 -0.016207 0.075377
#
#
# Mechanical properties :
#
#
# Convention : Reuss Voigt Hill
#
# Bulk Modulus (GPa) = 33.31849 53.19844 43.25846
# Shear Modulus (GPa) = 20.76050 35.88579 28.32314
#
# Velocity S-wave (km/s) = 2.92455 3.84505 3.41595
# Velocity P-wave (km/s) = 5.01306 6.45209 5.77755
#
# Compressibility (1/GPa) = 0.03001337
#
# Stress axis : x y z
#
# Youngs Moduli (GPa) = 52.60322 47.72194 166.71976
#
# Poissons Ratio (x) = 0.14697 0.52172
# Poissons Ratio (y) = 0.16200 0.29439
# Poissons Ratio (z) = 0.16461 0.08427
#
# Static dielectric constant tensor:
#      x y z
#    x 1.970630 0.027120 0.003940 
#    y 0.027120 2.012240 -0.035570 
#    z 0.003940 -0.035570 1.910650 
# 
# From -- ./inp_files/153006.got.cif
#   From: 2010.05.17/outbox.cif.g08.bks.cpg/sg2_77_cif.got.tgz:153006.got - 2010.06.03 11:33:40.
