data_PCOD9019702
_publ_section_title
;
Structure prediction by ZEFSAII (Michael W. Deem and Ramdas Pophale) SiO2 
 PCOD9019702
Probable space group: P -1
;
_chemical_formula_sum "Si O2"
_cell_formula_units_Z 16
_cell_length_a 5.360582
_cell_length_b 15.476874
_cell_length_c 9.237601
_cell_angle_alpha 90.642822
_cell_angle_beta 54.660081
_cell_angle_gamma 97.959338
_cell_volume 616.900704
_symmetry_space_group_name_H-M "P -1"
_symmetry_group_IT_number 2
_symmetry_cell_setting 'triclinic'
loop_
_space_group_symop_operation_xyz
x,y,z
-x,-y,-z
loop_
_atom_site_type_symbol
_atom_site_label
_atom_site_fract_x
_atom_site_fract_y
_atom_site_fract_z
Si Si1 0.633034 0.419454 0.534267
Si Si2 0.904115 0.362788 0.991333
Si Si3 0.304259 0.190429 0.366479
Si Si4 0.811664 0.935975 0.184221
Si Si5 0.891789 0.754625 0.270950
Si Si6 0.965080 0.291908 0.253741
Si Si7 0.692878 0.995327 0.782782
Si Si8 0.465986 0.504782 0.839389
O O1 0.500000 0.500000 0.500000
O O2 0.387725 0.328312 0.632455
O O3 0.899855 0.380034 0.358714
O O4 0.713127 0.459965 0.667478
O O5 0.837417 0.293439 0.884500
O O6 0.151505 0.448323 0.874612
O O7 0.086949 0.321388 0.055320
O O8 0.604104 0.397051 0.156839
O O9 0.085880 0.205184 0.576264
O O10 0.640648 0.231387 0.317543
O O11 0.338580 0.096802 0.287861
O O12 0.166758 0.238944 0.281668
O O13 0.857027 0.835222 0.177468
O O14 0.458543 0.942363 0.272209
O O15 0.954004 0.976389 0.287216
O O16 0.000000 0.000000 0.000000
O O17 0.500000 0.000000 0.000000
O O18 0.500000 0.500000 0.000000
#
# Coordination Sequence:
#
# PCOD9019702 Si02
#       8
#     2   2   2   2   2   2   2   2
#     4  10  21  45  66  99 142 184 232 284 344 405
#     4  10  23  41  64  97 135 183 233 284 346 410
#     4  11  26  45  68 105 136 181 229 289 348 410
#     4  10  23  44  69 102 135 181 223 287 346 415
#     4  10  25  43  68 103 140 181 233 290 344 415
#     4  11  25  43  71  99 141 185 231 283 343 414
#     4  10  23  42  71  97 137 178 228 278 351 418
#     4  10  22  40  64  96 133 180 235 288 342 408
#
# _framework density 25.936102999999999
#
# number of rings (size 3 to 8) (size 9 to 14) (size 15 to 20)
#    0.000    1.750    1.250    0.750   10.500    3.000 
#    2.250    3.125    0.000    0.000    0.000    0.000 
#    0.000    0.000    0.000    0.000    0.000    0.000 
#
# Total GULP energy -89324.695658 kJ/mol
# GULP energy per Si atom -5582.793479 kJ/mol
# Density = 2.587707 g / cm^3
# Si number density = 25.936103 Si / 1000 Ang^3
#
#
#
# Elastic Constant Matrix: (Units=GPa)
#
#
# Indices 1 2 3 4 5 6 
#
# 1 120.0152 44.2581 11.7504 3.5885 17.2737 7.8712
# 2 44.2581 188.8454 63.9364 28.9070 8.7882 4.2661
# 3 11.7504 63.9364 127.4808 35.4909 8.0078 2.8540
# 4 3.5885 28.9070 35.4909 60.4243 -0.0102 8.9833
# 5 17.2737 8.7882 8.0078 -0.0102 28.4103 1.8642
# 6 7.8712 4.2661 2.8540 8.9833 1.8642 40.1206
#
#
#
# Elastic Compliance Matrix: (Units=1/GPa)
#
#
# Indices 1 2 3 4 5 6 
#
# 1 0.009998 -0.002286 0.000472 0.000460 -0.005399 -0.001604
# 2 -0.002286 0.007044 -0.002890 -0.001575 0.000008 0.000257
# 3 0.000472 -0.002890 0.010811 -0.005100 -0.002488 0.000703
# 4 0.000460 -0.001575 -0.005100 0.020916 0.001937 -0.004333
# 5 -0.005399 0.000008 -0.002488 0.001937 0.039248 -0.001022
# 6 -0.001604 0.000257 0.000703 -0.004333 -0.001022 0.026180
#
#
# Mechanical properties :
#
#
# Convention : Reuss Voigt Hill
#
# Bulk Modulus (GPa) = 54.21633 75.13681 64.67657
# Shear Modulus (GPa) = 38.53484 46.88414 42.70949
#
# Velocity S-wave (km/s) = 3.85874 4.25629 4.06238
# Velocity P-wave (km/s) = 6.38767 7.29298 6.85529
#
# Compressibility (1/GPa) = 0.01844463
#
# Stress axis : x y z
#
# Youngs Moduli (GPa) = 100.02479 141.95600 92.50021
#
# Poissons Ratio (x) = 0.32447 -0.04364
# Poissons Ratio (y) = 0.22863 0.26734
# Poissons Ratio (z) = -0.04719 0.41027
#
# Static dielectric constant tensor:
#      x y z
#    x 2.071880 0.031300 -0.053770 
#    y 0.031300 2.076410 -0.080340 
#    z -0.053770 -0.080340 2.138320 
# 
# From -- ./inp_files/135488.got.cif
#   From: 2010.05.17/outbox.cif.g08.bks.cpg/sg2_68_cif.got.tgz:135488.got - 2010.06.03 11:33:40.
