data_PCOD9019847
_publ_section_title
;
Structure prediction by ZEFSAII (Michael W. Deem and Ramdas Pophale) SiO2 
 PCOD9019847
Probable space group: P -1
;
_chemical_formula_sum "Si O2"
_cell_formula_units_Z 16
_cell_length_a 9.182941
_cell_length_b 9.887500
_cell_length_c 15.836177
_cell_angle_alpha 137.306621
_cell_angle_beta 139.507595
_cell_angle_gamma 66.202268
_cell_volume 592.333917
_symmetry_space_group_name_H-M "P -1"
_symmetry_group_IT_number 2
_symmetry_cell_setting 'triclinic'
loop_
_space_group_symop_operation_xyz
x,y,z
-x,-y,-z
loop_
_atom_site_type_symbol
_atom_site_label
_atom_site_fract_x
_atom_site_fract_y
_atom_site_fract_z
Si Si1 0.770183 0.542901 0.572985
Si Si2 0.621590 0.864888 0.096606
Si Si3 0.761743 0.560950 0.264261
Si Si4 0.508165 0.193214 0.442497
Si Si5 0.000994 0.360951 0.034245
Si Si6 0.021185 0.803257 0.336943
Si Si7 0.584962 0.302300 0.720560
Si Si8 0.391676 0.200744 0.141689
O O1 0.662593 0.399526 0.543360
O O2 0.743878 0.774432 0.671409
O O3 0.596892 0.417627 0.362887
O O4 0.033143 0.537256 0.668681
O O5 0.891872 0.917354 0.270622
O O6 0.489061 0.023518 0.140950
O O7 0.463781 0.635786 0.958925
O O8 0.614095 0.845317 0.982431
O O9 0.877626 0.740928 0.330511
O O10 0.643665 0.656258 0.327770
O O11 0.529548 0.201794 0.558258
O O12 0.701022 0.076374 0.462590
O O13 0.985307 0.566251 0.171427
O O14 0.199942 0.471794 0.100775
O O15 0.142351 0.219161 0.072207
O O16 0.740017 0.220285 0.818775
#
# Coordination Sequence:
#
# PCOD9019847 Si02
#       8
#     2   2   2   2   2   2   2   2
#     4  10  20  34  56  83 113 147 186 232 274 333
#     4  11  22  35  57  89 117 142 179 242 285 324
#     4  11  21  34  57  90 115 141 185 240 281 319
#     4   9  18  33  55  78 106 147 198 220 260 330
#     4  10  17  33  58  81 107 149 194 228 261 336
#     4  10  19  35  60  83 110 145 196 233 267 324
#     4  10  17  30  57  85 106 140 198 233 266 312
#     4  11  21  37  57  85 117 148 184 223 288 340
#
# _framework density 27.011793000000001
#
# number of rings (size 3 to 8) (size 9 to 14) (size 15 to 20)
#    0.000    1.750    5.000    1.875    0.000    2.000 
#    0.000    3.125    0.000    1.500    0.000    8.750 
#    0.000    0.000    0.000    0.000    0.000    0.000 
#
# Total GULP energy -89235.667863 kJ/mol
# GULP energy per Si atom -5577.229241 kJ/mol
# Density = 2.695031 g / cm^3
# Si number density = 27.011793 Si / 1000 Ang^3
#
#
#
# Elastic Constant Matrix: (Units=GPa)
#
#
# Indices 1 2 3 4 5 6 
#
# 1 145.3680 38.6246 33.2988 -17.2472 10.2809 -31.9247
# 2 38.6246 148.8377 37.0181 -36.8555 2.8506 -47.0363
# 3 33.2988 37.0181 126.8703 -25.4277 13.1862 -3.5894
# 4 -17.2472 -36.8555 -25.4277 57.5108 -4.4746 5.6120
# 5 10.2809 2.8506 13.1862 -4.4746 36.8302 -12.1436
# 6 -31.9247 -47.0363 -3.5894 5.6120 -12.1436 40.1605
#
#
#
# Elastic Compliance Matrix: (Units=1/GPa)
#
#
# Indices 1 2 3 4 5 6 
#
# 1 0.009102 0.001463 -0.002328 0.001875 0.001336 0.008883
# 2 0.001463 0.015040 -0.003512 0.007159 0.007012 0.019584
# 3 -0.002328 -0.003512 0.010188 0.001846 -0.004724 -0.006740
# 4 0.001875 0.007159 0.001846 0.022863 0.003661 0.007952
# 5 0.001336 0.007012 -0.004724 0.003661 0.034569 0.018793
# 6 0.008883 0.019584 -0.006740 0.007952 0.018793 0.058867
#
#
# Mechanical properties :
#
#
# Convention : Reuss Voigt Hill
#
# Bulk Modulus (GPa) = 39.09907 70.99544 55.04725
# Shear Modulus (GPa) = 29.77819 47.70924 38.74371
#
# Velocity S-wave (km/s) = 3.32386 4.20722 3.79136
# Velocity P-wave (km/s) = 5.40713 7.06690 6.29198
#
# Compressibility (1/GPa) = 0.02557606
#
# Stress axis : x y z
#
# Youngs Moduli (GPa) = 109.86141 66.48982 98.15476
#
# Poissons Ratio (x) = -0.09725 0.22846
# Poissons Ratio (y) = -0.16069 0.34474
# Poissons Ratio (z) = 0.25570 0.23353
#
# Static dielectric constant tensor:
#      x y z
#    x 2.118630 0.052860 -0.013060 
#    y 0.052860 2.480020 -0.008220 
#    z -0.013060 -0.008220 2.182220 
# 
# From -- ./inp_files/558645.got.cif
#   From: 2010.05.17/outbox.cif.g08.bks.cpg/sg2_280_cif.got.tgz:558645.got - 2010.06.03 11:33:40.
