data_PCOD9019518
_publ_section_title
;
Structure prediction by ZEFSAII (Michael W. Deem and Ramdas Pophale) SiO2 
 PCOD9019518
Probable space group: P -1
;
_chemical_formula_sum "Si O2"
_cell_formula_units_Z 16
_cell_length_a 12.476606
_cell_length_b 9.358789
_cell_length_c 11.751621
_cell_angle_alpha 126.962024
_cell_angle_beta 141.007792
_cell_angle_gamma 48.475608
_cell_volume 635.535414
_symmetry_space_group_name_H-M "P -1"
_symmetry_group_IT_number 2
_symmetry_cell_setting 'triclinic'
loop_
_space_group_symop_operation_xyz
x,y,z
-x,-y,-z
loop_
_atom_site_type_symbol
_atom_site_label
_atom_site_fract_x
_atom_site_fract_y
_atom_site_fract_z
Si Si1 0.286623 0.523902 0.057360
Si Si2 0.902667 0.600476 0.849554
Si Si3 0.323354 0.876536 0.181074
Si Si4 0.922467 0.469010 0.557879
Si Si5 0.524463 0.689743 0.668005
Si Si6 0.121022 0.020345 0.502036
Si Si7 0.632338 0.613436 0.187996
Si Si8 0.043449 0.124460 0.242747
O O1 0.381872 0.676613 0.204064
O O2 0.385823 0.376268 0.166525
O O3 0.295583 0.407455 0.893005
O O4 0.070908 0.654690 0.970447
O O5 0.689748 0.733043 0.761962
O O6 0.879962 0.479506 0.663282
O O7 0.000000 0.500000 0.000000
O O8 0.502477 0.830207 0.227688
O O9 0.226303 0.038804 0.272188
O O10 0.148401 0.876551 0.963888
O O11 0.973409 0.653467 0.657124
O O12 0.758572 0.507098 0.349456
O O13 0.071216 0.250498 0.562175
O O14 0.500000 0.500000 0.500000
O O15 0.330688 0.868084 0.609857
O O16 0.069264 0.996537 0.317029
O O17 0.000000 0.000000 0.500000
O O18 0.500000 0.500000 0.000000
#
# Coordination Sequence:
#
# PCOD9019518 Si02
#       8
#     2   2   2   2   2   2   2   2
#     4  10  21  44  73 104 152 194 247 318 379 445
#     4  10  24  46  73 104 147 201 244 309 379 444
#     4  10  22  44  75 109 146 196 259 310 383 450
#     4  12  26  49  78 107 157 197 252 318 381 446
#     4  11  25  46  74 105 148 202 258 309 379 461
#     4  12  28  44  72 115 148 199 250 308 388 455
#     4  10  24  40  76 111 148 196 256 314 377 445
#     4  11  25  46  77 107 150 202 254 319 379 450
#
# _framework density 25.175623000000002
#
# number of rings (size 3 to 8) (size 9 to 14) (size 15 to 20)
#    0.000    1.250    1.250    3.375   12.250    1.500 
#    0.000    2.500    0.000    0.000    0.000    0.000 
#    0.000    0.000    0.000    0.000    0.000    0.000 
#
# Total GULP energy -89114.863315 kJ/mol
# GULP energy per Si atom -5569.678957 kJ/mol
# Density = 2.511832 g / cm^3
# Si number density = 25.175623 Si / 1000 Ang^3
#
#
#
# Elastic Constant Matrix: (Units=GPa)
#
#
# Indices 1 2 3 4 5 6 
#
# 1 152.9202 73.9219 46.9147 -25.3307 -13.5593 -35.5206
# 2 73.9219 176.0965 50.1970 -33.6036 -3.7063 -47.1681
# 3 46.9147 50.1970 136.2365 -20.2219 -21.2966 -7.4223
# 4 -25.3307 -33.6036 -20.2219 37.1577 -1.2898 6.7544
# 5 -13.5593 -3.7063 -21.2966 -1.2898 41.1843 -11.5087
# 6 -35.5206 -47.1681 -7.4223 6.7544 -11.5087 45.6834
#
#
#
# Elastic Compliance Matrix: (Units=1/GPa)
#
#
# Indices 1 2 3 4 5 6 
#
# 1 0.010268 -0.001105 -0.001394 0.004097 0.004699 0.007194
# 2 -0.001105 0.010288 -0.001614 0.006081 0.002497 0.009231
# 3 -0.001394 -0.001614 0.009492 0.003009 0.004234 -0.000587
# 4 0.004097 0.006081 0.003009 0.035928 0.006319 0.006233
# 5 0.004699 0.002497 0.004234 0.006319 0.032393 0.014146
# 6 0.007194 0.009231 -0.000587 0.006233 0.014146 0.039561
#
#
# Mechanical properties :
#
#
# Convention : Reuss Voigt Hill
#
# Bulk Modulus (GPa) = 45.82843 89.70227 67.76535
# Shear Modulus (GPa) = 32.58790 44.41971 38.50380
#
# Velocity S-wave (km/s) = 3.60171 4.20503 3.91501
# Velocity P-wave (km/s) = 5.96150 7.69963 6.88563
#
# Compressibility (1/GPa) = 0.02182052
#
# Stress axis : x y z
#
# Youngs Moduli (GPa) = 97.39451 97.19685 105.35674
#
# Poissons Ratio (x) = 0.10742 0.14687
# Poissons Ratio (y) = 0.10764 0.17008
# Poissons Ratio (z) = 0.13577 0.15690
#
# Static dielectric constant tensor:
#      x y z
#    x 2.228630 -0.066430 0.028670 
#    y -0.066430 2.066900 0.022610 
#    z 0.028670 0.022610 2.080770 
# 
# From -- ./inp_files/426564.got.cif
#   From: 2010.05.17/outbox.cif.g08.bks.cpg/sg2_214_cif.got.tgz:426564.got - 2010.06.03 11:33:40.
