data_PCOD9019424
_publ_section_title
;
Structure prediction by ZEFSAII (Michael W. Deem and Ramdas Pophale) SiO2 
 PCOD9019424
Probable space group: P -1
;
_chemical_formula_sum "Si O2"
_cell_formula_units_Z 15
_cell_length_a 11.237466
_cell_length_b 11.756578
_cell_length_c 13.877064
_cell_angle_alpha 45.142524
_cell_angle_beta 148.996744
_cell_angle_gamma 121.537147
_cell_volume 652.506119
_symmetry_space_group_name_H-M "P -1"
_symmetry_group_IT_number 2
_symmetry_cell_setting 'triclinic'
loop_
_space_group_symop_operation_xyz
x,y,z
-x,-y,-z
loop_
_atom_site_type_symbol
_atom_site_label
_atom_site_fract_x
_atom_site_fract_y
_atom_site_fract_z
Si Si1 0.325239 0.413637 0.182698
Si Si2 0.470839 0.678774 0.823579
Si Si3 0.964706 0.649768 0.461774
Si Si4 0.680584 0.238891 0.805736
Si Si5 0.000000 0.000000 0.500000
Si Si6 0.725371 0.499488 0.536518
Si Si7 0.033230 0.261468 0.210574
Si Si8 0.455536 0.103912 0.077259
O O1 0.386073 0.335684 0.167559
O O2 0.553595 0.473926 0.344361
O O3 0.258577 0.295103 0.289023
O O4 0.101719 0.569149 0.932608
O O5 0.542627 0.795703 0.882732
O O6 0.190883 0.730258 0.574577
O O7 0.500000 0.500000 0.000000
O O8 0.930996 0.571545 0.588648
O O9 0.000000 0.500000 0.500000
O O10 0.732624 0.784504 0.191963
O O11 0.786631 0.329178 0.738691
O O12 0.432345 0.362834 0.587123
O O13 0.631745 0.061207 0.862706
O O14 0.854351 0.232235 0.020636
O O15 0.086464 0.114496 0.409645
O O16 0.717483 0.076333 0.230650
#
# Coordination Sequence:
#
# PCOD9019424 Si02
#       8
#     2   2   2   2   1   2   2   2
#     4  10  21  45  71 105 138 187 255 292 363 438
#     4  12  25  45  76 107 149 201 248 302 368 443
#     4  12  25  47  74 107 148 196 253 299 366 446
#     4  10  24  44  70 107 147 186 245 305 375 428
#     4  12  26  46  70 104 144 188 240 304 376 424
#     4  10  21  44  72 100 143 195 237 304 368 439
#     4  10  23  42  74 104 140 188 240 311 361 436
#     4  12  28  47  71 113 148 194 247 309 368 437
#
# _framework density 22.988289000000002
#
# number of rings (size 3 to 8) (size 9 to 14) (size 15 to 20)
#    0.000    1.067    2.667    3.200    5.600    2.133 
#    0.000    5.333    0.000    0.000    0.000    0.000 
#    0.000    0.000    0.000    0.000    0.000    0.000 
#
# Total GULP energy -83840.769918 kJ/mol
# GULP energy per Si atom -5589.384661 kJ/mol
# Density = 2.293597 g / cm^3
# Si number density = 22.988289 Si / 1000 Ang^3
#
#
#
# Elastic Constant Matrix: (Units=GPa)
#
#
# Indices 1 2 3 4 5 6 
#
# 1 130.3364 46.0648 26.7133 -1.1176 -9.3837 28.8319
# 2 46.0648 130.0545 22.3535 -9.3927 -4.7520 0.0872
# 3 26.7133 22.3535 112.4444 -0.4550 -1.2044 17.4787
# 4 -1.1176 -9.3927 -0.4550 33.7341 13.0184 -8.2472
# 5 -9.3837 -4.7520 -1.2044 13.0184 34.3908 1.0607
# 6 28.8319 0.0872 17.4787 -8.2472 1.0607 29.0836
#
#
#
# Elastic Compliance Matrix: (Units=1/GPa)
#
#
# Indices 1 2 3 4 5 6 
#
# 1 0.013169 -0.004995 0.000302 -0.007067 0.006065 -0.015447
# 2 -0.004995 0.010109 -0.002033 0.005418 -0.002328 0.007764
# 3 0.000302 -0.002033 0.010375 -0.002774 0.001442 -0.007368
# 4 -0.007067 0.005418 -0.002774 0.043220 -0.018303 0.021580
# 5 0.006065 -0.002328 0.001442 -0.018303 0.037804 -0.013442
# 6 -0.015447 0.007764 -0.007368 0.021580 -0.013442 0.060711
#
#
# Mechanical properties :
#
#
# Convention : Reuss Voigt Hill
#
# Bulk Modulus (GPa) = 49.50190 62.56652 56.03421
# Shear Modulus (GPa) = 25.56587 37.95529 31.76058
#
# Velocity S-wave (km/s) = 3.33847 4.06775 3.72102
# Velocity P-wave (km/s) = 6.03662 7.02409 6.54899
#
# Compressibility (1/GPa) = 0.02020124
#
# Stress axis : x y z
#
# Youngs Moduli (GPa) = 75.93630 98.92511 96.38413
#
# Poissons Ratio (x) = 0.49410 -0.02909
# Poissons Ratio (y) = 0.37928 0.19594
# Poissons Ratio (z) = -0.02292 0.20110
#
# Static dielectric constant tensor:
#      x y z
#    x 1.862410 -0.015420 0.023460 
#    y -0.015420 1.860460 0.039610 
#    z 0.023460 0.039610 1.885190 
# 
# From -- ./inp_files/518709.got.cif
#   From: 2010.05.17/outbox.cif.g08.bks.cpg/sg2_260_cif.got.tgz:518709.got - 2010.06.03 11:33:40.
