data_PCOD9019426
_publ_section_title
;
Structure prediction by ZEFSAII (Michael W. Deem and Ramdas Pophale) SiO2 
 PCOD9019426
Probable space group: P -1
;
_chemical_formula_sum "Si O2"
_cell_formula_units_Z 16
_cell_length_a 21.365498
_cell_length_b 5.440579
_cell_length_c 9.414756
_cell_angle_alpha 51.119499
_cell_angle_beta 54.201296
_cell_angle_gamma 55.805951
_cell_volume 657.257211
_symmetry_space_group_name_H-M "P -1"
_symmetry_group_IT_number 2
_symmetry_cell_setting 'triclinic'
loop_
_space_group_symop_operation_xyz
x,y,z
-x,-y,-z
loop_
_atom_site_type_symbol
_atom_site_label
_atom_site_fract_x
_atom_site_fract_y
_atom_site_fract_z
Si Si1 0.934893 0.857365 0.474297
Si Si2 0.570288 0.218416 0.429414
Si Si3 0.807432 0.800984 0.902151
Si Si4 0.307192 0.886117 0.287928
Si Si5 0.134640 0.916554 0.825617
Si Si6 0.481258 0.442547 0.206413
Si Si7 0.052250 0.144633 0.117751
Si Si8 0.733584 0.788669 0.476974
O O1 0.865581 0.820155 0.683742
O O2 0.000000 0.500000 0.500000
O O3 0.896643 0.003266 0.320480
O O4 0.993711 0.081519 0.338623
O O5 0.500000 0.500000 0.500000
O O6 0.559499 0.360805 0.232560
O O7 0.547373 0.880723 0.610066
O O8 0.662381 0.106813 0.398277
O O9 0.858001 0.926948 0.909153
O O10 0.720144 0.968349 0.885666
O O11 0.806944 0.453917 0.095424
O O12 0.403855 0.756000 0.234119
O O13 0.279620 0.550187 0.438671
O O14 0.271056 0.147027 0.368859
O O15 0.180789 0.185080 0.696862
O O16 0.069229 0.928738 0.030248
O O17 0.500000 0.500000 0.000000
O O18 0.000000 0.500000 0.000000
#
# Coordination Sequence:
#
# PCOD9019426 Si02
#       8
#     2   2   2   2   2   2   2   2
#     4  12  24  46  69  94 138 181 229 302 359 415
#     4  10  21  44  72 100 145 189 230 290 356 411
#     4  12  27  45  70  98 139 188 234 292 366 421
#     4  11  26  48  72 106 147 189 236 293 360 424
#     4  12  27  46  68 102 139 183 242 291 356 433
#     4  10  23  44  72 108 142 185 241 289 346 425
#     4  12  26  44  69 100 133 179 243 296 353 428
#     4  11  26  47  74 103 149 191 236 294 357 425
#
# _framework density 24.343588
#
# number of rings (size 3 to 8) (size 9 to 14) (size 15 to 20)
#    0.000    0.750    5.000    1.500    7.000    2.500 
#    2.250    0.000    0.000    0.000    0.000    0.000 
#    0.000    0.000    0.000    0.000    0.000    0.000 
#
# Total GULP energy -89258.696092 kJ/mol
# GULP energy per Si atom -5578.668506 kJ/mol
# Density = 2.428818 g / cm^3
# Si number density = 24.343588 Si / 1000 Ang^3
#
#
#
# Elastic Constant Matrix: (Units=GPa)
#
#
# Indices 1 2 3 4 5 6 
#
# 1 90.4967 -9.3045 8.8051 -6.3520 37.5104 -5.1688
# 2 -9.3045 43.1985 9.9657 -4.8489 17.0804 -11.8093
# 3 8.8051 9.9657 120.3273 0.1782 42.3668 2.3245
# 4 -6.3520 -4.8489 0.1782 38.8395 -4.2212 10.8380
# 5 37.5104 17.0804 42.3668 -4.2212 48.8563 -7.0306
# 6 -5.1688 -11.8093 2.3245 10.8380 -7.0306 29.8532
#
#
#
# Elastic Compliance Matrix: (Units=1/GPa)
#
#
# Indices 1 2 3 4 5 6 
#
# 1 0.025628 0.017241 0.007942 0.002181 -0.032072 0.002294
# 2 0.017241 0.040890 0.006106 0.001496 -0.031143 0.010807
# 3 0.007942 0.006106 0.014810 0.000375 -0.021408 -0.002541
# 4 0.002181 0.001496 0.000375 0.028891 -0.001450 -0.009890
# 5 -0.032072 -0.031143 -0.021408 -0.001450 0.074694 0.001912
# 6 0.002294 0.010807 -0.002541 -0.009890 0.001912 0.042408
#
#
# Mechanical properties :
#
#
# Convention : Reuss Voigt Hill
#
# Bulk Modulus (GPa) = 6.94903 30.32833 18.63868
# Shear Modulus (GPa) = 23.50596 39.81356 31.65976
#
# Velocity S-wave (km/s) = 3.11077 4.04850 3.61021
# Velocity P-wave (km/s) = 3.97030 5.85997 5.00513
#
# Compressibility (1/GPa) = 0.14390498
#
# Stress axis : x y z
#
# Youngs Moduli (GPa) = 39.01998 24.45599 67.52164
#
# Poissons Ratio (x) = -0.42164 -0.53623
# Poissons Ratio (y) = -0.67274 -0.41230
# Poissons Ratio (z) = -0.30988 -0.14933
#
# Static dielectric constant tensor:
#      x y z
#    x 2.058970 0.030490 0.010240 
#    y 0.030490 2.000590 -0.010170 
#    z 0.010240 -0.010170 1.876260 
# 
# From -- ./inp_files/13448.got.cif
#   From: 2010.05.17/outbox.cif.g08.bks.cpg/sg2_7_cif.got.tgz:13448.got - 2010.06.03 11:33:40.
