data_PCOD9019889
_publ_section_title
;
Structure prediction by ZEFSAII (Michael W. Deem and Ramdas Pophale) SiO2 
 PCOD9019889
Probable space group: P -1
;
_chemical_formula_sum "Si O2"
_cell_formula_units_Z 14
_cell_length_a 12.554633
_cell_length_b 15.766435
_cell_length_c 7.858992
_cell_angle_alpha 64.980902
_cell_angle_beta 115.138756
_cell_angle_gamma 152.508915
_cell_volume 646.111797
_symmetry_space_group_name_H-M "P -1"
_symmetry_group_IT_number 2
_symmetry_cell_setting 'triclinic'
loop_
_space_group_symop_operation_xyz
x,y,z
-x,-y,-z
loop_
_atom_site_type_symbol
_atom_site_label
_atom_site_fract_x
_atom_site_fract_y
_atom_site_fract_z
Si Si1 0.812020 0.629535 0.790756
Si Si2 0.687670 0.733837 0.105351
Si Si3 0.693189 0.056274 0.628944
Si Si4 0.154022 0.023595 0.692705
Si Si5 0.789454 0.595733 0.405211
Si Si6 0.347307 0.181801 0.328156
Si Si7 0.701879 0.068400 0.029047
O O1 0.592014 0.460428 0.901018
O O2 0.743489 0.576039 0.592158
O O3 0.040462 0.724773 0.907105
O O4 0.913011 0.802700 0.743292
O O5 0.775471 0.854666 0.221232
O O6 0.774765 0.687493 0.226957
O O7 0.745552 0.824695 0.892012
O O8 0.710164 0.060580 0.839856
O O9 0.947732 0.258751 0.561647
O O10 0.500000 0.000000 0.500000
O O11 0.637027 0.915918 0.632391
O O12 0.186275 0.076858 0.475502
O O13 0.332693 0.057611 0.804889
O O14 0.594848 0.395170 0.366383
O O15 0.500000 0.000000 0.000000
#
# Coordination Sequence:
#
# PCOD9019889 Si02
#       7
#     2   2   2   2   2   2   2
#     4  10  22  43  66 100 139 183 227 285 340 402
#     4  12  25  45  67 105 147 183 231 283 345 414
#     4  12  25  48  71 101 141 179 234 294 346 411
#     4  10  23  43  70  99 141 186 233 278 350 403
#     4  12  26  42  71 103 142 184 230 286 346 414
#     4  12  24  44  71 105 139 183 234 279 352 409
#     4  10  21  45  71  95 134 183 231 284 342 405
#
# _framework density 21.668075999999999
#
# number of rings (size 3 to 8) (size 9 to 14) (size 15 to 20)
#    0.857    0.000    4.286    3.429    0.000    2.857 
#    0.000    2.143    0.000    0.000    0.000    0.000 
#    0.000    0.000    0.000    0.000    0.000    0.000 
#
# Total GULP energy -78376.537402 kJ/mol
# GULP energy per Si atom -5598.324100 kJ/mol
# Density = 2.161876 g / cm^3
# Si number density = 21.668076 Si / 1000 Ang^3
#
#
#
# Elastic Constant Matrix: (Units=GPa)
#
#
# Indices 1 2 3 4 5 6 
#
# 1 93.6463 62.5553 29.9359 4.9383 -12.6574 2.7795
# 2 62.5553 141.0471 43.1781 9.3492 0.5074 -8.5279
# 3 29.9359 43.1781 132.2126 8.3655 -22.0798 -0.5113
# 4 4.9383 9.3492 8.3655 34.1748 8.9036 -5.4498
# 5 -12.6574 0.5074 -22.0798 8.9036 38.9498 11.1846
# 6 2.7795 -8.5279 -0.5113 -5.4498 11.1846 44.4432
#
#
#
# Elastic Compliance Matrix: (Units=1/GPa)
#
#
# Indices 1 2 3 4 5 6 
#
# 1 0.017242 -0.007811 0.000167 -0.003269 0.007978 -0.004984
# 2 -0.007811 0.011718 -0.003078 0.000890 -0.005871 0.004288
# 3 0.000167 -0.003078 0.010036 -0.004062 0.007540 -0.002881
# 4 -0.003269 0.000890 -0.004062 0.035378 -0.013801 0.008140
# 5 0.007978 -0.005871 0.007540 -0.013801 0.039558 -0.013186
# 6 -0.004984 0.004288 -0.002881 0.008140 -0.013186 0.027919
#
#
# Mechanical properties :
#
#
# Convention : Reuss Voigt Hill
#
# Bulk Modulus (GPa) = 56.97925 70.91605 63.94765
# Shear Modulus (GPa) = 29.56018 38.92933 34.24475
#
# Velocity S-wave (km/s) = 3.69755 4.24326 3.97977
# Velocity P-wave (km/s) = 6.67703 7.53700 7.12001
#
# Compressibility (1/GPa) = 0.01755025
#
# Stress axis : x y z
#
# Youngs Moduli (GPa) = 57.99956 85.33936 99.63968
#
# Poissons Ratio (x) = 0.66660 -0.01663
# Poissons Ratio (y) = 0.45305 0.30673
# Poissons Ratio (z) = -0.00968 0.26271
#
# Static dielectric constant tensor:
#      x y z
#    x 1.780040 0.024100 0.027060 
#    y 0.024100 1.778390 0.017360 
#    z 0.027060 0.017360 1.820670 
# 
# From -- ./inp_files/269857.got.cif
#   From: 2010.05.17/outbox.cif.g08.bks.cpg/sg2_135_cif.got.tgz:269857.got - 2010.06.03 11:33:40.
