data_PCOD9019022
_publ_section_title
;
Structure prediction by ZEFSAII (Michael W. Deem and Ramdas Pophale) SiO2 
 PCOD9019022
Probable space group: P -1
;
_chemical_formula_sum "Si O2"
_cell_formula_units_Z 16
_cell_length_a 10.302228
_cell_length_b 6.568328
_cell_length_c 11.521133
_cell_angle_alpha 82.391553
_cell_angle_beta 61.997207
_cell_angle_gamma 80.030330
_cell_volume 676.776316
_symmetry_space_group_name_H-M "P -1"
_symmetry_group_IT_number 2
_symmetry_cell_setting 'triclinic'
loop_
_space_group_symop_operation_xyz
x,y,z
-x,-y,-z
loop_
_atom_site_type_symbol
_atom_site_label
_atom_site_fract_x
_atom_site_fract_y
_atom_site_fract_z
Si Si1 0.738867 0.926344 0.844486
Si Si2 0.215233 0.305637 0.370881
Si Si3 0.144780 0.036997 0.799721
Si Si4 0.532254 0.281137 0.942835
Si Si5 0.072125 0.271025 0.017432
Si Si6 0.280041 0.687424 0.612484
Si Si7 0.969422 0.596820 0.331913
Si Si8 0.467564 0.559714 0.322426
O O1 0.780174 0.897636 0.694898
O O2 0.849180 0.778400 0.889458
O O3 0.697309 0.158335 0.890620
O O4 0.582582 0.840637 0.931413
O O5 0.116252 0.303783 0.526357
O O6 0.371324 0.377403 0.336078
O O7 0.127155 0.486688 0.315097
O O8 0.247950 0.912183 0.669760
O O9 0.066446 0.857924 0.905718
O O10 0.033473 0.212919 0.768842
O O11 0.189922 0.171032 0.879068
O O12 0.504756 0.313785 0.814188
O O13 0.500000 0.500000 0.000000
O O14 0.000000 0.500000 0.000000
O O15 0.133010 0.575176 0.658509
O O16 0.367598 0.687194 0.453781
O O17 0.384927 0.542488 0.667372
#
# Coordination Sequence:
#
# PCOD9019022 Si02
#       8
#     2   2   2   2   2   2   2   2
#     4  11  25  41  65  93 127 174 218 264 334 384
#     4  10  21  44  67  95 137 167 214 269 331 383
#     4  11  24  40  69  96 126 174 220 261 335 390
#     4  11  25  41  64  93 130 172 218 270 319 393
#     4  11  26  43  65  97 132 169 221 277 320 390
#     4  10  23  44  65  97 132 170 217 267 329 384
#     4  10  23  43  67  99 131 169 213 274 320 398
#     4  10  23  43  67  93 133 172 212 273 324 379
#
# _framework density 23.641490000000001
#
# number of rings (size 3 to 8) (size 9 to 14) (size 15 to 20)
#    0.000    1.500    1.250    2.250    8.750    1.000 
#    0.000    4.375    0.000    0.000    0.000    0.000 
#    0.000    0.000    0.000    0.000    0.000    0.000 
#
# Total GULP energy -89363.355269 kJ/mol
# GULP energy per Si atom -5585.209704 kJ/mol
# Density = 2.358768 g / cm^3
# Si number density = 23.641490 Si / 1000 Ang^3
#
#
#
# Elastic Constant Matrix: (Units=GPa)
#
#
# Indices 1 2 3 4 5 6 
#
# 1 73.3027 7.6129 15.8239 12.2007 9.5224 -8.4923
# 2 7.6129 73.3310 40.8924 14.1737 1.9007 -3.7383
# 3 15.8239 40.8924 128.5042 33.3506 26.3052 -4.5289
# 4 12.2007 14.1737 33.3506 55.1319 -1.6945 4.7414
# 5 9.5224 1.9007 26.3052 -1.6945 26.8614 -5.1664
# 6 -8.4923 -3.7383 -4.5289 4.7414 -5.1664 17.9824
#
#
#
# Elastic Compliance Matrix: (Units=1/GPa)
#
#
# Indices 1 2 3 4 5 6 
#
# 1 0.015824 -0.000691 0.000786 -0.004582 -0.005228 0.007233
# 2 -0.000691 0.017412 -0.006392 -0.000579 0.005916 0.003536
# 3 0.000786 -0.006392 0.014840 -0.008017 -0.014738 0.000660
# 4 -0.004582 -0.000579 -0.008017 0.025149 0.009527 -0.008198
# 5 -0.005228 0.005916 -0.014738 0.009527 0.055318 0.008430
# 6 0.007233 0.003536 0.000660 -0.008198 0.008430 0.064510
#
#
# Mechanical properties :
#
#
# Convention : Reuss Voigt Hill
#
# Bulk Modulus (GPa) = 28.18351 44.86626 36.52488
# Shear Modulus (GPa) = 22.99123 34.04906 28.52014
#
# Velocity S-wave (km/s) = 3.12187 3.79915 3.47704
# Velocity P-wave (km/s) = 4.99418 6.18576 5.62163
#
# Compressibility (1/GPa) = 0.03548174
#
# Stress axis : x y z
#
# Youngs Moduli (GPa) = 63.19489 57.43281 67.38586
#
# Poissons Ratio (x) = 0.03968 -0.05294
# Poissons Ratio (y) = 0.04366 0.43071
# Poissons Ratio (z) = -0.04965 0.36709
#
# Static dielectric constant tensor:
#      x y z
#    x 1.898240 0.018100 0.000430 
#    y 0.018100 1.977430 0.070640 
#    z 0.000430 0.070640 1.942050 
# 
# From -- ./inp_files/364985.got.cif
#   From: 2010.05.17/outbox.cif.g08.bks.cpg/sg2_183_cif.got.tgz:364985.got - 2010.06.03 11:33:40.
