data_PCOD9019899
_publ_section_title
;
Structure prediction by ZEFSAII (Michael W. Deem and Ramdas Pophale) SiO2 
 PCOD9019899
Probable space group: P -1
;
_chemical_formula_sum "Si O2"
_cell_formula_units_Z 16
_cell_length_a 9.724508
_cell_length_b 11.646651
_cell_length_c 11.807264
_cell_angle_alpha 66.794723
_cell_angle_beta 42.916974
_cell_angle_gamma 47.360132
_cell_volume 655.808437
_symmetry_space_group_name_H-M "P -1"
_symmetry_group_IT_number 2
_symmetry_cell_setting 'triclinic'
loop_
_space_group_symop_operation_xyz
x,y,z
-x,-y,-z
loop_
_atom_site_type_symbol
_atom_site_label
_atom_site_fract_x
_atom_site_fract_y
_atom_site_fract_z
Si Si1 0.864403 0.494834 0.975486
Si Si2 0.333441 0.675586 0.896115
Si Si3 0.037964 0.756221 0.270760
Si Si4 0.839841 0.147599 0.452819
Si Si5 0.819131 0.385030 0.518166
Si Si6 0.379734 0.243589 0.165433
Si Si7 0.322785 0.286899 0.602721
Si Si8 0.926548 0.963367 0.872902
O O1 0.693123 0.437381 0.122004
O O2 0.686378 0.657543 0.948836
O O3 0.109314 0.369281 0.797619
O O4 0.000000 0.500000 0.000000
O O5 0.226644 0.666912 0.084622
O O6 0.560094 0.679566 0.800252
O O7 0.123608 0.843861 0.896226
O O8 0.165179 0.651675 0.345580
O O9 0.773756 0.784713 0.394312
O O10 0.020970 0.910821 0.230823
O O11 0.602470 0.164451 0.533948
O O12 0.717256 0.311232 0.531239
O O13 0.015279 0.122960 0.249563
O O14 0.000000 0.000000 0.500000
O O15 0.120783 0.273469 0.342684
O O16 0.697158 0.567717 0.498238
O O17 0.636276 0.065462 0.055620
#
# Coordination Sequence:
#
# PCOD9019899 Si02
#       8
#     2   2   2   2   2   2   2   2
#     4  10  23  42  69  99 132 178 221 277 333 391
#     4  10  23  44  68  99 136 176 225 271 335 393
#     4  10  21  45  71  97 133 173 225 273 329 396
#     4  12  27  45  65  99 138 182 218 273 338 401
#     4  11  24  45  70 102 131 174 228 274 336 388
#     4  10  23  43  68 100 132 173 227 275 331 393
#     4  10  25  44  68  99 132 174 228 275 327 393
#     4  11  25  45  68 100 137 177 221 274 336 400
#
# _framework density 24.397369000000001
#
# number of rings (size 3 to 8) (size 9 to 14) (size 15 to 20)
#    0.000    1.500    1.250    2.625    7.000    5.000 
#    4.500    0.000    0.000    0.000    0.000    0.000 
#    0.000    0.000    0.000    0.000    0.000    0.000 
#
# Total GULP energy -89566.648822 kJ/mol
# GULP energy per Si atom -5597.915551 kJ/mol
# Density = 2.434184 g / cm^3
# Si number density = 24.397369 Si / 1000 Ang^3
#
#
#
# Elastic Constant Matrix: (Units=GPa)
#
#
# Indices 1 2 3 4 5 6 
#
# 1 129.3979 18.0711 14.5700 7.1842 4.6242 -22.7531
# 2 18.0711 61.3384 9.4549 1.3129 4.6654 -31.1666
# 3 14.5700 9.4549 45.9018 -7.3465 4.4060 -15.2963
# 4 7.1842 1.3129 -7.3465 17.5981 2.1418 2.8701
# 5 4.6242 4.6654 4.4060 2.1418 42.2077 8.1112
# 6 -22.7531 -31.1666 -15.2963 2.8701 8.1112 40.5438
#
#
#
# Elastic Compliance Matrix: (Units=1/GPa)
#
#
# Indices 1 2 3 4 5 6 
#
# 1 0.009202 0.000751 -0.001834 -0.005308 -0.001740 0.005773
# 2 0.000751 0.029799 0.002422 -0.004776 -0.008435 0.026268
# 3 -0.001834 0.002422 0.028151 0.011101 -0.005843 0.011837
# 4 -0.005308 -0.004776 0.011101 0.065323 -0.002082 -0.006670
# 5 -0.001740 -0.008435 -0.005843 -0.002082 0.028454 -0.015210
# 6 0.005773 0.026268 0.011837 -0.006670 -0.015210 0.056078
#
#
# Mechanical properties :
#
#
# Convention : Reuss Voigt Hill
#
# Bulk Modulus (GPa) = 14.32048 35.64779 24.98414
# Shear Modulus (GPa) = 21.04340 33.03940 27.04140
#
# Velocity S-wave (km/s) = 2.94007 3.68396 3.33284
# Velocity P-wave (km/s) = 4.17226 5.72176 5.00731
#
# Compressibility (1/GPa) = 0.06983004
#
# Stress axis : x y z
#
# Youngs Moduli (GPa) = 108.67496 33.55821 35.52293
#
# Poissons Ratio (x) = -0.02521 0.06516
# Poissons Ratio (y) = -0.08163 -0.08605
# Poissons Ratio (z) = 0.19933 -0.08129
#
# Static dielectric constant tensor:
#      x y z
#    x 1.942930 0.064550 0.009490 
#    y 0.064550 1.971070 0.078700 
#    z 0.009490 0.078700 2.025040 
# 
# From -- ./inp_files/392437.got.cif
#   From: 2010.05.17/outbox.cif.g08.bks.cpg/sg2_197_cif.got.tgz:392437.got - 2010.06.03 11:33:40.
