data_PCOD9019147
_publ_section_title
;
Structure prediction by ZEFSAII (Michael W. Deem and Ramdas Pophale) SiO2 
 PCOD9019147
Probable space group: P -1
;
_chemical_formula_sum "Si O2"
_cell_formula_units_Z 16
_cell_length_a 8.209164
_cell_length_b 9.597356
_cell_length_c 13.847211
_cell_angle_alpha 82.987237
_cell_angle_beta 48.527237
_cell_angle_gamma 58.994133
_cell_volume 658.613408
_symmetry_space_group_name_H-M "P -1"
_symmetry_group_IT_number 2
_symmetry_cell_setting 'triclinic'
loop_
_space_group_symop_operation_xyz
x,y,z
-x,-y,-z
loop_
_atom_site_type_symbol
_atom_site_label
_atom_site_fract_x
_atom_site_fract_y
_atom_site_fract_z
Si Si1 0.505718 0.088340 0.836212
Si Si2 0.810060 0.776650 0.236708
Si Si3 0.967700 0.881301 0.805833
Si Si4 0.708433 0.081881 0.478264
Si Si5 0.195120 0.762858 0.394028
Si Si6 0.636814 0.404566 0.190335
Si Si7 0.695089 0.219410 0.997274
Si Si8 0.807198 0.577293 0.956298
O O1 0.356643 0.093972 0.798476
O O2 0.667857 0.165560 0.729752
O O3 0.280209 0.239460 0.981710
O O4 0.739243 0.918333 0.815719
O O5 0.602500 0.841494 0.399905
O O6 0.081876 0.761086 0.137706
O O7 0.910882 0.582331 0.183078
O O8 0.158574 0.923479 0.673194
O O9 0.181663 0.694334 0.780570
O O10 0.801646 0.026263 0.942040
O O11 0.752197 0.201517 0.521548
O O12 0.886152 0.893838 0.475707
O O13 0.343955 0.564430 0.324802
O O14 0.753703 0.486603 0.071509
O O15 0.658798 0.265070 0.120406
O O16 0.416569 0.357628 0.043385
#
# Coordination Sequence:
#
# PCOD9019147 Si02
#       8
#     2   2   2   2   2   2   2   2
#     4   8  16  31  52  77 101 129 169 215 253 289
#     4  10  17  30  55  77  99 130 173 214 246 295
#     4  10  20  34  52  76 108 138 164 203 256 310
#     4   9  18  32  51  77 104 132 167 208 255 298
#     4   8  16  32  53  75 100 134 174 209 242 297
#     4  10  18  32  56  76  98 136 175 207 249 302
#     4  10  21  36  54  76 101 134 175 213 251 295
#     4   9  18  33  54  76  97 130 176 215 249 294
#
# _framework density 24.293461000000001
#
# number of rings (size 3 to 8) (size 9 to 14) (size 15 to 20)
#    0.000    2.750    0.000    3.750    0.000    2.000 
#    0.000    2.500    0.000   21.750    0.000    0.000 
#    0.000    0.000    0.000    0.000    0.000    0.000 
#
# Total GULP energy -89406.609872 kJ/mol
# GULP energy per Si atom -5587.913117 kJ/mol
# Density = 2.423817 g / cm^3
# Si number density = 24.293461 Si / 1000 Ang^3
#
#
#
# Elastic Constant Matrix: (Units=GPa)
#
#
# Indices 1 2 3 4 5 6 
#
# 1 53.2592 25.5942 19.3417 6.0919 -1.6669 -8.6761
# 2 25.5942 112.0913 26.3044 20.8360 5.4040 -16.5980
# 3 19.3417 26.3044 118.8409 39.0947 3.3789 -7.3342
# 4 6.0919 20.8360 39.0947 35.6822 -4.0399 2.2344
# 5 -1.6669 5.4040 3.3789 -4.0399 31.5337 8.0359
# 6 -8.6761 -16.5980 -7.3342 2.2344 8.0359 36.8361
#
#
#
# Elastic Compliance Matrix: (Units=1/GPa)
#
#
# Indices 1 2 3 4 5 6 
#
# 1 0.022319 -0.004656 -0.003509 0.002898 0.002269 0.001790
# 2 -0.004656 0.012598 0.001620 -0.009375 -0.005478 0.006666
# 3 -0.003509 0.001620 0.014912 -0.017648 -0.005640 0.005174
# 4 0.002898 -0.009375 -0.017648 0.054779 0.014097 -0.013453
# 5 0.002269 -0.005478 -0.005640 0.014097 0.038308 -0.012269
# 6 0.001790 0.006666 0.005174 -0.013453 -0.012269 0.035095
#
#
# Mechanical properties :
#
#
# Convention : Reuss Voigt Hill
#
# Bulk Modulus (GPa) = 27.21839 47.40801 37.31320
# Shear Modulus (GPa) = 24.58839 35.00715 29.79777
#
# Velocity S-wave (km/s) = 3.18487 3.80018 3.50605
# Velocity P-wave (km/s) = 4.97522 6.22995 5.63760
#
# Compressibility (1/GPa) = 0.03673987
#
# Stress axis : x y z
#
# Youngs Moduli (GPa) = 44.80489 79.37816 67.05784
#
# Poissons Ratio (x) = 0.36956 0.23533
# Poissons Ratio (y) = 0.20860 -0.10866
# Poissons Ratio (z) = 0.15724 -0.12862
#
# Static dielectric constant tensor:
#      x y z
#    x 2.083160 0.078390 -0.009760 
#    y 0.078390 1.959500 -0.041790 
#    z -0.009760 -0.041790 1.975730 
# 
# From -- ./inp_files/497985.got.cif
#   From: 2010.05.17/outbox.cif.g08.bks.cpg/sg2_249_cif.got.tgz:497985.got - 2010.06.03 11:33:40.
