data_PCOD9019911
_publ_section_title
;
Structure prediction by ZEFSAII (Michael W. Deem and Ramdas Pophale) SiO2 
 PCOD9019911
Probable space group: P -1
;
_chemical_formula_sum "Si O2"
_cell_formula_units_Z 16
_cell_length_a 5.386015
_cell_length_b 8.828100
_cell_length_c 17.642838
_cell_angle_alpha 54.802436
_cell_angle_beta 96.271519
_cell_angle_gamma 82.743593
_cell_volume 662.652340
_symmetry_space_group_name_H-M "P -1"
_symmetry_group_IT_number 2
_symmetry_cell_setting 'triclinic'
loop_
_space_group_symop_operation_xyz
x,y,z
-x,-y,-z
loop_
_atom_site_type_symbol
_atom_site_label
_atom_site_fract_x
_atom_site_fract_y
_atom_site_fract_z
Si Si1 0.028984 0.070454 0.066370
Si Si2 0.730876 0.200190 0.158832
Si Si3 0.229469 0.389080 0.913394
Si Si4 0.308333 0.066949 0.284611
Si Si5 0.734327 0.326576 0.539905
Si Si6 0.495654 0.257209 0.816962
Si Si7 0.088599 0.445393 0.636521
Si Si8 0.235789 0.422893 0.270171
O O1 0.777215 0.127251 0.094356
O O2 0.247874 0.893034 0.155224
O O3 0.134405 0.262424 0.010201
O O4 0.000000 0.000000 0.000000
O O5 0.672371 0.431275 0.102103
O O6 0.515740 0.117553 0.218577
O O7 0.018358 0.123226 0.224989
O O8 0.405238 0.236960 0.905522
O O9 0.987269 0.480971 0.824630
O O10 0.316245 0.205273 0.315520
O O11 0.350125 0.858566 0.380954
O O12 0.500000 0.500000 0.500000
O O13 0.804807 0.377895 0.442599
O O14 0.977566 0.344247 0.593705
O O15 0.285587 0.285726 0.736527
O O16 0.541370 0.469254 0.764850
O O17 0.865852 0.532268 0.662405
#
# Coordination Sequence:
#
# PCOD9019911 Si02
#       8
#     2   2   2   2   2   2   2   2
#     4  12  26  43  72 113 145 195 254 309 362 439
#     4  11  27  48  74 106 152 199 246 306 378 444
#     4  10  22  46  69 104 149 196 249 305 367 434
#     4  11  27  48  76 108 144 201 246 306 376 446
#     4  11  26  46  72 108 151 183 250 305 368 453
#     4  11  22  43  75 106 152 193 246 308 369 439
#     4  10  25  44  74 107 147 197 235 312 374 435
#     4  10  21  45  72 102 147 194 246 300 369 438
#
# _framework density 24.145392000000001
#
# number of rings (size 3 to 8) (size 9 to 14) (size 15 to 20)
#    0.000    1.250    2.500    1.500    7.000    2.500 
#    0.000    5.000    0.000    0.000    0.000    0.000 
#    0.000    0.000    0.000    0.000    0.000    0.000 
#
# Total GULP energy -89543.102283 kJ/mol
# GULP energy per Si atom -5596.443893 kJ/mol
# Density = 2.409044 g / cm^3
# Si number density = 24.145392 Si / 1000 Ang^3
#
#
#
# Elastic Constant Matrix: (Units=GPa)
#
#
# Indices 1 2 3 4 5 6 
#
# 1 83.6051 3.7358 30.5921 -9.3198 -14.3646 0.1681
# 2 3.7358 92.1897 37.2610 -25.7435 -2.0889 -1.2872
# 3 30.5921 37.2610 105.7170 -19.7413 -25.1811 0.4484
# 4 -9.3198 -25.7435 -19.7413 46.2760 6.0275 -13.3841
# 5 -14.3646 -2.0889 -25.1811 6.0275 41.6287 -3.2148
# 6 0.1681 -1.2872 0.4484 -13.3841 -3.2148 29.4757
#
#
#
# Elastic Compliance Matrix: (Units=1/GPa)
#
#
# Indices 1 2 3 4 5 6 
#
# 1 0.013866 0.001569 -0.003568 0.002199 0.002488 0.001314
# 2 0.001569 0.015008 -0.004837 0.008122 -0.002488 0.004137
# 3 -0.003568 -0.004837 0.014243 0.002146 0.006933 0.001323
# 4 0.002199 0.008122 0.002146 0.031860 -0.001016 0.014666
# 5 0.002488 -0.002488 0.006933 -0.001016 0.029290 0.002505
# 6 0.001314 0.004137 0.001323 0.014666 0.002505 0.041012
#
#
# Mechanical properties :
#
#
# Convention : Reuss Voigt Hill
#
# Bulk Modulus (GPa) = 33.96098 47.18775 40.57437
# Shear Modulus (GPa) = 29.62659 37.47094 33.54876
#
# Velocity S-wave (km/s) = 3.50667 3.94367 3.73157
# Velocity P-wave (km/s) = 5.52190 6.34999 5.95037
#
# Compressibility (1/GPa) = 0.02944555
#
# Stress axis : x y z
#
# Youngs Moduli (GPa) = 72.11649 66.63047 70.20867
#
# Poissons Ratio (x) = -0.10454 0.25049
# Poissons Ratio (y) = -0.11315 0.33962
# Poissons Ratio (z) = 0.25730 0.32231
#
# Static dielectric constant tensor:
#      x y z
#    x 2.042520 -0.006320 -0.047580 
#    y -0.006320 1.940110 0.054500 
#    z -0.047580 0.054500 1.985870 
# 
# From -- ./inp_files/547756.got.cif
#   From: 2010.05.17/outbox.cif.g08.bks.cpg/sg2_274_cif.got.tgz:547756.got - 2010.06.03 11:33:40.
