data_PCOD9019735
_publ_section_title
;
Structure prediction by ZEFSAII (Michael W. Deem and Ramdas Pophale) SiO2 
 PCOD9019735
Probable space group: P -1
;
_chemical_formula_sum "Si O2"
_cell_formula_units_Z 16
_cell_length_a 15.050815
_cell_length_b 8.010973
_cell_length_c 15.825484
_cell_angle_alpha 73.250816
_cell_angle_beta 157.382637
_cell_angle_gamma 109.246016
_cell_volume 692.117676
_symmetry_space_group_name_H-M "P -1"
_symmetry_group_IT_number 2
_symmetry_cell_setting 'triclinic'
loop_
_space_group_symop_operation_xyz
x,y,z
-x,-y,-z
loop_
_atom_site_type_symbol
_atom_site_label
_atom_site_fract_x
_atom_site_fract_y
_atom_site_fract_z
Si Si1 0.836763 0.438209 0.446896
Si Si2 0.227359 0.905754 0.943745
Si Si3 0.050023 0.715814 0.099287
Si Si4 0.082973 0.816283 0.304887
Si Si5 0.939570 0.781986 0.568118
Si Si6 0.486875 0.895585 0.346804
Si Si7 0.316302 0.895790 0.737350
Si Si8 0.747182 0.627184 0.691278
O O1 0.663078 0.270581 0.280679
O O2 0.000000 0.500000 0.500000
O O3 0.955814 0.350783 0.641899
O O4 0.767618 0.613852 0.402212
O O5 0.360709 0.857836 0.151255
O O6 0.422945 0.002292 0.036127
O O7 0.063338 0.755009 0.769073
O O8 0.077194 0.049713 0.821443
O O9 0.016641 0.775858 0.155615
O O10 0.282776 0.836040 0.245490
O O11 0.082012 0.509728 0.161516
O O12 0.843281 0.719724 0.849673
O O13 0.359180 0.909171 0.537570
O O14 0.151680 0.824231 0.680879
O O15 0.819712 0.955793 0.444155
O O16 0.683251 0.773210 0.551127
O O17 0.500000 0.500000 0.500000
#
# Coordination Sequence:
#
# PCOD9019735 Si02
#       8
#     2   2   2   2   2   2   2   2
#     4  10  22  45  69  96 134 177 226 290 346 403
#     4  12  23  40  66  99 139 178 228 281 354 416
#     4  10  23  42  69  97 131 180 231 280 343 410
#     4  12  25  42  65  95 139 177 233 286 342 418
#     4  10  22  42  72  95 131 180 229 284 348 409
#     4  11  23  41  68  95 135 183 224 288 343 408
#     4  10  21  45  67  96 135 176 227 289 345 412
#     4   9  21  43  66  96 134 169 226 289 339 406
#
# _framework density 23.117456000000001
#
# number of rings (size 3 to 8) (size 9 to 14) (size 15 to 20)
#    0.000    1.500    2.500    1.500    0.000    9.000 
#    2.250    1.250    2.750    0.000    0.000    0.000 
#    0.000    0.000    0.000    0.000    0.000    0.000 
#
# Total GULP energy -89315.046091 kJ/mol
# GULP energy per Si atom -5582.190381 kJ/mol
# Density = 2.306484 g / cm^3
# Si number density = 23.117456 Si / 1000 Ang^3
#
#
#
# Elastic Constant Matrix: (Units=GPa)
#
#
# Indices 1 2 3 4 5 6 
#
# 1 99.2645 35.3925 43.1963 2.7720 -9.2047 2.9006
# 2 35.3925 92.3488 31.8946 5.0966 -20.1990 -0.5196
# 3 43.1963 31.8946 89.6266 9.1871 -23.0148 -7.5272
# 4 2.7720 5.0966 9.1871 33.0586 6.3010 -9.7049
# 5 -9.2047 -20.1990 -23.0148 6.3010 31.9057 15.1202
# 6 2.9006 -0.5196 -7.5272 -9.7049 15.1202 37.8398
#
#
#
# Elastic Compliance Matrix: (Units=1/GPa)
#
#
# Indices 1 2 3 4 5 6 
#
# 1 0.013906 -0.003871 -0.006280 0.001471 -0.002858 -0.000849
# 2 -0.003871 0.015483 -0.000280 -0.006212 0.012644 -0.006192
# 3 -0.006280 -0.000280 0.018739 -0.008743 0.015203 -0.004112
# 4 0.001471 -0.006212 -0.008743 0.045205 -0.028766 0.021151
# 5 -0.002858 0.012644 0.015203 -0.028766 0.070373 -0.032081
# 6 -0.000849 -0.006192 -0.004112 0.021151 -0.032081 0.043833
#
#
# Mechanical properties :
#
#
# Convention : Reuss Voigt Hill
#
# Bulk Modulus (GPa) = 36.67944 55.80075 46.24009
# Shear Modulus (GPa) = 21.05342 31.94457 26.49899
#
# Velocity S-wave (km/s) = 3.02108 3.72134 3.38934
# Velocity P-wave (km/s) = 5.29813 6.53107 5.94664
#
# Compressibility (1/GPa) = 0.02726323
#
# Stress axis : x y z
#
# Youngs Moduli (GPa) = 71.91027 64.58884 53.36538
#
# Poissons Ratio (x) = 0.25005 0.33516
# Poissons Ratio (y) = 0.27840 0.01496
# Poissons Ratio (z) = 0.45163 0.01810
#
# Static dielectric constant tensor:
#      x y z
#    x 1.885420 0.011530 -0.016840 
#    y 0.011530 1.911910 0.009520 
#    z -0.016840 0.009520 1.857020 
# 
# From -- ./inp_files/575535.got.cif
#   From: 2010.05.17/outbox.cif.g08.bks.cpg/sg2_288_cif.got.tgz:575535.got - 2010.06.03 11:33:40.
