data_PCOD9019826
_publ_section_title
;
Structure prediction by ZEFSAII (Michael W. Deem and Ramdas Pophale) SiO2 
 PCOD9019826
Probable space group: P -1
;
_chemical_formula_sum "Si O2"
_cell_formula_units_Z 16
_cell_length_a 9.857748
_cell_length_b 5.621748
_cell_length_c 13.332552
_cell_angle_alpha 66.012716
_cell_angle_beta 77.168695
_cell_angle_gamma 89.076529
_cell_volume 655.906846
_symmetry_space_group_name_H-M "P -1"
_symmetry_group_IT_number 2
_symmetry_cell_setting 'triclinic'
loop_
_space_group_symop_operation_xyz
x,y,z
-x,-y,-z
loop_
_atom_site_type_symbol
_atom_site_label
_atom_site_fract_x
_atom_site_fract_y
_atom_site_fract_z
Si Si1 0.149867 0.364377 0.965954
Si Si2 0.800349 0.550397 0.717810
Si Si3 0.585008 0.919745 0.718474
Si Si4 0.923128 0.242280 0.912184
Si Si5 0.574771 0.780477 0.969134
Si Si6 0.372623 0.066054 0.585330
Si Si7 0.758725 0.430449 0.522943
Si Si8 0.067411 0.828814 0.604544
O O1 0.128786 0.603626 0.004879
O O2 0.306736 0.303511 0.961253
O O3 0.074953 0.070210 0.051310
O O4 0.081516 0.385176 0.863599
O O5 0.647545 0.651070 0.723099
O O6 0.818901 0.318633 0.829923
O O7 0.828011 0.505202 0.604937
O O8 0.926633 0.753964 0.703198
O O9 0.611176 0.914790 0.832916
O O10 0.429881 0.962053 0.699081
O O11 0.681573 0.147277 0.608354
O O12 0.500000 0.500000 0.000000
O O13 0.500000 0.000000 0.000000
O O14 0.352549 0.371704 0.526139
O O15 0.500000 0.000000 0.500000
O O16 0.211918 0.954083 0.608069
O O17 0.872821 0.414230 0.421210
O O18 0.000000 0.000000 0.500000
#
# Coordination Sequence:
#
# PCOD9019826 Si02
#       8
#     2   2   2   2   2   2   2   2
#     4  10  21  45  69  97 136 174 232 296 355 413
#     4  12  24  41  71 100 137 182 237 284 349 429
#     4  12  26  45  73 101 133 195 235 283 365 430
#     4  10  22  40  72 102 128 181 233 288 353 425
#     4  12  28  48  73 103 146 183 240 304 359 429
#     4  12  24  44  67 102 144 186 236 285 344 431
#     4  12  23  42  72  94 147 184 233 281 362 414
#     4  12  24  43  62 103 140 179 226 293 338 414
#
# _framework density 24.393709999999999
#
# number of rings (size 3 to 8) (size 9 to 14) (size 15 to 20)
#    0.000    0.500    6.250    2.250    1.750    1.000 
#    2.250    0.000    0.000    0.000    0.000    0.000 
#    0.000    0.000    0.000    0.000    0.000    0.000 
#
# Total GULP energy -89113.176759 kJ/mol
# GULP energy per Si atom -5569.573547 kJ/mol
# Density = 2.433819 g / cm^3
# Si number density = 24.393710 Si / 1000 Ang^3
#
#
#
# Elastic Constant Matrix: (Units=GPa)
#
#
# Indices 1 2 3 4 5 6 
#
# 1 169.3408 42.1594 0.5551 -6.9338 36.4582 -2.0758
# 2 42.1594 126.1119 15.5435 -7.0425 13.4371 -29.5456
# 3 0.5551 15.5435 41.4226 -4.5466 19.3843 -3.4873
# 4 -6.9338 -7.0425 -4.5466 23.4009 -12.9284 11.1046
# 5 36.4582 13.4371 19.3843 -12.9284 36.5429 -3.0815
# 6 -2.0758 -29.5456 -3.4873 11.1046 -3.0815 52.3504
#
#
#
# Elastic Compliance Matrix: (Units=1/GPa)
#
#
# Indices 1 2 3 4 5 6 
#
# 1 0.009253 -0.002918 0.006592 -0.003653 -0.013018 -0.000832
# 2 -0.002918 0.010580 -0.004254 -0.000319 0.001648 0.005737
# 3 0.006592 -0.004254 0.037809 -0.007420 -0.027665 0.000324
# 4 -0.003653 -0.000319 -0.007420 0.061644 0.028476 -0.012219
# 5 -0.013018 0.001648 -0.027665 0.028476 0.064185 -0.003691
# 6 -0.000832 0.005737 0.000324 -0.012219 -0.003691 0.024703
#
#
# Mechanical properties :
#
#
# Convention : Reuss Voigt Hill
#
# Bulk Modulus (GPa) = 17.70510 50.37682 34.04096
# Shear Modulus (GPa) = 21.91446 41.03333 31.47389
#
# Velocity S-wave (km/s) = 3.00053 4.10582 3.59590
# Velocity P-wave (km/s) = 4.39067 6.57065 5.58800
#
# Compressibility (1/GPa) = 0.05648090
#
# Stress axis : x y z
#
# Youngs Moduli (GPa) = 108.07468 94.52068 26.44894
#
# Poissons Ratio (x) = 0.27577 -0.17434
# Poissons Ratio (y) = 0.31532 0.11252
# Poissons Ratio (z) = -0.71238 0.40211
#
# Static dielectric constant tensor:
#      x y z
#    x 2.050690 -0.050050 -0.102770 
#    y -0.050050 1.908590 -0.290730 
#    z -0.102770 -0.290730 1.597470 
# 
# From -- ./inp_files/488146.got.cif
#   From: 2010.05.17/outbox.cif.g08.bks.cpg/sg2_245_cif.got.tgz:488146.got - 2010.06.03 11:33:40.
