data_PCOD9019066
_publ_section_title
;
Structure prediction by ZEFSAII (Michael W. Deem and Ramdas Pophale) SiO2 
 PCOD9019066
Probable space group: P -1
;
_chemical_formula_sum "Si O2"
_cell_formula_units_Z 16
_cell_length_a 11.663665
_cell_length_b 14.952597
_cell_length_c 6.087300
_cell_angle_alpha 69.129436
_cell_angle_beta 86.686408
_cell_angle_gamma 127.477098
_cell_volume 731.280192
_symmetry_space_group_name_H-M "P -1"
_symmetry_group_IT_number 2
_symmetry_cell_setting 'triclinic'
loop_
_space_group_symop_operation_xyz
x,y,z
-x,-y,-z
loop_
_atom_site_type_symbol
_atom_site_label
_atom_site_fract_x
_atom_site_fract_y
_atom_site_fract_z
Si Si1 0.956975 0.754425 0.548974
Si Si2 0.697225 0.692211 0.946599
Si Si3 0.931489 0.982682 0.777257
Si Si4 0.247035 0.823371 0.637706
Si Si5 0.433306 0.668234 0.067452
Si Si6 0.173185 0.577228 0.835602
Si Si7 0.489594 0.919366 0.874778
Si Si8 0.751052 0.547515 0.383677
O O1 0.807190 0.713863 0.724047
O O2 0.884737 0.655865 0.442851
O O3 0.071267 0.761746 0.692878
O O4 0.065938 0.901724 0.324737
O O5 0.782867 0.831458 0.923509
O O6 0.538324 0.653753 0.925576
O O7 0.691274 0.603673 0.200173
O O8 0.000000 0.000000 0.500000
O O9 0.000000 0.000000 0.000000
O O10 0.245869 0.718024 0.615333
O O11 0.321361 0.844142 0.847731
O O12 0.368698 0.966686 0.396395
O O13 0.389120 0.581481 0.358850
O O14 0.278846 0.603214 0.003938
O O15 0.500686 0.810910 0.997299
O O16 0.178003 0.495356 0.735276
O O17 0.000000 0.500000 0.000000
O O18 0.500000 0.000000 0.000000
#
# Coordination Sequence:
#
# PCOD9019066 Si02
#       8
#     2   2   2   2   2   2   2   2
#     4  11  24  42  69  99 136 180 227 288 349 423
#     4  11  24  43  64  97 138 179 228 281 355 422
#     4  10  21  44  68 101 142 185 234 289 348 422
#     4  10  22  42  66  95 129 171 223 281 350 412
#     4  11  25  43  65  96 135 175 224 287 348 419
#     4  11  25  45  66  95 132 171 228 285 356 415
#     4  10  22  43  67  95 128 171 227 282 345 409
#     4  12  24  41  67  95 131 179 230 276 351 422
#
# _framework density 21.879438
#
# number of rings (size 3 to 8) (size 9 to 14) (size 15 to 20)
#    0.000    1.250    1.250    4.125    0.000    8.000 
#    4.500    0.000    0.000    0.000    0.000    0.000 
#    0.000    0.000    0.000    0.000    0.000    0.000 
#
# Total GULP energy -89226.416721 kJ/mol
# GULP energy per Si atom -5576.651045 kJ/mol
# Density = 2.182964 g / cm^3
# Si number density = 21.879438 Si / 1000 Ang^3
#
#
#
# Elastic Constant Matrix: (Units=GPa)
#
#
# Indices 1 2 3 4 5 6 
#
# 1 153.5495 57.3241 33.1338 4.3493 7.0051 -6.1691
# 2 57.3241 149.9439 44.0490 -3.6699 13.4268 -28.7720
# 3 33.1338 44.0490 62.1330 -11.6961 17.0313 -16.1458
# 4 4.3493 -3.6699 -11.6961 42.1631 -12.7863 9.7352
# 5 7.0051 13.4268 17.0313 -12.7863 25.0236 -1.8694
# 6 -6.1691 -28.7720 -16.1458 9.7352 -1.8694 32.6895
#
#
#
# Elastic Compliance Matrix: (Units=1/GPa)
#
#
# Indices 1 2 3 4 5 6 
#
# 1 0.008151 -0.002566 -0.003469 -0.001386 0.000599 -0.001987
# 2 -0.002566 0.010363 -0.003694 -0.002486 -0.003047 0.007379
# 3 -0.003469 -0.003694 0.026750 0.001353 -0.013956 0.008105
# 4 -0.001386 -0.002486 0.001353 0.031216 0.015992 -0.010163
# 5 0.000599 -0.003047 -0.013956 0.015992 0.058286 -0.010891
# 6 -0.001987 0.007379 0.008105 -0.010163 -0.010891 0.043117
#
#
# Mechanical properties :
#
#
# Convention : Reuss Voigt Hill
#
# Bulk Modulus (GPa) = 38.75065 70.51557 54.63311
# Shear Modulus (GPa) = 24.27862 35.38318 29.83090
#
# Velocity S-wave (km/s) = 3.33476 4.02579 3.69646
# Velocity P-wave (km/s) = 5.70762 7.34224 6.57592
#
# Compressibility (1/GPa) = 0.02580602
#
# Stress axis : x y z
#
# Youngs Moduli (GPa) = 122.68186 96.49626 37.38364
#
# Poissons Ratio (x) = 0.24760 0.12969
# Poissons Ratio (y) = 0.31479 0.13809
# Poissons Ratio (z) = 0.42560 0.35645
#
# Static dielectric constant tensor:
#      x y z
#    x 1.832260 0.016630 -0.012670 
#    y 0.016630 1.811200 -0.016980 
#    z -0.012670 -0.016980 1.871200 
# 
# From -- ./inp_files/70268.got.cif
#   From: 2010.05.17/outbox.cif.g08.bks.cpg/sg2_36_cif.got.tgz:70268.got - 2010.06.03 11:33:40.
