data_PCOD9019904
_publ_section_title
;
Structure prediction by ZEFSAII (Michael W. Deem and Ramdas Pophale) SiO2 
 PCOD9019904
Probable space group: P -1
;
_chemical_formula_sum "Si O2"
_cell_formula_units_Z 16
_cell_length_a 9.017942
_cell_length_b 14.500904
_cell_length_c 8.743109
_cell_angle_alpha 67.804147
_cell_angle_beta 110.011384
_cell_angle_gamma 63.596512
_cell_volume 747.505393
_symmetry_space_group_name_H-M "P -1"
_symmetry_group_IT_number 2
_symmetry_cell_setting 'triclinic'
loop_
_space_group_symop_operation_xyz
x,y,z
-x,-y,-z
loop_
_atom_site_type_symbol
_atom_site_label
_atom_site_fract_x
_atom_site_fract_y
_atom_site_fract_z
Si Si1 0.920722 0.617761 0.780082
Si Si2 0.141819 0.801668 0.884997
Si Si3 0.427951 0.111540 0.025165
Si Si4 0.882608 0.984369 0.334366
Si Si5 0.492476 0.546692 0.301128
Si Si6 0.280702 0.124387 0.278526
Si Si7 0.804048 0.318670 0.317895
Si Si8 0.231499 0.375262 0.604706
O O1 0.773380 0.746881 0.751324
O O2 0.791436 0.629955 0.582232
O O3 0.090944 0.624905 0.756835
O O4 0.000000 0.500000 0.000000
O O5 0.141642 0.916536 0.861544
O O6 0.267613 0.722587 0.821904
O O7 0.902456 0.871271 0.731337
O O8 0.249939 0.675517 0.108639
O O9 0.639387 0.057596 0.223287
O O10 0.281136 0.128058 0.093913
O O11 0.313589 0.245127 0.806087
O O12 0.500000 0.000000 0.000000
O O13 0.000000 0.000000 0.500000
O O14 0.017860 0.827815 0.450261
O O15 0.500000 0.500000 0.500000
O O16 0.616117 0.427402 0.295984
O O17 0.613785 0.600633 0.312103
O O18 0.500000 0.000000 0.500000
O O19 0.000000 0.500000 0.500000
#
# Coordination Sequence:
#
# PCOD9019904 Si02
#       8
#     2   2   2   2   2   2   2   2
#     4  11  24  43  71 101 135 183 235 285 346 419
#     4  10  23  45  69  99 137 180 229 281 344 414
#     4  12  25  44  74 104 140 186 231 298 354 405
#     4  10  21  45  71  99 136 183 228 281 348 421
#     4  12  27  44  65 101 143 178 227 285 351 407
#     4  11  24  45  71 104 139 180 235 284 343 423
#     4  10  22  44  70  95 137 182 228 278 345 412
#     4  12  25  45  69  99 139 183 235 288 352 415
#
# _framework density 21.404527000000002
#
# number of rings (size 3 to 8) (size 9 to 14) (size 15 to 20)
#    0.000    1.000    2.500    4.875    5.250    0.000 
#    9.000    1.250    0.000    0.000    0.000    0.000 
#    0.000    0.000    0.000    0.000    0.000    0.000 
#
# Total GULP energy -89251.487432 kJ/mol
# GULP energy per Si atom -5578.217964 kJ/mol
# Density = 2.135581 g / cm^3
# Si number density = 21.404527 Si / 1000 Ang^3
#
#
#
# Elastic Constant Matrix: (Units=GPa)
#
#
# Indices 1 2 3 4 5 6 
#
# 1 56.3566 40.8577 28.4465 -16.2395 -1.0849 -2.8031
# 2 40.8577 109.0939 47.3294 -13.5967 -25.8709 -8.6555
# 3 28.4465 47.3294 148.6194 -32.8221 -22.1177 -10.1199
# 4 -16.2395 -13.5967 -32.8221 50.2293 3.4226 -1.7381
# 5 -1.0849 -25.8709 -22.1177 3.4226 39.3250 0.1200
# 6 -2.8031 -8.6555 -10.1199 -1.7381 0.1200 28.2581
#
#
#
# Elastic Compliance Matrix: (Units=1/GPa)
#
#
# Indices 1 2 3 4 5 6 
#
# 1 0.027996 -0.010941 -0.001947 0.005330 -0.007982 -0.000910
# 2 -0.010941 0.016432 -0.001636 -0.000702 0.009639 0.003278
# 3 -0.001947 -0.001636 0.009484 0.004972 0.003762 0.002992
# 4 0.005330 -0.000702 0.004972 0.024795 0.000313 0.003618
# 5 -0.007982 0.009639 0.003762 0.000313 0.033629 0.003385
# 6 -0.000910 0.003278 0.002992 0.003618 0.003385 0.037582
#
#
# Mechanical properties :
#
#
# Convention : Reuss Voigt Hill
#
# Bulk Modulus (GPa) = 40.21865 60.81521 50.51693
# Shear Modulus (GPa) = 26.70178 36.72489 31.71334
#
# Velocity S-wave (km/s) = 3.53580 4.14666 3.85336
# Velocity P-wave (km/s) = 5.95817 7.16941 6.59167
#
# Compressibility (1/GPa) = 0.02486409
#
# Stress axis : x y z
#
# Youngs Moduli (GPa) = 35.71961 60.85557 105.44081
#
# Poissons Ratio (x) = 0.66582 0.20529
# Poissons Ratio (y) = 0.39081 0.17251
# Poissons Ratio (z) = 0.06955 0.09957
#
# Static dielectric constant tensor:
#      x y z
#    x 1.988380 0.064160 -0.045580 
#    y 0.064160 1.761260 0.023560 
#    z -0.045580 0.023560 2.043260 
# 
# From -- ./inp_files/205984.got.cif
#   From: 2010.05.17/outbox.cif.g08.bks.cpg/sg2_103_cif.got.tgz:205984.got - 2010.06.03 11:33:40.
