data_PCOD9019646
_publ_section_title
;
Structure prediction by ZEFSAII (Michael W. Deem and Ramdas Pophale) SiO2 
 PCOD9019646
Probable space group: P -1
;
_chemical_formula_sum "Si O2"
_cell_formula_units_Z 16
_cell_length_a 13.764337
_cell_length_b 25.392274
_cell_length_c 16.872267
_cell_angle_alpha 22.903365
_cell_angle_beta 146.835995
_cell_angle_gamma 160.539872
_cell_volume 741.766787
_symmetry_space_group_name_H-M "P -1"
_symmetry_group_IT_number 2
_symmetry_cell_setting 'triclinic'
loop_
_space_group_symop_operation_xyz
x,y,z
-x,-y,-z
loop_
_atom_site_type_symbol
_atom_site_label
_atom_site_fract_x
_atom_site_fract_y
_atom_site_fract_z
Si Si1 0.064689 0.384512 0.222777
Si Si2 0.139545 0.817308 0.460992
Si Si3 0.377093 0.533506 0.668768
Si Si4 0.988145 0.755274 0.784701
Si Si5 0.535603 0.243702 0.232201
Si Si6 0.219701 0.282906 0.055688
Si Si7 0.622704 0.953323 0.202744
Si Si8 0.754359 0.731495 0.200418
O O1 0.932878 0.214323 0.295904
O O2 0.420291 0.577721 0.199650
O O3 0.945593 0.274300 0.380658
O O4 0.000000 0.500000 0.000000
O O5 0.316288 0.799243 0.569512
O O6 0.856142 0.686795 0.398206
O O7 0.361388 0.080207 0.262888
O O8 0.730746 0.712347 0.676943
O O9 0.253163 0.351145 0.773191
O O10 0.384282 0.687193 0.424362
O O11 0.202391 0.390235 0.828458
O O12 0.253749 0.932628 0.783313
O O13 0.805998 0.507707 0.026439
O O14 0.314232 0.200892 0.191580
O O15 0.917551 0.083326 0.176027
O O16 0.500000 0.500000 0.000000
O O17 0.500000 0.000000 0.000000
O O18 0.000000 0.000000 0.000000
#
# Coordination Sequence:
#
# PCOD9019646 Si02
#       8
#     2   2   2   2   2   2   2   2
#     4  11  23  40  67 101 133 180 228 274 345 418
#     4  11  23  41  69 100 137 179 226 283 349 407
#     4  10  24  44  71  98 137 182 230 281 343 414
#     4  10  21  45  64  96 134 175 229 279 334 418
#     4  10  22  40  68  99 133 176 232 273 342 417
#     4  11  23  44  75  97 133 187 233 280 350 416
#     4  12  27  45  69 104 143 178 232 297 346 405
#     4  11  25  45  66  99 143 172 225 292 342 406
#
# _framework density 21.570122000000001
#
# number of rings (size 3 to 8) (size 9 to 14) (size 15 to 20)
#    0.000    1.250    3.750    3.000    7.000    0.500 
#    6.750    0.000    0.000    0.000    0.000    0.000 
#    0.000    0.000    0.000    0.000    0.000    0.000 
#
# Total GULP energy -89431.857271 kJ/mol
# GULP energy per Si atom -5589.491079 kJ/mol
# Density = 2.152103 g / cm^3
# Si number density = 21.570122 Si / 1000 Ang^3
#
#
#
# Elastic Constant Matrix: (Units=GPa)
#
#
# Indices 1 2 3 4 5 6 
#
# 1 88.2161 32.2196 32.9081 7.1557 -12.6801 4.4163
# 2 32.2196 99.4043 36.9140 17.1340 0.4543 -15.7922
# 3 32.9081 36.9140 118.3064 2.9621 -1.3688 -4.4098
# 4 7.1557 17.1340 2.9621 43.1225 1.6204 -2.1947
# 5 -12.6801 0.4543 -1.3688 1.6204 37.0005 4.0476
# 6 4.4163 -15.7922 -4.4098 -2.1947 4.0476 23.9040
#
#
#
# Elastic Compliance Matrix: (Units=1/GPa)
#
#
# Indices 1 2 3 4 5 6 
#
# 1 0.015685 -0.005100 -0.002971 -0.001012 0.006244 -0.007966
# 2 -0.005100 0.015221 -0.002862 -0.004353 -0.003007 0.010579
# 3 -0.002971 -0.002862 0.010166 0.000997 -0.000733 0.000749
# 4 -0.001012 -0.004353 0.000997 0.025071 -0.001357 0.000027
# 5 0.006244 -0.003007 -0.000733 -0.001357 0.030166 -0.008508
# 6 -0.007966 0.010579 0.000749 0.000027 -0.008508 0.051876
#
#
# Mechanical properties :
#
#
# Convention : Reuss Voigt Hill
#
# Bulk Modulus (GPa) = 52.06676 56.66779 54.36728
# Shear Modulus (GPa) = 28.33587 34.39773 31.36680
#
# Velocity S-wave (km/s) = 3.62838 3.99769 3.81751
# Velocity P-wave (km/s) = 6.46098 6.90197 6.68511
#
# Compressibility (1/GPa) = 0.01920611
#
# Stress axis : x y z
#
# Youngs Moduli (GPa) = 63.75416 65.69998 98.36241
#
# Poissons Ratio (x) = 0.33509 0.29223
# Poissons Ratio (y) = 0.32516 0.28151
# Poissons Ratio (z) = 0.18941 0.18803
#
# Static dielectric constant tensor:
#      x y z
#    x 1.788450 -0.002760 -0.003780 
#    y -0.002760 1.775090 0.008380 
#    z -0.003780 0.008380 1.850930 
# 
# From -- ./inp_files/574514.got.cif
#   From: 2010.05.17/outbox.cif.g08.bks.cpg/sg2_288_cif.got.tgz:574514.got - 2010.06.03 11:33:40.
