data_PCOD9019838
_publ_section_title
;
Structure prediction by ZEFSAII (Michael W. Deem and Ramdas Pophale) SiO2 
 PCOD9019838
Probable space group: P -1
;
_chemical_formula_sum "Si O2"
_cell_formula_units_Z 16
_cell_length_a 7.479139
_cell_length_b 9.577657
_cell_length_c 12.627941
_cell_angle_alpha 88.439222
_cell_angle_beta 132.443995
_cell_angle_gamma 92.469691
_cell_volume 666.895807
_symmetry_space_group_name_H-M "P -1"
_symmetry_group_IT_number 2
_symmetry_cell_setting 'triclinic'
loop_
_space_group_symop_operation_xyz
x,y,z
-x,-y,-z
loop_
_atom_site_type_symbol
_atom_site_label
_atom_site_fract_x
_atom_site_fract_y
_atom_site_fract_z
Si Si1 0.344683 0.616446 0.877413
Si Si2 0.819039 0.875956 0.389595
Si Si3 0.665053 0.750798 0.813254
Si Si4 0.390644 0.520557 0.335192
Si Si5 0.162077 0.420320 0.643856
Si Si6 0.532834 0.851017 0.066934
Si Si7 0.006627 0.758935 0.141467
Si Si8 0.571284 0.032811 0.645863
O O1 0.469183 0.694912 0.824075
O O2 0.153858 0.512669 0.744580
O O3 0.500000 0.500000 0.000000
O O4 0.316723 0.740136 0.950333
O O5 0.943186 0.738568 0.400282
O O6 0.616339 0.892030 0.216710
O O7 0.636084 0.857131 0.413248
O O8 0.000000 0.000000 0.500000
O O9 0.690319 0.633080 0.736564
O O10 0.574321 0.891903 0.720319
O O11 0.909399 0.766086 0.981642
O O12 0.500000 0.500000 0.500000
O O13 0.577881 0.573250 0.313565
O O14 0.171700 0.627784 0.234787
O O15 0.000000 0.500000 0.500000
O O16 0.762664 0.772687 0.111971
O O17 0.500000 0.000000 0.000000
O O18 0.170073 0.893571 0.234579
O O19 0.500000 0.000000 0.500000
#
# Coordination Sequence:
#
# PCOD9019838 Si02
#       8
#     2   2   2   2   2   2   2   2
#     4  10  21  45  69  99 140 182 232 288 350 421
#     4  12  26  43  69 101 140 181 234 291 355 416
#     4  10  24  40  70 101 135 182 227 292 348 411
#     4  11  24  44  70  99 139 185 236 286 350 418
#     4  11  26  43  68 102 137 183 235 290 354 417
#     4  11  25  45  72 105 139 184 234 294 354 421
#     4  11  23  46  68 101 140 180 237 289 350 421
#     4  12  25  47  70 101 143 187 235 288 352 427
#
# _framework density 23.991754
#
# number of rings (size 3 to 8) (size 9 to 14) (size 15 to 20)
#    0.000    1.000    2.500    3.750    7.000    0.000 
#    0.000    3.750    0.000    0.000    0.000    0.000 
#    0.000    0.000    0.000    0.000    0.000    0.000 
#
# Total GULP energy -89182.200067 kJ/mol
# GULP energy per Si atom -5573.887504 kJ/mol
# Density = 2.393715 g / cm^3
# Si number density = 23.991754 Si / 1000 Ang^3
#
#
#
# Elastic Constant Matrix: (Units=GPa)
#
#
# Indices 1 2 3 4 5 6 
#
# 1 57.5664 -1.8242 -5.2636 13.3210 0.6717 -0.7797
# 2 -1.8242 178.5293 65.2324 26.4639 -4.0096 -4.6890
# 3 -5.2636 65.2324 176.6696 41.6140 -17.2865 -6.5618
# 4 13.3210 26.4639 41.6140 69.0368 -3.9024 0.7697
# 5 0.6717 -4.0096 -17.2865 -3.9024 30.6003 1.5951
# 6 -0.7797 -4.6890 -6.5618 0.7697 1.5951 38.5766
#
#
#
# Elastic Compliance Matrix: (Units=1/GPa)
#
#
# Indices 1 2 3 4 5 6 
#
# 1 0.018616 0.000334 0.001547 -0.004669 -0.000127 0.000778
# 2 0.000334 0.006586 -0.002143 -0.001334 -0.000551 0.000492
# 3 0.001547 -0.002143 0.007826 -0.004006 0.003542 0.001035
# 4 -0.004669 -0.001334 -0.004006 0.018330 0.000070 -0.001307
# 5 -0.000127 -0.000551 0.003542 0.000070 0.034667 -0.000902
# 6 0.000778 0.000492 0.001035 -0.001307 -0.000902 0.026238
#
#
# Mechanical properties :
#
#
# Convention : Reuss Voigt Hill
#
# Bulk Modulus (GPa) = 30.76421 58.78384 44.77403
# Shear Modulus (GPa) = 40.44626 51.28411 45.86519
#
# Velocity S-wave (km/s) = 4.11035 4.62840 4.37705
# Velocity P-wave (km/s) = 5.94788 7.28819 6.65188
#
# Compressibility (1/GPa) = 0.03250530
#
# Stress axis : x y z
#
# Youngs Moduli (GPa) = 53.71807 151.83371 127.77401
#
# Poissons Ratio (x) = -0.05079 -0.19771
# Poissons Ratio (y) = -0.01797 0.27386
# Poissons Ratio (z) = -0.08312 0.32542
#
# Static dielectric constant tensor:
#      x y z
#    x 1.899520 -0.003880 -0.010140 
#    y -0.003880 1.870950 0.081970 
#    z -0.010140 0.081970 2.071970 
# 
# From -- ./inp_files/382447.got.cif
#   From: 2010.05.17/outbox.cif.g08.bks.cpg/sg2_192_cif.got.tgz:382447.got - 2010.06.03 11:33:40.
