data_PCOD9019893
_publ_section_title
;
Structure prediction by ZEFSAII (Michael W. Deem and Ramdas Pophale) SiO2 
 PCOD9019893
Probable space group: P -1
;
_chemical_formula_sum "Si O2"
_cell_formula_units_Z 16
_cell_length_a 24.958562
_cell_length_b 12.140991
_cell_length_c 17.887560
_cell_angle_alpha 145.979060
_cell_angle_beta 160.388943
_cell_angle_gamma 34.142547
_cell_volume 985.616096
_symmetry_space_group_name_H-M "P -1"
_symmetry_group_IT_number 2
_symmetry_cell_setting 'triclinic'
loop_
_space_group_symop_operation_xyz
x,y,z
-x,-y,-z
loop_
_atom_site_type_symbol
_atom_site_label
_atom_site_fract_x
_atom_site_fract_y
_atom_site_fract_z
Si Si1 0.556428 0.206619 0.704604
Si Si2 0.454180 0.306992 0.795888
Si Si3 0.537146 0.545044 0.423677
Si Si4 0.076123 0.961908 0.957221
Si Si5 0.544097 0.880645 0.749640
Si Si6 0.240888 0.776124 0.371290
Si Si7 0.233659 0.441654 0.045705
Si Si8 0.083615 0.292668 0.280028
O O1 0.510434 0.280287 0.768902
O O2 0.469922 0.369972 0.620731
O O3 0.500000 0.000000 0.500000
O O4 0.752046 0.154134 0.917427
O O5 0.258305 0.326428 0.550954
O O6 0.538833 0.100752 0.835480
O O7 0.500000 0.500000 0.000000
O O8 0.541743 0.728960 0.590911
O O9 0.687819 0.354791 0.536001
O O10 0.370490 0.476793 0.186663
O O11 0.995769 0.815543 0.819751
O O12 0.938415 0.072498 0.778973
O O13 0.109199 0.133032 0.154431
O O14 0.379046 0.883323 0.581900
O O15 0.696230 0.772786 0.942029
O O16 0.234070 0.609152 0.204792
O O17 0.052604 0.504480 0.808521
#
# Coordination Sequence:
#
# PCOD9019893 Si02
#       8
#     2   2   2   2   2   2   2   2
#     4  12  21  34  54  82 113 138 174 227 274 312
#     4  12  25  38  52  76 115 151 174 212 277 332
#     4   9  15  29  52  85 108 131 169 227 274 303
#     4  10  17  30  57  86 106 133 180 230 260 304
#     4   9  15  31  52  79 108 141 174 213 265 316
#     4   8  15  26  52  85 110 128 171 227 270 302
#     4   8  15  26  54  84 105 130 179 228 257 303
#     4  10  17  32  55  84 107 136 186 219 257 314
#
# _framework density 16.233502000000001
#
# number of rings (size 3 to 8) (size 9 to 14) (size 15 to 20)
#    0.000    2.250    5.000    1.500    0.000    0.000 
#    0.000    3.125    0.000    3.000    0.000    0.000 
#    0.000    0.000    0.000    0.000    0.000    0.000 
#
# Total GULP energy -89171.101932 kJ/mol
# GULP energy per Si atom -5573.193871 kJ/mol
# Density = 1.619655 g / cm^3
# Si number density = 16.233502 Si / 1000 Ang^3
#
#
#
# Elastic Constant Matrix: (Units=GPa)
#
#
# Indices 1 2 3 4 5 6 
#
# 1 85.5996 55.5615 38.4808 3.2406 -0.3886 22.7660
# 2 55.5615 100.7776 55.3076 -11.2695 -6.6284 32.9757
# 3 38.4808 55.3076 84.7432 -8.6562 3.7965 3.7643
# 4 3.2406 -11.2695 -8.6562 26.6247 -0.4734 -3.3930
# 5 -0.3886 -6.6284 3.7965 -0.4734 12.7746 -3.4294
# 6 22.7660 32.9757 3.7643 -3.3930 -3.4294 30.7061
#
#
#
# Elastic Compliance Matrix: (Units=1/GPa)
#
#
# Indices 1 2 3 4 5 6 
#
# 1 0.021437 -0.007238 -0.005305 -0.008606 -0.004234 -0.008894
# 2 -0.007238 0.034314 -0.017977 0.006431 0.015975 -0.026785
# 3 -0.005305 -0.017977 0.026007 0.003717 -0.011946 0.019127
# 4 -0.008606 0.006431 0.003717 0.043172 0.004729 0.004318
# 5 -0.004234 0.015975 -0.011946 0.004729 0.089623 -0.002020
# 6 -0.008894 -0.026785 0.019127 0.004318 -0.002020 0.065832
#
#
# Mechanical properties :
#
#
# Convention : Reuss Voigt Hill
#
# Bulk Modulus (GPa) = 48.26701 63.31334 55.79018
# Shear Modulus (GPa) = 14.35417 22.13912 18.24665
#
# Velocity S-wave (km/s) = 2.97683 3.69696 3.35627
# Velocity P-wave (km/s) = 6.45080 7.57032 7.03287
#
# Compressibility (1/GPa) = 0.02071808
#
# Stress axis : x y z
#
# Youngs Moduli (GPa) = 46.64749 29.14303 38.45132
#
# Poissons Ratio (x) = 0.21095 0.20397
# Poissons Ratio (y) = 0.33765 0.69123
# Poissons Ratio (z) = 0.24745 0.52390
#
# Static dielectric constant tensor:
#      x y z
#    x 1.531330 0.021790 -0.000050 
#    y 0.021790 1.558680 -0.027930 
#    z -0.000050 -0.027930 1.533060 
# 
# From -- ./inp_files/257695.got.cif
#   From: 2010.05.17/outbox.cif.g08.bks.cpg/sg2_129_cif.got.tgz:257695.got - 2010.06.03 11:33:40.
