data_PCOD9019017
_publ_section_title
;
Structure prediction by ZEFSAII (Michael W. Deem and Ramdas Pophale) SiO2 
 PCOD9019017
Probable space group: P -1
;
_chemical_formula_sum "Si O2"
_cell_formula_units_Z 16
_cell_length_a 11.548404
_cell_length_b 16.686679
_cell_length_c 8.856804
_cell_angle_alpha 121.680295
_cell_angle_beta 128.003902
_cell_angle_gamma 32.709314
_cell_volume 726.631920
_symmetry_space_group_name_H-M "P -1"
_symmetry_group_IT_number 2
_symmetry_cell_setting 'triclinic'
loop_
_space_group_symop_operation_xyz
x,y,z
-x,-y,-z
loop_
_atom_site_type_symbol
_atom_site_label
_atom_site_fract_x
_atom_site_fract_y
_atom_site_fract_z
Si Si1 0.802365 0.250973 0.882150
Si Si2 0.606543 0.041370 0.560804
Si Si3 0.626782 0.518891 0.847342
Si Si4 0.870620 0.199611 0.245222
Si Si5 0.608276 0.746405 0.136548
Si Si6 0.906462 0.469215 0.772709
Si Si7 0.477322 0.765252 0.537861
Si Si8 0.769915 0.057772 0.193678
O O1 0.709541 0.399354 0.910580
O O2 0.623080 0.262212 0.685608
O O3 0.845758 0.217929 0.062233
O O4 0.042193 0.115138 0.850447
O O5 0.563131 0.137345 0.754978
O O6 0.488256 0.151376 0.433178
O O7 0.500000 0.000000 0.500000
O O8 0.876038 0.891721 0.598013
O O9 0.356325 0.637005 0.708755
O O10 0.787401 0.448086 0.758563
O O11 0.630878 0.622003 0.024992
O O12 0.856351 0.100905 0.200593
O O13 0.862607 0.665648 0.270618
O O14 0.481949 0.842424 0.977185
O O15 0.706557 0.612663 0.650734
O O16 0.000000 0.500000 0.000000
O O17 0.279612 0.880045 0.618453
#
# Coordination Sequence:
#
# PCOD9019017 Si02
#       8
#     2   2   2   2   2   2   2   2
#     4  12  24  38  71 110 134 174 232 285 339 401
#     4  12  28  44  69 103 138 179 232 282 341 413
#     4  10  23  40  72 102 131 183 231 274 339 409
#     4  11  22  46  67  95 145 178 223 282 349 400
#     4  10  22  48  69  92 141 193 214 276 352 406
#     4  10  21  44  67  94 145 185 222 273 344 404
#     4  12  24  42  71 105 135 179 234 286 338 395
#     4  11  21  43  73  96 136 186 225 281 338 400
#
# _framework density 22.019400000000001
#
# number of rings (size 3 to 8) (size 9 to 14) (size 15 to 20)
#    0.000    1.000    6.250    2.625    0.000    5.000 
#    0.000    1.250    0.000    0.000    0.000    0.000 
#    0.000    0.000    0.000    0.000    0.000    0.000 
#
# Total GULP energy -89416.728350 kJ/mol
# GULP energy per Si atom -5588.545522 kJ/mol
# Density = 2.196928 g / cm^3
# Si number density = 22.019400 Si / 1000 Ang^3
#
#
#
# Elastic Constant Matrix: (Units=GPa)
#
#
# Indices 1 2 3 4 5 6 
#
# 1 106.9609 26.6577 14.5405 -11.2486 -2.3086 6.1120
# 2 26.6577 65.5784 -1.7594 -12.6987 20.8158 10.8936
# 3 14.5405 -1.7594 51.8416 -11.6180 -4.7457 15.0247
# 4 -11.2486 -12.6987 -11.6180 31.7765 -0.8758 3.0723
# 5 -2.3086 20.8158 -4.7457 -0.8758 18.9675 -14.8818
# 6 6.1120 10.8936 15.0247 3.0723 -14.8818 37.2098
#
#
#
# Elastic Compliance Matrix: (Units=1/GPa)
#
#
# Indices 1 2 3 4 5 6 
#
# 1 -0.007618 0.080648 0.030218 0.046068 -0.160079 -0.102387
# 2 0.080648 -0.369733 -0.146741 -0.197499 0.733831 0.464045
# 3 0.030218 -0.146741 -0.033152 -0.068788 0.288570 0.172473
# 4 0.046068 -0.197499 -0.068788 -0.068724 0.390028 0.239692
# 5 -0.160079 0.733831 0.288570 0.390028 -1.379336 -0.888920
# 6 -0.102387 0.464045 0.172473 0.239692 -0.888920 -0.537111
#
#
# Mechanical properties :
#
#
# Convention : Reuss Voigt Hill
#
# Bulk Modulus (GPa) = -2.07360 33.69537 15.81089
# Shear Modulus (GPa) = -2.01234 29.92024 13.95395
#
# Velocity S-wave (km/s) = -0.95701 3.69021 2.52009
# Velocity P-wave (km/s) = 1.47137 5.78728 3.95776
#
# Compressibility (1/GPa) = -0.48225318
#
# Stress axis : x y z
#
# Youngs Moduli (GPa) = -131.26424 -2.70466 -30.16451
#
# Poissons Ratio (x) = 0.21813 0.91150
# Poissons Ratio (y) = 10.58625 -4.42638
# Poissons Ratio (z) = 3.96648 -0.39688
#
# Static dielectric constant tensor:
#      x y z
#    x 1.819070 -0.034170 0.021070 
#    y -0.034170 1.838760 0.028040 
#    z 0.021070 0.028040 1.849060 
# 
# From -- ./inp_files/278180.got.cif
#   From: 2010.05.17/outbox.cif.g08.bks.cpg/sg2_140_cif.got.tgz:278180.got - 2010.06.03 11:33:40.
