data_PCOD9019954
_publ_section_title
;
Structure prediction by ZEFSAII (Michael W. Deem and Ramdas Pophale) SiO2 
 PCOD9019954
Probable space group: P -1
;
_chemical_formula_sum "Si O2"
_cell_formula_units_Z 11
_cell_length_a 16.247441
_cell_length_b 5.148034
_cell_length_c 5.506584
_cell_angle_alpha 90.883717
_cell_angle_beta 68.467090
_cell_angle_gamma 90.130342
_cell_volume 428.384416
_symmetry_space_group_name_H-M "P -1"
_symmetry_group_IT_number 2
_symmetry_cell_setting 'triclinic'
loop_
_space_group_symop_operation_xyz
x,y,z
-x,-y,-z
loop_
_atom_site_type_symbol
_atom_site_label
_atom_site_fract_x
_atom_site_fract_y
_atom_site_fract_z
Si Si1 0.811071 0.434346 0.898747
Si Si2 0.261316 0.906270 0.390865
Si Si3 0.901595 0.936186 0.682749
Si Si4 0.500000 0.500000 0.500000
Si Si5 0.575011 0.007808 0.117510
Si Si6 0.342512 0.327310 0.619236
O O1 0.765595 0.382374 0.680014
O O2 0.884267 0.655968 0.807088
O O3 0.860064 0.163989 0.898845
O O4 0.736252 0.518131 0.169422
O O5 0.165806 0.044489 0.471287
O O6 0.307776 0.049076 0.565821
O O7 0.327680 0.989268 0.103362
O O8 0.000000 0.000000 0.500000
O O9 0.555186 0.255705 0.302816
O O10 0.409848 0.480367 0.381311
O O11 0.576052 0.743135 0.276820
O O12 0.500000 0.000000 0.000000
#
# Coordination Sequence:
#
# PCOD9019954 Si02
#       6
#     2   2   2   1   2   2
#     4  10  22  44  68  98 139 173 220 285 334 399
#     4  10  24  41  67  97 136 182 217 286 334 395
#     4  10  21  45  73  99 133 177 219 279 348 402
#     4  12  24  38  66  92 130 184 226 272 330 390
#     4  12  25  43  60  97 134 179 231 280 331 392
#     4  12  24  44  63 100 135 181 231 272 339 402
#
# _framework density 25.677873000000002
#
# number of rings (size 3 to 8) (size 9 to 14) (size 15 to 20)
#    1.091    0.000    5.455    1.091    0.000    3.636 
#    0.000    1.818    0.000    0.000    0.000    0.000 
#    0.000    0.000    0.000    0.000    0.000    0.000 
#
# Total GULP energy -61289.833274 kJ/mol
# GULP energy per Si atom -5571.803025 kJ/mol
# Density = 2.561943 g / cm^3
# Si number density = 25.677873 Si / 1000 Ang^3
#
#
#
# Elastic Constant Matrix: (Units=GPa)
#
#
# Indices 1 2 3 4 5 6 
#
# 1 160.5069 41.9292 47.1980 -3.3714 -42.5169 29.5617
# 2 41.9292 182.9212 47.5093 24.3749 -8.5752 27.9745
# 3 47.1980 47.5093 80.2741 19.5136 -16.5536 2.5282
# 4 -3.3714 24.3749 19.5136 38.9111 1.4877 -11.2555
# 5 -42.5169 -8.5752 -16.5536 1.4877 39.9386 -10.2733
# 6 29.5617 27.9745 2.5282 -11.2555 -10.2733 41.6108
#
#
#
# Elastic Compliance Matrix: (Units=1/GPa)
#
#
# Indices 1 2 3 4 5 6 
#
# 1 0.010774 -0.000424 -0.004727 0.001944 0.008180 -0.004537
# 2 -0.000424 0.008116 -0.003389 -0.005325 -0.001664 -0.006800
# 3 -0.004727 -0.003389 0.019636 -0.007304 0.003509 0.003334
# 4 0.001944 -0.005325 -0.007304 0.036476 -0.000258 0.012445
# 5 0.008180 -0.001664 0.003509 -0.000258 0.035850 0.003875
# 6 -0.004537 -0.006800 0.003334 0.012445 0.003875 0.035947
#
#
# Mechanical properties :
#
#
# Convention : Reuss Voigt Hill
#
# Bulk Modulus (GPa) = 46.62590 77.44167 62.03378
# Shear Modulus (GPa) = 29.23514 43.22981 36.23248
#
# Velocity S-wave (km/s) = 3.37788 4.10755 3.76045
# Velocity P-wave (km/s) = 5.78021 7.26088 6.56244
#
# Compressibility (1/GPa) = 0.02144731
#
# Stress axis : x y z
#
# Youngs Moduli (GPa) = 92.81428 123.22057 50.92661
#
# Poissons Ratio (x) = 0.05222 0.24073
# Poissons Ratio (y) = 0.03933 0.17257
# Poissons Ratio (z) = 0.43873 0.41754
#
# Static dielectric constant tensor:
#      x y z
#    x 2.119820 -0.008970 0.169760 
#    y -0.008970 2.175970 -0.068730 
#    z 0.169760 -0.068730 2.116330 
# 
# From -- ./inp_files/3347.got.cif
#   From: 2010.05.17/outbox.cif.g08.bks.cpg/sg2_2_cif.got.tgz:3347.got - 2010.06.03 11:33:40.
