data_PCOD9019629
_publ_section_title
;
Structure prediction by ZEFSAII (Michael W. Deem and Ramdas Pophale) SiO2 
 PCOD9019629
Probable space group: P -1
;
_chemical_formula_sum "Si O2"
_cell_formula_units_Z 15
_cell_length_a 12.385879
_cell_length_b 8.151376
_cell_length_c 7.663041
_cell_angle_alpha 54.499151
_cell_angle_beta 96.179598
_cell_angle_gamma 80.869039
_cell_volume 602.354782
_symmetry_space_group_name_H-M "P -1"
_symmetry_group_IT_number 2
_symmetry_cell_setting 'triclinic'
loop_
_space_group_symop_operation_xyz
x,y,z
-x,-y,-z
loop_
_atom_site_type_symbol
_atom_site_label
_atom_site_fract_x
_atom_site_fract_y
_atom_site_fract_z
Si Si1 0.649009 0.652371 0.973275
Si Si2 0.500000 0.500000 0.500000
Si Si3 0.771495 0.954649 0.621936
Si Si4 0.981671 0.279371 0.185647
Si Si5 0.976672 0.281624 0.601960
Si Si6 0.727499 0.403410 0.475726
Si Si7 0.810112 0.055684 0.169203
Si Si8 0.422199 0.712731 0.013392
O O1 0.721380 0.566919 0.214294
O O2 0.518508 0.798181 0.884187
O O3 0.713941 0.781528 0.788241
O O4 0.627567 0.442379 0.015544
O O5 0.633989 0.500678 0.540945
O O6 0.500933 0.572773 0.257150
O O7 0.902412 0.889245 0.746735
O O8 0.705903 0.186319 0.534197
O O9 0.780973 0.966544 0.406672
O O10 0.971790 0.252926 0.408661
O O11 0.870214 0.237839 0.110652
O O12 0.000000 0.500000 0.000000
O O13 0.851561 0.317822 0.630338
O O14 0.000000 0.500000 0.500000
O O15 0.086498 0.112563 0.797393
O O16 0.686437 0.124813 0.021367
#
# Coordination Sequence:
#
# PCOD9019629 Si02
#       8
#     2   1   2   2   2   2   2   2
#     4  10  22  40  72  93 125 175 227 272 319 383
#     4  10  26  42  66  84 136 176 198 278 348 374
#     4  11  20  38  71  98 126 169 225 275 317 381
#     4  11  21  39  69  98 130 177 221 267 326 395
#     4  11  23  41  63  96 139 172 208 276 338 388
#     4  11  21  47  63  95 132 172 222 269 324 399
#     4  11  21  41  68 101 132 172 230 273 315 410
#     4  10  21  45  63  97 131 167 223 277 323 399
#
# _framework density 24.902269
#
# number of rings (size 3 to 8) (size 9 to 14) (size 15 to 20)
#    0.000    1.333    4.000    2.400    0.000    3.733 
#    7.200    2.667    0.000    0.000    0.000    0.000 
#    0.000    0.000    0.000    0.000    0.000    0.000 
#
# Total GULP energy -83585.316893 kJ/mol
# GULP energy per Si atom -5572.354460 kJ/mol
# Density = 2.484559 g / cm^3
# Si number density = 24.902269 Si / 1000 Ang^3
#
#
#
# Elastic Constant Matrix: (Units=GPa)
#
#
# Indices 1 2 3 4 5 6 
#
# 1 196.1732 19.2257 29.8245 -17.4044 -3.9665 -7.8131
# 2 19.2257 22.9659 7.4724 -14.3945 1.7289 6.9577
# 3 29.8245 7.4724 89.8054 -11.1188 -14.4496 4.8392
# 4 -17.4044 -14.3945 -11.1188 31.6489 1.7334 -0.4029
# 5 -3.9665 1.7289 -14.4496 1.7334 49.1095 -10.5563
# 6 -7.8131 6.9577 4.8392 -0.4029 -10.5563 9.9100
#
#
#
# Elastic Compliance Matrix: (Units=1/GPa)
#
#
# Indices 1 2 3 4 5 6 
#
# 1 0.007773 -0.016225 -0.002070 -0.003848 0.006064 0.024833
# 2 -0.016225 0.141871 0.002367 0.056703 -0.040885 -0.154799
# 3 -0.002070 0.002367 0.012841 0.004257 0.001762 -0.007514
# 4 -0.003848 0.056703 0.004257 0.056876 -0.015851 -0.059496
# 5 0.006064 -0.040885 0.001762 -0.015851 0.039226 0.073764
# 6 0.024833 -0.154799 -0.007514 -0.059496 0.073764 0.308993
#
#
# Mechanical properties :
#
#
# Convention : Reuss Voigt Hill
#
# Bulk Modulus (GPa) = 7.65526 46.88775 27.27150
# Shear Modulus (GPa) = 7.77630 34.96183 21.36907
#
# Velocity S-wave (km/s) = 1.76904 3.75101 2.93254
# Velocity P-wave (km/s) = 2.69323 6.13431 4.73726
#
# Compressibility (1/GPa) = 0.13062907
#
# Stress axis : x y z
#
# Youngs Moduli (GPa) = 128.65733 7.04865 77.87371
#
# Poissons Ratio (x) = 0.11436 0.16122
# Poissons Ratio (y) = 2.08747 -0.18435
# Poissons Ratio (z) = 0.26635 -0.01669
#
# Static dielectric constant tensor:
#      x y z
#    x 2.047880 -0.095270 0.077280 
#    y -0.095270 2.036710 -0.085570 
#    z 0.077280 -0.085570 1.864500 
# 
# From -- ./inp_files/199295.got.cif
#   From: 2010.05.17/outbox.cif.g08.bks.cpg/sg2_100_cif.got.tgz:199295.got - 2010.06.03 11:33:40.
