data_PCOD9019526
_publ_section_title
;
Structure prediction by ZEFSAII (Michael W. Deem and Ramdas Pophale) SiO2 
 PCOD9019526
Probable space group: P -1
;
_chemical_formula_sum "Si O2"
_cell_formula_units_Z 16
_cell_length_a 17.824495
_cell_length_b 11.732760
_cell_length_c 7.455860
_cell_angle_alpha 133.367107
_cell_angle_beta 38.062908
_cell_angle_gamma 140.209220
_cell_volume 601.898599
_symmetry_space_group_name_H-M "P -1"
_symmetry_group_IT_number 2
_symmetry_cell_setting 'triclinic'
loop_
_space_group_symop_operation_xyz
x,y,z
-x,-y,-z
loop_
_atom_site_type_symbol
_atom_site_label
_atom_site_fract_x
_atom_site_fract_y
_atom_site_fract_z
Si Si1 0.466779 0.664336 0.883265
Si Si2 0.937220 0.091741 0.846037
Si Si3 0.068703 0.803828 0.665536
Si Si4 0.830043 0.437105 0.578196
Si Si5 0.179178 0.427447 0.603858
Si Si6 0.562378 0.220696 0.331093
Si Si7 0.723992 0.010587 0.860011
Si Si8 0.618030 0.651212 0.071644
O O1 0.454522 0.746439 0.808521
O O2 0.625239 0.792935 0.793740
O O3 0.416697 0.452239 0.781152
O O4 0.338866 0.659368 0.230896
O O5 0.761368 0.681278 0.745444
O O6 0.919298 0.054142 0.051217
O O7 0.000000 0.000000 0.500000
O O8 0.063266 0.300259 0.824601
O O9 0.139079 0.697523 0.513618
O O10 0.911850 0.636307 0.734840
O O11 0.421250 0.193211 0.662461
O O12 0.159336 0.903101 0.425041
O O13 0.883171 0.491517 0.334780
O O14 0.308494 0.589997 0.637108
O O15 0.612407 0.078413 0.118937
O O16 0.804923 0.068729 0.958116
O O17 0.500000 0.500000 0.000000
#
# Coordination Sequence:
#
# PCOD9019526 Si02
#       8
#     2   2   2   2   2   2   2   2
#     4  11  23  43  69 107 148 185 237 300 365 427
#     4  12  29  48  71 104 148 197 242 303 372 439
#     4  11  24  46  75 104 143 191 248 294 367 435
#     4  10  21  44  73 107 139 188 245 302 353 437
#     4  10  22  44  71 101 143 190 252 292 356 432
#     4  11  22  42  72 104 141 192 239 298 357 440
#     4  12  27  47  72 110 150 187 238 309 376 425
#     4   9  22  42  68 101 137 190 238 292 349 430
#
# _framework density 26.582550999999999
#
# number of rings (size 3 to 8) (size 9 to 14) (size 15 to 20)
#    0.000    1.250    2.500    2.250    5.250    2.500 
#    9.000    6.250    0.000    0.000    0.000    0.000 
#    0.000    0.000    0.000    0.000    0.000    0.000 
#
# Total GULP energy -89541.838813 kJ/mol
# GULP energy per Si atom -5596.364926 kJ/mol
# Density = 2.652205 g / cm^3
# Si number density = 26.582551 Si / 1000 Ang^3
#
#
#
# Elastic Constant Matrix: (Units=GPa)
#
#
# Indices 1 2 3 4 5 6 
#
# 1 111.8766 19.2086 28.6473 -6.7595 7.2444 10.8228
# 2 19.2086 93.8765 46.4870 -15.0660 -1.1872 15.7212
# 3 28.6473 46.4870 118.1192 -10.5000 9.9405 -5.6039
# 4 -6.7595 -15.0660 -10.5000 45.4673 -8.0222 -0.8981
# 5 7.2444 -1.1872 9.9405 -8.0222 38.1388 10.8763
# 6 10.8228 15.7212 -5.6039 -0.8981 10.8763 41.3320
#
#
#
# Elastic Compliance Matrix: (Units=1/GPa)
#
#
# Indices 1 2 3 4 5 6 
#
# 1 0.009911 -0.000331 -0.002304 0.000711 -0.000382 -0.002666
# 2 -0.000331 0.016328 -0.006818 0.004631 0.005734 -0.008457
# 3 -0.002304 -0.006818 0.012365 -0.000481 -0.004849 0.006139
# 4 0.000711 0.004631 -0.000481 0.024553 0.006185 -0.003107
# 5 -0.000382 0.005734 -0.004849 0.006185 0.032195 -0.011076
# 6 -0.002666 -0.008457 0.006139 -0.003107 -0.011076 0.031788
#
#
# Mechanical properties :
#
#
# Convention : Reuss Voigt Hill
#
# Bulk Modulus (GPa) = 50.76879 56.95090 53.85984
# Shear Modulus (GPa) = 32.76276 40.28957 36.52616
#
# Velocity S-wave (km/s) = 3.51449 3.89735 3.71086
# Velocity P-wave (km/s) = 5.96732 6.45934 6.21820
#
# Compressibility (1/GPa) = 0.01969714
#
# Stress axis : x y z
#
# Youngs Moduli (GPa) = 100.89842 61.24369 80.87506
#
# Poissons Ratio (x) = 0.02028 0.18637
# Poissons Ratio (y) = 0.03340 0.55140
# Poissons Ratio (z) = 0.23251 0.41755
#
# Static dielectric constant tensor:
#      x y z
#    x 2.059690 -0.053540 -0.044060 
#    y -0.053540 2.150660 0.060770 
#    z -0.044060 0.060770 2.126790 
# 
# From -- ./inp_files/332249.got.cif
#   From: 2010.05.17/outbox.cif.g08.bks.cpg/sg2_167_cif.got.tgz:332249.got - 2010.06.03 11:33:40.
