data_PCOD9019223
_publ_section_title
;
Structure prediction by ZEFSAII (Michael W. Deem and Ramdas Pophale) SiO2 
 PCOD9019223
Probable space group: P -1
;
_chemical_formula_sum "Si O2"
_cell_formula_units_Z 16
_cell_length_a 16.404418
_cell_length_b 8.782098
_cell_length_c 10.154350
_cell_angle_alpha 94.373744
_cell_angle_beta 58.777984
_cell_angle_gamma 49.389668
_cell_volume 731.947352
_symmetry_space_group_name_H-M "P -1"
_symmetry_group_IT_number 2
_symmetry_cell_setting 'triclinic'
loop_
_space_group_symop_operation_xyz
x,y,z
-x,-y,-z
loop_
_atom_site_type_symbol
_atom_site_label
_atom_site_fract_x
_atom_site_fract_y
_atom_site_fract_z
Si Si1 0.007609 0.078747 0.640968
Si Si2 0.762321 0.472622 0.532535
Si Si3 0.977287 0.706565 0.541765
Si Si4 0.816108 0.838313 0.944993
Si Si5 0.495546 0.385619 0.332247
Si Si6 0.456110 0.780928 0.432926
Si Si7 0.830726 0.614453 0.256785
Si Si8 0.738040 0.602994 0.055060
O O1 0.085521 0.136181 0.528631
O O2 0.115330 0.826884 0.621226
O O3 0.000000 0.000000 0.500000
O O4 0.845361 0.341173 0.867893
O O5 0.592007 0.610045 0.699635
O O6 0.758612 0.597373 0.427387
O O7 0.846249 0.451880 0.581189
O O8 0.861878 0.869269 0.775171
O O9 0.000000 0.500000 0.500000
O O10 0.984278 0.598790 0.867750
O O11 0.740997 0.764370 0.989102
O O12 0.687087 0.113284 0.141987
O O13 0.442065 0.629121 0.376354
O O14 0.456677 0.369997 0.509485
O O15 0.566944 0.748549 0.248601
O O16 0.286394 0.086147 0.624824
O O17 0.818490 0.544430 0.123652
#
# Coordination Sequence:
#
# PCOD9019223 Si02
#       8
#     2   2   2   2   2   2   2   2
#     4  10  24  42  67  95 133 173 230 279 330 383
#     4  10  23  41  68  92 142 168 221 279 339 394
#     4  10  21  44  69  97 125 178 228 281 329 391
#     4  11  24  40  71  97 136 174 227 275 332 406
#     4  11  24  43  60 101 138 180 214 277 341 394
#     4  11  25  39  65  96 150 174 215 271 337 420
#     4  11  23  42  65 105 136 176 220 270 345 409
#     4  12  22  39  70  96 133 180 217 274 337 403
#
# _framework density 21.859497000000001
#
# number of rings (size 3 to 8) (size 9 to 14) (size 15 to 20)
#    0.000    1.250    3.750    1.500    7.000    1.500 
#    0.000    1.250    8.250    0.000    0.000    0.000 
#    0.000    0.000    0.000    0.000    0.000    0.000 
#
# Total GULP energy -89224.915506 kJ/mol
# GULP energy per Si atom -5576.557219 kJ/mol
# Density = 2.180974 g / cm^3
# Si number density = 21.859497 Si / 1000 Ang^3
#
#
#
# Elastic Constant Matrix: (Units=GPa)
#
#
# Indices 1 2 3 4 5 6 
#
# 1 83.2514 29.3024 33.1538 11.9383 -14.7940 22.6130
# 2 29.3024 107.2424 25.2681 11.2802 0.8837 15.8157
# 3 33.1538 25.2681 104.3218 15.2789 3.0527 -0.3595
# 4 11.9383 11.2802 15.2789 35.6784 8.9881 6.8597
# 5 -14.7940 0.8837 3.0527 8.9881 28.0839 -4.5681
# 6 22.6130 15.8157 -0.3595 6.8597 -4.5681 19.7995
#
#
#
# Elastic Compliance Matrix: (Units=1/GPa)
#
#
# Indices 1 2 3 4 5 6 
#
# 1 0.023850 -0.001205 -0.007279 -0.002697 0.010507 -0.023050
# 2 -0.001205 0.011451 -0.002343 -0.000113 -0.002045 -0.008246
# 3 -0.007279 -0.002343 0.013172 -0.004149 -0.002011 0.011398
# 4 -0.002697 -0.000113 -0.004149 0.037052 -0.014971 -0.013195
# 5 0.010507 -0.002045 -0.002011 -0.014971 0.047137 0.005660
# 6 -0.023050 -0.008246 0.011398 -0.013195 0.005660 0.089503
#
#
# Mechanical properties :
#
#
# Convention : Reuss Voigt Hill
#
# Bulk Modulus (GPa) = 37.28743 52.25159 44.76951
# Shear Modulus (GPa) = 19.78180 30.51846 25.15013
#
# Velocity S-wave (km/s) = 3.01151 3.74052 3.39563
# Velocity P-wave (km/s) = 5.40250 6.52768 5.99156
#
# Compressibility (1/GPa) = 0.02681869
#
# Stress axis : x y z
#
# Youngs Moduli (GPa) = 41.92953 87.33124 75.91638
#
# Poissons Ratio (x) = 0.10523 0.55263
# Poissons Ratio (y) = 0.05052 0.17784
# Poissons Ratio (z) = 0.30522 0.20458
#
# Static dielectric constant tensor:
#      x y z
#    x 2.005300 -0.520680 0.171290 
#    y -0.520680 4.259540 -0.732080 
#    z 0.171290 -0.732080 2.033700 
# 
# From -- ./inp_files/462208.got.cif
#   From: 2010.05.17/outbox.cif.g08.bks.cpg/sg2_232_cif.got.tgz:462208.got - 2010.06.03 11:33:40.
