data_PCOD9019496
_publ_section_title
;
Structure prediction by ZEFSAII (Michael W. Deem and Ramdas Pophale) SiO2 
 PCOD9019496
Probable space group: P -1
;
_chemical_formula_sum "Si O2"
_cell_formula_units_Z 16
_cell_length_a 11.825139
_cell_length_b 8.593944
_cell_length_c 9.570174
_cell_angle_alpha 64.596735
_cell_angle_beta 64.534435
_cell_angle_gamma 102.997634
_cell_volume 686.015283
_symmetry_space_group_name_H-M "P -1"
_symmetry_group_IT_number 2
_symmetry_cell_setting 'triclinic'
loop_
_space_group_symop_operation_xyz
x,y,z
-x,-y,-z
loop_
_atom_site_type_symbol
_atom_site_label
_atom_site_fract_x
_atom_site_fract_y
_atom_site_fract_z
Si Si1 0.291983 0.804365 0.540195
Si Si2 0.635433 0.759216 0.632511
Si Si3 0.655572 0.318184 0.149648
Si Si4 0.038852 0.483154 0.202174
Si Si5 0.533264 0.941229 0.155255
Si Si6 0.949902 0.796526 0.182968
Si Si7 0.351397 0.296998 0.672306
Si Si8 0.079263 0.200918 0.475356
O O1 0.363810 0.784057 0.650397
O O2 0.378990 0.785808 0.370058
O O3 0.122088 0.663553 0.709971
O O4 0.318485 0.024247 0.417286
O O5 0.466397 0.617500 0.809762
O O6 0.665166 0.798102 0.436011
O O7 0.746797 0.701412 0.659584
O O8 0.611243 0.145308 0.124822
O O9 0.822441 0.480522 0.974198
O O10 0.043222 0.367711 0.381224
O O11 0.040677 0.688737 0.144447
O O12 0.630941 0.836684 0.166588
O O13 0.500000 0.000000 0.000000
O O14 0.784403 0.666909 0.263698
O O15 0.958434 0.839902 0.326275
O O16 0.000000 0.000000 0.000000
O O17 0.500000 0.500000 0.500000
O O18 0.000000 0.000000 0.500000
#
# Coordination Sequence:
#
# PCOD9019496 Si02
#       8
#     2   2   2   2   2   2   2   2
#     4  11  21  43  74 100 141 186 239 288 357 429
#     4  10  21  44  72  99 134 197 234 289 352 425
#     4  11  23  43  72 102 140 182 244 290 343 438
#     4  12  26  42  74 113 142 187 238 300 364 415
#     4  11  23  41  70 103 137 181 234 296 361 412
#     4  11  27  46  73 103 144 189 240 292 358 432
#     4  11  22  43  68  98 139 186 238 286 353 425
#     4  11  25  48  73 103 148 185 237 301 362 418
#
# _framework density 23.323094999999999
#
# number of rings (size 3 to 8) (size 9 to 14) (size 15 to 20)
#    0.000    1.000    3.750    3.000    1.750    6.500 
#    0.000    0.000    0.000    0.000    0.000    0.000 
#    0.000    0.000    0.000    0.000    0.000    0.000 
#
# Total GULP energy -89405.850195 kJ/mol
# GULP energy per Si atom -5587.865637 kJ/mol
# Density = 2.327001 g / cm^3
# Si number density = 23.323095 Si / 1000 Ang^3
#
#
#
# Elastic Constant Matrix: (Units=GPa)
#
#
# Indices 1 2 3 4 5 6 
#
# 1 160.3453 30.3461 44.5278 7.6197 8.9002 0.5508
# 2 30.3461 30.8204 12.6794 -2.9267 10.8232 -8.4864
# 3 44.5278 12.6794 105.0844 1.9000 10.2619 13.7368
# 4 7.6197 -2.9267 1.9000 27.6831 5.9566 -0.2780
# 5 8.9002 10.8232 10.2619 5.9566 63.1525 -6.2190
# 6 0.5508 -8.4864 13.7368 -0.2780 -6.2190 34.0865
#
#
#
# Elastic Compliance Matrix: (Units=1/GPa)
#
#
# Indices 1 2 3 4 5 6 
#
# 1 0.008635 -0.008359 -0.002531 -0.003276 0.000830 -0.001076
# 2 -0.008359 0.048654 -0.003537 0.009150 -0.006206 0.012616
# 3 -0.002531 -0.003537 0.011946 -0.000225 -0.001542 -0.005937
# 4 -0.003276 0.009150 -0.000225 0.039008 -0.004561 0.001908
# 5 0.000830 -0.006206 -0.001542 -0.004561 0.017684 0.002252
# 6 -0.001076 0.012616 -0.005937 0.001908 0.002252 0.035315
#
#
# Mechanical properties :
#
#
# Convention : Reuss Voigt Hill
#
# Bulk Modulus (GPa) = 24.76501 52.37297 38.56899
# Shear Modulus (GPa) = 24.56311 38.89754 31.73033
#
# Velocity S-wave (km/s) = 3.24877 4.08826 3.69245
# Velocity P-wave (km/s) = 4.97132 6.69249 5.89506
#
# Compressibility (1/GPa) = 0.04037955
#
# Stress axis : x y z
#
# Youngs Moduli (GPa) = 115.80929 20.55330 83.70779
#
# Poissons Ratio (x) = 0.17181 0.21190
# Poissons Ratio (y) = 0.96810 0.29607
# Poissons Ratio (z) = 0.29316 0.07270
#
# Static dielectric constant tensor:
#      x y z
#    x 1.958660 -0.003870 -0.018810 
#    y -0.003870 1.968300 -0.018390 
#    z -0.018810 -0.018390 2.001800 
# 
# From -- ./inp_files/242944.got.cif
#   From: 2010.05.17/outbox.cif.g08.bks.cpg/sg2_122_cif.got.tgz:242944.got - 2010.06.03 11:33:40.
