data_PCOD9019806
_publ_section_title
;
Structure prediction by ZEFSAII (Michael W. Deem and Ramdas Pophale) SiO2 
 PCOD9019806
Probable space group: P -1
;
_chemical_formula_sum "Si O2"
_cell_formula_units_Z 16
_cell_length_a 14.599249
_cell_length_b 11.330356
_cell_length_c 7.743164
_cell_angle_alpha 59.130224
_cell_angle_beta 75.274544
_cell_angle_gamma 120.013754
_cell_volume 691.467015
_symmetry_space_group_name_H-M "P -1"
_symmetry_group_IT_number 2
_symmetry_cell_setting 'triclinic'
loop_
_space_group_symop_operation_xyz
x,y,z
-x,-y,-z
loop_
_atom_site_type_symbol
_atom_site_label
_atom_site_fract_x
_atom_site_fract_y
_atom_site_fract_z
Si Si1 0.897996 0.201206 0.263497
Si Si2 0.335576 0.789295 0.282638
Si Si3 0.092268 0.715747 0.399259
Si Si4 0.871716 0.937235 0.009616
Si Si5 0.589593 0.407306 0.090252
Si Si6 0.308323 0.253256 0.426460
Si Si7 0.373003 0.943705 0.511769
Si Si8 0.206560 0.432566 0.816018
O O1 0.928099 0.290771 0.376322
O O2 0.778867 0.170148 0.247770
O O3 0.800524 0.954779 0.488257
O O4 0.050934 0.335611 0.998796
O O5 0.247876 0.815256 0.216653
O O6 0.318899 0.803330 0.480754
O O7 0.271239 0.563630 0.503049
O O8 0.500000 0.000000 0.000000
O O9 0.000000 0.500000 0.500000
O O10 0.082526 0.862083 0.230150
O O11 0.749255 0.826593 0.294556
O O12 0.819224 0.761160 0.036665
O O13 0.000000 0.000000 0.000000
O O14 0.476238 0.389197 0.243834
O O15 0.685911 0.441581 0.164307
O O16 0.471836 0.180264 0.224247
O O17 0.690814 0.593504 0.765065
O O18 0.500000 0.000000 0.500000
#
# Coordination Sequence:
#
# PCOD9019806 Si02
#       8
#     2   2   2   2   2   2   2   2
#     4  10  24  45  74  99 145 179 241 292 351 429
#     4  11  27  47  68 104 148 184 238 291 366 428
#     4  11  27  49  73 105 145 190 233 297 366 421
#     4  12  26  44  72 104 145 186 241 294 360 421
#     4  10  23  41  70  99 134 187 238 288 359 416
#     4  10  23  45  67 102 141 183 238 294 352 425
#     4  10  21  45  69 101 136 189 237 290 354 429
#     4  12  25  45  72 108 138 192 240 294 360 424
#
# _framework density 23.139208
#
# number of rings (size 3 to 8) (size 9 to 14) (size 15 to 20)
#    0.000    1.250    2.500    1.500    5.250    5.500 
#    2.250    0.000    0.000    0.000    0.000    0.000 
#    0.000    0.000    0.000    0.000    0.000    0.000 
#
# Total GULP energy -89087.024539 kJ/mol
# GULP energy per Si atom -5567.939034 kJ/mol
# Density = 2.308654 g / cm^3
# Si number density = 23.139208 Si / 1000 Ang^3
#
#
#
# Elastic Constant Matrix: (Units=GPa)
#
#
# Indices 1 2 3 4 5 6 
#
# 1 149.1957 17.4261 64.9688 -9.8029 -0.5191 1.7834
# 2 17.4261 87.0773 23.1912 -12.4556 -4.0268 -8.0062
# 3 64.9688 23.1912 118.5060 -12.1153 -8.1795 -4.4140
# 4 -9.8029 -12.4556 -12.1153 29.0562 -0.1892 -0.9456
# 5 -0.5191 -4.0268 -8.1795 -0.1892 40.2563 -9.7395
# 6 1.7834 -8.0062 -4.4140 -0.9456 -9.7395 27.5096
#
#
#
# Elastic Compliance Matrix: (Units=1/GPa)
#
#
# Indices 1 2 3 4 5 6 
#
# 1 0.008975 -0.000655 -0.004904 0.000626 -0.001439 -0.002047
# 2 -0.000655 0.013231 -0.001394 0.005034 0.002171 0.004611
# 3 -0.004904 -0.001394 0.012010 0.002873 0.002975 0.002991
# 4 0.000626 0.005034 0.002873 0.038127 0.002239 0.003989
# 5 -0.001439 0.002171 0.002975 0.002239 0.028396 0.011333
# 6 -0.002047 0.004611 0.002991 0.003989 0.011333 0.042455
#
#
# Mechanical properties :
#
#
# Convention : Reuss Voigt Hill
#
# Bulk Modulus (GPa) = 49.23599 62.88347 56.05973
# Shear Modulus (GPa) = 30.51199 35.97728 33.24464
#
# Velocity S-wave (km/s) = 3.63523 3.94740 3.79453
# Velocity P-wave (km/s) = 6.24053 6.92900 6.59376
#
# Compressibility (1/GPa) = 0.02031035
#
# Stress axis : x y z
#
# Youngs Moduli (GPa) = 111.41880 75.58145 83.26437
#
# Poissons Ratio (x) = 0.04953 0.40831
# Poissons Ratio (y) = 0.07301 0.11605
# Poissons Ratio (z) = 0.54637 0.10534
#
# Static dielectric constant tensor:
#      x y z
#    x 2.239790 -0.140560 0.026370 
#    y -0.140560 1.991160 -0.048320 
#    z 0.026370 -0.048320 2.039440 
# 
# From -- ./inp_files/306725.got.cif
#   From: 2010.05.17/outbox.cif.g08.bks.cpg/sg2_154_cif.got.tgz:306725.got - 2010.06.03 11:33:40.
