data_PCOD9019527
_publ_section_title
;
Structure prediction by ZEFSAII (Michael W. Deem and Ramdas Pophale) SiO2 
 PCOD9019527
Probable space group: P -1
;
_chemical_formula_sum "Si O2"
_cell_formula_units_Z 16
_cell_length_a 15.758490
_cell_length_b 10.872067
_cell_length_c 14.100754
_cell_angle_alpha 129.985581
_cell_angle_beta 155.386417
_cell_angle_gamma 43.066637
_cell_volume 685.094085
_symmetry_space_group_name_H-M "P -1"
_symmetry_group_IT_number 2
_symmetry_cell_setting 'triclinic'
loop_
_space_group_symop_operation_xyz
x,y,z
-x,-y,-z
loop_
_atom_site_type_symbol
_atom_site_label
_atom_site_fract_x
_atom_site_fract_y
_atom_site_fract_z
Si Si1 0.153986 0.611458 0.470964
Si Si2 0.386472 0.144866 0.807833
Si Si3 0.692346 0.114147 0.281213
Si Si4 0.319367 0.174963 0.192508
Si Si5 0.353497 0.412677 0.758953
Si Si6 0.605716 0.321324 0.677759
Si Si7 0.777158 0.594059 0.956080
Si Si8 0.648637 0.073644 0.750381
O O1 0.131356 0.803306 0.506285
O O2 0.184088 0.563672 0.588955
O O3 0.396769 0.471486 0.601263
O O4 0.959961 0.567800 0.209345
O O5 0.274273 0.330282 0.726276
O O6 0.241381 0.074441 0.691031
O O7 0.511781 0.995381 0.781706
O O8 0.585093 0.129578 0.075133
O O9 0.469209 0.253043 0.182640
O O10 0.478805 0.251993 0.440722
O O11 0.158514 0.324885 0.030017
O O12 0.212943 0.094924 0.123191
O O13 0.500027 0.240838 0.753321
O O14 0.500000 0.500000 0.000000
O O15 0.740958 0.419135 0.818029
O O16 0.747805 0.160634 0.816710
O O17 0.500000 0.000000 0.500000
#
# Coordination Sequence:
#
# PCOD9019527 Si02
#       8
#     2   2   2   2   2   2   2   2
#     4  10  20  34  53  78 109 135 170 219 264 308
#     4   9  17  32  55  74 101 138 175 211 259 311
#     4   9  18  35  54  73 103 139 171 211 262 310
#     4   9  17  32  54  79 101 139 179 209 257 318
#     4  10  17  30  56  80 100 139 178 214 263 311
#     4   9  18  34  56  76 104 139 173 214 262 309
#     4  10  20  33  53  80 105 137 174 214 263 312
#     4   8  16  31  54  77 101 138 176 212 262 313
#
# _framework density 23.354455999999999
#
# number of rings (size 3 to 8) (size 9 to 14) (size 15 to 20)
#    0.000    2.750    1.250    0.375    0.000    0.500 
#    0.000    7.500    0.000   25.500    0.000    0.000 
#    0.000    0.000    0.000    0.000    0.000    0.000 
#
# Total GULP energy -89241.815442 kJ/mol
# GULP energy per Si atom -5577.613465 kJ/mol
# Density = 2.330130 g / cm^3
# Si number density = 23.354456 Si / 1000 Ang^3
#
#
#
# Elastic Constant Matrix: (Units=GPa)
#
#
# Indices 1 2 3 4 5 6 
#
# 1 90.1964 46.9333 44.1970 -1.0750 -11.0761 42.5090
# 2 46.9333 108.4273 53.2887 16.9302 -2.5166 50.6326
# 3 44.1970 53.2887 140.8099 22.3091 -3.1511 73.7190
# 4 -1.0750 16.9302 22.3091 39.5165 2.7565 3.0547
# 5 -11.0761 -2.5166 -3.1511 2.7565 40.4024 -2.5715
# 6 42.5090 50.6326 73.7190 3.0547 -2.5715 91.8063
#
#
#
# Elastic Compliance Matrix: (Units=1/GPa)
#
#
# Indices 1 2 3 4 5 6 
#
# 1 0.016907 -0.005289 -0.002177 0.003946 0.003663 -0.003192
# 2 -0.005289 0.015139 -0.000227 -0.006042 -0.000464 -0.005530
# 3 -0.002177 -0.000227 0.014337 -0.007298 0.000361 -0.010126
# 4 0.003946 -0.006042 -0.007298 0.031752 -0.001631 0.006263
# 5 0.003663 -0.000464 0.000361 -0.001631 0.025805 -0.000952
# 6 -0.003192 -0.005530 -0.010126 0.006263 -0.000952 0.023316
#
#
# Mechanical properties :
#
#
# Convention : Reuss Voigt Hill
#
# Bulk Modulus (GPa) = 32.26274 69.80795 51.03534
# Shear Modulus (GPa) = 32.68535 47.34602 40.01568
#
# Velocity S-wave (km/s) = 3.74509 4.50742 4.14382
# Velocity P-wave (km/s) = 5.70485 7.55279 6.69290
#
# Compressibility (1/GPa) = 0.03099551
#
# Stress axis : x y z
#
# Youngs Moduli (GPa) = 59.14681 66.05633 69.75094
#
# Poissons Ratio (x) = 0.34936 0.15188
# Poissons Ratio (y) = 0.31282 0.01585
# Poissons Ratio (z) = 0.12879 0.01501
#
# Static dielectric constant tensor:
#      x y z
#    x 1.911240 0.023710 -0.001190 
#    y 0.023710 1.938390 -0.010250 
#    z -0.001190 -0.010250 1.788680 
# 
# From -- ./inp_files/433508.got.cif
#   From: 2010.05.17/outbox.cif.g08.bks.cpg/sg2_217_cif.got.tgz:433508.got - 2010.06.03 11:33:40.
