data_PCOD9019116
_publ_section_title
;
Structure prediction by ZEFSAII (Michael W. Deem and Ramdas Pophale) SiO2 
 PCOD9019116
Probable space group: P -1
;
_chemical_formula_sum "Si O2"
_cell_formula_units_Z 15
_cell_length_a 7.507123
_cell_length_b 11.981743
_cell_length_c 12.367294
_cell_angle_alpha 34.163826
_cell_angle_beta 77.158986
_cell_angle_gamma 90.801551
_cell_volume 567.896537
_symmetry_space_group_name_H-M "P -1"
_symmetry_group_IT_number 2
_symmetry_cell_setting 'triclinic'
loop_
_space_group_symop_operation_xyz
x,y,z
-x,-y,-z
loop_
_atom_site_type_symbol
_atom_site_label
_atom_site_fract_x
_atom_site_fract_y
_atom_site_fract_z
Si Si1 0.601299 0.530524 0.575266
Si Si2 0.721733 0.140540 0.891386
Si Si3 0.251425 0.343695 0.187813
Si Si4 0.138364 0.928090 0.650029
Si Si5 0.500000 0.000000 0.500000
Si Si6 0.316392 0.540830 0.792690
Si Si7 0.919885 0.425706 0.818362
Si Si8 0.009402 0.168367 0.651919
O O1 0.500000 0.500000 0.500000
O O2 0.718784 0.373052 0.682136
O O3 0.444077 0.487102 0.726159
O O4 0.771462 0.754227 0.392864
O O5 0.821819 0.202884 0.946634
O O6 0.858291 0.076791 0.841326
O O7 0.500000 0.000000 0.000000
O O8 0.294734 0.133883 0.393297
O O9 0.239388 0.492571 0.168256
O O10 0.349733 0.450532 0.978094
O O11 0.021031 0.232048 0.275584
O O12 0.016347 0.017215 0.674221
O O13 0.314822 0.871024 0.717228
O O14 0.386478 0.795622 0.591630
O O15 0.089032 0.430672 0.876132
O O16 0.025305 0.627668 0.561531
#
# Coordination Sequence:
#
# PCOD9019116 Si02
#       8
#     2   2   2   2   1   2   2   2
#     4  11  23  45  68  96 134 184 229 281 349 406
#     4  11  25  46  69 101 128 179 242 289 338 407
#     4  10  23  43  67  98 145 184 223 281 349 412
#     4  10  22  44  68 101 140 184 223 278 352 416
#     4  12  24  42  66 108 140 178 236 272 344 418
#     4  12  24  43  69 107 141 181 231 285 342 418
#     4  10  21  44  68  95 139 187 217 281 351 406
#     4  10  21  44  70  91 137 183 224 282 349 404
#
# _framework density 26.413263000000001
#
# number of rings (size 3 to 8) (size 9 to 14) (size 15 to 20)
#    0.000    1.333    2.667    3.600    1.867    0.533 
#    7.200    1.333    0.000    0.000    0.000    0.000 
#    0.000    0.000    0.000    0.000    0.000    0.000 
#
# Total GULP energy -83694.390801 kJ/mol
# GULP energy per Si atom -5579.626053 kJ/mol
# Density = 2.635315 g / cm^3
# Si number density = 26.413263 Si / 1000 Ang^3
#
#
#
# Elastic Constant Matrix: (Units=GPa)
#
#
# Indices 1 2 3 4 5 6 
#
# 1 90.5800 37.1005 4.3327 9.5498 -8.5584 9.5604
# 2 37.1005 175.9203 42.6599 23.4460 -9.4735 -3.3997
# 3 4.3327 42.6599 74.1139 6.0014 7.7181 -8.6052
# 4 9.5498 23.4460 6.0014 44.3820 -6.8708 -11.2321
# 5 -8.5584 -9.4735 7.7181 -6.8708 41.0840 11.8849
# 6 9.5604 -3.3997 -8.6052 -11.2321 11.8849 57.1629
#
#
#
# Elastic Compliance Matrix: (Units=1/GPa)
#
#
# Indices 1 2 3 4 5 6 
#
# 1 0.012808 -0.002396 0.000132 -0.001900 0.002698 -0.003199
# 2 -0.002396 0.007710 -0.004341 -0.002874 0.001827 -0.000739
# 3 0.000132 -0.004341 0.016900 0.000032 -0.005107 0.003332
# 4 -0.001900 -0.002874 0.000032 0.025976 0.001872 0.004867
# 5 0.002698 0.001827 -0.005107 0.001872 0.028527 -0.006675
# 6 -0.003199 -0.000739 0.003332 0.004867 -0.006675 0.020831
#
#
# Mechanical properties :
#
#
# Convention : Reuss Voigt Hill
#
# Bulk Modulus (GPa) = 41.31071 56.53336 48.92203
# Shear Modulus (GPa) = 37.30496 45.62718 41.46607
#
# Velocity S-wave (km/s) = 3.76221 4.16075 3.96649
# Velocity P-wave (km/s) = 5.87762 6.67325 6.28803
#
# Compressibility (1/GPa) = 0.02420680
#
# Stress axis : x y z
#
# Youngs Moduli (GPa) = 78.07544 129.70817 59.17282
#
# Poissons Ratio (x) = 0.31085 -0.00781
# Poissons Ratio (y) = 0.18711 0.25686
# Poissons Ratio (z) = -0.01031 0.56304
#
# Static dielectric constant tensor:
#      x y z
#    x 2.816310 -0.106780 0.176980 
#    y -0.106780 2.308240 -0.006480 
#    z 0.176980 -0.006480 2.273650 
# 
# From -- ./inp_files/388770.got.cif
#   From: 2010.05.17/outbox.cif.g08.bks.cpg/sg2_195_cif.got.tgz:388770.got - 2010.06.03 11:33:40.
