data_PCOD9019118
_publ_section_title
;
Structure prediction by ZEFSAII (Michael W. Deem and Ramdas Pophale) SiO2 
 PCOD9019118
Probable space group: P -1
;
_chemical_formula_sum "Si O2"
_cell_formula_units_Z 16
_cell_length_a 6.453322
_cell_length_b 9.711609
_cell_length_c 19.025928
_cell_angle_alpha 109.930106
_cell_angle_beta 84.783318
_cell_angle_gamma 48.959751
_cell_volume 757.644927
_symmetry_space_group_name_H-M "P -1"
_symmetry_group_IT_number 2
_symmetry_cell_setting 'triclinic'
loop_
_space_group_symop_operation_xyz
x,y,z
-x,-y,-z
loop_
_atom_site_type_symbol
_atom_site_label
_atom_site_fract_x
_atom_site_fract_y
_atom_site_fract_z
Si Si1 0.500831 0.899656 0.551449
Si Si2 0.223628 0.330655 0.025149
Si Si3 0.124574 0.133886 0.355354
Si Si4 0.147148 0.289534 0.250037
Si Si5 0.164305 0.775913 0.324024
Si Si6 0.902145 0.880780 0.913908
Si Si7 0.578308 0.577538 0.405302
Si Si8 0.431635 0.379028 0.162126
O O1 0.780950 0.808000 0.574474
O O2 0.505135 0.731886 0.493913
O O3 0.500000 0.000000 0.500000
O O4 0.191917 0.080416 0.636872
O O5 0.131399 0.218214 0.038620
O O6 0.233642 0.432413 0.110216
O O7 0.000000 0.500000 0.000000
O O8 0.580235 0.130094 0.957250
O O9 0.281787 0.117485 0.277300
O O10 0.762608 0.342919 0.387865
O O11 0.202266 0.927548 0.332520
O O12 0.052988 0.236476 0.178885
O O13 0.360667 0.303366 0.214315
O O14 0.840575 0.512364 0.334530
O O15 0.298647 0.683071 0.382153
O O16 0.338766 0.585553 0.229588
O O17 0.210300 0.813698 0.901529
#
# Coordination Sequence:
#
# PCOD9019118 Si02
#       8
#     2   2   2   2   2   2   2   2
#     4  12  24  41  66  94 133 176 223 278 332 382
#     4  10  24  43  68 100 134 168 210 266 322 388
#     4  10  25  43  64  95 128 176 223 273 325 390
#     4   9  22  43  67  92 130 174 215 272 322 381
#     4  12  25  42  67  97 129 174 225 272 329 390
#     4  10  21  44  68  96 131 171 215 262 323 391
#     4  10  22  46  63  90 134 173 222 275 326 381
#     4  11  22  42  73  94 134 176 211 268 332 387
#
# _framework density 21.118072000000002
#
# number of rings (size 3 to 8) (size 9 to 14) (size 15 to 20)
#    0.750    0.750    2.500    1.875    0.000    5.000 
#    0.000    5.000    0.000    0.000    0.000    0.000 
#    0.000    0.000    0.000    0.000    0.000    0.000 
#
# Total GULP energy -89349.900189 kJ/mol
# GULP energy per Si atom -5584.368762 kJ/mol
# Density = 2.107001 g / cm^3
# Si number density = 21.118072 Si / 1000 Ang^3
#
#
#
# Elastic Constant Matrix: (Units=GPa)
#
#
# Indices 1 2 3 4 5 6 
#
# 1 43.1083 30.7354 8.7098 0.0344 3.4112 -2.7163
# 2 30.7354 115.9798 36.4498 -7.3165 14.3367 -20.9241
# 3 8.7098 36.4498 72.4175 4.0183 -2.4031 3.4312
# 4 0.0344 -7.3165 4.0183 33.0751 -1.2282 2.3574
# 5 3.4112 14.3367 -2.4031 -1.2282 36.6755 3.6810
# 6 -2.7163 -20.9241 3.4312 2.3574 3.6810 17.5448
#
#
#
# Elastic Compliance Matrix: (Units=1/GPa)
#
#
# Indices 1 2 3 4 5 6 
#
# 1 0.029504 -0.010536 0.002351 -0.001941 0.002335 -0.008686
# 2 -0.010536 0.021811 -0.011637 0.003811 -0.011037 0.028460
# 3 0.002351 -0.011637 0.020708 -0.003486 0.007443 -0.018657
# 4 -0.001941 0.003811 -0.003486 0.031423 -0.000568 0.000823
# 5 0.002335 -0.011037 0.007443 -0.000568 0.033971 -0.021308
# 6 -0.008686 0.028460 -0.018657 0.000823 -0.021308 0.097602
#
#
# Mechanical properties :
#
#
# Convention : Reuss Voigt Hill
#
# Bulk Modulus (GPa) = 30.88423 42.58839 36.73631
# Shear Modulus (GPa) = 17.51595 27.83313 22.67454
#
# Velocity S-wave (km/s) = 2.88311 3.63433 3.28030
# Velocity P-wave (km/s) = 5.07340 6.14994 5.63743
#
# Compressibility (1/GPa) = 0.03237898
#
# Stress axis : x y z
#
# Youngs Moduli (GPa) = 33.89413 45.84887 48.29129
#
# Poissons Ratio (x) = 0.48306 -0.11355
# Poissons Ratio (y) = 0.35710 0.56197
# Poissons Ratio (z) = -0.07970 0.53354
#
# Static dielectric constant tensor:
#      x y z
#    x 1.768230 0.007540 0.001070 
#    y 0.007540 1.746110 0.011830 
#    z 0.001070 0.011830 1.778660 
# 
# From -- ./inp_files/582004.got.cif
#   From: 2010.05.17/outbox.cif.g08.bks.cpg/sg2_292_cif.got.tgz:582004.got - 2010.06.03 11:33:40.
