data_PCOD9019988
_publ_section_title
;
Structure prediction by ZEFSAII (Michael W. Deem and Ramdas Pophale) SiO2 
 PCOD9019988
Probable space group: P -1
;
_chemical_formula_sum "Si O2"
_cell_formula_units_Z 14
_cell_length_a 9.333832
_cell_length_b 17.341680
_cell_length_c 7.937598
_cell_angle_alpha 33.640636
_cell_angle_beta 123.760019
_cell_angle_gamma 125.234653
_cell_volume 573.236232
_symmetry_space_group_name_H-M "P -1"
_symmetry_group_IT_number 2
_symmetry_cell_setting 'triclinic'
loop_
_space_group_symop_operation_xyz
x,y,z
-x,-y,-z
loop_
_atom_site_type_symbol
_atom_site_label
_atom_site_fract_x
_atom_site_fract_y
_atom_site_fract_z
Si Si1 0.944607 0.331768 0.318911
Si Si2 0.484424 0.602876 0.559268
Si Si3 0.150871 0.630338 0.436244
Si Si4 0.663397 0.930698 0.688286
Si Si5 0.595910 0.358002 0.933830
Si Si6 0.804093 0.872072 0.227379
Si Si7 0.704198 0.044277 0.133625
O O1 0.921670 0.330284 0.505928
O O2 0.067644 0.234177 0.510867
O O3 0.748620 0.278675 0.212282
O O4 0.000000 0.500000 0.000000
O O5 0.336266 0.581304 0.644214
O O6 0.599424 0.486775 0.829696
O O7 0.381898 0.582404 0.349249
O O8 0.613452 0.760662 0.347512
O O9 0.000000 0.500000 0.500000
O O10 0.217029 0.784531 0.107100
O O11 0.500000 0.000000 0.500000
O O12 0.713758 0.978225 0.444553
O O13 0.588997 0.757671 0.953954
O O14 0.793383 0.950672 0.898624
O O15 0.825422 0.983860 0.190030
O O16 0.500000 0.000000 0.000000
#
# Coordination Sequence:
#
# PCOD9019988 Si02
#       7
#     2   2   2   2   2   2   2
#     4  12  26  47  71 111 157 196 251 324 389 446
#     4  10  21  45  76 102 147 195 257 309 380 448
#     4  12  28  46  74 112 154 191 257 321 383 454
#     4  11  23  43  77 109 150 200 260 314 382 449
#     4  10  22  41  73 106 145 196 252 314 376 452
#     4  11  25  47  77 116 150 204 259 316 380 466
#     4  12  23  49  79 111 152 205 261 314 378 467
#
# _framework density 24.422743000000001
#
# number of rings (size 3 to 8) (size 9 to 14) (size 15 to 20)
#    0.000    0.857    4.286    2.571    4.000    2.286 
#    2.571    0.714    0.000    0.000    0.000    0.000 
#    0.000    0.000    0.000    0.000    0.000    0.000 
#
# Total GULP energy -78325.495696 kJ/mol
# GULP energy per Si atom -5594.678264 kJ/mol
# Density = 2.436716 g / cm^3
# Si number density = 24.422743 Si / 1000 Ang^3
#
#
#
# Elastic Constant Matrix: (Units=GPa)
#
#
# Indices 1 2 3 4 5 6 
#
# 1 148.5867 51.7259 60.7503 0.9545 16.9199 -28.3745
# 2 51.7259 91.9553 51.9867 -5.2213 -7.4279 -8.0371
# 3 60.7503 51.9867 129.0413 2.8336 -4.6842 -17.1678
# 4 0.9545 -5.2213 2.8336 45.1972 -2.7107 -8.8307
# 5 16.9199 -7.4279 -4.6842 -2.7107 57.0277 -5.8789
# 6 -28.3745 -8.0371 -17.1678 -8.8307 -5.8789 46.3905
#
#
#
# Elastic Compliance Matrix: (Units=1/GPa)
#
#
# Indices 1 2 3 4 5 6 
#
# 1 0.010577 -0.004256 -0.002826 0.000086 -0.003481 0.004261
# 2 -0.004256 0.016147 -0.004530 0.002292 0.003035 -0.000661
# 3 -0.002826 -0.004530 0.011188 -0.000765 0.001301 0.001646
# 4 0.000086 0.002292 -0.000765 0.023498 0.001829 0.004871
# 5 -0.003481 0.003035 0.001301 0.001829 0.019330 0.001676
# 6 0.004261 -0.000661 0.001646 0.004871 0.001676 0.025797
#
#
# Mechanical properties :
#
#
# Convention : Reuss Voigt Hill
#
# Bulk Modulus (GPa) = 68.08062 77.61214 72.84638
# Shear Modulus (GPa) = 37.13189 43.39778 40.26483
#
# Velocity S-wave (km/s) = 3.90344 4.21995 4.06478
# Velocity P-wave (km/s) = 6.94638 7.45598 7.20569
#
# Compressibility (1/GPa) = 0.01468847
#
# Stress axis : x y z
#
# Youngs Moduli (GPa) = 94.54848 61.93073 89.38223
#
# Poissons Ratio (x) = 0.26355 0.25261
# Poissons Ratio (y) = 0.40236 0.40488
# Poissons Ratio (z) = 0.26721 0.28053
#
# Static dielectric constant tensor:
#      x y z
#    x 1.966190 0.078330 -0.000930 
#    y 0.078330 2.049900 -0.016800 
#    z -0.000930 -0.016800 1.956210 
# 
# From -- ./inp_files/222875.got.cif
#   From: 2010.05.17/outbox.cif.g08.bks.cpg/sg2_112_cif.got.tgz:222875.got - 2010.06.03 11:33:40.
