data_PCOD9019740
_publ_section_title
;
Structure prediction by ZEFSAII (Michael W. Deem and Ramdas Pophale) SiO2 
 PCOD9019740
Probable space group: P -1
;
_chemical_formula_sum "Si O2"
_cell_formula_units_Z 12
_cell_length_a 15.741229
_cell_length_b 9.963685
_cell_length_c 8.732377
_cell_angle_alpha 137.776172
_cell_angle_beta 136.387496
_cell_angle_gamma 38.876027
_cell_volume 541.197444
_symmetry_space_group_name_H-M "P -1"
_symmetry_group_IT_number 2
_symmetry_cell_setting 'triclinic'
loop_
_space_group_symop_operation_xyz
x,y,z
-x,-y,-z
loop_
_atom_site_type_symbol
_atom_site_label
_atom_site_fract_x
_atom_site_fract_y
_atom_site_fract_z
Si Si1 0.846088 0.108765 0.809041
Si Si2 0.201974 0.274664 0.173615
Si Si3 0.452442 0.567169 0.170683
Si Si4 0.931165 0.229795 0.710501
Si Si5 0.340915 0.069997 0.506582
Si Si6 0.454357 0.892346 0.985045
O O1 0.720166 0.311789 0.921554
O O2 0.789337 0.927937 0.570455
O O3 0.852055 0.199775 0.726911
O O4 0.000000 0.000000 0.000000
O O5 0.166687 0.534645 0.314492
O O6 0.279196 0.176678 0.352550
O O7 0.303338 0.095767 0.024018
O O8 0.056913 0.265447 0.973069
O O9 0.462321 0.793373 0.415850
O O10 0.500000 0.500000 0.000000
O O11 0.540334 0.351805 0.220775
O O12 0.000000 0.000000 0.500000
O O13 0.420198 0.179804 0.786287
O O14 0.500000 0.000000 0.000000
#
# Coordination Sequence:
#
# PCOD9019740 Si02
#       6
#     2   2   2   2   2   2
#     4  10  21  45  67  98 135 174 224 273 326 407
#     4  11  24  43  66  96 135 174 228 274 325 409
#     4  10  22  41  69  97 134 174 222 270 338 389
#     4  11  25  44  67  98 136 180 220 276 340 392
#     4  10  24  43  67  96 134 174 225 267 335 396
#     4  12  25  42  67 100 135 173 226 282 334 393
#
# _framework density 22.173052999999999
#
# number of rings (size 3 to 8) (size 9 to 14) (size 15 to 20)
#    1.000    0.333    3.333    1.500    2.333    4.667 
#    0.000    1.667    0.000    0.000    0.000    0.000 
#    0.000    0.000    0.000    0.000    0.000    0.000 
#
# Total GULP energy -67030.746329 kJ/mol
# GULP energy per Si atom -5585.895527 kJ/mol
# Density = 2.212259 g / cm^3
# Si number density = 22.173053 Si / 1000 Ang^3
#
#
#
# Elastic Constant Matrix: (Units=GPa)
#
#
# Indices 1 2 3 4 5 6 
#
# 1 169.3539 45.5584 4.7151 2.3123 -0.1572 15.6169
# 2 45.5584 147.6597 14.3781 25.1596 -5.3916 21.2577
# 3 4.7151 14.3781 33.8220 8.1519 2.5260 4.6897
# 4 2.3123 25.1596 8.1519 18.5008 0.4538 -0.0505
# 5 -0.1572 -5.3916 2.5260 0.4538 28.1335 -1.6957
# 6 15.6169 21.2577 4.6897 -0.0505 -1.6957 48.3234
#
#
#
# Elastic Compliance Matrix: (Units=1/GPa)
#
#
# Indices 1 2 3 4 5 6 
#
# 1 0.006595 -0.002271 -0.000349 0.002427 -0.000473 -0.001112
# 2 -0.002271 0.010496 -0.000432 -0.013859 0.002033 -0.003784
# 3 -0.000349 -0.000432 0.033892 -0.014235 -0.003085 -0.003109
# 4 0.002427 -0.013859 -0.014235 0.078941 -0.002234 0.006698
# 5 -0.000473 0.002033 -0.003085 -0.002234 0.036295 0.000829
# 6 -0.001112 -0.003784 -0.003109 0.006698 0.000829 0.023056
#
#
# Mechanical properties :
#
#
# Convention : Reuss Voigt Hill
#
# Bulk Modulus (GPa) = 22.28318 53.34873 37.81596
# Shear Modulus (GPa) = 23.77132 38.07047 30.92089
#
# Velocity S-wave (km/s) = 3.27782 4.14813 3.73839
# Velocity P-wave (km/s) = 4.93933 6.85967 5.97712
#
# Compressibility (1/GPa) = 0.04487690
#
# Stress axis : x y z
#
# Youngs Moduli (GPa) = 151.64090 95.27730 29.50591
#
# Poissons Ratio (x) = 0.21641 0.01030
# Poissons Ratio (y) = 0.34443 0.01274
# Poissons Ratio (z) = 0.05295 0.04115
#
# Static dielectric constant tensor:
#      x y z
#    x 1.823680 0.028720 0.053570 
#    y 0.028720 1.849990 0.054410 
#    z 0.053570 0.054410 1.877580 
# 
# From -- ./inp_files/232851.got.cif
#   From: 2010.05.17/outbox.cif.g08.bks.cpg/sg2_117_cif.got.tgz:232851.got - 2010.06.03 11:33:40.
