data_PCOD9019213
_publ_section_title
;
Structure prediction by ZEFSAII (Michael W. Deem and Ramdas Pophale) SiO2 
 PCOD9019213
Probable space group: P -1
;
_chemical_formula_sum "Si O2"
_cell_formula_units_Z 16
_cell_length_a 11.505713
_cell_length_b 8.288639
_cell_length_c 13.839441
_cell_angle_alpha 66.692199
_cell_angle_beta 141.940799
_cell_angle_gamma 95.200865
_cell_volume 688.019156
_symmetry_space_group_name_H-M "P -1"
_symmetry_group_IT_number 2
_symmetry_cell_setting 'triclinic'
loop_
_space_group_symop_operation_xyz
x,y,z
-x,-y,-z
loop_
_atom_site_type_symbol
_atom_site_label
_atom_site_fract_x
_atom_site_fract_y
_atom_site_fract_z
Si Si1 0.539807 0.939398 0.238328
Si Si2 0.830871 0.494819 0.816470
Si Si3 0.490062 0.865083 0.439935
Si Si4 0.001938 0.277784 0.451421
Si Si5 0.063888 0.844271 0.163590
Si Si6 0.509558 0.556485 0.259949
Si Si7 0.005412 0.669479 0.341142
Si Si8 0.442264 0.675142 0.849225
O O1 0.459599 0.949921 0.292867
O O2 0.486682 0.778248 0.183559
O O3 0.787185 0.847427 0.431031
O O4 0.479629 0.157689 0.114618
O O5 0.702486 0.686318 0.630489
O O6 0.944283 0.339477 0.848708
O O7 0.660243 0.442014 0.774252
O O8 0.000000 0.500000 0.000000
O O9 0.296913 0.811922 0.345953
O O10 0.500000 0.000000 0.500000
O O11 0.053030 0.270893 0.600881
O O12 0.805329 0.226605 0.329177
O O13 0.932148 0.496722 0.316881
O O14 0.952351 0.847719 0.191320
O O15 0.000000 0.000000 0.000000
O O16 0.746050 0.443501 0.472615
O O17 0.491798 0.431255 0.186345
O O18 0.500000 0.500000 0.000000
#
# Coordination Sequence:
#
# PCOD9019213 Si02
#       8
#     2   2   2   2   2   2   2   2
#     4  11  23  43  71 100 133 186 242 280 357 432
#     4  12  24  44  67 102 141 185 236 285 359 427
#     4  12  25  44  73 102 141 186 234 296 362 429
#     4   9  20  41  68  98 124 182 238 282 348 416
#     4  12  25  43  67 105 141 184 233 292 359 430
#     4  10  21  44  69  95 137 188 228 289 357 417
#     4   9  19  40  71  94 133 179 234 290 348 420
#     4  11  25  42  65  99 140 177 233 301 348 414
#
# _framework density 23.255167
#
# number of rings (size 3 to 8) (size 9 to 14) (size 15 to 20)
#    0.000    1.250    2.500    4.500    1.750    3.500 
#    2.250    0.000    0.000    0.000    0.000    0.000 
#    0.000    0.000    0.000    0.000    0.000    0.000 
#
# Total GULP energy -89368.744469 kJ/mol
# GULP energy per Si atom -5585.546529 kJ/mol
# Density = 2.320224 g / cm^3
# Si number density = 23.255167 Si / 1000 Ang^3
#
#
#
# Elastic Constant Matrix: (Units=GPa)
#
#
# Indices 1 2 3 4 5 6 
#
# 1 107.6363 9.4059 -0.3802 -5.1537 -5.0660 18.4728
# 2 9.4059 99.1650 21.8806 -9.7999 -3.6218 11.7012
# 3 -0.3802 21.8806 54.9925 -15.1829 -6.6324 11.1237
# 4 -5.1537 -9.7999 -15.1829 39.8070 14.2221 -4.4173
# 5 -5.0660 -3.6218 -6.6324 14.2221 32.0723 -8.3817
# 6 18.4728 11.7012 11.1237 -4.4173 -8.3817 28.1051
#
#
#
# Elastic Compliance Matrix: (Units=1/GPa)
#
#
# Indices 1 2 3 4 5 6 
#
# 1 0.010688 -0.000463 0.002127 0.001432 -0.000549 -0.007612
# 2 -0.000463 0.011395 -0.003660 0.001346 -0.000940 -0.003060
# 3 0.002127 -0.003660 0.023317 0.007640 -0.000768 -0.008131
# 4 0.001432 0.001346 0.007640 0.033025 -0.013570 -0.003382
# 5 -0.000549 -0.000940 -0.000768 -0.013570 0.039655 0.010749
# 6 -0.007612 -0.003060 -0.008131 -0.003382 0.010749 0.047751
#
#
# Mechanical properties :
#
#
# Convention : Reuss Voigt Hill
#
# Bulk Modulus (GPa) = 24.15018 35.95627 30.05322
# Shear Modulus (GPa) = 27.22938 35.38937 31.30938
#
# Velocity S-wave (km/s) = 3.42555 3.90524 3.67323
# Velocity P-wave (km/s) = 5.10424 5.98579 5.56251
#
# Compressibility (1/GPa) = 0.04140756
#
# Stress axis : x y z
#
# Youngs Moduli (GPa) = 93.56498 87.75417 42.88764
#
# Poissons Ratio (x) = 0.04066 -0.09124
# Poissons Ratio (y) = 0.04336 0.15698
# Poissons Ratio (z) = -0.19905 0.32120
#
# Static dielectric constant tensor:
#      x y z
#    x 1.919800 -0.013790 -0.029370 
#    y -0.013790 1.880660 -0.014240 
#    z -0.029370 -0.014240 1.905570 
# 
# From -- ./inp_files/515243.got.cif
#   From: 2010.05.17/outbox.cif.g08.bks.cpg/sg2_258_cif.got.tgz:515243.got - 2010.06.03 11:33:40.
