data_PCOD9019043
_publ_section_title
;
Structure prediction by ZEFSAII (Michael W. Deem and Ramdas Pophale) SiO2 
 PCOD9019043
Probable space group: P -1
;
_chemical_formula_sum "Si O2"
_cell_formula_units_Z 16
_cell_length_a 10.059196
_cell_length_b 15.723029
_cell_length_c 14.978024
_cell_angle_alpha 20.427612
_cell_angle_beta 46.486457
_cell_angle_gamma 47.221572
_cell_volume 594.202466
_symmetry_space_group_name_H-M "P -1"
_symmetry_group_IT_number 2
_symmetry_cell_setting 'triclinic'
loop_
_space_group_symop_operation_xyz
x,y,z
-x,-y,-z
loop_
_atom_site_type_symbol
_atom_site_label
_atom_site_fract_x
_atom_site_fract_y
_atom_site_fract_z
Si Si1 0.750288 0.554890 0.596779
Si Si2 0.519647 0.887510 0.718970
Si Si3 0.977980 0.770295 0.865202
Si Si4 0.535190 0.948824 0.222458
Si Si5 0.225397 0.777699 0.259330
Si Si6 0.362557 0.625374 0.810698
Si Si7 0.895716 0.212825 0.010396
Si Si8 0.227362 0.676212 0.562587
O O1 0.729884 0.822674 0.299180
O O2 0.792104 0.374225 0.672873
O O3 0.542413 0.560439 0.727965
O O4 0.879792 0.452633 0.718633
O O5 0.563448 0.919934 0.773790
O O6 0.585805 0.128435 0.409255
O O7 0.630359 0.631063 0.888533
O O8 0.302069 0.882774 0.815309
O O9 0.069783 0.723672 0.966337
O O10 0.837808 0.568322 0.124846
O O11 0.159961 0.700794 0.788572
O O12 0.897221 0.058769 0.617239
O O13 0.426058 0.738037 0.441487
O O14 0.582192 0.114991 0.955551
O O15 0.229342 0.649405 0.480087
O O16 0.059501 0.000427 0.121168
#
# Coordination Sequence:
#
# PCOD9019043 Si02
#       8
#     2   2   2   2   2   2   2   2
#     4  10  23  39  69  99 133 173 217 279 329 405
#     4  10  22  40  67 102 134 172 217 277 330 407
#     4  11  26  47  69  98 137 179 224 283 324 402
#     4  11  24  44  66 100 136 176 226 273 338 398
#     4  11  23  43  68  98 136 178 217 281 332 406
#     4  10  21  44  67  98 134 174 226 264 343 389
#     4  10  23  43  65 105 137 172 224 269 346 394
#     4  11  28  45  69 100 134 180 229 274 335 391
#
# _framework density 26.926849000000001
#
# number of rings (size 3 to 8) (size 9 to 14) (size 15 to 20)
#    0.000    1.500    2.500    1.500    5.250    9.500 
#    0.000    8.750    0.000    0.000    0.000    0.000 
#    0.000    0.000    0.000    0.000    0.000    0.000 
#
# Total GULP energy -89522.454369 kJ/mol
# GULP energy per Si atom -5595.153398 kJ/mol
# Density = 2.686556 g / cm^3
# Si number density = 26.926849 Si / 1000 Ang^3
#
#
#
# Elastic Constant Matrix: (Units=GPa)
#
#
# Indices 1 2 3 4 5 6 
#
# 1 95.4915 14.5999 11.6568 4.4939 11.1549 15.6083
# 2 14.5999 126.6500 31.5386 -5.4292 7.8680 1.0305
# 3 11.6568 31.5386 132.1940 -6.9802 -13.6311 -2.4834
# 4 4.4939 -5.4292 -6.9802 46.1248 -11.8152 -4.4805
# 5 11.1549 7.8680 -13.6311 -11.8152 43.5327 -2.2715
# 6 15.6083 1.0305 -2.4834 -4.4805 -2.2715 34.0734
#
#
#
# Elastic Compliance Matrix: (Units=1/GPa)
#
#
# Indices 1 2 3 4 5 6 
#
# 1 0.012643 -0.000813 -0.001741 -0.003505 -0.004938 -0.006684
# 2 -0.000813 0.008670 -0.002192 0.000245 -0.001986 -0.000150
# 3 -0.001741 -0.002192 0.008876 0.002601 0.004440 0.002149
# 4 -0.003505 0.000245 0.002601 0.025257 0.008821 0.005697
# 5 -0.004938 -0.001986 0.004440 0.008821 0.028678 0.005717
# 6 -0.006684 -0.000150 0.002149 0.005697 0.005717 0.033702
#
#
# Mechanical properties :
#
#
# Convention : Reuss Voigt Hill
#
# Bulk Modulus (GPa) = 48.31078 52.21401 50.26239
# Shear Modulus (GPa) = 37.25302 44.51552 40.88427
#
# Velocity S-wave (km/s) = 3.72356 4.07037 3.90082
# Velocity P-wave (km/s) = 6.03879 6.44389 6.24463
#
# Compressibility (1/GPa) = 0.02069931
#
# Stress axis : x y z
#
# Youngs Moduli (GPa) = 79.09372 115.33532 112.65738
#
# Poissons Ratio (x) = 0.09378 0.19610
# Poissons Ratio (y) = 0.06431 0.24690
# Poissons Ratio (z) = 0.13768 0.25277
#
# Static dielectric constant tensor:
#      x y z
#    x 2.121470 -0.055190 0.012990 
#    y -0.055190 2.166230 0.021520 
#    z 0.012990 0.021520 2.187850 
# 
# From -- ./inp_files/570297.got.cif
#   From: 2010.05.17/outbox.cif.g08.bks.cpg/sg2_286_cif.got.tgz:570297.got - 2010.06.03 11:33:40.
