data_PCOD9019193
_publ_section_title
;
Structure prediction by ZEFSAII (Michael W. Deem and Ramdas Pophale) SiO2 
 PCOD9019193
Probable space group: P -1
;
_chemical_formula_sum "Si O2"
_cell_formula_units_Z 10
_cell_length_a 15.826843
_cell_length_b 5.292284
_cell_length_c 6.906598
_cell_angle_alpha 82.620375
_cell_angle_beta 73.839216
_cell_angle_gamma 115.688962
_cell_volume 479.535433
_symmetry_space_group_name_H-M "P -1"
_symmetry_group_IT_number 2
_symmetry_cell_setting 'triclinic'
loop_
_space_group_symop_operation_xyz
x,y,z
-x,-y,-z
loop_
_atom_site_type_symbol
_atom_site_label
_atom_site_fract_x
_atom_site_fract_y
_atom_site_fract_z
Si Si1 0.118249 0.187019 0.372688
Si Si2 0.259997 0.587507 0.977020
Si Si3 0.610434 0.194091 0.505725
Si Si4 0.237558 0.845834 0.322317
Si Si5 0.438845 0.647700 0.105086
O O1 0.173110 0.999316 0.399903
O O2 0.150558 0.312400 0.119093
O O3 0.168929 0.492563 0.428949
O O4 0.000000 0.000000 0.500000
O O5 0.261212 0.853353 0.074772
O O6 0.337488 0.527546 0.058137
O O7 0.307167 0.662096 0.729755
O O8 0.661412 0.053715 0.627140
O O9 0.591487 0.399067 0.645978
O O10 0.500000 0.000000 0.500000
O O11 0.500000 0.500000 0.000000
O O12 0.500000 0.000000 0.000000
#
# Coordination Sequence:
#
# PCOD9019193 Si02
#       5
#     2   2   2   2   2
#     4  10  21  44  69  86 125 169 209 267 323 360
#     4   9  23  37  63  91 126 161 215 251 314 369
#     4  11  22  42  65  98 131 174 205 259 315 381
#     4   9  23  42  62  95 128 159 216 259 312 384
#     4  11  24  41  59  90 130 169 210 256 307 378
#
# _framework density 20.853513
#
# number of rings (size 3 to 8) (size 9 to 14) (size 15 to 20)
#    1.200    0.800    2.000    0.600    5.600    0.800 
#   10.800    2.000    0.000    0.000    0.000    0.000 
#    0.000    0.000    0.000    0.000    0.000    0.000 
#
# Total GULP energy -55693.628963 kJ/mol
# GULP energy per Si atom -5569.362896 kJ/mol
# Density = 2.080605 g / cm^3
# Si number density = 20.853513 Si / 1000 Ang^3
#
#
#
# Elastic Constant Matrix: (Units=GPa)
#
#
# Indices 1 2 3 4 5 6 
#
# 1 118.2553 64.3846 45.9353 2.2019 -32.9020 -11.0170
# 2 64.3846 129.9571 45.4158 -0.2657 -23.4145 -16.3617
# 3 45.9353 45.4158 172.5242 -0.0197 -25.3602 12.0550
# 4 2.2019 -0.2657 -0.0197 26.6623 12.2763 -15.0795
# 5 -32.9020 -23.4145 -25.3602 12.2763 31.5063 1.7169
# 6 -11.0170 -16.3617 12.0550 -15.0795 1.7169 32.2218
#
#
#
# Elastic Compliance Matrix: (Units=1/GPa)
#
#
# Indices 1 2 3 4 5 6 
#
# 1 0.016092 -0.005238 -0.000122 -0.011252 0.017379 -0.003304
# 2 -0.005238 0.011941 -0.002466 0.005515 -0.001156 0.007838
# 3 -0.000122 -0.002466 0.008464 -0.009488 0.009062 -0.009384
# 4 -0.011252 0.005515 -0.009488 0.089421 -0.052701 0.047159
# 5 0.017379 -0.001156 0.009062 -0.052701 0.078322 -0.026872
# 6 -0.003304 0.007838 -0.009384 0.047159 -0.026872 0.060898
#
#
# Mechanical properties :
#
#
# Convention : Reuss Voigt Hill
#
# Bulk Modulus (GPa) = 47.96798 81.35643 64.66220
# Shear Modulus (GPa) = 17.37689 35.74478 26.56083
#
# Velocity S-wave (km/s) = 2.88980 4.14465 3.57275
# Velocity P-wave (km/s) = 5.84695 7.87414 6.93502
#
# Compressibility (1/GPa) = 0.02084724
#
# Stress axis : x y z
#
# Youngs Moduli (GPa) = 62.14128 83.74265 118.14125
#
# Poissons Ratio (x) = 0.43864 0.01437
# Poissons Ratio (y) = 0.32549 0.29132
# Poissons Ratio (z) = 0.00756 0.20650
#
# Static dielectric constant tensor:
#      x y z
#    x 1.733200 -0.014280 -0.012930 
#    y -0.014280 1.857560 -0.047140 
#    z -0.012930 -0.047140 1.847620 
# 
# From -- ./inp_files/73888.got.cif
#   From: 2010.05.17/outbox.cif.g08.bks.cpg/sg2_37_cif.got.tgz:73888.got - 2010.06.03 11:33:40.
