data_PCOD9019277
_publ_section_title
;
Structure prediction by ZEFSAII (Michael W. Deem and Ramdas Pophale) SiO2 
 PCOD9019277
Probable space group: P -1
;
_chemical_formula_sum "Si O2"
_cell_formula_units_Z 14
_cell_length_a 5.490960
_cell_length_b 9.316539
_cell_length_c 11.049764
_cell_angle_alpha 80.969623
_cell_angle_beta 90.989638
_cell_angle_gamma 90.892007
_cell_volume 558.132977
_symmetry_space_group_name_H-M "P -1"
_symmetry_group_IT_number 2
_symmetry_cell_setting 'triclinic'
loop_
_space_group_symop_operation_xyz
x,y,z
-x,-y,-z
loop_
_atom_site_type_symbol
_atom_site_label
_atom_site_fract_x
_atom_site_fract_y
_atom_site_fract_z
Si Si1 0.145319 0.760464 0.490067
Si Si2 0.238366 0.579632 0.747037
Si Si3 0.807349 0.896239 0.078769
Si Si4 0.317381 0.878137 0.776038
Si Si5 0.109395 0.672178 0.234014
Si Si6 0.196039 0.086630 0.379037
Si Si7 0.496625 0.364378 0.929348
O O1 0.255916 0.658987 0.608227
O O2 0.185043 0.687115 0.371321
O O3 0.871059 0.795396 0.533416
O O4 0.239653 0.926567 0.454759
O O5 0.267458 0.708713 0.827679
O O6 0.419561 0.450073 0.792912
O O7 0.985495 0.491950 0.766028
O O8 0.687051 0.765164 0.017778
O O9 0.912689 0.799691 0.202456
O O10 0.635721 0.009568 0.130674
O O11 0.000000 0.000000 0.000000
O O12 0.564608 0.878037 0.700050
O O13 0.057533 0.916387 0.702295
O O14 0.266981 0.709195 0.111886
O O15 0.500000 0.500000 0.000000
#
# Coordination Sequence:
#
# PCOD9019277 Si02
#       7
#     2   2   2   2   2   2   2
#     4  10  21  44  70 107 149 194 243 303 376 451
#     4  10  26  42  71 106 140 200 237 305 373 456
#     4  11  27  46  76 106 140 196 255 318 370 449
#     4  11  24  47  73 112 150 193 258 305 380 440
#     4  11  24  49  67 106 149 188 247 306 377 447
#     4  10  23  42  71 110 153 195 238 317 370 449
#     4  11  28  49  72 103 148 198 249 317 376 450
#
# _framework density 25.083628999999998
#
# number of rings (size 3 to 8) (size 9 to 14) (size 15 to 20)
#    0.000    1.429    1.429    1.286    8.000    7.429 
#   10.286    0.000    0.000    0.000    0.000    0.000 
#    0.000    0.000    0.000    0.000    0.000    0.000 
#
# Total GULP energy -78082.487112 kJ/mol
# GULP energy per Si atom -5577.320508 kJ/mol
# Density = 2.502654 g / cm^3
# Si number density = 25.083629 Si / 1000 Ang^3
#
#
#
# Elastic Constant Matrix: (Units=GPa)
#
#
# Indices 1 2 3 4 5 6 
#
# 1 80.4367 38.6951 35.5115 4.6987 -23.2545 14.2195
# 2 38.6951 180.0183 52.8753 -0.7187 -16.2176 25.9168
# 3 35.5115 52.8753 96.2040 4.7449 -17.1127 3.1071
# 4 4.6987 -0.7187 4.7449 61.4650 -16.4518 6.4388
# 5 -23.2545 -16.2176 -17.1127 -16.4518 38.3092 -6.8993
# 6 14.2195 25.9168 3.1071 6.4388 -6.8993 37.9034
#
#
#
# Elastic Compliance Matrix: (Units=1/GPa)
#
#
# Indices 1 2 3 4 5 6 
#
# 1 0.018077 -0.001182 -0.004469 0.001655 0.008402 -0.004359
# 2 -0.001182 0.007546 -0.003520 0.001071 0.000552 -0.004509
# 3 -0.004469 -0.003520 0.014359 -0.000466 0.002635 0.003465
# 4 0.001655 0.001071 -0.000466 0.018858 0.008824 -0.002912
# 5 0.008402 0.000552 0.002635 0.008824 0.036661 0.001429
# 6 -0.004359 -0.004509 0.003465 -0.002912 0.001429 0.031572
#
#
# Mechanical properties :
#
#
# Convention : Reuss Voigt Hill
#
# Bulk Modulus (GPa) = 46.21289 67.86920 57.04104
# Shear Modulus (GPa) = 32.75926 42.84066 37.79996
#
# Velocity S-wave (km/s) = 3.61778 4.13717 3.88617
# Velocity P-wave (km/s) = 5.99289 7.06665 6.55180
#
# Compressibility (1/GPa) = 0.02163898
#
# Stress axis : x y z
#
# Youngs Moduli (GPa) = 55.31984 132.51734 69.64346
#
# Poissons Ratio (x) = 0.15661 0.31126
# Poissons Ratio (y) = 0.06538 0.24516
# Poissons Ratio (z) = 0.24725 0.46648
#
# Static dielectric constant tensor:
#      x y z
#    x 2.235430 0.037850 0.068450 
#    y 0.037850 1.927180 0.039780 
#    z 0.068450 0.039780 2.132100 
# 
# From -- ./inp_files/360629.got.cif
#   From: 2010.05.17/outbox.cif.g08.bks.cpg/sg2_181_cif.got.tgz:360629.got - 2010.06.03 11:33:40.
