data_PCOD9019012
_publ_section_title
;
Structure prediction by ZEFSAII (Michael W. Deem and Ramdas Pophale) SiO2 
 PCOD9019012
Probable space group: P -1
;
_chemical_formula_sum "Si O2"
_cell_formula_units_Z 16
_cell_length_a 15.276970
_cell_length_b 11.972162
_cell_length_c 7.324395
_cell_angle_alpha 124.727853
_cell_angle_beta 37.537882
_cell_angle_gamma 120.983770
_cell_volume 665.475701
_symmetry_space_group_name_H-M "P -1"
_symmetry_group_IT_number 2
_symmetry_cell_setting 'triclinic'
loop_
_space_group_symop_operation_xyz
x,y,z
-x,-y,-z
loop_
_atom_site_type_symbol
_atom_site_label
_atom_site_fract_x
_atom_site_fract_y
_atom_site_fract_z
Si Si1 0.119467 0.841417 0.188424
Si Si2 0.126365 0.908616 0.672110
Si Si3 0.786612 0.861480 0.711194
Si Si4 0.832208 0.448804 0.270019
Si Si5 0.407578 0.382739 0.158221
Si Si6 0.430025 0.636491 0.781244
Si Si7 0.861238 0.396054 0.578220
Si Si8 0.386977 0.101723 0.340258
O O1 0.125618 0.869480 0.421445
O O2 0.949881 0.823257 0.397580
O O3 0.195366 0.982012 0.106890
O O4 0.191827 0.708733 0.895293
O O5 0.107050 0.759430 0.658014
O O6 0.273833 0.006866 0.564189
O O7 0.000000 0.000000 0.000000
O O8 0.686197 0.751138 0.895324
O O9 0.713863 0.860160 0.628356
O O10 0.717682 0.541568 0.465862
O O11 0.809096 0.455754 0.531830
O O12 0.000000 0.500000 0.000000
O O13 0.517344 0.326051 0.064026
O O14 0.500000 0.500000 0.000000
O O15 0.500000 0.500000 0.500000
O O16 0.511862 0.759493 0.639772
O O17 0.258496 0.613116 0.072653
O O18 0.000000 0.500000 0.500000
O O19 0.500000 0.000000 0.000000
#
# Coordination Sequence:
#
# PCOD9019012 Si02
#       8
#     2   2   2   2   2   2   2   2
#     4  10  22  43  68  99 127 175 228 270 336 389
#     4  11  26  43  71  98 139 176 225 284 336 402
#     4   9  21  38  69  89 129 171 225 264 326 397
#     4  12  25  43  71  96 138 182 222 280 330 405
#     4  11  23  44  65  94 134 178 222 270 338 397
#     4  11  26  44  69  97 137 178 223 280 341 409
#     4  12  28  44  67 107 136 173 235 282 340 405
#     4  10  21  44  67  94 135 179 216 272 346 400
#
# _framework density 24.042949
#
# number of rings (size 3 to 8) (size 9 to 14) (size 15 to 20)
#    0.000    1.250    3.750    0.750   10.500    0.000 
#    0.000    0.625    0.000    0.000    0.000    0.000 
#    0.000    0.000    0.000    0.000    0.000    0.000 
#
# Total GULP energy -89412.944553 kJ/mol
# GULP energy per Si atom -5588.309035 kJ/mol
# Density = 2.398823 g / cm^3
# Si number density = 24.042949 Si / 1000 Ang^3
#
#
#
# Elastic Constant Matrix: (Units=GPa)
#
#
# Indices 1 2 3 4 5 6 
#
# 1 68.3730 7.5534 8.4074 -15.0599 -6.9719 -2.3084
# 2 7.5534 204.8840 49.2903 -20.3320 -20.2178 25.7707
# 3 8.4074 49.2903 97.8064 -6.9480 -21.9679 18.8616
# 4 -15.0599 -20.3320 -6.9480 48.5936 3.0657 -9.1340
# 5 -6.9719 -20.2178 -21.9679 3.0657 34.8467 -3.2757
# 6 -2.3084 25.7707 18.8616 -9.1340 -3.2757 34.7797
#
#
#
# Elastic Compliance Matrix: (Units=1/GPa)
#
#
# Indices 1 2 3 4 5 6 
#
# 1 0.016302 0.000024 -0.001132 0.005372 0.002401 0.003315
# 2 0.000024 0.006053 -0.001977 0.001611 0.001864 -0.002813
# 3 -0.001132 -0.001977 0.013922 -0.000694 0.006930 -0.005690
# 4 0.005372 0.001611 -0.000694 0.023912 0.000016 0.005820
# 5 0.002401 0.001864 0.006930 0.000016 0.034464 -0.001730
# 6 0.003315 -0.002813 -0.005690 0.005820 -0.001730 0.035508
#
#
# Mechanical properties :
#
#
# Convention : Reuss Voigt Hill
#
# Bulk Modulus (GPa) = 33.21301 55.72953 44.47127
# Shear Modulus (GPa) = 34.16081 44.03147 39.09614
#
# Velocity S-wave (km/s) = 3.77347 4.28409 4.03686
# Velocity P-wave (km/s) = 5.72970 6.90657 6.34548
#
# Compressibility (1/GPa) = 0.03010869
#
# Stress axis : x y z
#
# Youngs Moduli (GPa) = 61.34138 165.20202 71.82700
#
# Poissons Ratio (x) = -0.00404 0.08130
# Poissons Ratio (y) = -0.00150 0.14200
# Poissons Ratio (z) = 0.06943 0.32661
#
# Static dielectric constant tensor:
#      x y z
#    x 2.138810 0.094330 0.062380 
#    y 0.094330 2.054220 0.003130 
#    z 0.062380 0.003130 1.920070 
# 
# From -- ./inp_files/333671.got.cif
#   From: 2010.05.17/outbox.cif.g08.bks.cpg/sg2_167_cif.got.tgz:333671.got - 2010.06.03 11:33:40.
