data_PCOD9019743
_publ_section_title
;
Structure prediction by ZEFSAII (Michael W. Deem and Ramdas Pophale) SiO2 
 PCOD9019743
Probable space group: P -1
;
_chemical_formula_sum "Si O2"
_cell_formula_units_Z 16
_cell_length_a 8.482738
_cell_length_b 13.378329
_cell_length_c 8.698168
_cell_angle_alpha 109.545037
_cell_angle_beta 133.166418
_cell_angle_gamma 84.508557
_cell_volume 665.626181
_symmetry_space_group_name_H-M "P -1"
_symmetry_group_IT_number 2
_symmetry_cell_setting 'triclinic'
loop_
_space_group_symop_operation_xyz
x,y,z
-x,-y,-z
loop_
_atom_site_type_symbol
_atom_site_label
_atom_site_fract_x
_atom_site_fract_y
_atom_site_fract_z
Si Si1 0.835540 0.953139 0.230912
Si Si2 0.069658 0.813006 0.703011
Si Si3 0.008955 0.880925 0.002839
Si Si4 0.610181 0.351193 0.510339
Si Si5 0.196349 0.438902 0.423868
Si Si6 0.243496 0.700238 0.096112
Si Si7 0.503508 0.748519 0.915973
Si Si8 0.701378 0.655755 0.245509
O O1 0.808323 0.065586 0.191058
O O2 0.926127 0.883706 0.122233
O O3 0.631438 0.866977 0.111832
O O4 0.000000 0.000000 0.500000
O O5 0.256541 0.742506 0.807983
O O6 0.914880 0.814600 0.751493
O O7 0.903658 0.756678 0.435416
O O8 0.223113 0.826090 0.130119
O O9 0.000000 0.000000 0.000000
O O10 0.400515 0.393692 0.460841
O O11 0.755682 0.438475 0.539959
O O12 0.754202 0.324224 0.733203
O O13 0.515315 0.254208 0.282114
O O14 0.218726 0.425152 0.618166
O O15 0.967968 0.378109 0.162324
O O16 0.476227 0.679271 0.180731
O O17 0.622451 0.653308 0.012812
#
# Coordination Sequence:
#
# PCOD9019743 Si02
#       8
#     2   2   2   2   2   2   2   2
#     4  11  24  41  65  95 133 172 224 271 332 388
#     4  11  23  45  61  94 134 177 217 276 325 398
#     4  10  22  41  67  93 129 172 221 265 323 397
#     4  10  25  39  70 102 132 175 223 275 339 387
#     4  10  21  45  67  99 135 173 225 277 325 406
#     4  11  21  42  70  95 132 179 221 274 329 401
#     4  12  24  42  65 100 133 175 220 278 333 391
#     4  11  22  40  70  90 135 178 216 271 335 387
#
# _framework density 24.037517000000001
#
# number of rings (size 3 to 8) (size 9 to 14) (size 15 to 20)
#    0.000    1.250    3.750    1.500    3.500    1.500 
#    0.000    5.625    0.000    0.000    0.000    0.000 
#    0.000    0.000    0.000    0.000    0.000    0.000 
#
# Total GULP energy -89109.630713 kJ/mol
# GULP energy per Si atom -5569.351920 kJ/mol
# Density = 2.398281 g / cm^3
# Si number density = 24.037517 Si / 1000 Ang^3
#
#
#
# Elastic Constant Matrix: (Units=GPa)
#
#
# Indices 1 2 3 4 5 6 
#
# 1 56.0884 -1.2526 23.7129 -0.1688 -3.4801 6.0649
# 2 -1.2526 92.1772 39.8502 -7.9936 9.9560 20.0877
# 3 23.7129 39.8502 143.0118 -12.3000 4.4958 7.9915
# 4 -0.1688 -7.9936 -12.3000 42.6269 10.0323 -1.9779
# 5 -3.4801 9.9560 4.4958 10.0323 31.0928 2.7436
# 6 6.0649 20.0877 7.9915 -1.9779 2.7436 28.9467
#
#
#
# Elastic Compliance Matrix: (Units=1/GPa)
#
#
# Indices 1 2 3 4 5 6 
#
# 1 0.020381 0.002775 -0.004072 -0.001522 0.002954 -0.005456
# 2 0.002775 0.015258 -0.003862 0.002229 -0.003890 -0.009582
# 3 -0.004072 -0.003862 0.008900 0.002205 -0.001337 0.001354
# 4 -0.001522 0.002229 0.002205 0.026897 -0.009965 0.000946
# 5 0.002954 -0.003890 -0.001337 -0.009965 0.037302 -0.001767
# 6 -0.005456 -0.009582 0.001354 0.000946 -0.001767 0.042198
#
#
# Mechanical properties :
#
#
# Convention : Reuss Voigt Hill
#
# Bulk Modulus (GPa) = 29.22172 46.21095 37.71633
# Shear Modulus (GPa) = 28.95872 35.79774 32.37823
#
# Velocity S-wave (km/s) = 3.47469 3.86326 3.67411
# Velocity P-wave (km/s) = 5.31799 6.25827 5.80719
#
# Compressibility (1/GPa) = 0.03422112
#
# Stress axis : x y z
#
# Youngs Moduli (GPa) = 49.06533 65.54020 112.36206
#
# Poissons Ratio (x) = -0.18188 0.45749
# Poissons Ratio (y) = -0.13616 0.43398
# Poissons Ratio (z) = 0.19977 0.25314
#
# Static dielectric constant tensor:
#      x y z
#    x 2.019920 0.042800 -0.102470 
#    y 0.042800 2.049760 -0.025760 
#    z -0.102470 -0.025760 1.945800 
# 
# From -- ./inp_files/89917.got.cif
#   From: 2010.05.17/outbox.cif.g08.bks.cpg/sg2_45_cif.got.tgz:89917.got - 2010.06.03 11:33:40.
