data_PCOD9019696
_publ_section_title
;
Structure prediction by ZEFSAII (Michael W. Deem and Ramdas Pophale) SiO2 
 PCOD9019696
Probable space group: P -1
;
_chemical_formula_sum "Si O2"
_cell_formula_units_Z 16
_cell_length_a 5.310690
_cell_length_b 24.736431
_cell_length_c 9.874774
_cell_angle_alpha 44.669454
_cell_angle_beta 44.412706
_cell_angle_gamma 50.886011
_cell_volume 617.995199
_symmetry_space_group_name_H-M "P -1"
_symmetry_group_IT_number 2
_symmetry_cell_setting 'triclinic'
loop_
_space_group_symop_operation_xyz
x,y,z
-x,-y,-z
loop_
_atom_site_type_symbol
_atom_site_label
_atom_site_fract_x
_atom_site_fract_y
_atom_site_fract_z
Si Si1 0.141777 0.166747 0.669802
Si Si2 0.572823 0.074636 0.182362
Si Si3 0.252577 0.980286 0.250703
Si Si4 0.719771 0.681009 0.553565
Si Si5 0.481022 0.434724 0.968424
Si Si6 0.883604 0.783642 0.720503
Si Si7 0.671534 0.630300 0.144509
Si Si8 0.361378 0.427465 0.458071
O O1 0.067007 0.250105 0.629280
O O2 0.139732 0.186600 0.477453
O O3 0.553717 0.112025 0.639300
O O4 0.843170 0.116667 0.914390
O O5 0.350858 0.027197 0.258389
O O6 0.280361 0.143613 0.247843
O O7 0.841919 0.015489 0.289017
O O8 0.500000 0.000000 0.000000
O O9 0.770775 0.606341 0.768664
O O10 0.721134 0.645372 0.465876
O O11 0.304388 0.731909 0.663849
O O12 0.449195 0.406986 0.876620
O O13 0.410162 0.529411 0.808985
O O14 0.896247 0.404939 0.920641
O O15 0.635455 0.721483 0.958612
O O16 0.481749 0.605518 0.396763
O O17 0.000000 0.500000 0.500000
#
# Coordination Sequence:
#
# PCOD9019696 Si02
#       8
#     2   2   2   2   2   2   2   2
#     4  11  25  46  75 102 151 193 243 305 373 433
#     4  11  27  46  77 104 149 195 247 299 367 435
#     4  10  24  47  75 108 144 196 247 300 357 444
#     4  11  25  46  71 107 151 192 249 309 377 439
#     4  10  21  45  66  97 139 184 234 301 355 429
#     4  11  27  44  69 111 148 192 245 309 365 443
#     4  10  22  42  66 101 140 181 241 291 359 432
#     4  10  23  44  73 104 141 198 246 304 370 443
#
# _framework density 25.890166000000001
#
# number of rings (size 3 to 8) (size 9 to 14) (size 15 to 20)
#    0.000    1.500    1.250    2.250    8.750    3.000 
#    4.500    3.750    0.000    0.000    0.000    0.000 
#    0.000    0.000    0.000    0.000    0.000    0.000 
#
# Total GULP energy -89618.432169 kJ/mol
# GULP energy per Si atom -5601.152011 kJ/mol
# Density = 2.583124 g / cm^3
# Si number density = 25.890166 Si / 1000 Ang^3
#
#
#
# Elastic Constant Matrix: (Units=GPa)
#
#
# Indices 1 2 3 4 5 6 
#
# 1 132.6389 55.1072 54.0081 9.3529 11.9372 11.7362
# 2 55.1072 157.5097 30.6595 9.2517 1.3018 22.1307
# 3 54.0081 30.6595 178.8402 2.1597 -8.0472 2.6628
# 4 9.3529 9.2517 2.1597 39.3808 6.1829 -0.1517
# 5 11.9372 1.3018 -8.0472 6.1829 39.9434 6.4882
# 6 11.7362 22.1307 2.6628 -0.1517 6.4882 62.6008
#
#
#
# Elastic Compliance Matrix: (Units=1/GPa)
#
#
# Indices 1 2 3 4 5 6 
#
# 1 0.010272 -0.002908 -0.002731 -0.001093 -0.003284 -0.000444
# 2 -0.002908 0.007832 -0.000363 -0.001314 0.001122 -0.002328
# 3 -0.002731 -0.000363 0.006572 0.000041 0.002123 0.000141
# 4 -0.001093 -0.001314 0.000041 0.026579 -0.003922 0.001139
# 5 -0.003284 0.001122 0.002123 -0.003922 0.027458 -0.002727
# 6 -0.000444 -0.002328 0.000141 0.001139 -0.002727 0.017160
#
#
# Mechanical properties :
#
#
# Convention : Reuss Voigt Hill
#
# Bulk Modulus (GPa) = 78.93155 83.17092 81.05124
# Shear Modulus (GPa) = 44.60256 50.33259 47.46757
#
# Velocity S-wave (km/s) = 4.15512 4.41396 4.28649
# Velocity P-wave (km/s) = 7.31938 7.62703 7.47479
#
# Compressibility (1/GPa) = 0.01266921
#
# Stress axis : x y z
#
# Youngs Moduli (GPa) = 97.35595 127.68038 152.16926
#
# Poissons Ratio (x) = 0.37134 0.41562
# Poissons Ratio (y) = 0.28315 0.05529
# Poissons Ratio (z) = 0.26591 0.04639
#
# Static dielectric constant tensor:
#      x y z
#    x 2.117120 -0.010770 -0.105150 
#    y -0.010770 1.903580 0.007320 
#    z -0.105150 0.007320 2.088140 
# 
# From -- ./inp_files/142219.got.cif
#   From: 2010.05.17/outbox.cif.g08.bks.cpg/sg2_72_cif.got.tgz:142219.got - 2010.06.03 11:33:40.
