data_PCOD9019999
_publ_section_title
;
Structure prediction by ZEFSAII (Michael W. Deem and Ramdas Pophale) SiO2 
 PCOD9019999
Probable space group: P -1
;
_chemical_formula_sum "Si O2"
_cell_formula_units_Z 15
_cell_length_a 18.121012
_cell_length_b 11.789210
_cell_length_c 7.900185
_cell_angle_alpha 124.914458
_cell_angle_beta 44.577469
_cell_angle_gamma 152.161626
_cell_volume 544.589116
_symmetry_space_group_name_H-M "P -1"
_symmetry_group_IT_number 2
_symmetry_cell_setting 'triclinic'
loop_
_space_group_symop_operation_xyz
x,y,z
-x,-y,-z
loop_
_atom_site_type_symbol
_atom_site_label
_atom_site_fract_x
_atom_site_fract_y
_atom_site_fract_z
Si Si1 0.823452 0.437333 0.062117
Si Si2 0.920138 0.019700 0.469384
Si Si3 0.314075 0.322602 0.039855
Si Si4 0.785481 0.056654 0.016357
Si Si5 0.432871 0.984485 0.279258
Si Si6 0.112827 0.741252 0.425066
Si Si7 0.814656 0.708121 0.108145
Si Si8 0.500000 0.000000 0.500000
O O1 0.616198 0.221430 0.301277
O O2 0.817928 0.550839 0.024899
O O3 0.003164 0.660232 0.067199
O O4 0.835019 0.293271 0.853788
O O5 0.795169 0.970784 0.762179
O O6 0.972743 0.204548 0.416706
O O7 0.127511 0.186760 0.320914
O O8 0.791698 0.763278 0.372542
O O9 0.245896 0.092915 0.915323
O O10 0.500000 0.500000 0.000000
O O11 0.328945 0.419967 0.920290
O O12 0.631942 0.005133 0.244168
O O13 0.299853 0.960635 0.418939
O O14 0.349366 0.798434 0.402099
O O15 0.500000 0.000000 0.000000
O O16 0.000000 0.500000 0.500000
O O17 0.000000 0.000000 0.000000
#
# Coordination Sequence:
#
# PCOD9019999 Si02
#       8
#     2   2   2   2   2   2   2   1
#     4  11  23  44  76 106 149 199 256 320 382 463
#     4  11  25  48  78 106 154 204 253 308 404 470
#     4  11  26  45  75 113 152 196 257 318 378 469
#     4  12  26  47  72 108 151 199 258 322 386 459
#     4  10  25  46  71 112 151 195 260 325 386 463
#     4  11  23  41  73 105 148 202 249 312 380 464
#     4  10  21  45  78 108 147 211 251 302 402 474
#     4  12  28  46  74 108 154 198 262 322 392 460
#
# _framework density 27.543703000000001
#
# number of rings (size 3 to 8) (size 9 to 14) (size 15 to 20)
#    0.000    1.067    2.667    4.400    1.867    9.600 
#    0.000    1.333    0.000    0.000    0.000    0.000 
#    0.000    0.000    0.000    0.000    0.000    0.000 
#
# Total GULP energy -83564.474550 kJ/mol
# GULP energy per Si atom -5570.964970 kJ/mol
# Density = 2.748101 g / cm^3
# Si number density = 27.543703 Si / 1000 Ang^3
#
#
#
# Elastic Constant Matrix: (Units=GPa)
#
#
# Indices 1 2 3 4 5 6 
#
# 1 203.7028 38.0908 67.0928 9.4825 -34.2379 7.8797
# 2 38.0908 88.6212 36.5146 4.7154 -27.3940 6.5819
# 3 67.0928 36.5146 193.8039 11.4086 -8.7492 3.7748
# 4 9.4825 4.7154 11.4086 41.4414 -0.3017 -5.7270
# 5 -34.2379 -27.3940 -8.7492 -0.3017 65.7332 6.1342
# 6 7.8797 6.5819 3.7748 -5.7270 6.1342 56.6966
#
#
#
# Elastic Compliance Matrix: (Units=1/GPa)
#
#
# Indices 1 2 3 4 5 6 
#
# 1 0.006209 -0.000987 -0.001767 -0.000943 0.002678 -0.001016
# 2 -0.000987 0.014435 -0.002027 -0.001110 0.005423 -0.002102
# 3 -0.001767 -0.002027 0.006172 -0.001062 -0.000955 0.000066
# 4 -0.000943 -0.001110 -0.001062 0.025172 -0.001260 0.003010
# 5 0.002678 0.005423 -0.000955 -0.001260 0.019026 -0.003124
# 6 -0.001016 -0.002102 0.000066 0.003010 -0.003124 0.018661
#
#
# Mechanical properties :
#
#
# Convention : Reuss Voigt Hill
#
# Bulk Modulus (GPa) = 57.96144 85.50272 71.73208
# Shear Modulus (GPa) = 47.62459 55.73621 51.68040
#
# Velocity S-wave (km/s) = 4.16270 4.50327 4.33633
# Velocity P-wave (km/s) = 6.64780 7.62557 7.15341
#
# Compressibility (1/GPa) = 0.01725285
#
# Stress axis : x y z
#
# Youngs Moduli (GPa) = 161.05446 69.27671 162.03033
#
# Poissons Ratio (x) = 0.06839 0.28636
# Poissons Ratio (y) = 0.15899 0.32841
# Poissons Ratio (z) = 0.28464 0.14041
#
# Static dielectric constant tensor:
#      x y z
#    x 3.187830 -0.601060 0.940170 
#    y -0.601060 2.705040 -0.620670 
#    z 0.940170 -0.620670 2.844240 
# 
# From -- ./inp_files/333693.got.cif
#   From: 2010.05.17/outbox.cif.g08.bks.cpg/sg2_167_cif.got.tgz:333693.got - 2010.06.03 11:33:40.
