data_PCOD9019415
_publ_section_title
;
Structure prediction by ZEFSAII (Michael W. Deem and Ramdas Pophale) SiO2 
 PCOD9019415
Probable space group: P -1
;
_chemical_formula_sum "Si O2"
_cell_formula_units_Z 14
_cell_length_a 8.774277
_cell_length_b 8.297585
_cell_length_c 11.539465
_cell_angle_alpha 96.392393
_cell_angle_beta 128.273667
_cell_angle_gamma 62.718556
_cell_volume 567.977185
_symmetry_space_group_name_H-M "P -1"
_symmetry_group_IT_number 2
_symmetry_cell_setting 'triclinic'
loop_
_space_group_symop_operation_xyz
x,y,z
-x,-y,-z
loop_
_atom_site_type_symbol
_atom_site_label
_atom_site_fract_x
_atom_site_fract_y
_atom_site_fract_z
Si Si1 0.574102 0.695117 0.202449
Si Si2 0.614046 0.007048 0.670502
Si Si3 0.019755 0.335286 0.886402
Si Si4 0.910392 0.186589 0.048014
Si Si5 0.142940 0.111739 0.708296
Si Si6 0.357870 0.317645 0.207926
Si Si7 0.212565 0.709275 0.650523
O O1 0.679252 0.812993 0.205383
O O2 0.752502 0.472749 0.276576
O O3 0.482540 0.793084 0.294661
O O4 0.346585 0.732434 0.033339
O O5 0.551521 0.889287 0.720016
O O6 0.883910 0.885614 0.772122
O O7 0.500000 0.000000 0.500000
O O8 0.837548 0.544619 0.785489
O O9 0.029059 0.193438 0.785216
O O10 0.925797 0.315673 0.965305
O O11 0.255933 0.313685 0.033702
O O12 0.000000 0.000000 0.000000
O O13 0.983175 0.214827 0.530803
O O14 0.198135 0.896795 0.714359
O O15 0.545567 0.374200 0.302784
#
# Coordination Sequence:
#
# PCOD9019415 Si02
#       7
#     2   2   2   2   2   2   2
#     4  11  22  46  68  98 143 183 226 290 339 416
#     4  10  22  40  70 104 137 176 231 289 342 403
#     4  10  22  43  73 100 134 182 230 288 345 408
#     4   9  20  41  67 100 134 178 229 281 336 409
#     4  11  26  45  68 102 143 183 227 289 352 403
#     4  10  21  44  71  99 134 177 236 282 337 419
#     4  11  24  45  67  97 144 185 227 282 348 413
#
# _framework density 24.648878
#
# number of rings (size 3 to 8) (size 9 to 14) (size 15 to 20)
#    0.000    1.714    2.857    0.429    2.000    3.429 
#    0.000    3.571    0.000    0.000    0.000    0.000 
#    0.000    0.000    0.000    0.000    0.000    0.000 
#
# Total GULP energy -78090.064436 kJ/mol
# GULP energy per Si atom -5577.861745 kJ/mol
# Density = 2.459278 g / cm^3
# Si number density = 24.648878 Si / 1000 Ang^3
#
#
#
# Elastic Constant Matrix: (Units=GPa)
#
#
# Indices 1 2 3 4 5 6 
#
# 1 71.4361 20.3011 26.2565 9.3077 15.2173 13.8641
# 2 20.3011 157.8824 47.8327 5.0906 -21.8552 9.2761
# 3 26.2565 47.8327 120.5639 5.8655 9.5707 -9.3383
# 4 9.3077 5.0906 5.8655 27.2813 3.5529 1.5105
# 5 15.2173 -21.8552 9.5707 3.5529 25.7990 5.6325
# 6 13.8641 9.2761 -9.3383 1.5105 5.6325 28.8690
#
#
#
# Elastic Compliance Matrix: (Units=1/GPa)
#
#
# Indices 1 2 3 4 5 6 
#
# 1 0.020055 -0.002677 -0.002819 -0.003909 -0.010908 -0.007350
# 2 -0.002677 0.010634 -0.005190 -0.001435 0.014128 -0.006492
# 3 -0.002819 -0.005190 0.012387 -0.000017 -0.009256 0.008835
# 4 -0.003909 -0.001435 -0.000017 0.038781 -0.004503 0.001183
# 5 -0.010908 0.014128 -0.009256 -0.004503 0.064410 -0.014626
# 6 -0.007350 -0.006492 0.008835 0.001183 -0.014626 0.045905
#
#
# Mechanical properties :
#
#
# Convention : Reuss Voigt Hill
#
# Bulk Modulus (GPa) = 46.07428 59.85146 52.96287
# Shear Modulus (GPa) = 22.64712 33.42268 28.03490
#
# Velocity S-wave (km/s) = 3.03444 3.68632 3.37615
# Velocity P-wave (km/s) = 5.56866 6.51559 6.06065
#
# Compressibility (1/GPa) = 0.02170408
#
# Stress axis : x y z
#
# Youngs Moduli (GPa) = 49.86366 94.03937 80.72727
#
# Poissons Ratio (x) = 0.25173 0.22755
# Poissons Ratio (y) = 0.13348 0.41900
# Poissons Ratio (z) = 0.14055 0.48810
#
# Static dielectric constant tensor:
#      x y z
#    x 4.160650 0.456340 -0.673920 
#    y 0.456340 2.463150 -0.178120 
#    z -0.673920 -0.178120 2.196450 
# 
# From -- ./inp_files/382756.got.cif
#   From: 2010.05.17/outbox.cif.g08.bks.cpg/sg2_192_cif.got.tgz:382756.got - 2010.06.03 11:33:40.
