data_PCOD9019044
_publ_section_title
;
Structure prediction by ZEFSAII (Michael W. Deem and Ramdas Pophale) SiO2 
 PCOD9019044
Probable space group: P -1
;
_chemical_formula_sum "Si O2"
_cell_formula_units_Z 15
_cell_length_a 11.391860
_cell_length_b 6.418170
_cell_length_c 19.602787
_cell_angle_alpha 57.314027
_cell_angle_beta 39.100933
_cell_angle_gamma 49.356529
_cell_volume 684.096270
_symmetry_space_group_name_H-M "P -1"
_symmetry_group_IT_number 2
_symmetry_cell_setting 'triclinic'
loop_
_space_group_symop_operation_xyz
x,y,z
-x,-y,-z
loop_
_atom_site_type_symbol
_atom_site_label
_atom_site_fract_x
_atom_site_fract_y
_atom_site_fract_z
Si Si1 0.750546 0.851646 0.755149
Si Si2 0.935609 0.249056 0.824627
Si Si3 0.283513 0.093902 0.968322
Si Si4 0.148871 0.921838 0.586822
Si Si5 0.273828 0.726427 0.414231
Si Si6 0.000000 0.500000 0.500000
Si Si7 0.022016 0.392038 0.911278
Si Si8 0.289785 0.724699 0.701825
O O1 0.844306 0.522175 0.771603
O O2 0.924404 0.921585 0.700209
O O3 0.527766 0.973571 0.869993
O O4 0.715236 0.004843 0.671236
O O5 0.961652 0.326428 0.876643
O O6 0.159776 0.024980 0.738997
O O7 0.781029 0.104981 0.922469
O O8 0.161408 0.140978 0.942521
O O9 0.182254 0.397187 0.993900
O O10 0.242490 0.765182 0.501830
O O11 0.288945 0.762474 0.614884
O O12 0.123465 0.231300 0.541334
O O13 0.087573 0.688787 0.469947
O O14 0.479225 0.461691 0.345823
O O15 0.160536 0.555038 0.808571
#
# Coordination Sequence:
#
# PCOD9019044 Si02
#       8
#     2   2   2   2   2   1   2   2
#     4  11  22  44  67  96 139 173 215 282 337 386
#     4  11  24  41  67 106 132 171 228 271 330 405
#     4  10  22  42  69  96 136 174 220 272 337 395
#     4  11  25  44  69  96 138 178 226 279 326 398
#     4  11  25  47  69  97 135 182 223 276 336 393
#     4  10  24  42  66  98 128 166 224 282 324 388
#     4  10  21  44  67  98 135 172 224 276 326 410
#     4  11  24  44  70  97 134 182 221 276 333 396
#
# _framework density 21.926739000000001
#
# number of rings (size 3 to 8) (size 9 to 14) (size 15 to 20)
#    0.000    1.333    2.667    2.800    3.733    2.133 
#    4.800    0.000    0.000    0.000    0.000    0.000 
#    0.000    0.000    0.000    0.000    0.000    0.000 
#
# Total GULP energy -83614.379341 kJ/mol
# GULP energy per Si atom -5574.291956 kJ/mol
# Density = 2.187683 g / cm^3
# Si number density = 21.926739 Si / 1000 Ang^3
#
#
#
# Elastic Constant Matrix: (Units=GPa)
#
#
# Indices 1 2 3 4 5 6 
#
# 1 41.4977 19.1034 21.5035 11.3657 17.8033 -6.1818
# 2 19.1034 122.6971 63.8597 0.2321 -5.2033 -27.4022
# 3 21.5035 63.8597 84.5395 10.6907 2.6514 -5.5516
# 4 11.3657 0.2321 10.6907 43.6482 -8.3529 1.7940
# 5 17.8033 -5.2033 2.6514 -8.3529 32.6259 1.1379
# 6 -6.1818 -27.4022 -5.5516 1.7940 1.1379 32.7296
#
#
#
# Elastic Compliance Matrix: (Units=1/GPa)
#
#
# Indices 1 2 3 4 5 6 
#
# 1 0.048019 -0.004752 -0.005020 -0.017487 -0.031249 0.006284
# 2 -0.004752 0.018620 -0.012976 0.005271 0.007550 0.011940
# 3 -0.005020 -0.012976 0.023022 -0.004342 -0.002048 -0.007598
# 4 -0.017487 0.005271 -0.004342 0.032231 0.019059 -0.002056
# 5 -0.031249 0.007550 -0.002048 0.019059 0.054052 -0.002852
# 6 0.006284 0.011940 -0.007598 -0.002056 -0.002852 0.040660
#
#
# Mechanical properties :
#
#
# Convention : Reuss Voigt Hill
#
# Bulk Modulus (GPa) = 22.64273 50.85197 36.74735
# Shear Modulus (GPa) = 18.06213 31.41857 24.74035
#
# Velocity S-wave (km/s) = 2.87322 3.78946 3.36269
# Velocity P-wave (km/s) = 4.62127 6.51067 5.64557
#
# Compressibility (1/GPa) = 0.04416429
#
# Stress axis : x y z
#
# Youngs Moduli (GPa) = 20.82516 53.70480 43.43680
#
# Poissons Ratio (x) = 0.25521 0.21807
# Poissons Ratio (y) = 0.09896 0.56364
# Poissons Ratio (z) = 0.10455 0.69687
#
# Static dielectric constant tensor:
#      x y z
#    x 1.773700 -0.048660 0.035160 
#    y -0.048660 1.800140 0.008950 
#    z 0.035160 0.008950 1.805440 
# 
# From -- ./inp_files/134805.got.cif
#   From: 2010.05.17/outbox.cif.g08.bks.cpg/sg2_68_cif.got.tgz:134805.got - 2010.06.03 11:33:40.
