data_PCOD9019120
_publ_section_title
;
Structure prediction by ZEFSAII (Michael W. Deem and Ramdas Pophale) SiO2 
 PCOD9019120
Probable space group: P -1
;
_chemical_formula_sum "Si O2"
_cell_formula_units_Z 16
_cell_length_a 7.700804
_cell_length_b 19.832166
_cell_length_c 8.388701
_cell_angle_alpha 41.526586
_cell_angle_beta 125.663256
_cell_angle_gamma 115.589340
_cell_volume 690.046433
_symmetry_space_group_name_H-M "P -1"
_symmetry_group_IT_number 2
_symmetry_cell_setting 'triclinic'
loop_
_space_group_symop_operation_xyz
x,y,z
-x,-y,-z
loop_
_atom_site_type_symbol
_atom_site_label
_atom_site_fract_x
_atom_site_fract_y
_atom_site_fract_z
Si Si1 0.093360 0.859229 0.668112
Si Si2 0.349629 0.576371 0.382637
Si Si3 0.433073 0.429158 0.948119
Si Si4 0.152335 0.666967 0.838660
Si Si5 0.743894 0.718934 0.327947
Si Si6 0.186741 0.056085 0.902098
Si Si7 0.423652 0.029673 0.584725
Si Si8 0.803465 0.754934 0.926707
O O1 0.187222 0.782852 0.716813
O O2 0.898827 0.914377 0.370524
O O3 0.021192 0.791784 0.898439
O O4 0.242255 0.946415 0.658540
O O5 0.500000 0.500000 0.500000
O O6 0.300880 0.509058 0.627156
O O7 0.512426 0.670799 0.327185
O O8 0.154607 0.603725 0.115604
O O9 0.500000 0.500000 0.000000
O O10 0.645588 0.378974 0.067920
O O11 0.293224 0.331657 0.083273
O O12 0.934280 0.665537 0.624989
O O13 0.752623 0.837296 0.170703
O O14 0.797394 0.713483 0.177571
O O15 0.392000 0.984906 0.160710
O O16 0.000000 0.000000 0.000000
O O17 0.339643 0.143755 0.331963
O O18 0.500000 0.000000 0.500000
#
# Coordination Sequence:
#
# PCOD9019120 Si02
#       8
#     2   2   2   2   2   2   2   2
#     4  11  25  44  67 108 142 173 227 281 340 416
#     4  10  21  44  68  96 133 176 232 280 335 402
#     4  11  26  46  69  99 137 181 234 290 340 399
#     4  10  23  44  74  95 134 183 224 275 350 400
#     4  11  22  41  71 102 135 177 228 276 337 415
#     4  11  23  40  71 104 132 181 229 268 337 423
#     4  12  22  43  75  95 139 185 219 273 351 400
#     4  12  25  45  65 106 144 174 232 291 334 408
#
# _framework density 23.186844000000001
#
# number of rings (size 3 to 8) (size 9 to 14) (size 15 to 20)
#    0.000    1.000    5.000    1.875    5.250    3.500 
#    2.250    1.250    0.000    0.000    0.000    0.000 
#    0.000    0.000    0.000    0.000    0.000    0.000 
#
# Total GULP energy -89449.462659 kJ/mol
# GULP energy per Si atom -5590.591416 kJ/mol
# Density = 2.313407 g / cm^3
# Si number density = 23.186844 Si / 1000 Ang^3
#
#
#
# Elastic Constant Matrix: (Units=GPa)
#
#
# Indices 1 2 3 4 5 6 
#
# 1 73.1130 37.8371 27.5008 -9.4495 3.1486 4.9141
# 2 37.8371 136.0759 39.3714 -26.2059 1.6559 11.4499
# 3 27.5008 39.3714 134.4985 8.4681 18.3207 -3.2220
# 4 -9.4495 -26.2059 8.4681 35.2471 12.4755 -1.5117
# 5 3.1486 1.6559 18.3207 12.4755 28.9524 -5.0342
# 6 4.9141 11.4499 -3.2220 -1.5117 -5.0342 30.9955
#
#
#
# Elastic Compliance Matrix: (Units=1/GPa)
#
#
# Indices 1 2 3 4 5 6 
#
# 1 0.016900 -0.003125 -0.002550 0.003389 -0.001841 -0.001924
# 2 -0.003125 0.011173 -0.002879 0.009081 -0.003084 -0.003989
# 3 -0.002550 -0.002879 0.009581 -0.003738 -0.003719 0.001677
# 4 0.003389 0.009081 -0.003738 0.043071 -0.017968 -0.005098
# 5 -0.001841 -0.003084 -0.003719 -0.017968 0.046350 0.007696
# 6 -0.001924 -0.003989 0.001677 -0.005098 0.007696 0.035217
#
#
# Mechanical properties :
#
#
# Convention : Reuss Voigt Hill
#
# Bulk Modulus (GPa) = 48.66700 61.45623 55.06162
# Shear Modulus (GPa) = 26.84601 34.97087 30.90844
#
# Velocity S-wave (km/s) = 3.40636 3.88779 3.65501
# Velocity P-wave (km/s) = 6.04199 6.83488 6.45063
#
# Compressibility (1/GPa) = 0.02054780
#
# Stress axis : x y z
#
# Youngs Moduli (GPa) = 59.17122 89.50365 104.37178
#
# Poissons Ratio (x) = 0.27966 0.26611
# Poissons Ratio (y) = 0.18488 0.30048
# Poissons Ratio (z) = 0.15087 0.25767
#
# Static dielectric constant tensor:
#      x y z
#    x 2.071920 0.025010 -0.077500 
#    y 0.025010 1.857930 -0.014100 
#    z -0.077500 -0.014100 1.952270 
# 
# From -- ./inp_files/221735.got.cif
#   From: 2010.05.17/outbox.cif.g08.bks.cpg/sg2_111_cif.got.tgz:221735.got - 2010.06.03 11:33:40.
