data_PCOD9019863
_publ_section_title
;
Structure prediction by ZEFSAII (Michael W. Deem and Ramdas Pophale) SiO2 
 PCOD9019863
Probable space group: P -1
;
_chemical_formula_sum "Si O2"
_cell_formula_units_Z 12
_cell_length_a 12.171029
_cell_length_b 8.616909
_cell_length_c 6.818224
_cell_angle_alpha 52.012252
_cell_angle_beta 130.121323
_cell_angle_gamma 115.981828
_cell_volume 429.937636
_symmetry_space_group_name_H-M "P -1"
_symmetry_group_IT_number 2
_symmetry_cell_setting 'triclinic'
loop_
_space_group_symop_operation_xyz
x,y,z
-x,-y,-z
loop_
_atom_site_type_symbol
_atom_site_label
_atom_site_fract_x
_atom_site_fract_y
_atom_site_fract_z
Si Si1 0.407931 0.657192 0.036638
Si Si2 0.150264 0.894176 0.636479
Si Si3 0.310606 0.729821 0.289620
Si Si4 0.117963 0.166946 0.070139
Si Si5 0.954217 0.527849 0.700610
Si Si6 0.415657 0.228454 0.181973
O O1 0.272188 0.786533 0.739029
O O2 0.546885 0.769216 0.007998
O O3 0.391209 0.638042 0.266434
O O4 0.400197 0.450390 0.078812
O O5 0.004335 0.755286 0.542834
O O6 0.147016 0.109791 0.375485
O O7 0.203984 0.867874 0.941751
O O8 0.209316 0.566118 0.416388
O O9 0.438985 0.825303 0.494597
O O10 0.262133 0.137606 0.141180
O O11 0.057174 0.381726 0.819998
O O12 0.000000 0.000000 0.000000
O O13 0.000000 0.500000 0.000000
#
# Coordination Sequence:
#
# PCOD9019863 Si02
#       6
#     2   2   2   2   2   2
#     4   9  21  40  67 106 130 181 228 280 344 412
#     4   9  22  43  67 101 137 176 231 275 350 405
#     4   9  21  40  71  98 134 179 226 285 340 406
#     4  12  27  43  68 105 139 180 235 288 341 415
#     4  10  21  45  70  96 138 184 222 283 343 409
#     4  11  21  42  71  96 140 180 231 280 348 407
#
# _framework density 27.911028000000002
#
# number of rings (size 3 to 8) (size 9 to 14) (size 15 to 20)
#    1.000    1.000    1.667    0.500    2.333    7.333 
#    0.000    3.333    0.000    0.000    0.000    0.000 
#    0.000    0.000    0.000    0.000    0.000    0.000 
#
# Total GULP energy -67166.032890 kJ/mol
# GULP energy per Si atom -5597.169407 kJ/mol
# Density = 2.784750 g / cm^3
# Si number density = 27.911028 Si / 1000 Ang^3
#
#
#
# Elastic Constant Matrix: (Units=GPa)
#
#
# Indices 1 2 3 4 5 6 
#
# 1 213.9361 56.2081 51.4592 14.4546 40.3390 26.9376
# 2 56.2081 95.2059 44.0234 20.5078 18.3955 33.1817
# 3 51.4592 44.0234 128.8510 -1.2367 16.0707 15.5862
# 4 14.4546 20.5078 -1.2367 51.9386 7.7394 6.3386
# 5 40.3390 18.3955 16.0707 7.7394 37.9244 5.6900
# 6 26.9376 33.1817 15.5862 6.3386 5.6900 64.0996
#
#
#
# Elastic Compliance Matrix: (Units=1/GPa)
#
#
# Indices 1 2 3 4 5 6 
#
# 1 0.006628 -0.001926 -0.001194 -0.000183 -0.005423 -0.000999
# 2 -0.001926 0.017446 -0.004134 -0.005272 -0.002616 -0.006463
# 3 -0.001194 -0.004134 0.009831 0.002390 -0.001400 0.000139
# 4 -0.000183 -0.005272 0.002390 0.021816 -0.002760 0.000312
# 5 -0.005423 -0.002616 -0.001400 -0.002760 0.034383 0.001195
# 6 -0.000999 -0.006463 0.000139 0.000312 0.001195 0.019195
#
#
# Mechanical properties :
#
#
# Convention : Reuss Voigt Hill
#
# Bulk Modulus (GPa) = 51.55283 82.37494 66.96388
# Shear Modulus (GPa) = 38.38145 49.87934 44.13039
#
# Velocity S-wave (km/s) = 3.71230 4.23198 3.98063
# Velocity P-wave (km/s) = 6.07334 7.31143 6.72095
#
# Compressibility (1/GPa) = 0.01939758
#
# Stress axis : x y z
#
# Youngs Moduli (GPa) = 150.87452 57.32054 101.72246
#
# Poissons Ratio (x) = 0.11040 0.12141
# Poissons Ratio (y) = 0.29057 0.42051
# Poissons Ratio (z) = 0.18008 0.23696
#
# Static dielectric constant tensor:
#      x y z
#    x 2.202400 0.003590 -0.056340 
#    y 0.003590 2.215330 -0.069310 
#    z -0.056340 -0.069310 2.248540 
# 
# From -- ./inp_files/261850.got.cif
#   From: 2010.05.17/outbox.cif.g08.bks.cpg/sg2_131_cif.got.tgz:261850.got - 2010.06.03 11:33:40.
