data_PCOD9019036
_publ_section_title
;
Structure prediction by ZEFSAII (Michael W. Deem and Ramdas Pophale) SiO2 
 PCOD9019036
Probable space group: P -1
;
_chemical_formula_sum "Si O2"
_cell_formula_units_Z 16
_cell_length_a 8.467962
_cell_length_b 20.464545
_cell_length_c 11.680314
_cell_angle_alpha 137.976005
_cell_angle_beta 140.867371
_cell_angle_gamma 69.506710
_cell_volume 722.377892
_symmetry_space_group_name_H-M "P -1"
_symmetry_group_IT_number 2
_symmetry_cell_setting 'triclinic'
loop_
_space_group_symop_operation_xyz
x,y,z
-x,-y,-z
loop_
_atom_site_type_symbol
_atom_site_label
_atom_site_fract_x
_atom_site_fract_y
_atom_site_fract_z
Si Si1 0.487757 0.806816 0.556079
Si Si2 0.375193 0.229837 0.665521
Si Si3 0.040706 0.159424 0.684519
Si Si4 0.623723 0.309288 0.324182
Si Si5 0.190914 0.992746 0.836664
Si Si6 0.140246 0.341273 0.786222
Si Si7 0.923021 0.371148 0.319848
Si Si8 0.464586 0.598218 0.382216
O O1 0.589280 0.800089 0.479609
O O2 0.373475 0.680871 0.379198
O O3 0.256051 0.846211 0.455202
O O4 0.728104 0.896418 0.898969
O O5 0.344083 0.340573 0.799569
O O6 0.060082 0.118712 0.380460
O O7 0.653488 0.270524 0.959837
O O8 0.167172 0.269052 0.809454
O O9 0.962874 0.045299 0.423564
O O10 0.299321 0.202257 0.975443
O O11 0.806811 0.352961 0.363657
O O12 0.566342 0.389891 0.482030
O O13 0.815030 0.276500 0.466558
O O14 0.500000 0.000000 0.000000
O O15 0.246862 0.467495 0.050820
O O16 0.000000 0.500000 0.500000
O O17 0.212793 0.368254 0.441693
#
# Coordination Sequence:
#
# PCOD9019036 Si02
#       8
#     2   2   2   2   2   2   2   2
#     4  11  23  40  69  97 136 174 226 284 333 403
#     4  11  22  43  69  95 137 176 227 277 340 397
#     4  10  21  44  67  97 131 178 226 276 337 401
#     4  12  24  42  71  94 143 179 224 279 335 403
#     4   9  20  42  70  93 127 176 230 275 339 397
#     4  11  23  43  64  99 136 179 223 274 334 406
#     4  12  25  43  67 101 140 181 224 277 336 403
#     4  12  26  42  63 106 138 178 230 271 340 407
#
# _framework density 22.149069999999998
#
# number of rings (size 3 to 8) (size 9 to 14) (size 15 to 20)
#    0.000    1.000    5.000    2.250    1.750    3.000 
#    0.000    1.250    5.500    0.000    0.000    0.000 
#    0.000    0.000    0.000    0.000    0.000    0.000 
#
# Total GULP energy -89173.413633 kJ/mol
# GULP energy per Si atom -5573.338352 kJ/mol
# Density = 2.209866 g / cm^3
# Si number density = 22.149070 Si / 1000 Ang^3
#
#
#
# Elastic Constant Matrix: (Units=GPa)
#
#
# Indices 1 2 3 4 5 6 
#
# 1 176.8646 33.0692 58.0293 -0.1037 -29.7080 3.0780
# 2 33.0692 48.8629 43.4120 5.1211 -3.0517 3.9434
# 3 58.0293 43.4120 174.9741 -1.9742 -16.2143 -5.1421
# 4 -0.1037 5.1211 -1.9742 42.3823 -10.1584 5.7664
# 5 -29.7080 -3.0517 -16.2143 -10.1584 42.9756 5.8441
# 6 3.0780 3.9434 -5.1421 5.7664 5.8441 25.6333
#
#
#
# Elastic Compliance Matrix: (Units=1/GPa)
#
#
# Indices 1 2 3 4 5 6 
#
# 1 0.007703 -0.003907 -0.001127 0.002040 0.005410 -0.002242
# 2 -0.003907 0.029372 -0.006476 -0.004229 -0.003571 -0.003583
# 3 -0.001127 -0.006476 0.007935 0.001303 0.001788 0.002023
# 4 0.002040 -0.004229 0.001303 0.027383 0.009103 -0.007569
# 5 0.005410 -0.003571 0.001788 0.009103 0.030779 -0.008807
# 6 -0.002242 -0.003583 0.002023 -0.007569 -0.008807 0.043948
#
#
# Mechanical properties :
#
#
# Convention : Reuss Voigt Hill
#
# Bulk Modulus (GPa) = 45.47206 74.41364 59.94285
# Shear Modulus (GPa) = 28.17366 39.94431 34.05899
#
# Velocity S-wave (km/s) = 3.57038 4.25129 3.92563
# Velocity P-wave (km/s) = 6.12955 7.60050 6.90431
#
# Compressibility (1/GPa) = 0.02199152
#
# Stress axis : x y z
#
# Youngs Moduli (GPa) = 129.81653 34.04587 126.01914
#
# Poissons Ratio (x) = 0.13302 0.14202
# Poissons Ratio (y) = 0.50721 0.81604
# Poissons Ratio (z) = 0.14630 0.22046
#
# Static dielectric constant tensor:
#      x y z
#    x 1.938380 0.000040 0.013670 
#    y 0.000040 1.820320 -0.006150 
#    z 0.013670 -0.006150 1.821040 
# 
# From -- ./inp_files/406904.got.cif
#   From: 2010.05.17/outbox.cif.g08.bks.cpg/sg2_204_cif.got.tgz:406904.got - 2010.06.03 11:33:40.
