data_PCOD9019773
_publ_section_title
;
Structure prediction by ZEFSAII (Michael W. Deem and Ramdas Pophale) SiO2 
 PCOD9019773
Probable space group: P -1
;
_chemical_formula_sum "Si O2"
_cell_formula_units_Z 16
_cell_length_a 11.868439
_cell_length_b 8.834748
_cell_length_c 15.547901
_cell_angle_alpha 83.166460
_cell_angle_beta 27.758070
_cell_angle_gamma 95.742544
_cell_volume 675.476759
_symmetry_space_group_name_H-M "P -1"
_symmetry_group_IT_number 2
_symmetry_cell_setting 'triclinic'
loop_
_space_group_symop_operation_xyz
x,y,z
-x,-y,-z
loop_
_atom_site_type_symbol
_atom_site_label
_atom_site_fract_x
_atom_site_fract_y
_atom_site_fract_z
Si Si1 0.704882 0.768832 0.392621
Si Si2 0.907306 0.797647 0.080438
Si Si3 0.477904 0.846704 0.695534
Si Si4 0.274022 0.811662 0.404534
Si Si5 0.144973 0.284363 0.449252
Si Si6 0.043154 0.437171 0.665867
Si Si7 0.626343 0.534410 0.005838
Si Si8 0.809208 0.850532 0.959755
O O1 0.479221 0.788877 0.600148
O O2 0.774617 0.630268 0.400853
O O3 0.679020 0.729570 0.311739
O O4 0.956864 0.958205 0.217731
O O5 0.165366 0.772737 0.937619
O O6 0.838878 0.749821 0.030991
O O7 0.000000 0.000000 0.000000
O O8 0.676611 0.795289 0.619931
O O9 0.612271 0.048218 0.607002
O O10 0.178604 0.626662 0.522848
O O11 0.528947 0.857289 0.166410
O O12 0.035372 0.808912 0.505004
O O13 0.966038 0.318465 0.640378
O O14 0.378625 0.461179 0.244142
O O15 0.809743 0.434827 0.885965
O O16 0.794226 0.733331 0.897786
O O17 0.500000 0.500000 0.000000
#
# Coordination Sequence:
#
# PCOD9019773 Si02
#       8
#     2   2   2   2   2   2   2   2
#     4  10  23  43  66  97 129 173 225 267 324 390
#     4  10  21  45  68  93 133 172 218 282 317 381
#     4  11  23  42  68  96 131 172 223 272 325 392
#     4  12  21  42  66  95 134 176 213 269 337 386
#     4  11  24  42  63  97 138 169 213 281 329 383
#     4  11  23  42  65  92 138 171 215 277 321 391
#     4  12  23  41  67  95 131 176 219 265 331 395
#     4  11  24  43  70  95 132 174 223 268 331 389
#
# _framework density 23.686971
#
# number of rings (size 3 to 8) (size 9 to 14) (size 15 to 20)
#    0.000    1.000    5.000    3.000    0.000    2.000 
#    2.250    5.000    0.000    0.000    0.000    0.000 
#    0.000    0.000    0.000    0.000    0.000    0.000 
#
# Total GULP energy -89409.935079 kJ/mol
# GULP energy per Si atom -5588.120942 kJ/mol
# Density = 2.363306 g / cm^3
# Si number density = 23.686971 Si / 1000 Ang^3
#
#
#
# Elastic Constant Matrix: (Units=GPa)
#
#
# Indices 1 2 3 4 5 6 
#
# 1 93.3443 42.8725 17.8283 -0.7316 3.0332 1.2693
# 2 42.8725 77.9004 13.9560 17.9672 3.4320 4.0256
# 3 17.8283 13.9560 69.9277 22.7068 3.0114 6.1192
# 4 -0.7316 17.9672 22.7068 32.6515 -3.6313 -0.8521
# 5 3.0332 3.4320 3.0114 -3.6313 36.2036 -1.7440
# 6 1.2693 4.0256 6.1192 -0.8521 -1.7440 25.9542
#
#
#
# Elastic Compliance Matrix: (Units=1/GPa)
#
#
# Indices 1 2 3 4 5 6 
#
# 1 0.016829 -0.010863 -0.005873 0.010655 0.001306 0.002684
# 2 -0.010863 0.022095 0.003988 -0.015663 -0.003307 -0.004573
# 3 -0.005873 0.003988 0.021513 -0.017869 -0.003768 -0.006243
# 4 0.010655 -0.015663 -0.017869 0.052997 0.007798 0.008385
# 5 0.001306 -0.003307 -0.003768 0.007798 0.029092 0.003548
# 6 0.002684 -0.004573 -0.006243 0.008385 0.003548 0.041093
#
#
# Mechanical properties :
#
#
# Convention : Reuss Voigt Hill
#
# Bulk Modulus (GPa) = 28.61986 43.38736 36.00361
# Shear Modulus (GPa) = 22.64877 30.06288 26.35583
#
# Velocity S-wave (km/s) = 3.09555 3.56641 3.33929
# Velocity P-wave (km/s) = 4.98852 5.94271 5.48640
#
# Compressibility (1/GPa) = 0.03494077
#
# Stress axis : x y z
#
# Youngs Moduli (GPa) = 59.42210 45.25828 46.48351
#
# Poissons Ratio (x) = 0.49165 0.27302
# Poissons Ratio (y) = 0.64551 -0.18539
# Poissons Ratio (z) = 0.34901 -0.18051
#
# Static dielectric constant tensor:
#      x y z
#    x 1.929150 0.000820 0.011130 
#    y 0.000820 1.897770 0.040390 
#    z 0.011130 0.040390 1.938410 
# 
# From -- ./inp_files/307365.got.cif
#   From: 2010.05.17/outbox.cif.g08.bks.cpg/sg2_154_cif.got.tgz:307365.got - 2010.06.03 11:33:40.
