data_PCOD9019940
_publ_section_title
;
Structure prediction by ZEFSAII (Michael W. Deem and Ramdas Pophale) SiO2 
 PCOD9019940
Probable space group: P -1
;
_chemical_formula_sum "Si O2"
_cell_formula_units_Z 14
_cell_length_a 11.083353
_cell_length_b 11.840818
_cell_length_c 17.200635
_cell_angle_alpha 148.281228
_cell_angle_beta 139.704471
_cell_angle_gamma 61.651206
_cell_volume 659.478021
_symmetry_space_group_name_H-M "P -1"
_symmetry_group_IT_number 2
_symmetry_cell_setting 'triclinic'
loop_
_space_group_symop_operation_xyz
x,y,z
-x,-y,-z
loop_
_atom_site_type_symbol
_atom_site_label
_atom_site_fract_x
_atom_site_fract_y
_atom_site_fract_z
Si Si1 0.797850 0.886761 0.893435
Si Si2 0.769681 0.965326 0.388764
Si Si3 0.634699 0.749665 0.034793
Si Si4 0.187196 0.656948 0.745842
Si Si5 0.630484 0.354476 0.565418
Si Si6 0.529784 0.776207 0.413509
Si Si7 0.881671 0.826220 0.515392
O O1 0.767410 0.649391 0.788160
O O2 0.575287 0.775149 0.669374
O O3 0.820777 0.109675 0.088708
O O4 0.000000 0.000000 0.000000
O O5 0.768782 0.221006 0.541008
O O6 0.617142 0.800457 0.147009
O O7 0.738663 0.857053 0.396482
O O8 0.000000 0.000000 0.500000
O O9 0.431971 0.744720 0.889838
O O10 0.614858 0.484399 0.856082
O O11 0.867866 0.964826 0.246127
O O12 0.141879 0.443032 0.661547
O O13 0.000000 0.500000 0.500000
O O14 0.536232 0.287705 0.566989
O O15 0.773968 0.841782 0.551869
O O16 0.500000 0.000000 0.500000
#
# Coordination Sequence:
#
# PCOD9019940 Si02
#       7
#     2   2   2   2   2   2   2
#     4  11  28  46  72 102 142 194 241 296 357 424
#     4  10  21  45  73 104 138 184 239 292 360 433
#     4  10  24  44  70  99 142 187 232 304 353 423
#     4  11  26  45  68 103 136 188 245 289 354 436
#     4  11  25  49  71 104 147 186 239 300 363 423
#     4  11  24  43  67 106 141 181 235 291 363 433
#     4  10  24  44  71 104 139 189 239 290 371 425
#
# _framework density 21.228912000000001
#
# number of rings (size 3 to 8) (size 9 to 14) (size 15 to 20)
#    0.000    1.429    2.857    0.000   10.000    4.571 
#    2.571    0.000    0.000    0.000    0.000    0.000 
#    0.000    0.000    0.000    0.000    0.000    0.000 
#
# Total GULP energy -78206.279620 kJ/mol
# GULP energy per Si atom -5586.162830 kJ/mol
# Density = 2.118059 g / cm^3
# Si number density = 21.228912 Si / 1000 Ang^3
#
#
#
# Elastic Constant Matrix: (Units=GPa)
#
#
# Indices 1 2 3 4 5 6 
#
# 1 128.1754 61.3435 72.9417 18.2354 -2.8788 -4.5592
# 2 61.3435 151.2993 77.1747 35.0442 -13.2219 -7.1444
# 3 72.9417 77.1747 165.0086 29.6563 -2.9942 -11.1909
# 4 18.2354 35.0442 29.6563 45.1375 -11.4673 -1.7328
# 5 -2.8788 -13.2219 -2.9942 -11.4673 46.6365 5.5553
# 6 -4.5592 -7.1444 -11.1909 -1.7328 5.5553 31.2166
#
#
#
# Elastic Compliance Matrix: (Units=1/GPa)
#
#
# Indices 1 2 3 4 5 6 
#
# 1 0.011180 -0.002658 -0.003703 -0.000106 -0.000297 -0.000256
# 2 -0.002658 0.010335 -0.002741 -0.004787 0.001355 0.000488
# 3 -0.003703 -0.002741 0.009651 -0.002982 -0.001402 0.002376
# 4 -0.000106 -0.004787 -0.002982 0.029294 0.005838 -0.001593
# 5 -0.000297 0.001355 -0.001402 0.005838 0.023644 -0.004120
# 6 -0.000256 0.000488 0.002376 -0.001593 -0.004120 0.033605
#
#
# Mechanical properties :
#
#
# Convention : Reuss Voigt Hill
#
# Bulk Modulus (GPa) = 77.14378 96.37812 86.76095
# Shear Modulus (GPa) = 35.65463 40.13303 37.89383
#
# Velocity S-wave (km/s) = 4.10266 4.35269 4.22952
# Velocity P-wave (km/s) = 7.67205 8.41185 8.05045
#
# Compressibility (1/GPa) = 0.01296281
#
# Stress axis : x y z
#
# Youngs Moduli (GPa) = 89.44300 96.75635 103.61936
#
# Poissons Ratio (x) = 0.25715 0.38370
# Poissons Ratio (y) = 0.23772 0.28402
# Poissons Ratio (z) = 0.33120 0.26521
#
# Static dielectric constant tensor:
#      x y z
#    x 1.804640 0.048840 0.000930 
#    y 0.048840 1.824580 -0.033520 
#    z 0.000930 -0.033520 1.765740 
# 
# From -- ./inp_files/277949.got.cif
#   From: 2010.05.17/outbox.cif.g08.bks.cpg/sg2_139_cif.got.tgz:277949.got - 2010.06.03 11:33:40.
