data_PCOD9019795
_publ_section_title
;
Structure prediction by ZEFSAII (Michael W. Deem and Ramdas Pophale) SiO2 
 PCOD9019795
Probable space group: P -1
;
_chemical_formula_sum "Si O2"
_cell_formula_units_Z 16
_cell_length_a 9.378509
_cell_length_b 12.800105
_cell_length_c 15.334690
_cell_angle_alpha 143.129078
_cell_angle_beta 114.140184
_cell_angle_gamma 46.984862
_cell_volume 767.363133
_symmetry_space_group_name_H-M "P -1"
_symmetry_group_IT_number 2
_symmetry_cell_setting 'triclinic'
loop_
_space_group_symop_operation_xyz
x,y,z
-x,-y,-z
loop_
_atom_site_type_symbol
_atom_site_label
_atom_site_fract_x
_atom_site_fract_y
_atom_site_fract_z
Si Si1 0.908246 0.321308 0.062652
Si Si2 0.664575 0.170643 0.936173
Si Si3 0.942629 0.242576 0.642838
Si Si4 0.693009 0.478313 0.559703
Si Si5 0.775209 0.337809 0.852325
Si Si6 0.724346 0.778753 0.383093
Si Si7 0.337248 0.116824 0.114834
Si Si8 0.122370 0.117681 0.366315
O O1 0.728381 0.580423 0.219881
O O2 0.113431 0.257414 0.108939
O O3 0.848659 0.177916 0.991349
O O4 0.906083 0.305983 0.947450
O O5 0.631586 0.076389 0.948319
O O6 0.741445 0.990241 0.757270
O O7 0.456281 0.426509 0.034364
O O8 0.782710 0.378616 0.613520
O O9 0.852225 0.352228 0.788245
O O10 0.146039 0.205393 0.644860
O O11 0.000000 0.000000 0.500000
O O12 0.500000 0.500000 0.500000
O O13 0.647280 0.717957 0.713602
O O14 0.876563 0.290488 0.414192
O O15 0.802897 0.107195 0.710236
O O16 0.844068 0.730378 0.470164
O O17 0.500000 0.000000 0.500000
O O18 0.500000 0.000000 0.000000
#
# Coordination Sequence:
#
# PCOD9019795 Si02
#       8
#     2   2   2   2   2   2   2   2
#     4  11  24  45  71 101 145 183 227 292 345 410
#     4  11  25  44  73 101 137 193 229 277 356 418
#     4  11  22  43  71 101 136 179 232 287 341 410
#     4  11  25  48  70  98 143 185 229 291 348 403
#     4  11  22  44  72 104 135 181 235 285 348 411
#     4  11  21  41  65 105 141 172 226 289 350 399
#     4  12  27  49  67 103 144 185 236 285 342 426
#     4  10  21  45  68  98 143 174 236 291 335 415
#
# _framework density 20.850622999999999
#
# number of rings (size 3 to 8) (size 9 to 14) (size 15 to 20)
#    0.000    1.000    5.000    4.125    3.500    1.000 
#    9.000    0.000    0.000    0.000    0.000    0.000 
#    0.000    0.000    0.000    0.000    0.000    0.000 
#
# Total GULP energy -89324.161441 kJ/mol
# GULP energy per Si atom -5582.760090 kJ/mol
# Density = 2.080317 g / cm^3
# Si number density = 20.850623 Si / 1000 Ang^3
#
#
#
# Elastic Constant Matrix: (Units=GPa)
#
#
# Indices 1 2 3 4 5 6 
#
# 1 113.0937 43.9875 40.2471 -13.7959 -19.1252 -1.5158
# 2 43.9875 62.6151 18.5033 0.1868 0.6063 0.2096
# 3 40.2471 18.5033 114.7320 -5.0664 -10.1202 7.5867
# 4 -13.7959 0.1868 -5.0664 28.3335 -3.3206 -5.6708
# 5 -19.1252 0.6063 -10.1202 -3.3206 46.5110 -4.1558
# 6 -1.5158 0.2096 7.5867 -5.6708 -4.1558 39.4769
#
#
#
# Elastic Compliance Matrix: (Units=1/GPa)
#
#
# Indices 1 2 3 4 5 6 
#
# 1 0.016564 -0.010781 -0.003260 0.009073 0.007192 0.003380
# 2 -0.010781 0.023835 -0.000713 -0.006570 -0.005541 -0.001930
# 3 -0.003260 -0.000713 0.010165 -0.000087 0.000694 -0.002014
# 4 0.009073 -0.006570 -0.000087 0.042058 0.007446 0.007225
# 5 0.007192 -0.005541 0.000694 0.007446 0.025564 0.003933
# 6 0.003380 -0.001930 -0.002014 0.007225 0.003933 0.027310
#
#
# Mechanical properties :
#
#
# Convention : Reuss Voigt Hill
#
# Bulk Modulus (GPa) = 47.49449 55.10185 51.29817
# Shear Modulus (GPa) = 27.46896 35.37779 31.42338
#
# Velocity S-wave (km/s) = 3.63356 4.12360 3.88631
# Velocity P-wave (km/s) = 6.35858 7.01117 6.69283
#
# Compressibility (1/GPa) = 0.02105507
#
# Stress axis : x y z
#
# Youngs Moduli (GPa) = 60.37205 41.95557 98.37389
#
# Poissons Ratio (x) = 0.45232 0.32073
# Poissons Ratio (y) = 0.65086 0.07017
# Poissons Ratio (z) = 0.19683 0.02993
#
# Static dielectric constant tensor:
#      x y z
#    x 1.789640 -0.026330 0.002230 
#    y -0.026330 1.779550 0.005270 
#    z 0.002230 0.005270 1.760230 
# 
# From -- ./inp_files/446746.got.cif
#   From: 2010.05.17/outbox.cif.g08.bks.cpg/sg2_224_cif.got.tgz:446746.got - 2010.06.03 11:33:40.
