data_PCOD9019600
_publ_section_title
;
Structure prediction by ZEFSAII (Michael W. Deem and Ramdas Pophale) SiO2 
 PCOD9019600
Probable space group: P -1
;
_chemical_formula_sum "Si O2"
_cell_formula_units_Z 14
_cell_length_a 9.109679
_cell_length_b 16.646514
_cell_length_c 8.088635
_cell_angle_alpha 51.163782
_cell_angle_beta 81.369929
_cell_angle_gamma 124.400156
_cell_volume 488.669176
_symmetry_space_group_name_H-M "P -1"
_symmetry_group_IT_number 2
_symmetry_cell_setting 'triclinic'
loop_
_space_group_symop_operation_xyz
x,y,z
-x,-y,-z
loop_
_atom_site_type_symbol
_atom_site_label
_atom_site_fract_x
_atom_site_fract_y
_atom_site_fract_z
Si Si1 0.411529 0.881868 0.325842
Si Si2 0.503422 0.312216 0.840899
Si Si3 0.375064 0.813339 0.861324
Si Si4 0.956437 0.095558 0.242732
Si Si5 0.078471 0.928314 0.081492
Si Si6 0.783597 0.546282 0.161319
Si Si7 0.199808 0.419544 0.234586
O O1 0.073998 0.671316 0.644012
O O2 0.508471 0.011797 0.297875
O O3 0.500000 0.000000 0.000000
O O4 0.578711 0.877239 0.258992
O O5 0.580464 0.410127 0.528192
O O6 0.642652 0.453510 0.790300
O O7 0.636322 0.277069 0.873001
O O8 0.157870 0.114003 0.181093
O O9 0.620306 0.901717 0.594528
O O10 0.073201 0.654303 0.026612
O O11 0.098383 0.266136 0.111712
O O12 0.007071 0.170630 0.953008
O O13 0.947877 0.778907 0.439255
O O14 0.000000 0.000000 0.000000
O O15 0.629761 0.455936 0.124072
#
# Coordination Sequence:
#
# PCOD9019600 Si02
#       7
#     2   2   2   2   2   2   2
#     4  10  21  44  77 109 147 201 257 313 376 449
#     4  12  29  49  74 120 162 199 251 323 390 454
#     4  12  25  50  83 112 150 209 264 312 376 468
#     4  12  25  49  76 111 157 206 253 318 385 455
#     4  11  25  46  77 116 153 199 264 322 380 457
#     4  12  24  49  83 106 155 207 256 314 391 453
#     4  11  25  48  76 112 154 204 252 318 387 459
#
# _framework density 28.649236999999999
#
# number of rings (size 3 to 8) (size 9 to 14) (size 15 to 20)
#    0.000    0.571    4.286    3.429    4.000    2.286 
#    2.571    0.000    0.000    0.000    0.000    0.000 
#    0.000    0.000    0.000    0.000    0.000    0.000 
#
# Total GULP energy -78284.090432 kJ/mol
# GULP energy per Si atom -5591.720745 kJ/mol
# Density = 2.858403 g / cm^3
# Si number density = 28.649237 Si / 1000 Ang^3
#
#
#
# Elastic Constant Matrix: (Units=GPa)
#
#
# Indices 1 2 3 4 5 6 
#
# 1 182.8593 15.2858 50.6851 4.3112 -34.2022 -7.1562
# 2 15.2858 166.1960 47.2799 35.4545 3.1397 16.7583
# 3 50.6851 47.2799 144.1149 36.0501 -13.9749 10.3082
# 4 4.3112 35.4545 36.0501 46.3535 12.7145 14.4649
# 5 -34.2022 3.1397 -13.9749 12.7145 62.3954 -8.8013
# 6 -7.1562 16.7583 10.3082 14.4649 -8.8013 36.0067
#
#
#
# Elastic Compliance Matrix: (Units=1/GPa)
#
#
# Indices 1 2 3 4 5 6 
#
# 1 0.006965 -0.000279 -0.001911 -0.001196 0.004149 0.003556
# 2 -0.000279 0.007438 -0.001192 -0.004223 -0.000147 -0.001515
# 3 -0.001911 -0.001192 0.010255 -0.008151 0.003151 0.001284
# 4 -0.001196 -0.004223 -0.008151 0.039230 -0.012338 -0.014715
# 5 0.004149 -0.000147 0.003151 -0.012338 0.023020 0.010575
# 6 0.003556 -0.001515 0.001284 -0.014715 0.010575 0.037313
#
#
# Mechanical properties :
#
#
# Convention : Reuss Voigt Hill
#
# Bulk Modulus (GPa) = 55.88050 79.96352 67.92201
# Shear Modulus (GPa) = 36.50979 54.27909 45.39444
#
# Velocity S-wave (km/s) = 3.57371 4.35743 3.98488
# Velocity P-wave (km/s) = 6.04780 7.29987 6.70313
#
# Compressibility (1/GPa) = 0.01789533
#
# Stress axis : x y z
#
# Youngs Moduli (GPa) = 143.57261 134.44163 97.51656
#
# Poissons Ratio (x) = 0.03748 0.18635
# Poissons Ratio (y) = 0.04002 0.11620
# Poissons Ratio (z) = 0.27436 0.16021
#
# Static dielectric constant tensor:
#      x y z
#    x 2.384350 0.006580 -0.051300 
#    y 0.006580 2.343810 0.080500 
#    z -0.051300 0.080500 2.307070 
# 
# From -- ./inp_files/216701.got.cif
#   From: 2010.05.17/outbox.cif.g08.bks.cpg/sg2_109_cif.got.tgz:216701.got - 2010.06.03 11:33:40.
