data_PCOD9019550
_publ_section_title
;
Structure prediction by ZEFSAII (Michael W. Deem and Ramdas Pophale) SiO2 
 PCOD9019550
Probable space group: P -1
;
_chemical_formula_sum "Si O2"
_cell_formula_units_Z 14
_cell_length_a 7.968896
_cell_length_b 10.210207
_cell_length_c 11.075637
_cell_angle_alpha 126.104624
_cell_angle_beta 106.069887
_cell_angle_gamma 44.785066
_cell_volume 496.813043
_symmetry_space_group_name_H-M "P -1"
_symmetry_group_IT_number 2
_symmetry_cell_setting 'triclinic'
loop_
_space_group_symop_operation_xyz
x,y,z
-x,-y,-z
loop_
_atom_site_type_symbol
_atom_site_label
_atom_site_fract_x
_atom_site_fract_y
_atom_site_fract_z
Si Si1 0.539830 0.242361 0.894835
Si Si2 0.267924 0.141576 0.686957
Si Si3 0.919657 0.256130 0.849091
Si Si4 0.886555 0.810294 0.885204
Si Si5 0.654500 0.423445 0.318707
Si Si6 0.631287 0.671856 0.658828
Si Si7 0.221165 0.911755 0.375081
O O1 0.400738 0.228455 0.757169
O O2 0.766808 0.145086 0.799601
O O3 0.655756 0.062102 0.925332
O O4 0.357199 0.491670 0.045912
O O5 0.034957 0.323301 0.822768
O O6 0.467108 0.901480 0.669456
O O7 0.217400 0.093540 0.521242
O O8 0.008727 0.060383 0.653934
O O9 0.066608 0.183183 0.963279
O O10 0.823253 0.665719 0.759744
O O11 0.125290 0.720427 0.811413
O O12 0.745931 0.465606 0.476560
O O13 0.536650 0.332021 0.290781
O O14 0.433637 0.672282 0.352629
#
# Coordination Sequence:
#
# PCOD9019550 Si02
#       7
#     2   2   2   2   2   2   2
#     4  11  25  46  74 105 142 185 243 296 361 433
#     4  10  24  46  73 102 143 190 240 299 359 426
#     4  12  26  46  70 107 145 190 234 298 368 420
#     4  11  25  45  74 104 146 191 238 296 367 429
#     4  10  21  44  74 103 148 190 238 305 355 425
#     4   9  22  43  71 110 141 189 249 292 357 436
#     4  11  24  47  71 105 143 187 246 291 358 441
#
# _framework density 28.179614000000001
#
# number of rings (size 3 to 8) (size 9 to 14) (size 15 to 20)
#    0.000    1.429    1.429    2.143    2.000    6.286 
#    5.143    0.000    0.000    0.857    0.000    0.000 
#    0.000    0.000    0.000    0.000    0.000    0.000 
#
# Total GULP energy -78308.230865 kJ/mol
# GULP energy per Si atom -5593.445062 kJ/mol
# Density = 2.811548 g / cm^3
# Si number density = 28.179614 Si / 1000 Ang^3
#
#
#
# Elastic Constant Matrix: (Units=GPa)
#
#
# Indices 1 2 3 4 5 6 
#
# 1 72.6629 13.4121 62.6750 -5.5741 9.1982 9.2807
# 2 13.4121 88.9679 21.3654 -22.4249 14.5653 0.9852
# 3 62.6750 21.3654 211.5402 -25.9057 34.2841 -7.1302
# 4 -5.5741 -22.4249 -25.9057 43.4645 -14.7204 3.8022
# 5 9.1982 14.5653 34.2841 -14.7204 56.4034 1.8873
# 6 9.2807 0.9852 -7.1302 3.8022 1.8873 37.3569
#
#
#
# Elastic Compliance Matrix: (Units=1/GPa)
#
#
# Indices 1 2 3 4 5 6 
#
# 1 0.020080 -0.001936 -0.006264 -0.001328 0.000889 -0.006043
# 2 -0.001936 0.013319 0.000245 0.006251 -0.001629 -0.000377
# 3 -0.006264 0.000245 0.007449 0.002490 -0.003016 0.002870
# 4 -0.001328 0.006251 0.002490 0.029418 0.004853 -0.002599
# 5 0.000889 -0.001629 -0.003016 0.004853 0.021182 -0.002317
# 6 -0.006043 -0.000377 0.002870 -0.002599 -0.002317 0.029210
#
#
# Mechanical properties :
#
#
# Convention : Reuss Voigt Hill
#
# Bulk Modulus (GPa) = 40.09862 63.11955 51.60909
# Shear Modulus (GPa) = 34.51124 45.82618 40.16871
#
# Velocity S-wave (km/s) = 3.50335 4.03701 3.77961
# Velocity P-wave (km/s) = 5.53400 6.64662 6.11567
#
# Compressibility (1/GPa) = 0.02493852
#
# Stress axis : x y z
#
# Youngs Moduli (GPa) = 49.80067 75.07792 134.24915
#
# Poissons Ratio (x) = 0.14535 0.84094
# Poissons Ratio (y) = 0.09642 -0.03291
# Poissons Ratio (z) = 0.31195 -0.01840
#
# Static dielectric constant tensor:
#      x y z
#    x 2.339710 0.026560 -0.104110 
#    y 0.026560 2.123990 -0.023030 
#    z -0.104110 -0.023030 2.427590 
# 
# From -- ./inp_files/393162.got.cif
#   From: 2010.05.17/outbox.cif.g08.bks.cpg/sg2_197_cif.got.tgz:393162.got - 2010.06.03 11:33:40.
