data_PCOD9019099
_publ_section_title
;
Structure prediction by ZEFSAII (Michael W. Deem and Ramdas Pophale) SiO2 
 PCOD9019099
Probable space group: P -1
;
_chemical_formula_sum "Si O2"
_cell_formula_units_Z 16
_cell_length_a 12.319090
_cell_length_b 7.174082
_cell_length_c 8.094443
_cell_angle_alpha 89.974523
_cell_angle_beta 90.803616
_cell_angle_gamma 109.503349
_cell_volume 674.252222
_symmetry_space_group_name_H-M "P -1"
_symmetry_group_IT_number 2
_symmetry_cell_setting 'triclinic'
loop_
_space_group_symop_operation_xyz
x,y,z
-x,-y,-z
loop_
_atom_site_type_symbol
_atom_site_label
_atom_site_fract_x
_atom_site_fract_y
_atom_site_fract_z
Si Si1 0.861601 0.513870 0.623308
Si Si2 0.375425 0.840849 0.009902
Si Si3 0.923065 0.853572 0.367244
Si Si4 0.741408 0.575079 0.961399
Si Si5 0.460325 0.273276 0.555855
Si Si6 0.674380 0.119390 0.623483
Si Si7 0.952951 0.558407 0.167098
Si Si8 0.715619 0.897359 0.173749
O O1 0.861170 0.654226 0.470718
O O2 0.792820 0.286392 0.572857
O O3 0.990561 0.540911 0.691385
O O4 0.796286 0.566915 0.782277
O O5 0.320341 0.877220 0.179251
O O6 0.371353 0.616644 0.020092
O O7 0.500000 0.000000 0.000000
O O8 0.305390 0.898804 0.862349
O O9 0.994784 0.787437 0.226778
O O10 0.830346 0.931207 0.280130
O O11 0.000000 0.000000 0.500000
O O12 0.823681 0.534818 0.107204
O O13 0.725811 0.779303 0.008906
O O14 0.500000 0.500000 0.500000
O O15 0.572641 0.206459 0.572095
O O16 0.393002 0.242963 0.727221
O O17 0.368142 0.105294 0.441771
O O18 0.000000 0.500000 0.000000
#
# Coordination Sequence:
#
# PCOD9019099 Si02
#       8
#     2   2   2   2   2   2   2   2
#     4  10  21  44  68  92 135 174 222 276 340 401
#     4  11  23  42  67  94 126 177 224 270 331 396
#     4  11  25  41  67 107 134 172 227 279 343 406
#     4   9  23  43  66  96 131 171 227 271 335 399
#     4  11  24  41  66  96 135 176 218 278 341 392
#     4  10  24  43  63  97 130 174 230 271 331 409
#     4   9  20  43  67  94 128 179 218 273 337 405
#     4  11  25  42  65  96 136 172 217 282 330 398
#
# _framework density 23.729994000000001
#
# number of rings (size 3 to 8) (size 9 to 14) (size 15 to 20)
#    0.000    1.750    1.250    1.125    5.250    5.500 
#    4.500    1.875    0.000    0.000    0.000    0.000 
#    0.000    0.000    0.000    0.000    0.000    0.000 
#
# Total GULP energy -89350.805790 kJ/mol
# GULP energy per Si atom -5584.425362 kJ/mol
# Density = 2.367598 g / cm^3
# Si number density = 23.729994 Si / 1000 Ang^3
#
#
#
# Elastic Constant Matrix: (Units=GPa)
#
#
# Indices 1 2 3 4 5 6 
#
# 1 42.9572 13.4876 6.4599 5.1972 4.0441 -0.8436
# 2 13.4876 112.4668 26.7159 11.0777 -5.0498 7.3650
# 3 6.4599 26.7159 81.9346 11.3485 6.9841 -1.9103
# 4 5.1972 11.0777 11.3485 42.0950 -6.8153 4.7073
# 5 4.0441 -5.0498 6.9841 -6.8153 35.1849 -0.5240
# 6 -0.8436 7.3650 -1.9103 4.7073 -0.5240 29.4064
#
#
#
# Elastic Compliance Matrix: (Units=1/GPa)
#
#
# Indices 1 2 3 4 5 6 
#
# 1 0.025003 -0.002937 -0.000218 -0.003083 -0.003821 0.001864
# 2 -0.002937 0.010389 -0.003303 -0.000805 0.002288 -0.002731
# 3 -0.000218 -0.003303 0.014224 -0.003839 -0.003982 0.002289
# 4 -0.003083 -0.000805 -0.003839 0.026861 0.006139 -0.004327
# 5 -0.003821 0.002288 -0.003982 0.006139 0.031148 -0.001369
# 6 0.001864 -0.002731 0.002289 -0.004327 -0.001369 0.035561
#
#
# Mechanical properties :
#
#
# Convention : Reuss Voigt Hill
#
# Bulk Modulus (GPa) = 27.24738 36.74283 31.99511
# Shear Modulus (GPa) = 29.70277 34.05026 31.87651
#
# Velocity S-wave (km/s) = 3.54177 3.79212 3.66908
# Velocity P-wave (km/s) = 5.31345 5.88990 5.60908
#
# Compressibility (1/GPa) = 0.03670078
#
# Stress axis : x y z
#
# Youngs Moduli (GPa) = 39.99504 96.25335 70.30578
#
# Poissons Ratio (x) = 0.28268 0.01529
# Poissons Ratio (y) = 0.11746 0.23223
# Poissons Ratio (z) = 0.00870 0.31794
#
# Static dielectric constant tensor:
#      x y z
#    x 1.933790 -0.031110 0.005920 
#    y -0.031110 1.818040 0.058080 
#    z 0.005920 0.058080 1.934740 
# 
# From -- ./inp_files/288882.got.cif
#   From: 2010.05.17/outbox.cif.g08.bks.cpg/sg2_145_cif.got.tgz:288882.got - 2010.06.03 11:33:40.
