data_PCOD9019204
_publ_section_title
;
Structure prediction by ZEFSAII (Michael W. Deem and Ramdas Pophale) SiO2 
 PCOD9019204
Probable space group: P -1
;
_chemical_formula_sum "Si O2"
_cell_formula_units_Z 14
_cell_length_a 8.899156
_cell_length_b 11.596651
_cell_length_c 9.223347
_cell_angle_alpha 141.681158
_cell_angle_beta 77.997375
_cell_angle_gamma 99.386561
_cell_volume 577.281682
_symmetry_space_group_name_H-M "P -1"
_symmetry_group_IT_number 2
_symmetry_cell_setting 'triclinic'
loop_
_space_group_symop_operation_xyz
x,y,z
-x,-y,-z
loop_
_atom_site_type_symbol
_atom_site_label
_atom_site_fract_x
_atom_site_fract_y
_atom_site_fract_z
Si Si1 0.798985 0.411136 0.694657
Si Si2 0.546367 0.701300 0.950834
Si Si3 0.925976 0.710358 0.653749
Si Si4 0.888119 0.110663 0.957732
Si Si5 0.377294 0.884593 0.746491
Si Si6 0.639898 0.601594 0.459476
Si Si7 0.780736 0.361481 0.968545
O O1 0.681013 0.582696 0.879523
O O2 0.705826 0.231861 0.477999
O O3 0.853927 0.387905 0.824539
O O4 0.942382 0.420465 0.566243
O O5 0.474791 0.574612 0.709501
O O6 0.394302 0.715592 0.095901
O O7 0.598964 0.902317 0.088634
O O8 0.761279 0.614871 0.577713
O O9 0.976588 0.802723 0.885545
O O10 0.917382 0.891230 0.727273
O O11 0.733983 0.131988 0.108018
O O12 0.864562 0.221528 0.923860
O O13 0.540428 0.785891 0.642087
O O14 0.749182 0.553270 0.250940
#
# Coordination Sequence:
#
# PCOD9019204 Si02
#       7
#     2   2   2   2   2   2   2
#     4  10  22  44  66  95 131 169 215 262 323 382
#     4   9  21  41  65  99 125 168 216 264 312 388
#     4  10  22  45  63  91 133 171 216 263 319 387
#     4  10  23  43  68  96 127 169 221 263 321 387
#     4  10  21  44  69  93 130 170 213 268 318 377
#     4   9  22  40  65  97 128 168 213 267 319 380
#     4  10  22  41  66  99 129 163 220 267 314 388
#
# _framework density 24.251591999999999
#
# number of rings (size 3 to 8) (size 9 to 14) (size 15 to 20)
#    0.857    1.429    0.000    1.286    0.000    5.143 
#   18.000    0.000    0.000    0.000    0.000    0.000 
#    0.000    0.000    0.000    0.000    0.000    0.000 
#
# Total GULP energy -78398.390425 kJ/mol
# GULP energy per Si atom -5599.885030 kJ/mol
# Density = 2.419639 g / cm^3
# Si number density = 24.251592 Si / 1000 Ang^3
#
#
#
# Elastic Constant Matrix: (Units=GPa)
#
#
# Indices 1 2 3 4 5 6 
#
# 1 140.7306 27.3740 31.7234 4.3021 14.8197 -8.1257
# 2 27.3740 105.7521 50.8924 5.8211 11.6938 -17.4110
# 3 31.7234 50.8924 77.1509 16.1680 12.2841 -4.8261
# 4 4.3021 5.8211 16.1680 49.4593 -0.5150 -2.4851
# 5 14.8197 11.6938 12.2841 -0.5150 28.0148 8.5747
# 6 -8.1257 -17.4110 -4.8261 -2.4851 8.5747 39.4914
#
#
#
# Elastic Compliance Matrix: (Units=1/GPa)
#
#
# Indices 1 2 3 4 5 6 
#
# 1 0.008238 -0.000102 -0.002621 0.000222 -0.003828 0.002175
# 2 -0.000102 0.015502 -0.009403 0.001550 -0.004316 0.006699
# 3 -0.002621 -0.009403 0.022040 -0.005987 -0.004004 -0.001499
# 4 0.000222 0.001550 -0.005987 0.022043 0.001974 0.000956
# 5 -0.003828 -0.004316 -0.004004 0.001974 0.045257 -0.012882
# 6 0.002175 0.006699 -0.001499 0.000956 -0.012882 0.031397
#
#
# Mechanical properties :
#
#
# Convention : Reuss Voigt Hill
#
# Bulk Modulus (GPa) = 46.44777 60.40145 53.42461
# Shear Modulus (GPa) = 28.42424 37.63601 33.03013
#
# Velocity S-wave (km/s) = 3.42725 3.94369 3.69450
# Velocity P-wave (km/s) = 5.90385 6.75997 6.34636
#
# Compressibility (1/GPa) = 0.02152956
#
# Stress axis : x y z
#
# Youngs Moduli (GPa) = 121.38334 64.50642 45.37127
#
# Poissons Ratio (x) = 0.00658 0.11893
# Poissons Ratio (y) = 0.01237 0.42661
# Poissons Ratio (z) = 0.31817 0.60653
#
# Static dielectric constant tensor:
#      x y z
#    x 2.012770 0.046180 -0.024420 
#    y 0.046180 1.968160 -0.015840 
#    z -0.024420 -0.015840 1.920610 
# 
# From -- ./inp_files/191113.got.cif
#   From: 2010.05.17/outbox.cif.g08.bks.cpg/sg2_96_cif.got.tgz:191113.got - 2010.06.03 11:33:40.
