data_PCOD9019419
_publ_section_title
;
Structure prediction by ZEFSAII (Michael W. Deem and Ramdas Pophale) SiO2 
 PCOD9019419
Probable space group: P -1
;
_chemical_formula_sum "Si O2"
_cell_formula_units_Z 14
_cell_length_a 10.856430
_cell_length_b 8.836496
_cell_length_c 10.910884
_cell_angle_alpha 109.986421
_cell_angle_beta 90.382096
_cell_angle_gamma 138.515152
_cell_volume 590.736650
_symmetry_space_group_name_H-M "P -1"
_symmetry_group_IT_number 2
_symmetry_cell_setting 'triclinic'
loop_
_space_group_symop_operation_xyz
x,y,z
-x,-y,-z
loop_
_atom_site_type_symbol
_atom_site_label
_atom_site_fract_x
_atom_site_fract_y
_atom_site_fract_z
Si Si1 0.724867 0.052439 0.196583
Si Si2 0.126501 0.137011 0.913457
Si Si3 0.952034 0.395928 0.762097
Si Si4 0.669236 0.354454 0.050256
Si Si5 0.180668 0.096207 0.367768
Si Si6 0.501544 0.993457 0.353912
Si Si7 0.398498 0.579599 0.660227
O O1 0.934421 0.369058 0.267264
O O2 0.753470 0.903157 0.110057
O O3 0.631842 0.976017 0.308673
O O4 0.542042 0.939724 0.082568
O O5 0.269104 0.441828 0.989179
O O6 0.980557 0.000395 0.755844
O O7 0.000000 0.000000 0.000000
O O8 0.735734 0.246806 0.757555
O O9 0.130568 0.548691 0.905512
O O10 0.896600 0.156978 0.652521
O O11 0.627830 0.400583 0.192964
O O12 0.239663 0.282982 0.525201
O O13 0.380251 0.262401 0.331689
O O14 0.500000 0.000000 0.500000
O O15 0.612647 0.265946 0.373391
#
# Coordination Sequence:
#
# PCOD9019419 Si02
#       7
#     2   2   2   2   2   2   2
#     4  12  26  45  73 103 148 182 233 300 352 413
#     4  11  26  44  69 106 140 188 235 290 362 416
#     4  10  24  45  70 106 130 191 233 286 355 411
#     4  11  24  46  71  99 137 188 245 283 346 427
#     4   9  22  43  71  98 142 183 239 292 340 425
#     4  11  27  44  68 110 148 182 230 292 364 416
#     4  10  21  44  71  99 137 188 241 286 346 418
#
# _framework density 23.699224000000001
#
# number of rings (size 3 to 8) (size 9 to 14) (size 15 to 20)
#    0.000    1.429    1.429    1.714    4.000    8.000 
#    0.000    0.000    0.000    0.000    0.000    0.000 
#    0.000    0.000    0.000    0.000    0.000    0.000 
#
# Total GULP energy -78345.837575 kJ/mol
# GULP energy per Si atom -5596.131255 kJ/mol
# Density = 2.364528 g / cm^3
# Si number density = 23.699224 Si / 1000 Ang^3
#
#
#
# Elastic Constant Matrix: (Units=GPa)
#
#
# Indices 1 2 3 4 5 6 
#
# 1 103.3437 16.8317 2.5820 -1.7461 -13.5874 13.5355
# 2 16.8317 118.4150 28.0038 5.2233 -16.0688 2.1324
# 3 2.5820 28.0038 83.0742 3.3419 -18.2737 -1.5566
# 4 -1.7461 5.2233 3.3419 45.6318 13.3935 4.5254
# 5 -13.5874 -16.0688 -18.2737 13.3935 31.8385 -8.7504
# 6 13.5355 2.1324 -1.5566 4.5254 -8.7504 21.0468
#
#
#
# Elastic Compliance Matrix: (Units=1/GPa)
#
#
# Indices 1 2 3 4 5 6 
#
# 1 0.010985 -0.001242 0.000524 0.000347 0.002595 -0.005896
# 2 -0.001242 0.009870 -0.002008 -0.002767 0.005114 0.002372
# 3 0.000524 -0.002008 0.015815 -0.005331 0.012566 0.007407
# 4 0.000347 -0.002767 -0.005331 0.030515 -0.021497 -0.015836
# 5 0.002595 0.005114 0.012566 -0.021497 0.059021 0.027903
# 6 -0.005896 0.002372 0.007407 -0.015836 0.027903 0.066618
#
#
# Mechanical properties :
#
#
# Convention : Reuss Voigt Hill
#
# Bulk Modulus (GPa) = 32.03333 44.40753 38.22043
# Shear Modulus (GPa) = 23.95990 36.86445 30.41218
#
# Velocity S-wave (km/s) = 3.18307 3.94828 3.58614
# Velocity P-wave (km/s) = 5.20146 6.28998 5.77144
#
# Compressibility (1/GPa) = 0.03121748
#
# Stress axis : x y z
#
# Youngs Moduli (GPa) = 91.03363 101.32155 63.23027
#
# Poissons Ratio (x) = 0.12587 -0.03312
# Poissons Ratio (y) = 0.11309 0.12694
# Poissons Ratio (z) = -0.04768 0.20342
#
# Static dielectric constant tensor:
#      x y z
#    x 1.897300 0.015680 0.018130 
#    y 0.015680 1.902140 0.003700 
#    z 0.018130 0.003700 1.892460 
# 
# From -- ./inp_files/316067.got.cif
#   From: 2010.05.17/outbox.cif.g08.bks.cpg/sg2_159_cif.got.tgz:316067.got - 2010.06.03 11:33:40.
