data_PCOD9019356
_publ_section_title
;
Structure prediction by ZEFSAII (Michael W. Deem and Ramdas Pophale) SiO2 
 PCOD9019356
Probable space group: P -1
;
_chemical_formula_sum "Si O2"
_cell_formula_units_Z 16
_cell_length_a 17.362028
_cell_length_b 11.081462
_cell_length_c 19.773247
_cell_angle_alpha 140.550874
_cell_angle_beta 21.467809
_cell_angle_gamma 151.233270
_cell_volume 649.196225
_symmetry_space_group_name_H-M "P -1"
_symmetry_group_IT_number 2
_symmetry_cell_setting 'triclinic'
loop_
_space_group_symop_operation_xyz
x,y,z
-x,-y,-z
loop_
_atom_site_type_symbol
_atom_site_label
_atom_site_fract_x
_atom_site_fract_y
_atom_site_fract_z
Si Si1 0.144936 0.715085 0.623345
Si Si2 0.761317 0.594292 0.494366
Si Si3 0.206525 0.368132 0.005103
Si Si4 0.356041 0.042017 0.765134
Si Si5 0.391892 0.647479 0.167576
Si Si6 0.664357 0.128475 0.065922
Si Si7 0.338271 0.104858 0.199616
Si Si8 0.666228 0.529516 0.311092
O O1 0.174336 0.548245 0.574397
O O2 0.445083 0.951647 0.446376
O O3 0.964712 0.741164 0.831139
O O4 0.949353 0.562580 0.651088
O O5 0.741946 0.757056 0.632114
O O6 0.464559 0.418313 0.618891
O O7 0.033679 0.808952 0.315786
O O8 0.321156 0.227358 0.839283
O O9 0.462036 0.674644 0.924943
O O10 0.955218 0.247333 0.102817
O O11 0.486921 0.179426 0.789306
O O12 0.487562 0.845387 0.115859
O O13 0.500000 0.500000 0.000000
O O14 0.551204 0.115030 0.078354
O O15 0.604097 0.276441 0.226424
O O16 0.995254 0.269541 0.863973
O O17 0.500000 0.500000 0.500000
#
# Coordination Sequence:
#
# PCOD9019356 Si02
#       8
#     2   2   2   2   2   2   2   2
#     4  12  24  47  69 104 137 188 246 294 362 428
#     4  10  22  40  72 102 139 176 232 295 355 436
#     4  11  25  43  74 100 140 187 238 293 372 434
#     4  11  26  46  69 100 142 190 240 303 356 423
#     4  12  26  49  70 103 144 199 246 298 362 432
#     4  10  24  45  72  99 148 186 233 297 366 430
#     4  10  21  44  71 103 138 180 230 294 363 432
#     4  10  24  43  67 111 142 181 230 291 372 436
#
# _framework density 24.645859000000002
#
# number of rings (size 3 to 8) (size 9 to 14) (size 15 to 20)
#    0.000    1.250    3.750    0.750    7.000    1.500 
#    6.750    0.000    0.000    0.000    0.000    0.000 
#    0.000    0.000    0.000    0.000    0.000    0.000 
#
# Total GULP energy -89450.011571 kJ/mol
# GULP energy per Si atom -5590.625723 kJ/mol
# Density = 2.458976 g / cm^3
# Si number density = 24.645859 Si / 1000 Ang^3
#
#
#
# Elastic Constant Matrix: (Units=GPa)
#
#
# Indices 1 2 3 4 5 6 
#
# 1 86.0071 3.4010 32.4186 -6.5884 -10.2039 20.5066
# 2 3.4010 43.0151 29.7008 -7.8222 -7.6593 -6.2527
# 3 32.4186 29.7008 132.6263 -0.0730 5.4673 1.5105
# 4 -6.5884 -7.8222 -0.0730 33.5638 4.7610 -5.0531
# 5 -10.2039 -7.6593 5.4673 4.7610 50.5643 2.6835
# 6 20.5066 -6.2527 1.5105 -5.0531 2.6835 37.6744
#
#
#
# Elastic Compliance Matrix: (Units=1/GPa)
#
#
# Indices 1 2 3 4 5 6 
#
# 1 0.015756 0.001543 -0.004274 0.001614 0.004160 -0.008228
# 2 0.001543 0.031499 -0.007690 0.007743 0.004899 0.005386
# 3 -0.004274 -0.007690 0.010422 -0.002100 -0.002986 0.000563
# 4 0.001614 0.007743 -0.002100 0.032899 -0.001638 0.005020
# 5 0.004160 0.004899 -0.002986 -0.001638 0.022001 -0.003118
# 6 -0.008228 0.005386 0.000563 0.005020 -0.003118 0.032789
#
#
# Mechanical properties :
#
#
# Convention : Reuss Voigt Hill
#
# Bulk Modulus (GPa) = 27.14747 43.63215 35.38981
# Shear Modulus (GPa) = 28.01340 37.43573 32.72456
#
# Velocity S-wave (km/s) = 3.37506 3.90159 3.64784
# Velocity P-wave (km/s) = 5.12123 6.16755 5.66858
#
# Compressibility (1/GPa) = 0.03683585
#
# Stress axis : x y z
#
# Youngs Moduli (GPa) = 63.46802 31.74719 95.94729
#
# Poissons Ratio (x) = -0.04900 0.41006
# Poissons Ratio (y) = -0.09796 0.73786
# Poissons Ratio (z) = 0.27125 0.24414
#
# Static dielectric constant tensor:
#      x y z
#    x 2.064040 0.127280 0.004580 
#    y 0.127280 1.987200 -0.014470 
#    z 0.004580 -0.014470 2.029040 
# 
# From -- ./inp_files/600087.got.cif
#   From: 2010.05.17/outbox.cif.g08.bks.cpg/sg2_301_cif.got.tgz:600087.got - 2010.06.03 11:33:40.
