data_PCOD9019946
_publ_section_title
;
Structure prediction by ZEFSAII (Michael W. Deem and Ramdas Pophale) SiO2 
 PCOD9019946
Probable space group: P -1
;
_chemical_formula_sum "Si O2"
_cell_formula_units_Z 14
_cell_length_a 9.559051
_cell_length_b 12.902664
_cell_length_c 7.937968
_cell_angle_alpha 62.779545
_cell_angle_beta 68.985639
_cell_angle_gamma 36.674517
_cell_volume 519.931267
_symmetry_space_group_name_H-M "P -1"
_symmetry_group_IT_number 2
_symmetry_cell_setting 'triclinic'
loop_
_space_group_symop_operation_xyz
x,y,z
-x,-y,-z
loop_
_atom_site_type_symbol
_atom_site_label
_atom_site_fract_x
_atom_site_fract_y
_atom_site_fract_z
Si Si1 0.088938 0.327395 0.509509
Si Si2 0.747599 0.832931 0.103140
Si Si3 0.000000 0.500000 0.000000
Si Si4 0.461362 0.365862 0.929906
Si Si5 0.500000 0.000000 0.500000
Si Si6 0.598137 0.509509 0.607558
Si Si7 0.899374 0.998736 0.876163
Si Si8 0.674269 0.149602 0.347843
O O1 0.289157 0.158131 0.682253
O O2 0.262681 0.228366 0.351841
O O3 0.000000 0.500000 0.500000
O O4 0.871713 0.371728 0.572583
O O5 0.871315 0.648459 0.104343
O O6 0.500000 0.000000 0.000000
O O7 0.899158 0.859625 0.993526
O O8 0.800806 0.514270 0.086283
O O9 0.527867 0.461793 0.819993
O O10 0.632193 0.198902 0.847342
O O11 0.540163 0.272424 0.146488
O O12 0.659633 0.020694 0.452454
O O13 0.500000 0.500000 0.500000
O O14 0.472092 0.706347 0.546958
O O15 0.066844 0.950790 0.698111
O O16 0.000000 0.000000 0.000000
#
# Coordination Sequence:
#
# PCOD9019946 Si02
#       8
#     2   2   1   2   1   2   2   2
#     4  12  27  50  75 108 160 201 252 316 391 461
#     4  12  26  47  77 113 153 198 261 320 377 463
#     4  12  26  40  74 114 150 188 254 320 376 446
#     4  11  23  43  74 106 151 194 256 315 380 456
#     4  12  26  46  78 110 152 204 254 310 396 456
#     4  12  27  48  74 112 156 203 255 317 388 464
#     4  10  21  45  73 106 143 192 253 314 375 444
#     4  11  23  46  75 106 147 203 254 314 385 455
#
# _framework density 26.926635999999998
#
# number of rings (size 3 to 8) (size 9 to 14) (size 15 to 20)
#    0.000    0.571    2.857    6.429    2.000    0.000 
#    2.571    1.429    0.000    0.000    0.000    0.000 
#    0.000    0.000    0.000    0.000    0.000    0.000 
#
# Total GULP energy -78099.398820 kJ/mol
# GULP energy per Si atom -5578.528487 kJ/mol
# Density = 2.686535 g / cm^3
# Si number density = 26.926636 Si / 1000 Ang^3
#
#
#
# Elastic Constant Matrix: (Units=GPa)
#
#
# Indices 1 2 3 4 5 6 
#
# 1 178.3857 40.8962 45.4360 7.4271 -35.4688 -10.0235
# 2 40.8962 125.7282 -7.3281 21.1816 2.5684 7.5404
# 3 45.4360 -7.3281 86.0860 7.0463 5.6430 6.1500
# 4 7.4271 21.1816 7.0463 28.7994 -1.1389 -18.2554
# 5 -35.4688 2.5684 5.6430 -1.1389 47.2141 8.1733
# 6 -10.0235 7.5404 6.1500 -18.2554 8.1733 77.4259
#
#
#
# Elastic Compliance Matrix: (Units=1/GPa)
#
#
# Indices 1 2 3 4 5 6 
#
# 1 0.010004 -0.004710 -0.006761 0.004426 0.008260 0.002463
# 2 -0.004710 0.012184 0.005123 -0.012085 -0.004309 -0.004598
# 3 -0.006761 0.005123 0.017117 -0.009119 -0.006904 -0.004155
# 4 0.004426 -0.012085 -0.009119 0.054277 0.003808 0.014870
# 5 0.008260 -0.004309 -0.006904 0.003808 0.028551 -0.000079
# 6 0.002463 -0.004598 -0.004155 0.014870 -0.000079 0.017527
#
#
# Mechanical properties :
#
#
# Convention : Reuss Voigt Hill
#
# Bulk Modulus (GPa) = 37.58047 60.91200 49.24624
# Shear Modulus (GPa) = 31.01260 51.43426 41.22343
#
# Velocity S-wave (km/s) = 3.39742 4.37528 3.91698
# Velocity P-wave (km/s) = 5.42004 6.94224 6.22782
#
# Compressibility (1/GPa) = 0.02660956
#
# Stress axis : x y z
#
# Youngs Moduli (GPa) = 99.95786 82.07370 58.42266
#
# Poissons Ratio (x) = 0.38659 0.39499
# Poissons Ratio (y) = 0.47083 -0.29932
# Poissons Ratio (z) = 0.67580 -0.42050
#
# Static dielectric constant tensor:
#      x y z
#    x 1.866750 1.144970 0.146540 
#    y 1.144970 -6.747730 -1.140720 
#    z 0.146540 -1.140720 1.874610 
# 
# From -- ./inp_files/175979.got.cif
#   From: 2010.05.17/outbox.cif.g08.bks.cpg/sg2_88_cif.got.tgz:175979.got - 2010.06.03 11:33:40.
