data_PCOD9019973
_publ_section_title
;
Structure prediction by ZEFSAII (Michael W. Deem and Ramdas Pophale) SiO2 
 PCOD9019973
Probable space group: P -1
;
_chemical_formula_sum "Si O2"
_cell_formula_units_Z 14
_cell_length_a 8.554401
_cell_length_b 7.560865
_cell_length_c 14.089512
_cell_angle_alpha 56.898862
_cell_angle_beta 86.725331
_cell_angle_gamma 50.911832
_cell_volume 531.588442
_symmetry_space_group_name_H-M "P -1"
_symmetry_group_IT_number 2
_symmetry_cell_setting 'triclinic'
loop_
_space_group_symop_operation_xyz
x,y,z
-x,-y,-z
loop_
_atom_site_type_symbol
_atom_site_label
_atom_site_fract_x
_atom_site_fract_y
_atom_site_fract_z
Si Si1 0.488739 0.639693 0.862670
Si Si2 0.602370 0.648090 0.346534
Si Si3 0.475238 0.280734 0.457039
Si Si4 0.420285 0.863269 0.091933
Si Si5 0.933483 0.756766 0.496542
Si Si6 0.949107 0.325488 0.003854
Si Si7 0.012510 0.109874 0.729132
O O1 0.469334 0.470008 0.836540
O O2 0.254465 0.990093 0.771285
O O3 0.500000 0.500000 0.000000
O O4 0.722724 0.535457 0.888938
O O5 0.555198 0.445253 0.412433
O O6 0.540142 0.785999 0.414199
O O7 0.452954 0.871532 0.199695
O O8 0.866304 0.426994 0.381155
O O9 0.318708 0.017774 0.521942
O O10 0.225066 0.547908 0.341144
O O11 0.165325 0.073798 0.005836
O O12 0.500000 0.000000 0.000000
O O13 0.000000 0.500000 0.500000
O O14 0.983063 0.908603 0.380458
O O15 0.964743 0.127626 0.142406
O O16 0.000000 0.500000 0.000000
#
# Coordination Sequence:
#
# PCOD9019973 Si02
#       7
#     2   2   2   2   2   2   2
#     4  10  23  44  72 103 151 195 256 316 385 456
#     4  10  23  42  73 106 148 200 251 305 388 453
#     4  10  21  45  74 107 147 198 254 308 385 464
#     4  12  24  44  75 108 154 204 260 319 389 461
#     4  11  25  44  76 115 155 195 254 320 389 465
#     4  11  24  45  72 109 151 202 257 316 388 462
#     4  10  22  43  74 106 154 197 246 313 386 455
#
# _framework density 26.336165000000001
#
# number of rings (size 3 to 8) (size 9 to 14) (size 15 to 20)
#    0.000    1.429    1.429    3.429    0.000    8.000 
#    2.571    0.000    3.143    0.000    0.000    0.000 
#    0.000    0.000    0.000    0.000    0.000    0.000 
#
# Total GULP energy -78237.367677 kJ/mol
# GULP energy per Si atom -5588.383405 kJ/mol
# Density = 2.627622 g / cm^3
# Si number density = 26.336165 Si / 1000 Ang^3
#
#
#
# Elastic Constant Matrix: (Units=GPa)
#
#
# Indices 1 2 3 4 5 6 
#
# 1 163.8115 66.9503 71.1594 -26.2971 33.0674 -33.3074
# 2 66.9503 153.2265 57.8364 -20.1689 9.5508 -19.2405
# 3 71.1594 57.8364 144.2861 -13.7641 11.0409 -11.0695
# 4 -26.2971 -20.1689 -13.7641 47.3873 -15.1343 7.2709
# 5 33.0674 9.5508 11.0409 -15.1343 50.9200 -18.0720
# 6 -33.3074 -19.2405 -11.0695 7.2709 -18.0720 57.7571
#
#
#
# Elastic Compliance Matrix: (Units=1/GPa)
#
#
# Indices 1 2 3 4 5 6 
#
# 1 0.010236 -0.002300 -0.003409 0.002033 -0.003793 0.003040
# 2 -0.002300 0.008697 -0.002162 0.002043 0.001415 0.001342
# 3 -0.003409 -0.002162 0.009406 0.000152 0.000342 -0.000795
# 4 0.002033 0.002043 0.000152 0.024933 0.005881 0.000584
# 5 -0.003793 0.001415 0.000342 0.005881 0.025493 0.005586
# 6 0.003040 0.001342 -0.000795 0.000584 0.005586 0.021036
#
#
# Mechanical properties :
#
#
# Convention : Reuss Voigt Hill
#
# Bulk Modulus (GPa) = 79.38702 94.80183 87.09442
# Shear Modulus (GPa) = 41.75719 48.90476 45.33098
#
# Velocity S-wave (km/s) = 3.98621 4.31390 4.15329
# Velocity P-wave (km/s) = 7.16908 7.80307 7.49278
#
# Compressibility (1/GPa) = 0.01259652
#
# Stress axis : x y z
#
# Youngs Moduli (GPa) = 97.69917 114.98863 106.31881
#
# Poissons Ratio (x) = 0.26445 0.36240
# Poissons Ratio (y) = 0.22469 0.22988
# Poissons Ratio (z) = 0.33302 0.24862
#
# Static dielectric constant tensor:
#      x y z
#    x 2.270730 0.112070 0.029430 
#    y 0.112070 2.365470 -0.028210 
#    z 0.029430 -0.028210 2.092100 
# 
# From -- ./inp_files/555932.got.cif
#   From: 2010.05.17/outbox.cif.g08.bks.cpg/sg2_278_cif.got.tgz:555932.got - 2010.06.03 11:33:40.
