data_PCOD9019537
_publ_section_title
;
Structure prediction by ZEFSAII (Michael W. Deem and Ramdas Pophale) SiO2 
 PCOD9019537
Probable space group: P -1
;
_chemical_formula_sum "Si O2"
_cell_formula_units_Z 16
_cell_length_a 9.243618
_cell_length_b 6.834674
_cell_length_c 19.028227
_cell_angle_alpha 38.288020
_cell_angle_beta 128.387670
_cell_angle_gamma 121.712850
_cell_volume 582.034897
_symmetry_space_group_name_H-M "P -1"
_symmetry_group_IT_number 2
_symmetry_cell_setting 'triclinic'
loop_
_space_group_symop_operation_xyz
x,y,z
-x,-y,-z
loop_
_atom_site_type_symbol
_atom_site_label
_atom_site_fract_x
_atom_site_fract_y
_atom_site_fract_z
Si Si1 0.450207 0.171428 0.706380
Si Si2 0.127506 0.802862 0.005232
Si Si3 0.504012 0.034111 0.077055
Si Si4 0.926691 0.118614 0.583887
Si Si5 0.991844 0.784634 0.275549
Si Si6 0.262874 0.358133 0.057275
Si Si7 0.398397 0.810646 0.438903
Si Si8 0.766560 0.114634 0.395827
O O1 0.430315 0.200922 0.776408
O O2 0.608961 0.929551 0.813768
O O3 0.484220 0.497160 0.582609
O O4 0.263207 0.021898 0.653659
O O5 0.942723 0.699472 0.019213
O O6 0.056611 0.008726 0.862458
O O7 0.220480 0.507165 0.080495
O O8 0.286585 0.011382 0.033251
O O9 0.622091 0.362865 0.027698
O O10 0.500000 0.000000 0.000000
O O11 0.897859 0.990171 0.532553
O O12 0.000000 0.500000 0.500000
O O13 0.026697 0.017158 0.713440
O O14 0.712255 0.068299 0.561524
O O15 0.847542 0.477471 0.314699
O O16 0.209495 0.713380 0.363391
O O17 0.555892 0.033723 0.385042
#
# Coordination Sequence:
#
# PCOD9019537 Si02
#       8
#     2   2   2   2   2   2   2   2
#     4  12  25  42  71 102 144 184 224 294 348 411
#     4  10  21  44  73  96 135 183 227 296 330 411
#     4  10  24  47  68  97 132 184 242 285 348 410
#     4   8  19  39  62  96 132 171 231 265 326 417
#     4   9  21  40  68 100 136 177 232 275 340 416
#     4  10  23  43  67 102 132 175 241 275 349 401
#     4  10  23  42  66 102 146 178 227 271 351 419
#     4  11  21  42  66 100 142 179 220 284 345 412
#
# _framework density 27.489757000000001
#
# number of rings (size 3 to 8) (size 9 to 14) (size 15 to 20)
#    0.750    1.250    0.000    2.625    0.000    7.000 
#    6.750    2.500    2.750    0.000    0.000    0.000 
#    0.000    0.000    0.000    0.000    0.000    0.000 
#
# Total GULP energy -89296.016823 kJ/mol
# GULP energy per Si atom -5581.001051 kJ/mol
# Density = 2.742719 g / cm^3
# Si number density = 27.489757 Si / 1000 Ang^3
#
#
#
# Elastic Constant Matrix: (Units=GPa)
#
#
# Indices 1 2 3 4 5 6 
#
# 1 125.2070 57.3279 37.7811 -2.7022 12.9420 22.1337
# 2 57.3279 168.1322 72.7908 3.4923 -5.3701 48.2405
# 3 37.7811 72.7908 176.8294 16.7692 1.8972 10.4558
# 4 -2.7022 3.4923 16.7692 54.7394 -9.2804 -3.8009
# 5 12.9420 -5.3701 1.8972 -9.2804 47.3665 5.8069
# 6 22.1337 48.2405 10.4558 -3.8009 5.8069 62.8875
#
#
#
# Elastic Compliance Matrix: (Units=1/GPa)
#
#
# Indices 1 2 3 4 5 6 
#
# 1 0.010038 -0.002867 -0.000921 0.000417 -0.002840 -0.000893
# 2 -0.002867 0.010354 -0.003312 0.000252 0.002953 -0.006640
# 3 -0.000921 -0.003312 0.007335 -0.002145 -0.001036 0.001611
# 4 0.000417 0.000252 -0.002145 0.019624 0.003740 0.000857
# 5 -0.002840 0.002953 -0.001036 0.003740 0.023368 -0.003026
# 6 -0.000893 -0.006640 0.001611 0.000857 -0.003026 0.021372
#
#
# Mechanical properties :
#
#
# Convention : Reuss Voigt Hill
#
# Bulk Modulus (GPa) = 73.93442 89.55203 81.74323
# Shear Modulus (GPa) = 45.12703 53.14993 49.13848
#
# Velocity S-wave (km/s) = 4.05605 4.40187 4.23249
# Velocity P-wave (km/s) = 6.99207 7.64738 7.32706
#
# Compressibility (1/GPa) = 0.01352550
#
# Stress axis : x y z
#
# Youngs Moduli (GPa) = 99.62422 96.58565 136.33949
#
# Poissons Ratio (x) = 0.27692 0.12553
# Poissons Ratio (y) = 0.28563 0.45161
# Poissons Ratio (z) = 0.09173 0.31993
#
# Static dielectric constant tensor:
#      x y z
#    x 2.362730 -0.052590 -0.075160 
#    y -0.052590 2.218770 0.043320 
#    z -0.075160 0.043320 2.103810 
# 
# From -- ./inp_files/565191.got.cif
#   From: 2010.05.17/outbox.cif.g08.bks.cpg/sg2_283_cif.got.tgz:565191.got - 2010.06.03 11:33:40.
