data_PCOD9019516
_publ_section_title
;
Structure prediction by ZEFSAII (Michael W. Deem and Ramdas Pophale) SiO2 
 PCOD9019516
Probable space group: P -1
;
_chemical_formula_sum "Si O2"
_cell_formula_units_Z 12
_cell_length_a 13.406604
_cell_length_b 5.808947
_cell_length_c 9.475772
_cell_angle_alpha 115.578914
_cell_angle_beta 59.744269
_cell_angle_gamma 126.492890
_cell_volume 503.097144
_symmetry_space_group_name_H-M "P -1"
_symmetry_group_IT_number 2
_symmetry_cell_setting 'triclinic'
loop_
_space_group_symop_operation_xyz
x,y,z
-x,-y,-z
loop_
_atom_site_type_symbol
_atom_site_label
_atom_site_fract_x
_atom_site_fract_y
_atom_site_fract_z
Si Si1 0.028165 0.727485 0.912178
Si Si2 0.125897 0.641024 0.341722
Si Si3 0.706820 0.734330 0.486524
Si Si4 0.637302 0.306160 0.977611
Si Si5 0.276247 0.747992 0.795591
Si Si6 0.553577 0.713470 0.304525
O O1 0.185841 0.876606 0.837402
O O2 0.954608 0.513693 0.781089
O O3 0.000000 0.500000 0.000000
O O4 0.000000 0.000000 0.000000
O O5 0.263050 0.620665 0.207440
O O6 0.000000 0.500000 0.500000
O O7 0.193838 0.978844 0.426398
O O8 0.775198 0.560481 0.324386
O O9 0.630938 0.770949 0.414341
O O10 0.595748 0.517233 0.615054
O O11 0.715798 0.284567 0.053269
O O12 0.600017 0.554343 0.112889
O O13 0.500000 0.000000 0.000000
O O14 0.420792 0.981644 0.699249
#
# Coordination Sequence:
#
# PCOD9019516 Si02
#       6
#     2   2   2   2   2   2
#     4  12  28  53  81 111 162 220 271 325 409 489
#     4  12  26  47  76 114 157 208 265 335 394 477
#     4  10  23  44  70 112 150 194 259 332 397 471
#     4  11  23  46  73 108 151 200 266 324 391 482
#     4  11  24  44  75 105 151 207 261 329 406 475
#     4  10  21  44  73 103 151 200 256 324 403 477
#
# _framework density 23.852252
#
# number of rings (size 3 to 8) (size 9 to 14) (size 15 to 20)
#    0.000    1.000    3.333    2.500    4.667    1.333 
#    6.000    0.000    0.000    0.000    0.000    0.000 
#    0.000    0.000    0.000    0.000    0.000    0.000 
#
# Total GULP energy -66900.277446 kJ/mol
# GULP energy per Si atom -5575.023121 kJ/mol
# Density = 2.379796 g / cm^3
# Si number density = 23.852252 Si / 1000 Ang^3
#
#
#
# Elastic Constant Matrix: (Units=GPa)
#
#
# Indices 1 2 3 4 5 6 
#
# 1 81.3061 28.0969 56.8964 23.2008 -15.4142 4.0278
# 2 28.0969 148.1520 80.1641 16.1056 11.4656 23.9465
# 3 56.8964 80.1641 159.6855 6.3482 -5.7845 9.9778
# 4 23.2008 16.1056 6.3482 63.4031 14.3485 0.3462
# 5 -15.4142 11.4656 -5.7845 14.3485 35.0575 0.9556
# 6 4.0278 23.9465 9.9778 0.3462 0.9556 37.5754
#
#
#
# Elastic Compliance Matrix: (Units=1/GPa)
#
#
# Indices 1 2 3 4 5 6 
#
# 1 0.022975 -0.000300 -0.007087 -0.010652 0.013407 -0.000633
# 2 -0.000300 0.010885 -0.005109 -0.001236 -0.003881 -0.005438
# 3 -0.007087 -0.005109 0.011138 0.002962 -0.000848 0.001052
# 4 -0.010652 -0.001236 0.002962 0.022643 -0.013093 0.001267
# 5 0.013407 -0.003881 -0.000848 -0.013093 0.040898 0.000342
# 6 -0.000633 -0.005438 0.001052 0.001267 0.000342 0.029847
#
#
# Mechanical properties :
#
#
# Convention : Reuss Voigt Hill
#
# Bulk Modulus (GPa) = 49.98524 79.93980 64.96252
# Shear Modulus (GPa) = 29.40385 42.13962 35.77173
#
# Velocity S-wave (km/s) = 3.51486 4.20777 3.87682
# Velocity P-wave (km/s) = 6.12160 7.56270 6.87999
#
# Compressibility (1/GPa) = 0.02000591
#
# Stress axis : x y z
#
# Youngs Moduli (GPa) = 43.52622 91.87076 89.78325
#
# Poissons Ratio (x) = 0.02755 0.63627
# Poissons Ratio (y) = 0.01305 0.45871
# Poissons Ratio (z) = 0.30846 0.46938
#
# Static dielectric constant tensor:
#      x y z
#    x 1.947000 0.043430 -0.171830 
#    y 0.043430 1.967250 -0.142800 
#    z -0.171830 -0.142800 1.932070 
# 
# From -- ./inp_files/123981.got.cif
#   From: 2010.05.17/outbox.cif.g08.bks.cpg/sg2_62_cif.got.tgz:123981.got - 2010.06.03 11:33:40.
