data_PCOD9019932
_publ_section_title
;
Structure prediction by ZEFSAII (Michael W. Deem and Ramdas Pophale) SiO2 
 PCOD9019932
Probable space group: P -1
;
_chemical_formula_sum "Si O2"
_cell_formula_units_Z 14
_cell_length_a 13.213745
_cell_length_b 8.611271
_cell_length_c 12.105618
_cell_angle_alpha 128.190778
_cell_angle_beta 146.073693
_cell_angle_gamma 46.585069
_cell_volume 554.522352
_symmetry_space_group_name_H-M "P -1"
_symmetry_group_IT_number 2
_symmetry_cell_setting 'triclinic'
loop_
_space_group_symop_operation_xyz
x,y,z
-x,-y,-z
loop_
_atom_site_type_symbol
_atom_site_label
_atom_site_fract_x
_atom_site_fract_y
_atom_site_fract_z
Si Si1 0.252185 0.383981 0.739596
Si Si2 0.641981 0.313874 0.196268
Si Si3 0.273960 0.094783 0.160628
Si Si4 0.663778 0.076812 0.463287
Si Si5 0.016798 0.556639 0.806630
Si Si6 0.629482 0.292971 0.763683
Si Si7 0.967952 0.871608 0.256201
O O1 0.279755 0.565422 0.770802
O O2 0.061151 0.488267 0.689960
O O3 0.249747 0.180058 0.583223
O O4 0.446965 0.295791 0.957921
O O5 0.559186 0.483414 0.295220
O O6 0.815378 0.083419 0.272893
O O7 0.432617 0.151196 0.258951
O O8 0.185278 0.260767 0.253279
O O9 0.370294 0.861532 0.202252
O O10 0.107981 0.099251 0.926693
O O11 0.651772 0.164749 0.614946
O O12 0.808636 0.148831 0.555547
O O13 0.045424 0.341046 0.802431
O O14 0.180620 0.649564 0.025746
#
# Coordination Sequence:
#
# PCOD9019932 Si02
#       7
#     2   2   2   2   2   2   2
#     4  10  22  44  71 106 133 185 231 286 345 404
#     4  10  21  45  72  98 142 176 229 289 342 403
#     4  12  24  48  70 102 144 176 230 304 327 407
#     4  12  26  43  76 108 134 179 242 280 351 408
#     4  11  26  45  73 100 144 190 226 275 358 412
#     4  11  24  45  76 107 130 186 236 284 351 404
#     4  12  26  46  71 104 141 190 227 277 352 419
#
# _framework density 25.246952
#
# number of rings (size 3 to 8) (size 9 to 14) (size 15 to 20)
#    0.000    0.857    4.286    3.000    2.000    5.143 
#    0.000    0.000    0.000    0.000    0.000    0.000 
#    0.000    0.000    0.000    0.000    0.000    0.000 
#
# Total GULP energy -78502.960005 kJ/mol
# GULP energy per Si atom -5607.354286 kJ/mol
# Density = 2.518949 g / cm^3
# Si number density = 25.246952 Si / 1000 Ang^3
#
#
#
# Elastic Constant Matrix: (Units=GPa)
#
#
# Indices 1 2 3 4 5 6 
#
# 1 42.3571 14.7477 78.8386 -22.4388 -23.9267 -43.0619
# 2 14.7477 103.0040 61.8802 -5.2291 -20.5223 -30.4024
# 3 78.8386 61.8802 80.1662 26.1841 22.4304 -8.9345
# 4 -22.4388 -5.2291 26.1841 29.4395 -27.7608 -6.3249
# 5 -23.9267 -20.5223 22.4304 -27.7608 29.6628 4.2635
# 6 -43.0619 -30.4024 -8.9345 -6.3249 4.2635 50.1772
#
#
#
# Elastic Compliance Matrix: (Units=1/GPa)
#
#
# Indices 1 2 3 4 5 6 
#
# 1 0.007312 -0.006002 0.004788 -0.010770 -0.012412 0.003188
# 2 -0.006002 0.010236 -0.000060 -0.004211 -0.001750 0.000658
# 3 0.004788 -0.000060 0.004254 0.007092 0.006497 0.005172
# 4 -0.010770 -0.004211 0.007092 0.017375 0.000502 -0.008384
# 5 -0.012412 -0.001750 0.006497 0.000502 0.019796 -0.012174
# 6 0.003188 0.000658 0.005172 -0.008384 -0.012174 0.023963
#
#
# Mechanical properties :
#
#
# Convention : Reuss Voigt Hill
#
# Bulk Modulus (GPa) = 51.93876 59.60670 55.77273
# Shear Modulus (GPa) = 54.40484 26.52661 40.46573
#
# Velocity S-wave (km/s) = 4.64713 3.24494 4.00784
# Velocity P-wave (km/s) = 7.02933 6.14005 6.59969
#
# Compressibility (1/GPa) = 0.01925344
#
# Stress axis : x y z
#
# Youngs Moduli (GPa) = 136.75733 97.69643 235.05612
#
# Poissons Ratio (x) = 0.58634 -1.12533
# Poissons Ratio (y) = 0.82077 0.01417
# Poissons Ratio (z) = -0.65473 0.00589
#
# Static dielectric constant tensor:
#      x y z
#    x 1.952660 -0.052470 -0.026650 
#    y -0.052470 1.927140 -0.031050 
#    z -0.026650 -0.031050 2.037920 
# 
# From -- ./inp_files/530279.got.cif
#   From: 2010.05.17/outbox.cif.g08.bks.cpg/sg2_266_cif.got.tgz:530279.got - 2010.06.03 11:33:40.
