data_PCOD9019463
_publ_section_title
;
Structure prediction by ZEFSAII (Michael W. Deem and Ramdas Pophale) SiO2 
 PCOD9019463
Probable space group: P -1
;
_chemical_formula_sum "Si O2"
_cell_formula_units_Z 15
_cell_length_a 20.355367
_cell_length_b 4.992014
_cell_length_c 10.767206
_cell_angle_alpha 110.975860
_cell_angle_beta 31.286469
_cell_angle_gamma 110.662603
_cell_volume 528.040875
_symmetry_space_group_name_H-M "P -1"
_symmetry_group_IT_number 2
_symmetry_cell_setting 'triclinic'
loop_
_space_group_symop_operation_xyz
x,y,z
-x,-y,-z
loop_
_atom_site_type_symbol
_atom_site_label
_atom_site_fract_x
_atom_site_fract_y
_atom_site_fract_z
Si Si1 0.420329 0.385520 0.419081
Si Si2 0.900316 0.287586 0.266475
Si Si3 0.184912 0.655668 0.175894
Si Si4 0.500000 0.000000 0.000000
Si Si5 0.158576 0.636458 0.884309
Si Si6 0.005198 0.097701 0.308069
Si Si7 0.296591 0.465472 0.228195
Si Si8 0.577202 0.942834 0.189182
O O1 0.286919 0.499267 0.678457
O O2 0.434381 0.241538 0.237641
O O3 0.461971 0.137205 0.398738
O O4 0.525440 0.663622 0.302476
O O5 0.828842 0.197287 0.240777
O O6 0.919526 0.093078 0.321895
O O7 0.824234 0.543623 0.488761
O O8 0.045051 0.384193 0.011242
O O9 0.090323 0.876335 0.419625
O O10 0.244284 0.516311 0.181372
O O11 0.099689 0.393588 0.206964
O O12 0.300092 0.836350 0.949014
O O13 0.618391 0.808305 0.964527
O O14 0.382001 0.751259 0.176386
O O15 0.097784 0.849974 0.112125
#
# Coordination Sequence:
#
# PCOD9019463 Si02
#       8
#     2   2   2   1   2   2   2   2
#     4  11  27  40  72  99 145 184 235 283 357 416
#     4  10  24  42  67 102 137 188 226 294 352 423
#     4  10  21  44  72 107 136 178 243 294 347 419
#     4  10  22  40  64 106 134 178 230 282 346 412
#     4  11  25  43  64 102 144 186 234 286 354 428
#     4  10  23  43  73 101 136 186 233 296 352 413
#     4  10  22  40  74 103 144 179 234 293 356 411
#     4  11  22  46  66 107 138 186 231 296 343 421
#
# _framework density 28.406893
#
# number of rings (size 3 to 8) (size 9 to 14) (size 15 to 20)
#    0.000    1.600    2.667    1.200    5.600    6.400 
#    0.000    5.333    0.000    0.000    0.000    0.000 
#    0.000    0.000    0.000    0.000    0.000    0.000 
#
# Total GULP energy -83911.737859 kJ/mol
# GULP energy per Si atom -5594.115857 kJ/mol
# Density = 2.834224 g / cm^3
# Si number density = 28.406893 Si / 1000 Ang^3
#
#
#
# Elastic Constant Matrix: (Units=GPa)
#
#
# Indices 1 2 3 4 5 6 
#
# 1 95.8514 43.6742 46.9798 15.5025 -11.5045 9.9843
# 2 43.6742 145.1218 58.0629 17.3983 -14.6111 -9.4601
# 3 46.9798 58.0629 217.1793 37.0583 -38.0088 2.8847
# 4 15.5025 17.3983 37.0583 54.9808 -5.4155 -4.5225
# 5 -11.5045 -14.6111 -38.0088 -5.4155 41.6960 6.6335
# 6 9.9843 -9.4601 2.8847 -4.5225 6.6335 30.3814
#
#
#
# Elastic Compliance Matrix: (Units=1/GPa)
#
#
# Indices 1 2 3 4 5 6 
#
# 1 0.013990 -0.003659 -0.001179 -0.002304 0.002231 -0.006455
# 2 -0.003659 0.008939 -0.001591 -0.000392 -0.000028 0.004084
# 3 -0.001179 -0.001591 0.006829 -0.003446 0.005280 -0.002422
# 4 -0.002304 -0.000392 -0.003446 0.021478 -0.001851 0.004564
# 5 0.002231 -0.000028 0.005280 -0.001851 0.030462 -0.008170
# 6 -0.006455 0.004084 -0.002422 0.004564 -0.008170 0.039001
#
#
# Mechanical properties :
#
#
# Convention : Reuss Voigt Hill
#
# Bulk Modulus (GPa) = 59.16554 83.95402 71.55978
# Shear Modulus (GPa) = 35.92237 46.04068 40.98152
#
# Velocity S-wave (km/s) = 3.55993 4.03023 3.80236
# Velocity P-wave (km/s) = 6.14578 7.16068 6.67255
#
# Compressibility (1/GPa) = 0.01690173
#
# Stress axis : x y z
#
# Youngs Moduli (GPa) = 71.47722 111.87382 146.43179
#
# Poissons Ratio (x) = 0.40931 0.17264
# Poissons Ratio (y) = 0.26151 0.23292
# Poissons Ratio (z) = 0.08427 0.17795
#
# Static dielectric constant tensor:
#      x y z
#    x 2.771740 -0.173740 0.020900 
#    y -0.173740 2.202090 -0.011000 
#    z 0.020900 -0.011000 2.175430 
# 
# From -- ./inp_files/468456.got.cif
#   From: 2010.05.17/outbox.cif.g08.bks.cpg/sg2_235_cif.got.tgz:468456.got - 2010.06.03 11:33:40.
