data_PCOD9019903
_publ_section_title
;
Structure prediction by ZEFSAII (Michael W. Deem and Ramdas Pophale) SiO2 
 PCOD9019903
Probable space group: P -1
;
_chemical_formula_sum "Si O2"
_cell_formula_units_Z 14
_cell_length_a 7.716931
_cell_length_b 19.786028
_cell_length_c 5.096572
_cell_angle_alpha 114.885719
_cell_angle_beta 119.955291
_cell_angle_gamma 74.364806
_cell_volume 609.877561
_symmetry_space_group_name_H-M "P -1"
_symmetry_group_IT_number 2
_symmetry_cell_setting 'triclinic'
loop_
_space_group_symop_operation_xyz
x,y,z
-x,-y,-z
loop_
_atom_site_type_symbol
_atom_site_label
_atom_site_fract_x
_atom_site_fract_y
_atom_site_fract_z
Si Si1 0.470484 0.791919 0.702508
Si Si2 0.932401 0.585803 0.050958
Si Si3 0.712701 0.994203 0.801119
Si Si4 0.799662 0.666094 0.574727
Si Si5 0.176609 0.145896 0.627127
Si Si6 0.110766 0.720875 0.577213
Si Si7 0.808481 0.082562 0.530070
O O1 0.614972 0.725990 0.578883
O O2 0.312348 0.759201 0.731845
O O3 0.343653 0.843556 0.482483
O O4 0.617666 0.842304 0.053359
O O5 0.116361 0.638938 0.317399
O O6 0.783907 0.619372 0.220443
O O7 0.000000 0.500000 0.000000
O O8 0.832692 0.607591 0.736837
O O9 0.829035 0.045569 0.770011
O O10 0.500000 0.000000 0.500000
O O11 0.782122 0.907312 0.678410
O O12 0.726129 0.027201 0.155334
O O13 0.009919 0.707018 0.761684
O O14 0.067708 0.225365 0.598950
O O15 0.019955 0.105765 0.622143
#
# Coordination Sequence:
#
# PCOD9019903 Si02
#       7
#     2   2   2   2   2   2   2
#     4  11  22  45  69 100 136 177 231 274 332 406
#     4  10  21  45  71  98 138 175 213 271 333 395
#     4  12  25  44  65  94 130 177 226 281 335 389
#     4  10  22  42  68  98 134 174 217 272 332 389
#     4  11  23  44  68  92 136 176 223 278 337 393
#     4   9  24  42  67 103 132 179 220 278 330 399
#     4  11  27  44  66  95 130 176 226 282 334 386
#
# _framework density 22.955428000000001
#
# number of rings (size 3 to 8) (size 9 to 14) (size 15 to 20)
#    0.857    0.571    2.857    1.714    2.000    3.429 
#    5.143    1.429    0.000    0.000    0.000    0.000 
#    0.000    0.000    0.000    0.000    0.000    0.000 
#
# Total GULP energy -78296.073544 kJ/mol
# GULP energy per Si atom -5592.576682 kJ/mol
# Density = 2.290318 g / cm^3
# Si number density = 22.955428 Si / 1000 Ang^3
#
#
#
# Elastic Constant Matrix: (Units=GPa)
#
#
# Indices 1 2 3 4 5 6 
#
# 1 94.0468 46.2964 31.3542 -4.0009 -0.4460 -7.0075
# 2 46.2964 143.5185 24.8182 12.6692 -4.3860 -0.7437
# 3 31.3542 24.8182 68.8823 -3.8740 0.9827 8.4201
# 4 -4.0009 12.6692 -3.8740 24.6941 7.9576 -5.6638
# 5 -0.4460 -4.3860 0.9827 7.9576 46.2862 -6.4119
# 6 -7.0075 -0.7437 8.4201 -5.6638 -6.4119 27.6984
#
#
#
# Elastic Compliance Matrix: (Units=1/GPa)
#
#
# Indices 1 2 3 4 5 6 
#
# 1 0.015540 -0.004426 -0.005991 0.005436 -0.000147 0.006711
# 2 -0.004426 0.009302 -0.001574 -0.006629 0.001829 -0.001324
# 3 -0.005991 -0.001574 0.018838 0.001720 -0.001925 -0.007378
# 4 0.005436 -0.006629 0.001720 0.049658 -0.007903 0.008999
# 5 -0.000147 0.001829 -0.001925 -0.007903 0.023798 0.004490
# 6 0.006711 -0.001324 -0.007378 0.008999 0.004490 0.042888
#
#
# Mechanical properties :
#
#
# Convention : Reuss Voigt Hill
#
# Bulk Modulus (GPa) = 50.76958 56.82059 53.79509
# Shear Modulus (GPa) = 26.23671 33.33431 29.78551
#
# Velocity S-wave (km/s) = 3.38441 3.81482 3.60604
# Velocity P-wave (km/s) = 6.11857 6.64907 6.38933
#
# Compressibility (1/GPa) = 0.01969683
#
# Stress axis : x y z
#
# Youngs Moduli (GPa) = 64.34974 107.50376 53.08470
#
# Poissons Ratio (x) = 0.47586 0.31805
# Poissons Ratio (y) = 0.28484 0.08354
# Poissons Ratio (z) = 0.38554 0.16918
#
# Static dielectric constant tensor:
#      x y z
#    x 1.945200 0.015440 0.021020 
#    y 0.015440 1.827190 0.021720 
#    z 0.021020 0.021720 1.875720 
# 
# From -- ./inp_files/53871.got.cif
#   From: 2010.05.17/outbox.cif.g08.bks.cpg/sg2_27_cif.got.tgz:53871.got - 2010.06.03 11:33:40.
