data_PCOD9019691
_publ_section_title
;
Structure prediction by ZEFSAII (Michael W. Deem and Ramdas Pophale) SiO2 
 PCOD9019691
Probable space group: P -1
;
_chemical_formula_sum "Si O2"
_cell_formula_units_Z 16
_cell_length_a 7.709510
_cell_length_b 13.655622
_cell_length_c 16.559184
_cell_angle_alpha 146.068044
_cell_angle_beta 42.471359
_cell_angle_gamma 132.629988
_cell_volume 647.157456
_symmetry_space_group_name_H-M "P -1"
_symmetry_group_IT_number 2
_symmetry_cell_setting 'triclinic'
loop_
_space_group_symop_operation_xyz
x,y,z
-x,-y,-z
loop_
_atom_site_type_symbol
_atom_site_label
_atom_site_fract_x
_atom_site_fract_y
_atom_site_fract_z
Si Si1 0.960264 0.467120 0.185288
Si Si2 0.477519 0.285204 0.685037
Si Si3 0.095724 0.953492 0.623195
Si Si4 0.240878 0.604244 0.038822
Si Si5 0.348814 0.121680 0.989236
Si Si6 0.363286 0.446129 0.316733
Si Si7 0.019709 0.079793 0.913811
Si Si8 0.782909 0.606127 0.494774
O O1 0.659766 0.428525 0.230669
O O2 0.960916 0.517533 0.312733
O O3 0.132284 0.616940 0.174206
O O4 0.066876 0.285467 0.014962
O O5 0.685337 0.164165 0.556978
O O6 0.437894 0.460046 0.868867
O O7 0.581500 0.366335 0.618997
O O8 0.203229 0.146798 0.681454
O O9 0.829523 0.816524 0.601678
O O10 0.076041 0.981141 0.745638
O O11 0.366851 0.785385 0.074982
O O12 0.000000 0.500000 0.000000
O O13 0.259957 0.288477 0.181507
O O14 0.201806 0.058484 0.913374
O O15 0.271112 0.972550 0.982672
O O16 0.187325 0.425082 0.442181
O O17 0.500000 0.500000 0.500000
#
# Coordination Sequence:
#
# PCOD9019691 Si02
#       8
#     2   2   2   2   2   2   2   2
#     4  11  23  41  70  98 130 173 224 263 328 393
#     4  10  23  39  70  96 127 178 218 262 343 381
#     4  11  23  43  66  97 140 169 215 279 328 388
#     4  11  21  43  69  97 132 175 218 268 331 390
#     4  10  23  40  66 100 133 167 220 269 329 389
#     4  10  21  45  66  96 134 173 220 267 330 392
#     4  11  24  42  65 104 132 169 220 273 331 385
#     4  10  24  44  64  99 132 176 220 261 332 397
#
# _framework density 24.723503999999998
#
# number of rings (size 3 to 8) (size 9 to 14) (size 15 to 20)
#    0.000    1.500    5.000    0.000    3.500    5.500 
#    4.500    2.500    0.000    0.000    0.000    0.000 
#    0.000    0.000    0.000    0.000    0.000    0.000 
#
# Total GULP energy -89339.754367 kJ/mol
# GULP energy per Si atom -5583.734648 kJ/mol
# Density = 2.466723 g / cm^3
# Si number density = 24.723504 Si / 1000 Ang^3
#
#
#
# Elastic Constant Matrix: (Units=GPa)
#
#
# Indices 1 2 3 4 5 6 
#
# 1 33.9863 12.9287 15.6329 -5.4855 13.7185 7.1132
# 2 12.9287 187.4756 13.3421 -11.2558 18.4764 3.5155
# 3 15.6329 13.3421 83.1821 -19.1936 21.4975 6.0954
# 4 -5.4855 -11.2558 -19.1936 53.3424 -3.1470 9.0540
# 5 13.7185 18.4764 21.4975 -3.1470 30.1870 -0.2737
# 6 7.1132 3.5155 6.0954 9.0540 -0.2737 38.7415
#
#
#
# Elastic Compliance Matrix: (Units=1/GPa)
#
#
# Indices 1 2 3 4 5 6 
#
# 1 0.039076 -0.000647 -0.001739 0.003648 -0.015814 -0.007807
# 2 -0.000647 0.005774 0.000421 0.001235 -0.003419 -0.000784
# 3 -0.001739 0.000421 0.016719 0.005936 -0.010789 -0.003813
# 4 0.003648 0.001235 0.005936 0.022448 -0.004365 -0.006993
# 5 -0.015814 -0.003419 -0.010789 -0.004365 0.049692 0.006282
# 6 -0.007807 -0.000784 -0.003813 -0.006993 0.006282 0.029595
#
#
# Mechanical properties :
#
#
# Convention : Reuss Voigt Hill
#
# Bulk Modulus (GPa) = 17.34937 43.16126 30.25531
# Shear Modulus (GPa) = 26.81740 41.97019 34.39380
#
# Velocity S-wave (km/s) = 3.29704 4.12464 3.73384
# Velocity P-wave (km/s) = 4.63967 6.33870 5.55453
#
# Compressibility (1/GPa) = 0.05763899
#
# Stress axis : x y z
#
# Youngs Moduli (GPa) = 25.59143 173.17691 59.81337
#
# Poissons Ratio (x) = 0.11205 0.10403
# Poissons Ratio (y) = 0.01656 -0.02520
# Poissons Ratio (z) = 0.04451 -0.07297
#
# Static dielectric constant tensor:
#      x y z
#    x 2.064950 0.075000 -0.036760 
#    y 0.075000 2.033740 -0.033120 
#    z -0.036760 -0.033120 1.946670 
# 
# From -- ./inp_files/561409.got.cif
#   From: 2010.05.17/outbox.cif.g08.bks.cpg/sg2_281_cif.got.tgz:561409.got - 2010.06.03 11:33:40.
