data_PCOD9019732
_publ_section_title
;
Structure prediction by ZEFSAII (Michael W. Deem and Ramdas Pophale) SiO2 
 PCOD9019732
Probable space group: P -1
;
_chemical_formula_sum "Si O2"
_cell_formula_units_Z 16
_cell_length_a 24.080016
_cell_length_b 9.071385
_cell_length_c 10.725983
_cell_angle_alpha 42.605480
_cell_angle_beta 29.665614
_cell_angle_gamma 34.067181
_cell_volume 648.467241
_symmetry_space_group_name_H-M "P -1"
_symmetry_group_IT_number 2
_symmetry_cell_setting 'triclinic'
loop_
_space_group_symop_operation_xyz
x,y,z
-x,-y,-z
loop_
_atom_site_type_symbol
_atom_site_label
_atom_site_fract_x
_atom_site_fract_y
_atom_site_fract_z
Si Si1 0.784327 0.121451 0.844128
Si Si2 0.500690 0.242039 0.403081
Si Si3 0.019190 0.220954 0.111200
Si Si4 0.601466 0.773351 0.123300
Si Si5 0.773323 0.335375 0.384158
Si Si6 0.853457 0.639648 0.854685
Si Si7 0.853114 0.844876 0.361691
Si Si8 0.359309 0.303429 0.178404
O O1 0.734425 0.422120 0.740706
O O2 0.904641 0.970001 0.803523
O O3 0.820860 0.918845 0.787103
O O4 0.651235 0.160380 0.143204
O O5 0.452030 0.296903 0.607949
O O6 0.387465 0.496684 0.386448
O O7 0.500000 0.000000 0.500000
O O8 0.878074 0.255825 0.339835
O O9 0.102322 0.112412 0.887349
O O10 0.000000 0.500000 0.000000
O O11 0.495798 0.087848 0.117520
O O12 0.754881 0.685013 0.905450
O O13 0.601253 0.657831 0.061615
O O14 0.815271 0.085872 0.373687
O O15 0.800860 0.529223 0.132348
O O16 0.013920 0.419648 0.674855
O O17 0.729522 0.816490 0.596129
#
# Coordination Sequence:
#
# PCOD9019732 Si02
#       8
#     2   2   2   2   2   2   2   2
#     4  12  24  41  69 102 135 169 221 278 332 391
#     4  11  21  44  73  98 125 171 229 276 329 383
#     4  11  20  42  69 102 131 165 226 283 319 381
#     4  10  24  47  64  93 139 172 227 269 327 403
#     4  10  22  38  69 101 126 170 222 276 329 383
#     4  10  21  45  67  96 127 172 225 276 321 390
#     4  11  24  44  66  96 140 176 217 266 340 398
#     4  11  28  43  61 101 140 181 213 266 340 400
#
# _framework density 24.673566000000001
#
# number of rings (size 3 to 8) (size 9 to 14) (size 15 to 20)
#    0.000    1.250    5.000    2.250    8.750    2.000 
#    0.000    0.000    0.000    0.000    0.000    0.000 
#    0.000    0.000    0.000    0.000    0.000    0.000 
#
# Total GULP energy -89635.318022 kJ/mol
# GULP energy per Si atom -5602.207376 kJ/mol
# Density = 2.461741 g / cm^3
# Si number density = 24.673566 Si / 1000 Ang^3
#
#
#
# Elastic Constant Matrix: (Units=GPa)
#
#
# Indices 1 2 3 4 5 6 
#
# 1 30.0790 -17.9982 33.5619 6.4554 -19.0715 0.5830
# 2 -17.9982 106.6019 31.8421 13.4713 -24.9471 34.3915
# 3 33.5619 31.8421 76.0107 -2.1126 7.7329 -7.8878
# 4 6.4554 13.4713 -2.1126 38.1342 2.8289 -14.5300
# 5 -19.0715 -24.9471 7.7329 2.8289 25.0965 20.9429
# 6 0.5830 34.3915 -7.8878 -14.5300 20.9429 38.3708
#
#
#
# Elastic Compliance Matrix: (Units=1/GPa)
#
#
# Indices 1 2 3 4 5 6 
#
# 1 0.014928 -0.008823 0.000945 0.009258 -0.015166 0.019659
# 2 -0.008823 0.003016 0.004008 0.002828 -0.008628 0.004035
# 3 0.000945 0.004008 0.008764 -0.005674 0.010908 -0.009907
# 4 0.009258 0.002828 -0.005674 0.022429 0.009522 -0.000546
# 5 -0.015166 -0.008628 0.010908 0.009522 0.006949 0.010019
# 6 0.019659 0.004035 -0.009907 -0.000546 0.010019 0.014434
#
#
# Mechanical properties :
#
#
# Convention : Reuss Voigt Hill
#
# Bulk Modulus (GPa) = 52.72286 34.16704 43.44495
# Shear Modulus (GPa) = 59.11317 31.33935 45.22626
#
# Velocity S-wave (km/s) = 4.90001 3.56780 4.28598
# Velocity P-wave (km/s) = 7.30945 5.55427 6.49145
#
# Compressibility (1/GPa) = 0.01896710
#
# Stress axis : x y z
#
# Youngs Moduli (GPa) = 66.98738 331.61058 114.09746
#
# Poissons Ratio (x) = 2.92583 -0.10781
# Poissons Ratio (y) = 0.59104 -0.45726
# Poissons Ratio (z) = -0.06330 -1.32897
#
# Static dielectric constant tensor:
#      x y z
#    x 1.970820 -0.049850 0.043280 
#    y -0.049850 1.919830 -0.023230 
#    z 0.043280 -0.023230 1.983370 
# 
# From -- ./inp_files/474115.got.cif
#   From: 2010.05.17/outbox.cif.g08.bks.cpg/sg2_238_cif.got.tgz:474115.got - 2010.06.03 11:33:40.
