data_PCOD9019169
_publ_section_title
;
Structure prediction by ZEFSAII (Michael W. Deem and Ramdas Pophale) SiO2 
 PCOD9019169
Probable space group: P -1
;
_chemical_formula_sum "Si O2"
_cell_formula_units_Z 14
_cell_length_a 7.957131
_cell_length_b 8.814750
_cell_length_c 11.392532
_cell_angle_alpha 58.102850
_cell_angle_beta 127.534975
_cell_angle_gamma 125.644199
_cell_volume 495.954414
_symmetry_space_group_name_H-M "P -1"
_symmetry_group_IT_number 2
_symmetry_cell_setting 'triclinic'
loop_
_space_group_symop_operation_xyz
x,y,z
-x,-y,-z
loop_
_atom_site_type_symbol
_atom_site_label
_atom_site_fract_x
_atom_site_fract_y
_atom_site_fract_z
Si Si1 0.034257 0.578279 0.250907
Si Si2 0.707379 0.636121 0.423419
Si Si3 0.935680 0.985258 0.616907
Si Si4 0.966831 0.790917 0.929043
Si Si5 0.429362 0.108195 0.032866
Si Si6 0.516942 0.113332 0.638551
Si Si7 0.532412 0.471930 0.183825
O O1 0.135501 0.423815 0.397565
O O2 0.211015 0.776058 0.308853
O O3 0.773899 0.501930 0.215791
O O4 0.044399 0.637744 0.093876
O O5 0.547207 0.721226 0.389167
O O6 0.568053 0.472494 0.338798
O O7 0.881835 0.808713 0.347999
O O8 0.972648 0.823000 0.778297
O O9 0.671214 0.960141 0.513437
O O10 0.000000 0.000000 0.500000
O O11 0.694896 0.711431 0.873305
O O12 0.152588 0.995670 0.968950
O O13 0.528850 0.053304 0.215757
O O14 0.508340 0.332881 0.944968
O O15 0.500000 0.000000 0.000000
#
# Coordination Sequence:
#
# PCOD9019169 Si02
#       7
#     2   2   2   2   2   2   2
#     4  11  26  44  67 106 141 184 236 284 346 418
#     4  11  22  45  69 101 143 181 235 293 337 415
#     4  10  21  44  69 101 141 179 232 291 345 409
#     4  11  25  45  71 104 139 186 233 281 355 413
#     4  11  22  46  69 105 137 178 235 293 340 411
#     4  10  22  42  70  98 138 185 233 285 353 399
#     4  12  25  46  73 101 148 183 232 287 346 418
#
# _framework density 28.228401000000002
#
# number of rings (size 3 to 8) (size 9 to 14) (size 15 to 20)
#    0.000    1.143    2.857    3.000    2.000    4.000 
#    2.571    1.429    0.000    0.000    0.000    0.000 
#    0.000    0.000    0.000    0.000    0.000    0.000 
#
# Total GULP energy -78454.300637 kJ/mol
# GULP energy per Si atom -5603.878617 kJ/mol
# Density = 2.816415 g / cm^3
# Si number density = 28.228401 Si / 1000 Ang^3
#
#
#
# Elastic Constant Matrix: (Units=GPa)
#
#
# Indices 1 2 3 4 5 6 
#
# 1 126.0180 45.4176 41.5742 -9.8994 10.4830 21.0149
# 2 45.4176 149.3749 38.8426 16.3221 6.9526 38.9040
# 3 41.5742 38.8426 226.7662 -26.0307 2.8001 -6.8335
# 4 -9.8994 16.3221 -26.0307 66.9244 8.2445 8.0585
# 5 10.4830 6.9526 2.8001 8.2445 35.7111 5.3212
# 6 21.0149 38.9040 -6.8335 8.0585 5.3212 46.2353
#
#
#
# Elastic Compliance Matrix: (Units=1/GPa)
#
#
# Indices 1 2 3 4 5 6 
#
# 1 0.009983 -0.001996 -0.001307 0.002137 -0.002465 -0.003139
# 2 -0.001996 0.009968 -0.001871 -0.002629 0.000495 -0.007355
# 3 -0.001307 -0.001871 0.005294 0.002069 -0.000540 0.002652
# 4 0.002137 -0.002629 0.002069 0.017334 -0.004131 -0.000999
# 5 -0.002465 0.000495 -0.000540 -0.004131 0.029939 -0.002102
# 6 -0.003139 -0.007355 0.002652 -0.000999 -0.002102 0.030052
#
#
# Mechanical properties :
#
#
# Convention : Reuss Voigt Hill
#
# Bulk Modulus (GPa) = 67.13398 83.75868 75.44633
# Shear Modulus (GPa) = 42.41475 54.86247 48.63861
#
# Velocity S-wave (km/s) = 3.88049 4.41332 4.15545
# Velocity P-wave (km/s) = 6.62658 7.46365 7.05754
#
# Compressibility (1/GPa) = 0.01489559
#
# Stress axis : x y z
#
# Youngs Moduli (GPa) = 100.17507 100.32076 188.89039
#
# Poissons Ratio (x) = 0.20029 0.24689
# Poissons Ratio (y) = 0.20000 0.35341
# Poissons Ratio (z) = 0.13094 0.18770
#
# Static dielectric constant tensor:
#      x y z
#    x 2.213710 0.014260 -0.029110 
#    y 0.014260 2.272540 0.035010 
#    z -0.029110 0.035010 2.152850 
# 
# From -- ./inp_files/389217.got.cif
#   From: 2010.05.17/outbox.cif.g08.bks.cpg/sg2_195_cif.got.tgz:389217.got - 2010.06.03 11:33:40.
