data_PCOD9019474
_publ_section_title
;
Structure prediction by ZEFSAII (Michael W. Deem and Ramdas Pophale) SiO2 
 PCOD9019474
Probable space group: P -1
;
_chemical_formula_sum "Si O2"
_cell_formula_units_Z 14
_cell_length_a 28.102991
_cell_length_b 30.921517
_cell_length_c 6.750919
_cell_angle_alpha 132.943111
_cell_angle_beta 47.524867
_cell_angle_gamma 172.227033
_cell_volume 580.811400
_symmetry_space_group_name_H-M "P -1"
_symmetry_group_IT_number 2
_symmetry_cell_setting 'triclinic'
loop_
_space_group_symop_operation_xyz
x,y,z
-x,-y,-z
loop_
_atom_site_type_symbol
_atom_site_label
_atom_site_fract_x
_atom_site_fract_y
_atom_site_fract_z
Si Si1 0.267748 0.930512 0.991709
Si Si2 0.667955 0.303158 0.669020
Si Si3 0.443572 0.181708 0.579398
Si Si4 0.216964 0.150210 0.722113
Si Si5 0.431545 0.498268 0.562602
Si Si6 0.818736 0.328361 0.747593
Si Si7 0.238681 0.412650 0.164234
O O1 0.240429 0.965264 0.300092
O O2 0.946103 0.598177 0.907922
O O3 0.313705 0.983546 0.794343
O O4 0.631122 0.222379 0.922015
O O5 0.622699 0.290607 0.540959
O O6 0.843127 0.396360 0.449839
O O7 0.676181 0.441800 0.640874
O O8 0.173346 0.966579 0.825594
O O9 0.305180 0.257924 0.598797
O O10 0.576585 0.453361 0.753556
O O11 0.965860 0.867877 0.536330
O O12 0.000000 0.000000 0.000000
O O13 0.500000 0.500000 0.500000
O O14 0.418178 0.542099 0.878207
O O15 0.500000 0.000000 0.500000
O O16 0.000000 0.500000 0.000000
#
# Coordination Sequence:
#
# PCOD9019474 Si02
#       7
#     2   2   2   2   2   2   2
#     4  11  24  44  70 100 141 186 239 295 356 423
#     4  11  24  44  70 100 141 186 239 295 356 423
#     4  12  26  45  66 100 140 188 228 284 350 442
#     4  12  26  45  74 102 135 175 226 291 357 424
#     4  12  26  45  74 102 135 175 226 291 357 424
#     4  10  21  44  72 111 143 193 254 316 370 437
#     4  12  28  44  70 103 138 178 236 284 356 431
#
# _framework density 24.104209999999998
#
# number of rings (size 3 to 8) (size 9 to 14) (size 15 to 20)
#    0.000    0.571    2.857    4.714    2.000    6.857 
#    0.000    2.857    0.000    0.000    0.000    0.000 
#    0.000    0.000    0.000    0.000    0.000    0.000 
#
# Total GULP energy -78080.217297 kJ/mol
# GULP energy per Si atom -5577.158378 kJ/mol
# Density = 2.404935 g / cm^3
# Si number density = 24.104210 Si / 1000 Ang^3
#
#
#
# Elastic Constant Matrix: (Units=GPa)
#
#
# Indices 1 2 3 4 5 6 
#
# 1 96.1145 25.9908 28.5750 -5.7125 6.1839 -8.8493
# 2 25.9908 65.5030 14.7571 -9.9389 10.4293 -16.7676
# 3 28.5750 14.7571 120.1250 -7.5937 5.9280 -13.3997
# 4 -5.7125 -9.9389 -7.5937 34.0546 -3.1745 3.5151
# 5 6.1839 10.4293 5.9280 -3.1745 31.5639 -4.0088
# 6 -8.8493 -16.7676 -13.3997 3.5151 -4.0088 45.9646
#
#
#
# Elastic Compliance Matrix: (Units=1/GPa)
#
#
# Indices 1 2 3 4 5 6 
#
# 1 0.012299 -0.004204 -0.002358 0.000252 -0.000542 0.000081
# 2 -0.004204 0.019771 -0.000327 0.003991 -0.004534 0.005607
# 3 -0.002358 -0.000327 0.009265 0.001299 -0.000791 0.001959
# 4 0.000252 0.003991 0.001299 0.031035 0.001463 -0.000363
# 5 -0.000542 -0.004534 -0.000791 0.001463 0.033688 0.000837
# 6 0.000081 0.005607 0.001959 -0.000363 0.000837 0.024489
#
#
# Mechanical properties :
#
#
# Convention : Reuss Voigt Hill
#
# Bulk Modulus (GPa) = 36.28730 46.70982 41.49856
# Shear Modulus (GPa) = 32.57091 36.47794 34.52443
#
# Velocity S-wave (km/s) = 3.67993 3.89439 3.78868
# Velocity P-wave (km/s) = 5.75698 6.29619 6.03262
#
# Compressibility (1/GPa) = 0.02755785
#
# Stress axis : x y z
#
# Youngs Moduli (GPa) = 81.30587 50.57917 107.92831
#
# Poissons Ratio (x) = 0.21263 0.25445
# Poissons Ratio (y) = 0.34180 0.03533
# Poissons Ratio (z) = 0.19169 0.01656
#
# Static dielectric constant tensor:
#      x y z
#    x 1.980740 0.048930 0.025360 
#    y 0.048930 1.924240 0.024630 
#    z 0.025360 0.024630 1.992110 
# 
# From -- ./inp_files/10444.got.cif
#   From: 2010.05.17/outbox.cif.g08.bks.cpg/sg2_6_cif.got.tgz:10444.got - 2010.06.03 11:33:40.
