data_PCOD9019493
_publ_section_title
;
Structure prediction by ZEFSAII (Michael W. Deem and Ramdas Pophale) SiO2 
 PCOD9019493
Probable space group: P -1
;
_chemical_formula_sum "Si O2"
_cell_formula_units_Z 14
_cell_length_a 9.444822
_cell_length_b 17.584270
_cell_length_c 8.659243
_cell_angle_alpha 52.889898
_cell_angle_beta 76.440589
_cell_angle_gamma 120.141657
_cell_volume 621.557087
_symmetry_space_group_name_H-M "P -1"
_symmetry_group_IT_number 2
_symmetry_cell_setting 'triclinic'
loop_
_space_group_symop_operation_xyz
x,y,z
-x,-y,-z
loop_
_atom_site_type_symbol
_atom_site_label
_atom_site_fract_x
_atom_site_fract_y
_atom_site_fract_z
Si Si1 0.382572 0.188664 0.263009
Si Si2 0.496965 0.905468 0.449193
Si Si3 0.862169 0.844567 0.334696
Si Si4 0.718288 0.382028 0.663494
Si Si5 0.405787 0.056709 0.959433
Si Si6 0.595862 0.486690 0.351815
Si Si7 0.886783 0.141052 0.306175
O O1 0.577776 0.215293 0.258256
O O2 0.262778 0.180366 0.446869
O O3 0.835683 0.001849 0.519021
O O4 0.545363 0.327667 0.917854
O O5 0.524198 0.871688 0.319679
O O6 0.306660 0.892096 0.515840
O O7 0.780882 0.092474 0.213991
O O8 0.640287 0.673509 0.500103
O O9 0.000000 0.000000 0.000000
O O10 0.097437 0.901613 0.249071
O O11 0.561010 0.205201 0.857473
O O12 0.721210 0.461450 0.430656
O O13 0.000000 0.500000 0.500000
O O14 0.500000 0.000000 0.000000
O O15 0.500000 0.500000 0.500000
O O16 0.822030 0.666461 0.985648
#
# Coordination Sequence:
#
# PCOD9019493 Si02
#       7
#     2   2   2   2   2   2   2
#     4  10  21  44  72  98 141 182 232 287 340 421
#     4   9  18  40  72  94 135 182 235 269 349 413
#     4  12  23  48  70 101 137 190 234 282 360 418
#     4  12  28  44  70 111 143 178 235 293 347 408
#     4  12  26  44  70 102 138 186 232 291 348 423
#     4  12  25  44  72 101 144 184 229 290 346 417
#     4   9  20  38  73 100 131 185 233 276 343 413
#
# _framework density 22.524079
#
# number of rings (size 3 to 8) (size 9 to 14) (size 15 to 20)
#    0.857    0.286    2.857    3.429    4.000    1.714 
#    2.571    3.571    0.000    0.000    0.000    0.000 
#    0.000    0.000    0.000    0.000    0.000    0.000 
#
# Total GULP energy -78252.913759 kJ/mol
# GULP energy per Si atom -5589.493840 kJ/mol
# Density = 2.247281 g / cm^3
# Si number density = 22.524079 Si / 1000 Ang^3
#
#
#
# Elastic Constant Matrix: (Units=GPa)
#
#
# Indices 1 2 3 4 5 6 
#
# 1 128.1856 38.1971 18.6474 -13.7671 -21.7481 -1.6856
# 2 38.1971 150.3228 55.0394 -6.5963 -32.5527 -0.7655
# 3 18.6474 55.0394 94.7900 -11.3823 -20.7365 5.6269
# 4 -13.7671 -6.5963 -11.3823 40.7835 9.0388 -11.5135
# 5 -21.7481 -32.5527 -20.7365 9.0388 29.2250 1.9022
# 6 -1.6856 -0.7655 5.6269 -11.5135 1.9022 34.7804
#
#
#
# Elastic Compliance Matrix: (Units=1/GPa)
#
#
# Indices 1 2 3 4 5 6 
#
# 1 0.009214 -0.001256 0.000190 0.002108 0.004888 0.000819
# 2 -0.001256 0.010118 -0.004077 -0.001753 0.007998 -0.000196
# 3 0.000190 -0.004077 0.014396 0.001596 0.005463 -0.002180
# 4 0.002108 -0.001753 0.001596 0.030389 -0.009325 0.010375
# 5 0.004888 0.007998 0.005463 -0.009325 0.053947 -0.006508
# 6 0.000819 -0.000196 -0.002180 0.010375 -0.006508 0.032930
#
#
# Mechanical properties :
#
#
# Convention : Reuss Voigt Hill
#
# Bulk Modulus (GPa) = 42.65750 66.34071 54.49911
# Shear Modulus (GPa) = 29.56923 38.38541 33.97732
#
# Velocity S-wave (km/s) = 3.62717 4.13267 3.88814
# Velocity P-wave (km/s) = 6.04330 7.23112 6.66373
#
# Compressibility (1/GPa) = 0.02344254
#
# Stress axis : x y z
#
# Youngs Moduli (GPa) = 108.52849 98.82999 69.46462
#
# Poissons Ratio (x) = 0.12412 -0.01323
# Poissons Ratio (y) = 0.13630 0.28323
# Poissons Ratio (z) = -0.02066 0.40297
#
# Static dielectric constant tensor:
#      x y z
#    x 1.890560 0.041080 0.045410 
#    y 0.041080 1.832750 0.049100 
#    z 0.045410 0.049100 1.837590 
# 
# From -- ./inp_files/216699.got.cif
#   From: 2010.05.17/outbox.cif.g08.bks.cpg/sg2_109_cif.got.tgz:216699.got - 2010.06.03 11:33:40.
