data_PCOD9019429
_publ_section_title
;
Structure prediction by ZEFSAII (Michael W. Deem and Ramdas Pophale) SiO2 
 PCOD9019429
Probable space group: P -1
;
_chemical_formula_sum "Si O2"
_cell_formula_units_Z 14
_cell_length_a 16.673732
_cell_length_b 11.073124
_cell_length_c 13.762649
_cell_angle_alpha 127.365458
_cell_angle_beta 27.388590
_cell_angle_gamma 147.878875
_cell_volume 500.366547
_symmetry_space_group_name_H-M "P -1"
_symmetry_group_IT_number 2
_symmetry_cell_setting 'triclinic'
loop_
_space_group_symop_operation_xyz
x,y,z
-x,-y,-z
loop_
_atom_site_type_symbol
_atom_site_label
_atom_site_fract_x
_atom_site_fract_y
_atom_site_fract_z
Si Si1 0.194752 0.987427 0.591043
Si Si2 0.702490 0.800725 0.918190
Si Si3 0.299449 0.568125 0.570938
Si Si4 0.000000 0.000000 0.500000
Si Si5 0.304986 0.006699 0.809497
Si Si6 0.000000 0.500000 0.000000
Si Si7 0.252380 0.383316 0.923407
Si Si8 0.367939 0.030096 0.227634
O O1 0.052919 0.026135 0.702993
O O2 0.526962 0.268937 0.428803
O O3 0.267723 0.923933 0.395327
O O4 0.939245 0.755470 0.836248
O O5 0.749494 0.875617 0.793542
O O6 0.500000 0.500000 0.000000
O O7 0.557322 0.811311 0.155202
O O8 0.437660 0.503894 0.358260
O O9 0.416329 0.769675 0.461276
O O10 0.950955 0.345588 0.878532
O O11 0.946455 0.119879 0.554684
O O12 0.154065 0.741780 0.880245
O O13 0.007390 0.862904 0.996935
O O14 0.386037 0.644865 0.879269
O O15 0.500000 0.000000 0.000000
#
# Coordination Sequence:
#
# PCOD9019429 Si02
#       8
#     2   2   2   1   2   1   2   2
#     4  10  21  44  72 101 134 183 238 299 360 427
#     4  11  22  41  69 100 136 183 240 294 354 431
#     4  11  23  44  74 108 138 185 243 297 368 434
#     4  10  26  42  66 100 142 196 242 284 366 436
#     4  11  24  45  70 104 140 183 241 298 361 428
#     4  12  28  38  64 108 156 182 218 302 362 428
#     4  11  22  44  80 104 134 187 245 303 363 433
#     4  11  26  46  68 105 150 192 248 299 361 442
#
# _framework density 27.979486000000001
#
# number of rings (size 3 to 8) (size 9 to 14) (size 15 to 20)
#    0.000    1.143    2.857    3.000    4.000    4.000 
#    0.000    5.714    0.000    0.000    0.000    0.000 
#    0.000    0.000    0.000    0.000    0.000    0.000 
#
# Total GULP energy -77970.026024 kJ/mol
# GULP energy per Si atom -5569.287573 kJ/mol
# Density = 2.791580 g / cm^3
# Si number density = 27.979486 Si / 1000 Ang^3
#
#
#
# Elastic Constant Matrix: (Units=GPa)
#
#
# Indices 1 2 3 4 5 6 
#
# 1 116.2990 30.4466 63.3698 2.1435 34.7972 -0.0995
# 2 30.4466 114.4466 75.0381 16.0773 33.9005 -9.7135
# 3 63.3698 75.0381 224.9508 35.0655 79.1688 -11.3066
# 4 2.1435 16.0773 35.0655 53.5684 1.5928 6.2957
# 5 34.7972 33.9005 79.1688 1.5928 77.8699 -2.8904
# 6 -0.0995 -9.7135 -11.3066 6.2957 -2.8904 49.6641
#
#
#
# Elastic Compliance Matrix: (Units=1/GPa)
#
#
# Indices 1 2 3 4 5 6 
#
# 1 0.010683 -0.001070 -0.002174 0.001499 -0.002165 -0.000999
# 2 -0.001070 0.011678 -0.002507 -0.001981 -0.001948 0.001849
# 3 -0.002174 -0.002507 0.009387 -0.005310 -0.007301 0.001891
# 4 0.001499 -0.001981 -0.005310 0.023027 0.004963 -0.004223
# 5 -0.002165 -0.001948 -0.007301 0.004963 0.021927 -0.001401
# 6 -0.000999 0.001849 0.001891 -0.004223 -0.001401 0.021379
#
#
# Mechanical properties :
#
#
# Convention : Reuss Voigt Hill
#
# Bulk Modulus (GPa) = 49.39590 88.15616 68.77603
# Shear Modulus (GPa) = 42.98049 55.34327 49.16188
#
# Velocity S-wave (km/s) = 3.92362 4.45229 4.19629
# Velocity P-wave (km/s) = 6.18215 7.61619 6.93633
#
# Compressibility (1/GPa) = 0.02024459
#
# Stress axis : x y z
#
# Youngs Moduli (GPa) = 93.60877 85.62923 106.53594
#
# Poissons Ratio (x) = 0.09166 0.23163
# Poissons Ratio (y) = 0.10021 0.26706
# Poissons Ratio (z) = 0.20353 0.21465
#
# Static dielectric constant tensor:
#      x y z
#    x 1.911500 -0.098400 0.567150 
#    y -0.098400 2.039340 0.549770 
#    z 0.567150 0.549770 1.040390 
# 
# From -- ./inp_files/464794.got.cif
#   From: 2010.05.17/outbox.cif.g08.bks.cpg/sg2_233_cif.got.tgz:464794.got - 2010.06.03 11:33:40.
