data_PCOD9019941
_publ_section_title
;
Structure prediction by ZEFSAII (Michael W. Deem and Ramdas Pophale) SiO2 
 PCOD9019941
Probable space group: P -1
;
_chemical_formula_sum "Si O2"
_cell_formula_units_Z 16
_cell_length_a 22.648667
_cell_length_b 17.413286
_cell_length_c 11.243395
_cell_angle_alpha 32.032824
_cell_angle_beta 149.030800
_cell_angle_gamma 163.553222
_cell_volume 636.142916
_symmetry_space_group_name_H-M "P -1"
_symmetry_group_IT_number 2
_symmetry_cell_setting 'triclinic'
loop_
_space_group_symop_operation_xyz
x,y,z
-x,-y,-z
loop_
_atom_site_type_symbol
_atom_site_label
_atom_site_fract_x
_atom_site_fract_y
_atom_site_fract_z
Si Si1 0.867058 0.567717 0.230953
Si Si2 0.333159 0.944465 0.535638
Si Si3 0.685164 0.278032 0.531673
Si Si4 0.596510 0.760498 0.352855
Si Si5 0.871578 0.180972 0.059185
Si Si6 0.925249 0.934490 0.818435
Si Si7 0.167929 0.143680 0.712973
Si Si8 0.633065 0.370537 0.671935
O O1 0.747897 0.302432 0.315258
O O2 0.822505 0.514168 0.365121
O O3 0.124220 0.821343 0.320707
O O4 0.789516 0.638726 0.959647
O O5 0.544379 0.212866 0.469435
O O6 0.436563 0.064001 0.686365
O O7 0.824667 0.297483 0.800310
O O8 0.500000 0.000000 0.500000
O O9 0.500000 0.500000 0.500000
O O10 0.723161 0.969326 0.189610
O O11 0.779661 0.917670 0.562547
O O12 0.410703 0.654948 0.231864
O O13 0.805009 0.999525 0.074232
O O14 0.000000 0.000000 0.500000
O O15 0.127779 0.436334 0.191517
O O16 0.083819 0.091868 0.768401
O O17 0.000000 0.000000 0.000000
O O18 0.363251 0.463237 0.598388
#
# Coordination Sequence:
#
# PCOD9019941 Si02
#       8
#     2   2   2   2   2   2   2   2
#     4  10  25  48  70  98 155 192 239 305 377 441
#     4  10  24  45  68 100 139 198 244 291 365 448
#     4  10  25  45  71  99 138 199 245 293 365 455
#     4  12  24  45  76 112 146 198 252 301 386 452
#     4  11  24  47  75 104 148 195 252 307 370 444
#     4  12  26  45  78 116 147 191 245 323 372 432
#     4  10  21  45  73 104 149 195 238 306 377 442
#     4  11  23  43  73 107 144 185 251 311 363 441
#
# _framework density 25.151579999999999
#
# number of rings (size 3 to 8) (size 9 to 14) (size 15 to 20)
#    0.000    1.250    3.750    1.500   10.500    2.500 
#    0.000    2.500    0.000    0.000    0.000    0.000 
#    0.000    0.000    0.000    0.000    0.000    0.000 
#
# Total GULP energy -89492.186876 kJ/mol
# GULP energy per Si atom -5593.261680 kJ/mol
# Density = 2.509433 g / cm^3
# Si number density = 25.151580 Si / 1000 Ang^3
#
#
#
# Elastic Constant Matrix: (Units=GPa)
#
#
# Indices 1 2 3 4 5 6 
#
# 1 138.4576 37.3938 29.2265 -8.6607 -28.9371 21.9703
# 2 37.3938 92.5968 21.1491 -1.0590 -3.5053 0.7867
# 3 29.2265 21.1491 97.1479 -11.1179 -16.1433 24.5835
# 4 -8.6607 -1.0590 -11.1179 17.0292 -2.6978 -12.6676
# 5 -28.9371 -3.5053 -16.1433 -2.6978 34.2908 5.3525
# 6 21.9703 0.7867 24.5835 -12.6676 5.3525 44.7197
#
#
#
# Elastic Compliance Matrix: (Units=1/GPa)
#
#
# Indices 1 2 3 4 5 6 
#
# 1 0.011918 -0.004623 0.001533 0.003374 0.011674 -0.007058
# 2 -0.004623 0.013234 -0.003545 -0.001549 -0.004986 0.004145
# 3 0.001533 -0.003545 0.015028 0.005562 0.009778 -0.008547
# 4 0.003374 -0.001549 0.005562 0.077414 0.008872 0.016179
# 5 0.011674 -0.004986 0.009778 0.008872 0.045992 -0.014014
# 6 -0.007058 0.004145 -0.008547 0.016179 -0.014014 0.036715
#
#
# Mechanical properties :
#
#
# Convention : Reuss Voigt Hill
#
# Bulk Modulus (GPa) = 37.15957 55.97124 46.56541
# Shear Modulus (GPa) = 22.46763 35.23680 28.85222
#
# Velocity S-wave (km/s) = 2.99204 3.74702 3.39061
# Velocity P-wave (km/s) = 5.17133 6.40485 5.82086
#
# Compressibility (1/GPa) = 0.02691097
#
# Stress axis : x y z
#
# Youngs Moduli (GPa) = 83.90662 75.56126 66.54086
#
# Poissons Ratio (x) = 0.34929 -0.10199
# Poissons Ratio (y) = 0.38786 0.23590
# Poissons Ratio (z) = -0.12861 0.26787
#
# Static dielectric constant tensor:
#      x y z
#    x 2.196000 -0.097390 0.047340 
#    y -0.097390 2.035500 0.000860 
#    z 0.047340 0.000860 2.065050 
# 
# From -- ./inp_files/475253.got.cif
#   From: 2010.05.17/outbox.cif.g08.bks.cpg/sg2_238_cif.got.tgz:475253.got - 2010.06.03 11:33:40.
