data_PCOD9019498
_publ_section_title
;
Structure prediction by ZEFSAII (Michael W. Deem and Ramdas Pophale) SiO2 
 PCOD9019498
Probable space group: P -1
;
_chemical_formula_sum "Si O2"
_cell_formula_units_Z 12
_cell_length_a 12.484157
_cell_length_b 5.284834
_cell_length_c 8.722330
_cell_angle_alpha 71.810123
_cell_angle_beta 73.741627
_cell_angle_gamma 64.864048
_cell_volume 487.620329
_symmetry_space_group_name_H-M "P -1"
_symmetry_group_IT_number 2
_symmetry_cell_setting 'triclinic'
loop_
_space_group_symop_operation_xyz
x,y,z
-x,-y,-z
loop_
_atom_site_type_symbol
_atom_site_label
_atom_site_fract_x
_atom_site_fract_y
_atom_site_fract_z
Si Si1 0.318951 0.249700 0.586947
Si Si2 0.829037 0.700350 0.792726
Si Si3 0.138272 0.885705 0.531512
Si Si4 0.532130 0.336358 0.356365
Si Si5 0.605294 0.739697 0.083448
Si Si6 0.975495 0.042553 0.824846
O O1 0.206660 0.543738 0.555204
O O2 0.415481 0.252966 0.415295
O O3 0.359609 0.242258 0.753450
O O4 0.340185 0.917342 0.625154
O O5 0.897391 0.378359 0.765064
O O6 0.799295 0.930393 0.622100
O O7 0.911506 0.824622 0.839465
O O8 0.720364 0.689179 0.941463
O O9 0.000000 0.000000 0.500000
O O10 0.102158 0.966352 0.705145
O O11 0.500000 0.500000 0.500000
O O12 0.548258 0.497823 0.170458
O O13 0.500000 0.000000 0.000000
O O14 0.000000 0.000000 0.000000
#
# Coordination Sequence:
#
# PCOD9019498 Si02
#       6
#     2   2   2   2   2   2
#     4  10  21  44  72  99 142 188 244 300 367 430
#     4  11  25  46  69 110 145 193 241 308 362 439
#     4  10  23  47  72 105 144 192 244 301 365 438
#     4   9  21  43  68 104 135 187 240 301 365 439
#     4  11  24  43  68 103 145 188 245 300 370 434
#     4  11  24  47  74 106 147 191 249 300 370 431
#
# _framework density 24.609310000000001
#
# number of rings (size 3 to 8) (size 9 to 14) (size 15 to 20)
#    0.000    1.667    0.000    3.000    2.333    2.000 
#   42.000    0.000    0.000    0.000    0.000    0.000 
#    0.000    0.000    0.000    0.000    0.000    0.000 
#
# Total GULP energy -66953.262424 kJ/mol
# GULP energy per Si atom -5579.438535 kJ/mol
# Density = 2.455330 g / cm^3
# Si number density = 24.609310 Si / 1000 Ang^3
#
#
#
# Elastic Constant Matrix: (Units=GPa)
#
#
# Indices 1 2 3 4 5 6 
#
# 1 74.0429 49.4687 52.6436 4.0615 -18.9914 -27.1192
# 2 49.4687 214.3780 69.1708 -12.3312 -21.4907 -38.7883
# 3 52.6436 69.1708 215.9636 -6.2838 -35.3805 -25.3638
# 4 4.0615 -12.3312 -6.2838 53.2519 -7.4522 1.6741
# 5 -18.9914 -21.4907 -35.3805 -7.4522 54.1472 1.7541
# 6 -27.1192 -38.7883 -25.3638 1.6741 1.7541 38.4254
#
#
#
# Elastic Compliance Matrix: (Units=1/GPa)
#
#
# Indices 1 2 3 4 5 6 
#
# 1 0.022385 -0.001739 -0.002780 -0.002167 0.004655 0.012090
# 2 -0.001739 0.006387 -0.000799 0.001580 0.001472 0.004556
# 3 -0.002780 -0.000799 0.006203 0.001126 0.002879 0.001145
# 4 -0.002167 0.001580 0.001126 0.019918 0.003351 -0.000212
# 5 0.004655 0.001472 0.002879 0.003351 0.022850 0.005482
# 6 0.012090 0.004556 0.001145 -0.000212 0.005482 0.039671
#
#
# Mechanical properties :
#
#
# Convention : Reuss Voigt Hill
#
# Bulk Modulus (GPa) = 41.08910 94.10565 67.59737
# Shear Modulus (GPa) = 36.72079 51.37167 44.04623
#
# Velocity S-wave (km/s) = 3.86703 4.57386 4.23522
# Velocity P-wave (km/s) = 6.05569 8.13735 7.17244
#
# Compressibility (1/GPa) = 0.02433736
#
# Stress axis : x y z
#
# Youngs Moduli (GPa) = 44.67286 156.57541 161.21327
#
# Poissons Ratio (x) = 0.27227 0.44822
# Poissons Ratio (y) = 0.07768 0.12888
# Poissons Ratio (z) = 0.12420 0.12517
#
# Static dielectric constant tensor:
#      x y z
#    x 2.411600 0.128880 0.004400 
#    y 0.128880 2.049080 -0.002850 
#    z 0.004400 -0.002850 1.971460 
# 
# From -- ./inp_files/286723.got.cif
#   From: 2010.05.17/outbox.cif.g08.bks.cpg/sg2_144_cif.got.tgz:286723.got - 2010.06.03 11:33:40.
