data_PCOD9019645
_publ_section_title
;
Structure prediction by ZEFSAII (Michael W. Deem and Ramdas Pophale) SiO2 
 PCOD9019645
Probable space group: P -1
;
_chemical_formula_sum "Si O2"
_cell_formula_units_Z 14
_cell_length_a 11.946266
_cell_length_b 15.532029
_cell_length_c 20.315753
_cell_angle_alpha 159.674305
_cell_angle_beta 151.263239
_cell_angle_gamma 39.749732
_cell_volume 596.491817
_symmetry_space_group_name_H-M "P -1"
_symmetry_group_IT_number 2
_symmetry_cell_setting 'triclinic'
loop_
_space_group_symop_operation_xyz
x,y,z
-x,-y,-z
loop_
_atom_site_type_symbol
_atom_site_label
_atom_site_fract_x
_atom_site_fract_y
_atom_site_fract_z
Si Si1 0.256189 0.119074 0.259989
Si Si2 0.080018 0.979235 0.195868
Si Si3 0.315269 0.127101 0.661656
Si Si4 0.733648 0.549159 0.610947
Si Si5 0.421326 0.654900 0.172177
Si Si6 0.845915 0.661950 0.072297
Si Si7 0.762232 0.047944 0.201444
O O1 0.366590 0.362928 0.445140
O O2 0.443965 0.950625 0.245196
O O3 0.203739 0.199169 0.363490
O O4 0.000000 0.000000 0.000000
O O5 0.934883 0.061756 0.237433
O O6 0.932802 0.757144 0.908297
O O7 0.267860 0.854905 0.236485
O O8 0.315947 0.395236 0.887276
O O9 0.346260 0.185155 0.640094
O O10 0.068788 0.896322 0.387996
O O11 0.500000 0.500000 0.500000
O O12 0.825045 0.309866 0.465783
O O13 0.365120 0.517434 0.116783
O O14 0.747222 0.809823 0.071404
O O15 0.000000 0.500000 0.000000
O O16 0.500000 0.000000 0.000000
#
# Coordination Sequence:
#
# PCOD9019645 Si02
#       7
#     2   2   2   2   2   2   2
#     4   9  22  41  68 101 131 177 226 281 345 408
#     4  10  21  45  64  95 136 168 229 285 328 415
#     4  10  23  42  73 100 133 182 229 284 350 405
#     4  11  23  38  66  93 132 174 217 275 340 397
#     4  10  22  44  70  97 135 171 235 288 339 410
#     4  12  26  42  68 100 138 181 230 278 346 413
#     4  12  26  43  65 101 135 179 228 278 342 406
#
# _framework density 23.470565000000001
#
# number of rings (size 3 to 8) (size 9 to 14) (size 15 to 20)
#    0.000    1.429    2.857    1.286    6.000    2.286 
#    0.000    0.000    0.000    0.000    0.000    0.000 
#    0.000    0.000    0.000    0.000    0.000    0.000 
#
# Total GULP energy -78053.164590 kJ/mol
# GULP energy per Si atom -5575.226042 kJ/mol
# Density = 2.341714 g / cm^3
# Si number density = 23.470565 Si / 1000 Ang^3
#
#
#
# Elastic Constant Matrix: (Units=GPa)
#
#
# Indices 1 2 3 4 5 6 
#
# 1 221.0060 80.9628 32.8154 26.3096 7.2457 22.0930
# 2 80.9628 131.7727 26.9934 1.7179 8.2953 20.4441
# 3 32.8154 26.9934 55.8123 -5.9864 -10.9742 16.4517
# 4 26.3096 1.7179 -5.9864 43.0849 7.5721 4.7522
# 5 7.2457 8.2953 -10.9742 7.5721 42.3061 16.0155
# 6 22.0930 20.4441 16.4517 4.7522 16.0155 45.6759
#
#
#
# Elastic Compliance Matrix: (Units=1/GPa)
#
#
# Indices 1 2 3 4 5 6 
#
# 1 0.006747 -0.003476 -0.002784 -0.004287 -0.000381 -0.000125
# 2 -0.003476 0.010648 -0.002835 0.001821 -0.001961 -0.001565
# 3 -0.002784 -0.002835 0.027218 0.004841 0.011690 -0.011791
# 4 -0.004287 0.001821 0.004841 0.027103 -0.002268 -0.002510
# 5 -0.000381 -0.001961 0.011690 -0.002268 0.033010 -0.014487
# 6 -0.000125 -0.001565 -0.011791 -0.002510 -0.014487 0.032242
#
#
# Mechanical properties :
#
#
# Convention : Reuss Voigt Hill
#
# Bulk Modulus (GPa) = 37.84444 76.68158 57.26301
# Shear Modulus (GPa) = 30.49433 44.06801 37.28117
#
# Velocity S-wave (km/s) = 3.60843 4.33781 3.98983
# Velocity P-wave (km/s) = 5.78967 7.60468 6.75838
#
# Compressibility (1/GPa) = 0.02642396
#
# Stress axis : x y z
#
# Youngs Moduli (GPa) = 148.21872 93.91717 36.73981
#
# Poissons Ratio (x) = 0.32643 0.10227
# Poissons Ratio (y) = 0.51517 0.10416
# Poissons Ratio (z) = 0.41260 0.26626
#
# Static dielectric constant tensor:
#      x y z
#    x 1.976210 -0.603150 -2.730450 
#    y -0.603150 6.280370 18.577170 
#    z -2.730450 18.577170 80.113700 
# 
# From -- ./inp_files/243795.got.cif
#   From: 2010.05.17/outbox.cif.g08.bks.cpg/sg2_122_cif.got.tgz:243795.got - 2010.06.03 11:33:40.
