data_PCOD9019318
_publ_section_title
;
Structure prediction by ZEFSAII (Michael W. Deem and Ramdas Pophale) SiO2 
 PCOD9019318
Probable space group: P -1
;
_chemical_formula_sum "Si O2"
_cell_formula_units_Z 14
_cell_length_a 7.930135
_cell_length_b 8.361576
_cell_length_c 7.992121
_cell_angle_alpha 74.979558
_cell_angle_beta 92.037727
_cell_angle_gamma 87.230034
_cell_volume 510.605144
_symmetry_space_group_name_H-M "P -1"
_symmetry_group_IT_number 2
_symmetry_cell_setting 'triclinic'
loop_
_space_group_symop_operation_xyz
x,y,z
-x,-y,-z
loop_
_atom_site_type_symbol
_atom_site_label
_atom_site_fract_x
_atom_site_fract_y
_atom_site_fract_z
Si Si1 0.522617 0.596337 0.652282
Si Si2 0.150872 0.636302 0.767211
Si Si3 0.844624 0.798521 0.514709
Si Si4 0.688259 0.663749 0.978823
Si Si5 0.279831 0.980063 0.291242
Si Si6 0.629405 0.877630 0.207585
Si Si7 0.840964 0.128416 0.983194
O O1 0.500000 0.500000 0.500000
O O2 0.331583 0.659880 0.677874
O O3 0.670679 0.712605 0.572403
O O4 0.600259 0.563403 0.854887
O O5 0.165741 0.452378 0.897303
O O6 0.129630 0.749096 0.900176
O O7 0.999284 0.685076 0.622150
O O8 0.821675 0.977975 0.555864
O O9 0.811067 0.828882 0.311249
O O10 0.586238 0.728257 0.124217
O O11 0.739512 0.837847 0.851666
O O12 0.479093 0.934640 0.311987
O O13 0.206298 0.831754 0.221592
O O14 0.673966 0.037819 0.061036
O O15 0.000000 0.000000 0.000000
#
# Coordination Sequence:
#
# PCOD9019318 Si02
#       7
#     2   2   2   2   2   2   2
#     4  11  25  44  68 104 141 181 233 282 355 419
#     4  12  25  46  73 103 147 179 235 296 341 418
#     4  11  25  45  68 104 143 185 233 288 354 407
#     4  10  23  44  72 100 136 187 228 289 353 408
#     4  10  21  44  70  98 138 186 236 281 351 418
#     4  11  23  44  72  96 143 189 231 286 348 417
#     4  11  22  43  66 105 136 178 239 284 342 421
#
# _framework density 27.418447
#
# number of rings (size 3 to 8) (size 9 to 14) (size 15 to 20)
#    0.000    1.143    1.429    6.000    0.000    6.286 
#    5.143    0.000    0.000    0.000    0.000    0.000 
#    0.000    0.000    0.000    0.000    0.000    0.000 
#
# Total GULP energy -78144.182100 kJ/mol
# GULP energy per Si atom -5581.727293 kJ/mol
# Density = 2.735604 g / cm^3
# Si number density = 27.418447 Si / 1000 Ang^3
#
#
#
# Elastic Constant Matrix: (Units=GPa)
#
#
# Indices 1 2 3 4 5 6 
#
# 1 166.3378 40.1483 42.2443 -1.4382 7.6901 -29.9272
# 2 40.1483 118.8332 69.5024 28.0751 16.9089 -25.1790
# 3 42.2443 69.5024 143.0354 24.4058 32.2593 -10.9056
# 4 -1.4382 28.0751 24.4058 56.2036 -6.1125 2.9328
# 5 7.6901 16.9089 32.2593 -6.1125 50.2920 -4.2420
# 6 -29.9272 -25.1790 -10.9056 2.9328 -4.2420 38.8509
#
#
#
# Elastic Compliance Matrix: (Units=1/GPa)
#
#
# Indices 1 2 3 4 5 6 
#
# 1 0.007510 -0.000897 -0.001847 0.001295 0.000890 0.004685
# 2 -0.000897 0.014952 -0.004999 -0.005920 -0.001741 0.007853
# 3 -0.001847 -0.004999 0.011762 -0.003231 -0.006125 -0.001786
# 4 0.001295 -0.005920 -0.003231 0.023118 0.006269 -0.004807
# 5 0.000890 -0.001741 -0.006125 0.006269 0.025032 0.000098
# 6 0.004685 0.007853 -0.001786 -0.004807 0.000098 0.034310
#
#
# Mechanical properties :
#
#
# Convention : Reuss Voigt Hill
#
# Bulk Modulus (GPa) = 53.36413 81.33295 67.34854
# Shear Modulus (GPa) = 36.12247 47.49006 41.80626
#
# Velocity S-wave (km/s) = 3.63361 4.16630 3.90904
# Velocity P-wave (km/s) = 6.09174 7.27132 6.70751
#
# Compressibility (1/GPa) = 0.01873918
#
# Stress axis : x y z
#
# Youngs Moduli (GPa) = 133.14968 66.87861 85.01780
#
# Poissons Ratio (x) = 0.06001 0.15700
# Poissons Ratio (y) = 0.11947 0.42501
# Poissons Ratio (z) = 0.24588 0.33433
#
# Static dielectric constant tensor:
#      x y z
#    x 2.148790 0.050320 -0.070060 
#    y 0.050320 2.220220 0.028510 
#    z -0.070060 0.028510 2.513810 
# 
# From -- ./inp_files/154193.got.cif
#   From: 2010.05.17/outbox.cif.g08.bks.cpg/sg2_78_cif.got.tgz:154193.got - 2010.06.03 11:33:40.
