data_PCOD9019748
_publ_section_title
;
Structure prediction by ZEFSAII (Michael W. Deem and Ramdas Pophale) SiO2 
 PCOD9019748
Probable space group: P -1
;
_chemical_formula_sum "Si O2"
_cell_formula_units_Z 16
_cell_length_a 8.658525
_cell_length_b 29.823216
_cell_length_c 5.231918
_cell_angle_alpha 118.629298
_cell_angle_beta 105.846630
_cell_angle_gamma 32.190629
_cell_volume 605.876919
_symmetry_space_group_name_H-M "P -1"
_symmetry_group_IT_number 2
_symmetry_cell_setting 'triclinic'
loop_
_space_group_symop_operation_xyz
x,y,z
-x,-y,-z
loop_
_atom_site_type_symbol
_atom_site_label
_atom_site_fract_x
_atom_site_fract_y
_atom_site_fract_z
Si Si1 0.646035 0.676510 0.379703
Si Si2 0.736193 0.915760 0.173372
Si Si3 0.676200 0.130541 0.327038
Si Si4 0.114790 0.231009 0.124814
Si Si5 0.415668 0.641683 0.390388
Si Si6 0.769411 0.002577 0.149420
Si Si7 0.689952 0.417218 0.154655
Si Si8 0.972693 0.438160 0.242645
O O1 0.503120 0.767952 0.463821
O O2 0.401615 0.702845 0.454279
O O3 0.870857 0.617822 0.567808
O O4 0.805932 0.609502 0.021357
O O5 0.500000 0.000000 0.500000
O O6 0.548270 0.937482 0.921026
O O7 0.913122 0.820393 0.113676
O O8 0.902162 0.922331 0.173246
O O9 0.457095 0.155487 0.116370
O O10 0.994717 0.056845 0.138817
O O11 0.718608 0.075117 0.413046
O O12 0.894936 0.291695 0.437956
O O13 0.979324 0.310202 0.101287
O O14 0.706006 0.551988 0.455519
O O15 0.484654 0.584021 0.037091
O O16 0.500000 0.500000 0.500000
O O17 0.813069 0.427686 0.053731
#
# Coordination Sequence:
#
# PCOD9019748 Si02
#       8
#     2   2   2   2   2   2   2   2
#     4  12  27  46  73 108 150 194 250 311 368 443
#     4  10  22  42  70 104 137 180 235 304 368 435
#     4  10  21  45  68 100 136 191 237 301 366 444
#     4  11  24  42  70 102 143 189 247 298 368 446
#     4  12  27  44  72 103 146 195 247 301 374 438
#     4   9  21  44  69  95 141 180 236 296 374 436
#     4  12  25  45  72 103 146 194 251 305 366 440
#     4  12  26  47  72 104 149 197 247 308 370 432
#
# _framework density 26.408007000000001
#
# number of rings (size 3 to 8) (size 9 to 14) (size 15 to 20)
#    0.000    1.000    2.500    3.375    1.750    5.000 
#    2.250    3.125    0.000    0.000    0.000    0.000 
#    0.000    0.000    0.000    0.000    0.000    0.000 
#
# Total GULP energy -89413.204030 kJ/mol
# GULP energy per Si atom -5588.325252 kJ/mol
# Density = 2.634790 g / cm^3
# Si number density = 26.408007 Si / 1000 Ang^3
#
#
#
# Elastic Constant Matrix: (Units=GPa)
#
#
# Indices 1 2 3 4 5 6 
#
# 1 129.5046 29.1770 10.7079 9.9805 12.7246 36.7837
# 2 29.1770 122.0111 24.9555 19.9568 18.5269 9.3682
# 3 10.7079 24.9555 90.4494 12.6040 10.1441 9.4035
# 4 9.9805 19.9568 12.6040 36.6066 6.5608 14.7074
# 5 12.7246 18.5269 10.1441 6.5608 39.8346 17.9048
# 6 36.7837 9.3682 9.4035 14.7074 17.9048 55.5020
#
#
#
# Elastic Compliance Matrix: (Units=1/GPa)
#
#
# Indices 1 2 3 4 5 6 
#
# 1 0.009973 -0.002121 -0.000120 0.001061 0.000683 -0.006733
# 2 -0.002121 0.010240 -0.001732 -0.004698 -0.003996 0.002504
# 3 -0.000120 -0.001732 0.012156 -0.002743 -0.001600 -0.000445
# 4 0.001061 -0.004698 -0.002743 0.033874 0.000878 -0.008705
# 5 0.000683 -0.003996 -0.001600 0.000878 0.031450 -0.009885
# 6 -0.006733 0.002504 -0.000445 -0.008705 -0.009885 0.027628
#
#
# Mechanical properties :
#
#
# Convention : Reuss Voigt Hill
#
# Bulk Modulus (GPa) = 40.94290 52.40509 46.67399
# Shear Modulus (GPa) = 35.35889 44.86362 40.11126
#
# Velocity S-wave (km/s) = 3.66313 4.12620 3.90154
# Velocity P-wave (km/s) = 5.78178 6.52596 6.16511
#
# Compressibility (1/GPa) = 0.02442426
#
# Stress axis : x y z
#
# Youngs Moduli (GPa) = 100.27226 97.65365 82.26482
#
# Poissons Ratio (x) = 0.20708 0.00987
# Poissons Ratio (y) = 0.21263 0.14247
# Poissons Ratio (z) = 0.01203 0.16912
#
# Static dielectric constant tensor:
#      x y z
#    x 2.064230 -0.037250 0.029870 
#    y -0.037250 2.263980 -0.042570 
#    z 0.029870 -0.042570 1.980150 
# 
# From -- ./inp_files/56756.got.cif
#   From: 2010.05.17/outbox.cif.g08.bks.cpg/sg2_29_cif.got.tgz:56756.got - 2010.06.03 11:33:40.
