data_PCOD9019289
_publ_section_title
;
Structure prediction by ZEFSAII (Michael W. Deem and Ramdas Pophale) SiO2 
 PCOD9019289
Probable space group: P -1
;
_chemical_formula_sum "Si O2"
_cell_formula_units_Z 16
_cell_length_a 5.401526
_cell_length_b 14.510120
_cell_length_c 17.748547
_cell_angle_alpha 32.336489
_cell_angle_beta 73.033653
_cell_angle_gamma 77.294019
_cell_volume 710.724449
_symmetry_space_group_name_H-M "P -1"
_symmetry_group_IT_number 2
_symmetry_cell_setting 'triclinic'
loop_
_space_group_symop_operation_xyz
x,y,z
-x,-y,-z
loop_
_atom_site_type_symbol
_atom_site_label
_atom_site_fract_x
_atom_site_fract_y
_atom_site_fract_z
Si Si1 0.181413 0.800252 0.980821
Si Si2 0.597645 0.959368 0.714769
Si Si3 0.161687 0.429471 0.303560
Si Si4 0.726995 0.891296 0.590311
Si Si5 0.629434 0.922140 0.117681
Si Si6 0.194720 0.348693 0.608463
Si Si7 0.872337 0.041012 0.771188
Si Si8 0.439738 0.644800 0.556183
O O1 0.396515 0.866003 0.855077
O O2 0.202428 0.916855 0.973693
O O3 0.191127 0.603776 0.133553
O O4 0.913680 0.854840 0.931536
O O5 0.640540 0.850991 0.711664
O O6 0.855882 0.008532 0.706663
O O7 0.518409 0.151462 0.568612
O O8 0.228339 0.271323 0.353513
O O9 0.366768 0.446025 0.342099
O O10 0.863702 0.403220 0.374704
O O11 0.500000 0.000000 0.500000
O O12 0.000000 0.000000 0.500000
O O13 0.773923 0.743397 0.247708
O O14 0.391262 0.897280 0.214048
O O15 0.500000 0.000000 0.000000
O O16 0.464664 0.393965 0.509836
O O17 0.000000 0.500000 0.500000
O O18 0.080444 0.183214 0.683954
#
# Coordination Sequence:
#
# PCOD9019289 Si02
#       8
#     2   2   2   2   2   2   2   2
#     4  10  25  44  72  99 143 194 240 296 371 443
#     4  11  22  44  74  97 139 199 235 284 368 435
#     4  12  27  46  72 114 142 187 247 303 365 427
#     4  12  25  43  72 110 148 186 243 305 361 433
#     4  10  23  44  71  98 140 190 244 304 370 436
#     4  11  25  44  70 108 138 191 249 306 361 446
#     4  10  21  44  70  93 140 189 242 281 373 429
#     4  12  24  46  75 100 149 189 239 299 365 435
#
# _framework density 22.512242000000001
#
# number of rings (size 3 to 8) (size 9 to 14) (size 15 to 20)
#    0.000    1.000    6.250    0.750    5.250    5.000 
#    2.250    0.625    0.000    0.000    0.000    0.000 
#    0.000    0.000    0.000    0.000    0.000    0.000 
#
# Total GULP energy -89339.157162 kJ/mol
# GULP energy per Si atom -5583.697323 kJ/mol
# Density = 2.246100 g / cm^3
# Si number density = 22.512242 Si / 1000 Ang^3
#
#
#
# Elastic Constant Matrix: (Units=GPa)
#
#
# Indices 1 2 3 4 5 6 
#
# 1 103.0564 27.2597 57.0385 1.5890 30.9443 -12.0425
# 2 27.2597 113.9173 51.3749 7.0350 19.1396 -2.2444
# 3 57.0385 51.3749 160.6455 -11.1779 34.7187 -10.4771
# 4 1.5890 7.0350 -11.1779 36.5763 1.4806 6.3280
# 5 30.9443 19.1396 34.7187 1.4806 44.9121 8.6123
# 6 -12.0425 -2.2444 -10.4771 6.3280 8.6123 34.0201
#
#
#
# Elastic Compliance Matrix: (Units=1/GPa)
#
#
# Indices 1 2 3 4 5 6 
#
# 1 0.015087 -0.000461 -0.002901 -0.002323 -0.009259 0.007193
# 2 -0.000461 0.010783 -0.003025 -0.003016 -0.001969 0.000676
# 3 -0.002901 -0.003025 0.009629 0.003445 -0.004708 0.002290
# 4 -0.002323 -0.003016 0.003445 0.030035 0.000311 -0.005626
# 5 -0.009259 -0.001969 -0.004708 0.000311 0.035794 -0.013977
# 6 0.007193 0.000676 0.002290 -0.005626 -0.013977 0.037275
#
#
# Mechanical properties :
#
#
# Convention : Reuss Voigt Hill
#
# Bulk Modulus (GPa) = 44.00342 72.10728 58.05535
# Shear Modulus (GPa) = 31.45596 39.23143 35.34369
#
# Velocity S-wave (km/s) = 3.74208 4.17906 3.96659
# Velocity P-wave (km/s) = 6.18545 7.44217 6.84272
#
# Compressibility (1/GPa) = 0.02272551
#
# Stress axis : x y z
#
# Youngs Moduli (GPa) = 66.28038 92.73615 103.85443
#
# Poissons Ratio (x) = 0.04278 0.30127
# Poissons Ratio (y) = 0.03058 0.31414
# Poissons Ratio (z) = 0.19227 0.28051
#
# Static dielectric constant tensor:
#      x y z
#    x 1.983840 0.000760 0.024200 
#    y 0.000760 1.853150 0.044800 
#    z 0.024200 0.044800 1.872900 
# 
# From -- ./inp_files/122598.got.cif
#   From: 2010.05.17/outbox.cif.g08.bks.cpg/sg2_62_cif.got.tgz:122598.got - 2010.06.03 11:33:40.
