data_PCOD9019715
_publ_section_title
;
Structure prediction by ZEFSAII (Michael W. Deem and Ramdas Pophale) SiO2 
 PCOD9019715
Probable space group: P -1
;
_chemical_formula_sum "Si O2"
_cell_formula_units_Z 16
_cell_length_a 14.562877
_cell_length_b 8.738474
_cell_length_c 5.074235
_cell_angle_alpha 87.544210
_cell_angle_beta 103.677422
_cell_angle_gamma 85.737230
_cell_volume 624.468637
_symmetry_space_group_name_H-M "P -1"
_symmetry_group_IT_number 2
_symmetry_cell_setting 'triclinic'
loop_
_space_group_symop_operation_xyz
x,y,z
-x,-y,-z
loop_
_atom_site_type_symbol
_atom_site_label
_atom_site_fract_x
_atom_site_fract_y
_atom_site_fract_z
Si Si1 0.896724 0.082427 0.959408
Si Si2 0.510154 0.671511 0.605252
Si Si3 0.560723 0.142963 0.962785
Si Si4 0.274722 0.400088 0.137864
Si Si5 0.969817 0.369736 0.184805
Si Si6 0.166274 0.186135 0.340909
Si Si7 0.789035 0.404145 0.407299
Si Si8 0.238398 0.948102 0.667366
O O1 0.838585 0.997750 0.707085
O O2 0.910173 0.260300 0.968418
O O3 0.855100 0.039594 0.210677
O O4 0.000000 0.000000 0.000000
O O5 0.500000 0.500000 0.500000
O O6 0.461869 0.722256 0.845385
O O7 0.621739 0.676655 0.730202
O O8 0.467177 0.789836 0.347032
O O9 0.670908 0.086848 0.069529
O O10 0.500000 0.000000 0.000000
O O11 0.198744 0.272893 0.102261
O O12 0.237301 0.500752 0.356827
O O13 0.269516 0.507186 0.873832
O O14 0.898253 0.411212 0.374645
O O15 0.065612 0.268116 0.350476
O O16 0.000000 0.500000 0.000000
O O17 0.251157 0.134877 0.596724
O O18 0.762356 0.230794 0.431891
#
# Coordination Sequence:
#
# PCOD9019715 Si02
#       8
#     2   2   2   2   2   2   2   2
#     4   9  23  41  66  97 141 180 235 280 358 412
#     4  12  26  48  75 105 147 190 244 303 369 436
#     4  12  27  46  75 109 147 189 244 306 368 432
#     4  12  26  46  73 105 140 187 241 295 361 424
#     4  10  21  45  67 105 141 188 236 298 349 425
#     4  11  25  41  70  99 142 189 235 295 354 427
#     4  11  26  45  71 103 142 189 240 292 355 426
#     4  11  26  43  70 101 142 190 239 294 357 431
#
# _framework density 25.621784000000002
#
# number of rings (size 3 to 8) (size 9 to 14) (size 15 to 20)
#    0.000    1.000    1.250    3.750    8.750    5.000 
#    2.250    0.000    0.000    0.000    0.000    0.000 
#    0.000    0.000    0.000    0.000    0.000    0.000 
#
# Total GULP energy -89444.481457 kJ/mol
# GULP energy per Si atom -5590.280091 kJ/mol
# Density = 2.556347 g / cm^3
# Si number density = 25.621784 Si / 1000 Ang^3
#
#
#
# Elastic Constant Matrix: (Units=GPa)
#
#
# Indices 1 2 3 4 5 6 
#
# 1 74.4607 12.5394 7.7506 -8.8259 10.6530 -14.5414
# 2 12.5394 99.6997 43.8997 -15.4457 -0.9354 -0.2244
# 3 7.7506 43.8997 108.0812 -16.1134 -4.4555 -18.1330
# 4 -8.8259 -15.4457 -16.1134 53.3187 -17.8837 2.1705
# 5 10.6530 -0.9354 -4.4555 -17.8837 37.4823 -4.9892
# 6 -14.5414 -0.2244 -18.1330 2.1705 -4.9892 43.5956
#
#
#
# Elastic Compliance Matrix: (Units=1/GPa)
#
#
# Indices 1 2 3 4 5 6 
#
# 1 0.015237 -0.002053 0.000542 0.000789 -0.003291 0.004881
# 2 -0.002053 0.012930 -0.005187 0.002291 0.001014 -0.002774
# 3 0.000542 -0.005187 0.012970 0.003514 0.003707 0.005798
# 4 0.000789 0.002291 0.003514 0.024647 0.012265 0.001913
# 5 -0.003291 0.001014 0.003707 0.012265 0.034436 0.003779
# 6 0.004881 -0.002774 0.005798 0.001913 0.003779 0.027301
#
#
# Mechanical properties :
#
#
# Convention : Reuss Voigt Hill
#
# Bulk Modulus (GPa) = 36.04674 45.62455 40.83565
# Shear Modulus (GPa) = 33.29722 41.41611 37.35666
#
# Velocity S-wave (km/s) = 3.60886 4.02486 3.82252
# Velocity P-wave (km/s) = 5.60932 6.28052 5.95439
#
# Compressibility (1/GPa) = 0.02774176
#
# Stress axis : x y z
#
# Youngs Moduli (GPa) = 65.63066 77.33745 77.10391
#
# Poissons Ratio (x) = 0.15875 -0.04178
# Poissons Ratio (y) = 0.13472 0.39991
# Poissons Ratio (z) = -0.03557 0.40112
#
# Static dielectric constant tensor:
#      x y z
#    x 1.959990 0.069430 0.153200 
#    y 0.069430 2.182890 0.095950 
#    z 0.153200 0.095950 2.234140 
# 
# From -- ./inp_files/90194.got.cif
#   From: 2010.05.17/outbox.cif.g08.bks.cpg/sg2_46_cif.got.tgz:90194.got - 2010.06.03 11:33:40.
