data_PCOD9019482
_publ_section_title
;
Structure prediction by ZEFSAII (Michael W. Deem and Ramdas Pophale) SiO2 
 PCOD9019482
Probable space group: P -1
;
_chemical_formula_sum "Si O2"
_cell_formula_units_Z 12
_cell_length_a 8.436610
_cell_length_b 11.404626
_cell_length_c 10.581097
_cell_angle_alpha 64.599217
_cell_angle_beta 41.329173
_cell_angle_gamma 93.732216
_cell_volume 462.008356
_symmetry_space_group_name_H-M "P -1"
_symmetry_group_IT_number 2
_symmetry_cell_setting 'triclinic'
loop_
_space_group_symop_operation_xyz
x,y,z
-x,-y,-z
loop_
_atom_site_type_symbol
_atom_site_label
_atom_site_fract_x
_atom_site_fract_y
_atom_site_fract_z
Si Si1 0.757256 0.461710 0.467157
Si Si2 0.929907 0.135195 0.294110
Si Si3 0.636351 0.698013 0.472456
Si Si4 0.825135 0.042436 0.808814
Si Si5 0.869185 0.649530 0.692778
Si Si6 0.302250 0.775936 0.826256
O O1 0.626424 0.540339 0.584775
O O2 0.498521 0.336614 0.572492
O O3 0.914969 0.392243 0.468979
O O4 0.056206 0.628276 0.136679
O O5 0.858292 0.167372 0.185530
O O6 0.004084 0.276157 0.278018
O O7 0.614778 0.950716 0.615570
O O8 0.191882 0.115692 0.137225
O O9 0.417790 0.707665 0.689207
O O10 0.993178 0.872728 0.205881
O O11 0.061678 0.198182 0.499312
O O12 0.500000 0.000000 0.000000
O O13 0.500000 0.500000 0.000000
#
# Coordination Sequence:
#
# PCOD9019482 Si02
#       6
#     2   2   2   2   2   2
#     4  11  24  42  73  97 134 175 225 287 328 403
#     4  10  23  43  68  97 131 180 226 273 336 405
#     4  10  23  43  65 100 128 174 229 271 332 397
#     4  11  27  45  66  98 142 180 219 280 339 403
#     4  12  26  43  70 102 134 180 224 276 343 404
#     4  10  21  44  72  96 131 175 230 282 330 395
#
# _framework density 25.973557
#
# number of rings (size 3 to 8) (size 9 to 14) (size 15 to 20)
#    0.000    1.333    1.667    3.000    7.000    3.333 
#    0.000    3.333    0.000    0.000    0.000    0.000 
#    0.000    0.000    0.000    0.000    0.000    0.000 
#
# Total GULP energy -67279.499572 kJ/mol
# GULP energy per Si atom -5606.624964 kJ/mol
# Density = 2.591444 g / cm^3
# Si number density = 25.973557 Si / 1000 Ang^3
#
#
#
# Elastic Constant Matrix: (Units=GPa)
#
#
# Indices 1 2 3 4 5 6 
#
# 1 80.0092 18.5884 16.1296 4.7954 -21.2643 -36.1205
# 2 18.5884 121.4851 19.1538 12.8637 -21.7950 -29.8710
# 3 16.1296 19.1538 109.1080 5.3043 -18.2070 0.6122
# 4 4.7954 12.8637 5.3043 28.8857 -8.0488 -11.5807
# 5 -21.2643 -21.7950 -18.2070 -8.0488 35.0463 -2.5639
# 6 -36.1205 -29.8710 0.6122 -11.5807 -2.5639 64.0112
#
#
#
# Elastic Compliance Matrix: (Units=1/GPa)
#
#
# Indices 1 2 3 4 5 6 
#
# 1 0.024613 0.003496 -0.001482 0.007038 0.019240 0.017578
# 2 0.003496 0.011398 -0.001021 0.000212 0.009293 0.007712
# 3 -0.001482 -0.001021 0.010189 -0.000766 0.003480 -0.001409
# 4 0.007038 0.000212 -0.000766 0.042544 0.014679 0.012362
# 5 0.019240 0.009293 0.003480 0.014679 0.052624 0.019924
# 6 0.017578 0.007712 -0.001409 0.012362 0.019924 0.032188
#
#
# Mechanical properties :
#
#
# Convention : Reuss Voigt Hill
#
# Bulk Modulus (GPa) = 20.75250 46.48288 33.61769
# Shear Modulus (GPa) = 26.64793 42.70401 34.67597
#
# Velocity S-wave (km/s) = 3.20654 4.05919 3.65780
# Velocity P-wave (km/s) = 4.66009 6.31700 5.55072
#
# Compressibility (1/GPa) = 0.04818697
#
# Stress axis : x y z
#
# Youngs Moduli (GPa) = 40.62972 87.73122 98.14048
#
# Poissons Ratio (x) = -0.30675 0.14549
# Poissons Ratio (y) = -0.14206 0.10018
# Poissons Ratio (z) = 0.06023 0.08955
#
# Static dielectric constant tensor:
#      x y z
#    x 2.039060 0.033810 -0.020560 
#    y 0.033810 2.036740 0.007940 
#    z -0.020560 0.007940 2.044210 
# 
# From -- ./inp_files/183826.got.cif
#   From: 2010.05.17/outbox.cif.g08.bks.cpg/sg2_92_cif.got.tgz:183826.got - 2010.06.03 11:33:40.
