data_PCOD9019661
_publ_section_title
;
Structure prediction by ZEFSAII (Michael W. Deem and Ramdas Pophale) SiO2 
 PCOD9019661
Probable space group: P -1
;
_chemical_formula_sum "Si O2"
_cell_formula_units_Z 16
_cell_length_a 19.440597
_cell_length_b 8.967091
_cell_length_c 14.330803
_cell_angle_alpha 75.938384
_cell_angle_beta 20.646907
_cell_angle_gamma 65.282558
_cell_volume 709.224542
_symmetry_space_group_name_H-M "P -1"
_symmetry_group_IT_number 2
_symmetry_cell_setting 'triclinic'
loop_
_space_group_symop_operation_xyz
x,y,z
-x,-y,-z
loop_
_atom_site_type_symbol
_atom_site_label
_atom_site_fract_x
_atom_site_fract_y
_atom_site_fract_z
Si Si1 0.563988 0.416918 0.575412
Si Si2 0.321155 0.049350 0.079407
Si Si3 0.856675 0.542899 0.270303
Si Si4 0.696095 0.221347 0.748996
Si Si5 0.979180 0.378554 0.332890
Si Si6 0.234910 0.943186 0.501979
Si Si7 0.102197 0.712402 0.007700
Si Si8 0.176881 0.337411 0.367860
O O1 0.627044 0.547917 0.530701
O O2 0.613540 0.253521 0.606438
O O3 0.306555 0.542544 0.837304
O O4 0.751233 0.314692 0.268475
O O5 0.210034 0.161606 0.300355
O O6 0.194762 0.192498 0.133796
O O7 0.281602 0.884887 0.166924
O O8 0.590209 0.987772 0.746294
O O9 0.979588 0.389462 0.219511
O O10 0.000000 0.500000 0.000000
O O11 0.881753 0.701628 0.257921
O O12 0.762409 0.368854 0.644850
O O13 0.841053 0.094218 0.495000
O O14 0.432378 0.299629 0.042290
O O15 0.929244 0.568066 0.412311
O O16 0.013411 0.095395 0.820281
O O17 0.000000 0.500000 0.500000
#
# Coordination Sequence:
#
# PCOD9019661 Si02
#       8
#     2   2   2   2   2   2   2   2
#     4  10  21  45  65  96 128 165 221 269 321 388
#     4  10  23  39  58  89 126 164 212 261 311 389
#     4  10  22  41  65  96 127 159 214 273 318 385
#     4  11  22  39  56  90 130 157 210 265 310 384
#     4  11  21  40  63  85 122 171 205 264 331 368
#     4  11  21  41  62  92 129 168 211 265 330 377
#     4  10  23  40  70  94 126 173 215 266 329 390
#     4   9  20  37  60  88 116 166 214 249 312 385
#
# _framework density 22.559851999999999
#
# number of rings (size 3 to 8) (size 9 to 14) (size 15 to 20)
#    0.000    1.750    1.250    3.375    3.500    0.000 
#    6.750    0.000    0.000    7.500    0.000    0.000 
#    0.000    0.000    0.000    0.000    0.000    0.000 
#
# Total GULP energy -89182.179378 kJ/mol
# GULP energy per Si atom -5573.886211 kJ/mol
# Density = 2.250850 g / cm^3
# Si number density = 22.559852 Si / 1000 Ang^3
#
#
#
# Elastic Constant Matrix: (Units=GPa)
#
#
# Indices 1 2 3 4 5 6 
#
# 1 80.6521 8.0266 25.3499 2.2385 17.7021 1.1909
# 2 8.0266 68.1125 13.3564 -12.6996 14.4975 -8.4562
# 3 25.3499 13.3564 50.5857 -6.3749 4.2640 -5.7432
# 4 2.2385 -12.6996 -6.3749 34.5625 -0.5687 0.0898
# 5 17.7021 14.4975 4.2640 -0.5687 31.0622 -1.1655
# 6 1.1909 -8.4562 -5.7432 0.0898 -1.1655 31.3252
#
#
#
# Elastic Compliance Matrix: (Units=1/GPa)
#
#
# Indices 1 2 3 4 5 6 
#
# 1 0.017129 0.000849 -0.008625 -0.002532 -0.009108 -0.002335
# 2 0.000849 0.018683 -0.003425 0.006028 -0.008471 0.004051
# 3 -0.008625 -0.003425 0.025718 0.004086 0.003217 0.004227
# 4 -0.002532 0.006028 0.004086 0.032039 -0.001257 0.002334
# 5 -0.009108 -0.008471 0.003217 -0.001257 0.040880 0.000174
# 6 -0.002335 0.004051 0.004227 0.002334 0.000174 0.033880
#
#
# Mechanical properties :
#
#
# Convention : Reuss Voigt Hill
#
# Bulk Modulus (GPa) = 25.55567 32.53512 29.04539
# Shear Modulus (GPa) = 24.53709 29.56447 27.05078
#
# Velocity S-wave (km/s) = 3.30152 3.62400 3.46651
# Velocity P-wave (km/s) = 5.08782 5.65368 5.37820
#
# Compressibility (1/GPa) = 0.03913026
#
# Stress axis : x y z
#
# Youngs Moduli (GPa) = 58.38030 53.52433 38.88277
#
# Poissons Ratio (x) = -0.04546 0.33535
# Poissons Ratio (y) = -0.04959 0.13317
# Poissons Ratio (z) = 0.50350 0.18332
#
# Static dielectric constant tensor:
#      x y z
#    x 1.990970 0.073330 0.003460 
#    y 0.073330 1.930070 -0.007530 
#    z 0.003460 -0.007530 1.831760 
# 
# From -- ./inp_files/540454.got.cif
#   From: 2010.05.17/outbox.cif.g08.bks.cpg/sg2_271_cif.got.tgz:540454.got - 2010.06.03 11:33:40.
