data_PCOD9019454
_publ_section_title
;
Structure prediction by ZEFSAII (Michael W. Deem and Ramdas Pophale) SiO2 
 PCOD9019454
Probable space group: P -1
;
_chemical_formula_sum "Si O2"
_cell_formula_units_Z 12
_cell_length_a 4.972110
_cell_length_b 5.524294
_cell_length_c 19.635209
_cell_angle_alpha 125.036033
_cell_angle_beta 88.087156
_cell_angle_gamma 88.420701
_cell_volume 440.631032
_symmetry_space_group_name_H-M "P -1"
_symmetry_group_IT_number 2
_symmetry_cell_setting 'triclinic'
loop_
_space_group_symop_operation_xyz
x,y,z
-x,-y,-z
loop_
_atom_site_type_symbol
_atom_site_label
_atom_site_fract_x
_atom_site_fract_y
_atom_site_fract_z
Si Si1 0.571118 0.390056 0.906018
Si Si2 0.371196 0.640481 0.652680
Si Si3 0.741973 0.730341 0.780099
Si Si4 0.249638 0.145757 0.485353
Si Si5 0.938188 0.283627 0.094222
Si Si6 0.451160 0.191622 0.686814
O O1 0.869279 0.474558 0.898116
O O2 0.359936 0.589032 0.895765
O O3 0.565184 0.036179 0.842623
O O4 0.500000 0.500000 0.000000
O O5 0.674920 0.665315 0.688650
O O6 0.276788 0.490535 0.558633
O O7 0.272793 0.403115 0.670570
O O8 0.278168 0.982278 0.700324
O O9 0.991710 0.773464 0.835940
O O10 0.635747 0.420580 0.757194
O O11 0.500000 0.000000 0.500000
O O12 0.338741 0.038255 0.392310
O O13 0.000000 0.000000 0.500000
O O14 0.000000 0.000000 0.000000
#
# Coordination Sequence:
#
# PCOD9019454 Si02
#       6
#     2   2   2   2   2   2
#     4  12  26  47  73 106 145 193 251 306 373 445
#     4   9  20  43  72 104 147 187 248 299 373 431
#     4  10  24  43  76 104 152 192 252 305 376 438
#     4  10  21  44  72 104 142 192 244 303 367 441
#     4  12  26  47  73 106 145 193 251 306 373 445
#     4   9  20  43  72 104 147 187 248 299 373 431
#
# _framework density 27.233673
#
# number of rings (size 3 to 8) (size 9 to 14) (size 15 to 20)
#    1.000    0.667    1.667    2.500    0.000    0.000 
#    6.000   13.333    0.000    0.000    0.000    1.167 
#    0.000    0.000    0.000    0.000    0.000    0.000 
#
# Total GULP energy -66876.318279 kJ/mol
# GULP energy per Si atom -5573.026523 kJ/mol
# Density = 2.717169 g / cm^3
# Si number density = 27.233673 Si / 1000 Ang^3
#
#
#
# Elastic Constant Matrix: (Units=GPa)
#
#
# Indices 1 2 3 4 5 6 
#
# 1 68.5376 5.9133 38.0092 -5.2484 3.0503 6.2592
# 2 5.9133 153.4216 45.5053 23.5812 12.6344 2.7485
# 3 38.0092 45.5053 210.6397 4.6651 13.2232 3.5638
# 4 -5.2484 23.5812 4.6651 65.7395 6.5670 9.2533
# 5 3.0503 12.6344 13.2232 6.5670 38.0807 -1.1850
# 6 6.2592 2.7485 3.5638 9.2533 -1.1850 36.6004
#
#
#
# Elastic Compliance Matrix: (Units=1/GPa)
#
#
# Indices 1 2 3 4 5 6 
#
# 1 0.016708 0.000041 -0.002968 0.002045 -0.000771 -0.003113
# 2 0.000041 0.007450 -0.001469 -0.002431 -0.001542 0.000141
# 3 -0.002968 -0.001469 0.005678 0.000008 -0.001247 0.000023
# 4 0.002045 -0.002431 0.000008 0.017136 -0.002458 -0.004580
# 5 -0.000771 -0.001542 -0.001247 -0.002458 0.027749 0.001889
# 6 -0.003113 0.000141 0.000023 -0.004580 0.001889 0.029061
#
#
# Mechanical properties :
#
#
# Convention : Reuss Voigt Hill
#
# Bulk Modulus (GPa) = 47.51636 67.93941 57.72789
# Shear Modulus (GPa) = 41.81000 50.96219 46.38609
#
# Velocity S-wave (km/s) = 3.92245 4.33054 4.13154
# Velocity P-wave (km/s) = 6.16439 7.07147 6.63346
#
# Compressibility (1/GPa) = 0.02104538
#
# Stress axis : x y z
#
# Youngs Moduli (GPa) = 59.85067 134.22747 176.11680
#
# Poissons Ratio (x) = -0.00554 0.52273
# Poissons Ratio (y) = -0.00247 0.25866
# Poissons Ratio (z) = 0.17764 0.19714
#
# Static dielectric constant tensor:
#      x y z
#    x 2.162430 0.130540 -0.068030 
#    y 0.130540 2.217670 -0.136300 
#    z -0.068030 -0.136300 2.287390 
# 
# From -- ./inp_files/602644.got.cif
#   From: 2010.05.17/outbox.cif.g08.bks.cpg/sg2_302_cif.got.tgz:602644.got - 2010.06.03 11:33:40.
