data_PCOD9019965
_publ_section_title
;
Structure prediction by ZEFSAII (Michael W. Deem and Ramdas Pophale) SiO2 
 PCOD9019965
Probable space group: P -1
;
_chemical_formula_sum "Si O2"
_cell_formula_units_Z 16
_cell_length_a 15.480536
_cell_length_b 13.132108
_cell_length_c 9.346331
_cell_angle_alpha 65.493882
_cell_angle_beta 140.630443
_cell_angle_gamma 142.655992
_cell_volume 624.794584
_symmetry_space_group_name_H-M "P -1"
_symmetry_group_IT_number 2
_symmetry_cell_setting 'triclinic'
loop_
_space_group_symop_operation_xyz
x,y,z
-x,-y,-z
loop_
_atom_site_type_symbol
_atom_site_label
_atom_site_fract_x
_atom_site_fract_y
_atom_site_fract_z
Si Si1 0.406113 0.748271 0.420978
Si Si2 0.732924 0.783381 0.749139
Si Si3 0.579776 0.782006 0.925543
Si Si4 0.964030 0.598821 0.226912
Si Si5 0.918736 0.294272 0.013637
Si Si6 0.571526 0.493226 0.921407
Si Si7 0.644119 0.192079 0.159277
Si Si8 0.905278 0.826140 0.654565
O O1 0.572839 0.784702 0.513681
O O2 0.514391 0.807869 0.683227
O O3 0.143252 0.516724 0.228196
O O4 0.340732 0.825258 0.229954
O O5 0.764888 0.730029 0.681334
O O6 0.000000 0.000000 0.000000
O O7 0.859591 0.939560 0.176986
O O8 0.614063 0.641881 0.814293
O O9 0.513202 0.820403 0.950065
O O10 0.424617 0.563167 0.883761
O O11 0.821903 0.384670 0.172148
O O12 0.177020 0.736726 0.533476
O O13 0.054780 0.691468 0.132768
O O14 0.775090 0.562233 0.058402
O O15 0.972893 0.210556 0.195105
O O16 0.300978 0.280897 0.654601
O O17 0.500000 0.000000 0.000000
#
# Coordination Sequence:
#
# PCOD9019965 Si02
#       8
#     2   2   2   2   2   2   2   2
#     4  11  24  44  70 108 146 191 246 300 373 435
#     4  12  24  46  72 106 142 191 246 300 364 442
#     4  11  25  47  70 109 151 189 246 310 362 444
#     4  10  21  45  74 102 146 196 241 307 372 431
#     4  11  23  44  75 101 145 198 236 309 373 432
#     4  11  24  47  72  98 148 195 238 304 370 434
#     4  10  23  46  72 106 149 197 250 299 370 453
#     4  12  24  47  73 104 145 194 248 301 369 435
#
# _framework density 25.608416999999999
#
# number of rings (size 3 to 8) (size 9 to 14) (size 15 to 20)
#    0.000    1.000    5.000    1.500    0.000    3.000 
#   11.250    0.000    0.000    0.000    0.000    0.000 
#    0.000    0.000    0.000    0.000    0.000    0.000 
#
# Total GULP energy -89497.195846 kJ/mol
# GULP energy per Si atom -5593.574740 kJ/mol
# Density = 2.555013 g / cm^3
# Si number density = 25.608417 Si / 1000 Ang^3
#
#
#
# Elastic Constant Matrix: (Units=GPa)
#
#
# Indices 1 2 3 4 5 6 
#
# 1 84.0054 18.9360 42.6640 -11.2258 16.0781 15.9404
# 2 18.9360 49.8111 23.9593 1.0251 6.6481 4.6618
# 3 42.6640 23.9593 145.5708 -2.3604 27.8291 4.4885
# 4 -11.2258 1.0251 -2.3604 40.8704 -11.1845 8.1050
# 5 16.0781 6.6481 27.8291 -11.1845 51.5388 -5.1676
# 6 15.9404 4.6618 4.4885 8.1050 -5.1676 25.9372
#
#
#
# Elastic Compliance Matrix: (Units=1/GPa)
#
#
# Indices 1 2 3 4 5 6 
#
# 1 0.018561 -0.003791 -0.003715 0.006657 -0.003133 -0.012787
# 2 -0.003791 0.022969 -0.002491 -0.001821 -0.000929 -0.000983
# 3 -0.003715 -0.002491 0.009008 -0.001623 -0.003641 0.000954
# 4 0.006657 -0.001821 -0.001623 0.029792 0.004303 -0.011936
# 5 -0.003133 -0.000929 -0.003641 0.004303 0.024018 0.006163
# 6 -0.012787 -0.000983 0.000954 -0.011936 0.006163 0.051383
#
#
# Mechanical properties :
#
#
# Convention : Reuss Voigt Hill
#
# Bulk Modulus (GPa) = 32.73944 50.05621 41.39782
# Shear Modulus (GPa) = 26.89529 36.59115 31.74322
#
# Velocity S-wave (km/s) = 3.24427 3.78414 3.52456
# Velocity P-wave (km/s) = 5.18133 6.21950 5.72400
#
# Compressibility (1/GPa) = 0.03054420
#
# Stress axis : x y z
#
# Youngs Moduli (GPa) = 53.87678 43.53747 111.00674
#
# Poissons Ratio (x) = 0.16507 0.41235
# Poissons Ratio (y) = 0.20427 0.27650
# Poissons Ratio (z) = 0.20013 0.10845
#
# Static dielectric constant tensor:
#      x y z
#    x 2.064270 -0.086420 -0.044280 
#    y -0.086420 2.228700 -0.019060 
#    z -0.044280 -0.019060 1.972310 
# 
# From -- ./inp_files/464559.got.cif
#   From: 2010.05.17/outbox.cif.g08.bks.cpg/sg2_233_cif.got.tgz:464559.got - 2010.06.03 11:33:40.
