data_PCOD9019477
_publ_section_title
;
Structure prediction by ZEFSAII (Michael W. Deem and Ramdas Pophale) SiO2 
 PCOD9019477
Probable space group: P -1
;
_chemical_formula_sum "Si O2"
_cell_formula_units_Z 10
_cell_length_a 15.716003
_cell_length_b 6.209627
_cell_length_c 15.807493
_cell_angle_alpha 66.293278
_cell_angle_beta 17.652123
_cell_angle_gamma 68.010635
_cell_volume 428.107605
_symmetry_space_group_name_H-M "P -1"
_symmetry_group_IT_number 2
_symmetry_cell_setting 'triclinic'
loop_
_space_group_symop_operation_xyz
x,y,z
-x,-y,-z
loop_
_atom_site_type_symbol
_atom_site_label
_atom_site_fract_x
_atom_site_fract_y
_atom_site_fract_z
Si Si1 0.094891 0.205745 0.495349
Si Si2 0.329413 0.805778 0.247773
Si Si3 0.357491 0.642398 0.973739
Si Si4 0.805776 0.261778 0.219696
Si Si5 0.335310 0.969577 0.784904
O O1 0.408581 0.309402 0.184065
O O2 0.915911 0.276523 0.572136
O O3 0.160581 0.929936 0.463579
O O4 0.933103 0.285748 0.719663
O O5 0.555117 0.619476 0.093267
O O6 0.500000 0.000000 0.000000
O O7 0.410640 0.818591 0.818215
O O8 0.541099 0.199675 0.540732
O O9 0.676587 0.201279 0.259076
O O10 0.000000 0.500000 0.000000
O O11 0.021673 0.060918 0.071597
#
# Coordination Sequence:
#
# PCOD9019477 Si02
#       5
#     2   2   2   2   2
#     4  11  25  42  65  94 132 185 225 270 339 390
#     4  11  25  43  67  95 133 184 233 267 331 404
#     4  12  25  42  66  97 141 171 224 288 328 388
#     4  10  21  44  72  93 135 175 216 275 348 410
#     4  10  23  42  65 104 130 173 227 275 337 413
#
# _framework density 23.358612999999998
#
# number of rings (size 3 to 8) (size 9 to 14) (size 15 to 20)
#    0.000    1.200    2.000    3.000    5.600    1.600 
#    3.600    4.000    0.000    0.000    0.000    0.000 
#    0.000    0.000    0.000    0.000    0.000    0.000 
#
# Total GULP energy -55802.537215 kJ/mol
# GULP energy per Si atom -5580.253721 kJ/mol
# Density = 2.330545 g / cm^3
# Si number density = 23.358613 Si / 1000 Ang^3
#
#
#
# Elastic Constant Matrix: (Units=GPa)
#
#
# Indices 1 2 3 4 5 6 
#
# 1 62.5154 45.8134 32.3021 -5.5420 1.1697 -15.9577
# 2 45.8134 112.2778 34.3810 9.3370 15.9446 -11.7325
# 3 32.3021 34.3810 122.5003 4.9700 0.7304 -5.7593
# 4 -5.5420 9.3370 4.9700 57.6764 11.2393 -5.1729
# 5 1.1697 15.9446 0.7304 11.2393 23.1996 -6.5810
# 6 -15.9577 -11.7325 -5.7593 -5.1729 -6.5810 26.6063
#
#
#
# Elastic Compliance Matrix: (Units=1/GPa)
#
#
# Indices 1 2 3 4 5 6 
#
# 1 0.030714 -0.011112 -0.004498 0.004924 0.008255 0.015547
# 2 -0.011112 0.015054 -0.001309 -0.001765 -0.009760 -0.003067
# 3 -0.004498 -0.001309 0.009712 -0.001388 0.001166 -0.001154
# 4 0.004924 -0.001765 -0.001388 0.020046 -0.007599 0.003892
# 5 0.008255 -0.009760 0.001166 -0.007599 0.056866 0.013488
# 6 0.015547 -0.003067 -0.001154 0.003892 0.013488 0.049400
#
#
# Mechanical properties :
#
#
# Convention : Reuss Voigt Hill
#
# Bulk Modulus (GPa) = 46.20981 58.03184 52.12083
# Shear Modulus (GPa) = 22.43700 33.81626 28.12663
#
# Velocity S-wave (km/s) = 3.10263 3.80899 3.47381
# Velocity P-wave (km/s) = 5.71496 6.65149 6.20093
#
# Compressibility (1/GPa) = 0.02164042
#
# Stress axis : x y z
#
# Youngs Moduli (GPa) = 32.55811 66.42818 102.96617
#
# Poissons Ratio (x) = 0.73817 0.46317
# Poissons Ratio (y) = 0.36180 0.13480
# Poissons Ratio (z) = 0.14646 0.08697
#
# Static dielectric constant tensor:
#      x y z
#    x 1.872550 0.069760 0.028940 
#    y 0.069760 2.130300 -0.019700 
#    z 0.028940 -0.019700 1.901390 
# 
# From -- ./inp_files/3648.got.cif
#   From: 2010.05.17/outbox.cif.g08.bks.cpg/sg2_2_cif.got.tgz:3648.got - 2010.06.03 11:33:40.
