data_PCOD9019923
_publ_section_title
;
Structure prediction by ZEFSAII (Michael W. Deem and Ramdas Pophale) SiO2 
 PCOD9019923
Probable space group: P -1
;
_chemical_formula_sum "Si O2"
_cell_formula_units_Z 16
_cell_length_a 7.631581
_cell_length_b 12.290264
_cell_length_c 8.184157
_cell_angle_alpha 111.844533
_cell_angle_beta 119.998402
_cell_angle_gamma 82.526704
_cell_volume 615.562406
_symmetry_space_group_name_H-M "P -1"
_symmetry_group_IT_number 2
_symmetry_cell_setting 'triclinic'
loop_
_space_group_symop_operation_xyz
x,y,z
-x,-y,-z
loop_
_atom_site_type_symbol
_atom_site_label
_atom_site_fract_x
_atom_site_fract_y
_atom_site_fract_z
Si Si1 0.508801 0.390787 0.815954
Si Si2 0.763934 0.245419 0.413978
Si Si3 0.907712 0.849542 0.966090
Si Si4 0.347420 0.974468 0.564446
Si Si5 0.204270 0.492496 0.481865
Si Si6 0.305942 0.922931 0.000427
Si Si7 0.802971 0.813119 0.516326
Si Si8 0.017579 0.623485 0.984477
O O1 0.391873 0.443416 0.636565
O O2 0.381067 0.264878 0.695891
O O3 0.500000 0.500000 0.000000
O O4 0.741082 0.360375 0.909717
O O5 0.720364 0.380120 0.482714
O O6 0.999612 0.248998 0.479807
O O7 0.712375 0.159759 0.493681
O O8 0.666429 0.179366 0.173634
O O9 0.799116 0.824476 0.720467
O O10 0.918136 0.745499 0.045972
O O11 0.809303 0.963981 0.050601
O O12 0.142280 0.875538 0.034341
O O13 0.174150 0.057911 0.480614
O O14 0.500000 0.000000 0.500000
O O15 0.480787 0.028205 0.805027
O O16 0.000000 0.500000 0.500000
O O17 0.113620 0.406904 0.254041
O O18 0.000000 0.500000 0.000000
#
# Coordination Sequence:
#
# PCOD9019923 Si02
#       8
#     2   2   2   2   2   2   2   2
#     4  12  25  44  78 106 139 200 241 293 378 432
#     4  11  25  44  70 100 145 188 233 303 358 429
#     4  10  21  45  72  94 143 192 232 303 363 412
#     4  12  25  42  66 106 139 184 244 291 363 434
#     4  12  23  49  75 107 149 185 243 306 361 430
#     4  10  22  43  69  98 135 190 239 292 354 429
#     4  11  22  44  70  98 142 187 243 299 355 430
#     4  12  27  47  71 111 145 188 244 301 364 434
#
# _framework density 25.992487000000001
#
# number of rings (size 3 to 8) (size 9 to 14) (size 15 to 20)
#    0.000    0.750    5.000    2.250    1.750    3.500 
#    4.500    0.000    0.000    0.000    0.000    0.000 
#    0.000    0.000    0.000    0.000    0.000    0.000 
#
# Total GULP energy -89472.558941 kJ/mol
# GULP energy per Si atom -5592.034934 kJ/mol
# Density = 2.593333 g / cm^3
# Si number density = 25.992487 Si / 1000 Ang^3
#
#
#
# Elastic Constant Matrix: (Units=GPa)
#
#
# Indices 1 2 3 4 5 6 
#
# 1 50.1174 16.2442 29.9617 3.0572 3.2855 4.2542
# 2 16.2442 184.4509 25.8014 -22.7063 19.7445 0.6269
# 3 29.9617 25.8014 166.6862 11.1330 33.3647 0.1753
# 4 3.0572 -22.7063 11.1330 41.3057 -3.7249 14.4309
# 5 3.2855 19.7445 33.3647 -3.7249 26.3651 -3.5245
# 6 4.2542 0.6269 0.1753 14.4309 -3.5245 37.6340
#
#
#
# Elastic Compliance Matrix: (Units=1/GPa)
#
#
# Indices 1 2 3 4 5 6 
#
# 1 0.023294 -0.001879 -0.004689 -0.000411 0.004108 -0.002038
# 2 -0.001879 0.006556 -0.000098 0.004030 -0.004227 -0.001838
# 3 -0.004689 -0.000098 0.009433 -0.003569 -0.011682 0.000762
# 4 -0.000411 0.004030 -0.003569 0.031958 0.004483 -0.011839
# 5 0.004108 -0.004227 -0.011682 0.004483 0.056432 0.003227
# 6 -0.002038 -0.001838 0.000762 -0.011839 0.003227 0.031671
#
#
# Mechanical properties :
#
#
# Convention : Reuss Voigt Hill
#
# Bulk Modulus (GPa) = 38.53376 60.58545 49.55960
# Shear Modulus (GPa) = 27.57478 43.01075 35.29277
#
# Velocity S-wave (km/s) = 3.26064 4.07226 3.68884
# Velocity P-wave (km/s) = 5.38821 6.74318 6.10342
#
# Compressibility (1/GPa) = 0.02595127
#
# Stress axis : x y z
#
# Youngs Moduli (GPa) = 42.92936 152.54261 106.00768
#
# Poissons Ratio (x) = 0.28661 0.49706
# Poissons Ratio (y) = 0.08066 0.01039
# Poissons Ratio (z) = 0.20129 0.01496
#
# Static dielectric constant tensor:
#      x y z
#    x 2.120710 -0.063860 -0.037170 
#    y -0.063860 2.416790 -0.069260 
#    z -0.037170 -0.069260 2.013190 
# 
# From -- ./inp_files/188947.got.cif
#   From: 2010.05.17/outbox.cif.g08.bks.cpg/sg2_95_cif.got.tgz:188947.got - 2010.06.03 11:33:40.
