data_PCOD9019839
_publ_section_title
;
Structure prediction by ZEFSAII (Michael W. Deem and Ramdas Pophale) SiO2 
 PCOD9019839
Probable space group: P -1
;
_chemical_formula_sum "Si O2"
_cell_formula_units_Z 16
_cell_length_a 18.767527
_cell_length_b 12.612218
_cell_length_c 5.549893
_cell_angle_alpha 91.432794
_cell_angle_beta 120.825337
_cell_angle_gamma 46.307493
_cell_volume 691.778881
_symmetry_space_group_name_H-M "P -1"
_symmetry_group_IT_number 2
_symmetry_cell_setting 'triclinic'
loop_
_space_group_symop_operation_xyz
x,y,z
-x,-y,-z
loop_
_atom_site_type_symbol
_atom_site_label
_atom_site_fract_x
_atom_site_fract_y
_atom_site_fract_z
Si Si1 0.969883 0.136285 0.305849
Si Si2 0.440805 0.638556 0.104060
Si Si3 0.151807 0.536498 0.687414
Si Si4 0.685481 0.896539 0.406170
Si Si5 0.593090 0.846112 0.846294
Si Si6 0.887352 0.532867 0.895689
Si Si7 0.237239 0.952256 0.500046
Si Si8 0.709467 0.306771 0.747735
O O1 0.903428 0.289971 0.373210
O O2 0.846258 0.229504 0.922193
O O3 0.000000 0.000000 0.500000
O O4 0.099471 0.053772 0.392959
O O5 0.576610 0.512903 0.485114
O O6 0.319770 0.698185 0.029858
O O7 0.500000 0.500000 0.000000
O O8 0.366871 0.817364 0.895877
O O9 0.131558 0.524315 0.372664
O O10 0.306867 0.354735 0.022300
O O11 0.079206 0.548472 0.788505
O O12 0.750722 0.741278 0.683040
O O13 0.527278 0.074681 0.185693
O O14 0.767551 0.922111 0.585624
O O15 0.687032 0.839106 0.143538
O O16 0.500000 0.000000 0.500000
O O17 0.000000 0.500000 0.000000
O O18 0.278027 0.819724 0.372101
#
# Coordination Sequence:
#
# PCOD9019839 Si02
#       8
#     2   2   2   2   2   2   2   2
#     4  12  26  46  67 101 145 191 243 295 355 431
#     4   9  20  41  65  93 131 172 242 292 352 406
#     4  11  26  44  72 102 138 191 240 291 370 428
#     4  10  23  40  70 104 139 178 236 297 366 440
#     4  10  21  45  70 100 140 178 232 300 369 436
#     4  11  23  46  69 103 141 182 236 302 361 440
#     4  11  23  42  67 101 137 187 236 292 358 431
#     4  10  22  42  67  94 135 187 234 298 348 418
#
# _framework density 23.128779000000002
#
# number of rings (size 3 to 8) (size 9 to 14) (size 15 to 20)
#    0.000    1.500    2.500    1.500    0.000    9.000 
#    0.000    0.000    0.000    0.000    0.000    0.000 
#    0.000    0.000    0.000    0.000    0.000    0.000 
#
# Total GULP energy -89162.994071 kJ/mol
# GULP energy per Si atom -5572.687129 kJ/mol
# Density = 2.307614 g / cm^3
# Si number density = 23.128779 Si / 1000 Ang^3
#
#
#
# Elastic Constant Matrix: (Units=GPa)
#
#
# Indices 1 2 3 4 5 6 
#
# 1 83.7431 52.5040 17.4380 -2.0034 10.3473 3.5488
# 2 52.5040 131.1883 5.2582 -16.9217 8.7803 -0.2225
# 3 17.4380 5.2582 29.4670 -10.4062 10.9694 -1.2384
# 4 -2.0034 -16.9217 -10.4062 28.2342 -1.2033 1.1915
# 5 10.3473 8.7803 10.9694 -1.2033 31.3189 -0.9716
# 6 3.5488 -0.2225 -1.2384 1.1915 -0.9716 31.8754
#
#
#
# Elastic Compliance Matrix: (Units=1/GPa)
#
#
# Indices 1 2 3 4 5 6 
#
# 1 0.020027 -0.008595 -0.013501 -0.008596 0.000114 -0.002489
# 2 -0.008595 0.012139 0.007202 0.009167 -0.002706 0.000896
# 3 -0.013501 0.007202 0.054624 0.022721 -0.015745 0.002346
# 4 -0.008596 0.009167 0.022721 0.048432 -0.005830 -0.000084
# 5 0.000114 -0.002706 -0.015745 -0.005830 0.037964 0.000732
# 6 -0.002489 0.000896 0.002346 -0.000084 0.000732 0.031772
#
#
# Mechanical properties :
#
#
# Convention : Reuss Voigt Hill
#
# Bulk Modulus (GPa) = 17.54257 43.86653 30.70455
# Shear Modulus (GPa) = 19.70484 29.56557 24.63521
#
# Velocity S-wave (km/s) = 2.92201 3.57921 3.26718
# Velocity P-wave (km/s) = 4.35722 6.00736 5.24756
#
# Compressibility (1/GPa) = 0.05700420
#
# Stress axis : x y z
#
# Youngs Moduli (GPa) = 49.93305 82.38103 18.30686
#
# Poissons Ratio (x) = 0.70803 0.24715
# Poissons Ratio (y) = 0.42916 -0.13185
# Poissons Ratio (z) = 0.67412 -0.59333
#
# Static dielectric constant tensor:
#      x y z
#    x 1.939420 -0.006730 -0.040510 
#    y -0.006730 1.928730 0.019180 
#    z -0.040510 0.019180 2.030830 
# 
# From -- ./inp_files/109738.got.cif
#   From: 2010.05.17/outbox.cif.g08.bks.cpg/sg2_55_cif.got.tgz:109738.got - 2010.06.03 11:33:40.
