data_PCOD9019644
_publ_section_title
;
Structure prediction by ZEFSAII (Michael W. Deem and Ramdas Pophale) SiO2 
 PCOD9019644
Probable space group: P -1
;
_chemical_formula_sum "Si O2"
_cell_formula_units_Z 14
_cell_length_a 9.933267
_cell_length_b 9.055015
_cell_length_c 23.206921
_cell_angle_alpha 38.287155
_cell_angle_beta 35.695304
_cell_angle_gamma 66.097683
_cell_volume 578.267055
_symmetry_space_group_name_H-M "P -1"
_symmetry_group_IT_number 2
_symmetry_cell_setting 'triclinic'
loop_
_space_group_symop_operation_xyz
x,y,z
-x,-y,-z
loop_
_atom_site_type_symbol
_atom_site_label
_atom_site_fract_x
_atom_site_fract_y
_atom_site_fract_z
Si Si1 0.283851 0.353806 0.278666
Si Si2 0.133961 0.232143 0.205177
Si Si3 0.169634 0.238563 0.956613
Si Si4 0.930223 0.297903 0.912082
Si Si5 0.829409 0.425454 0.421687
Si Si6 0.334687 0.995321 0.283657
Si Si7 0.185846 0.017802 0.729788
O O1 0.502067 0.543196 0.197531
O O2 0.440362 0.291957 0.195442
O O3 0.136761 0.509412 0.267173
O O4 0.000000 0.000000 0.500000
O O5 0.083365 0.954179 0.343013
O O6 0.500000 0.500000 0.000000
O O7 0.016478 0.401099 0.220642
O O8 0.987437 0.136051 0.222479
O O9 0.063653 0.907276 0.073565
O O10 0.151182 0.385126 0.861275
O O11 0.960256 0.183375 0.099247
O O12 0.602395 0.077464 0.125221
O O13 0.534088 0.171191 0.564086
O O14 0.839280 0.714136 0.335061
O O15 0.773025 0.275438 0.551123
#
# Coordination Sequence:
#
# PCOD9019644 Si02
#       7
#     2   2   2   2   2   2   2
#     4  10  24  42  67  98 131 174 222 266 339 391
#     4  10  23  39  64 100 128 170 224 269 329 384
#     4  11  23  42  72  97 131 179 219 279 326 397
#     4  10  23  40  68 102 132 168 230 273 332 393
#     4  10  24  44  68  98 134 173 229 269 333 396
#     4  10  21  45  64  94 138 172 213 279 327 394
#     4  11  24  44  72  96 129 185 219 274 330 394
#
# _framework density 24.210269
#
# number of rings (size 3 to 8) (size 9 to 14) (size 15 to 20)
#    0.000    1.714    1.429    1.714   10.000    2.286 
#    2.571    0.714    0.000    0.000    0.000    0.000 
#    0.000    0.000    0.000    0.000    0.000    0.000 
#
# Total GULP energy -78215.809417 kJ/mol
# GULP energy per Si atom -5586.843530 kJ/mol
# Density = 2.415517 g / cm^3
# Si number density = 24.210269 Si / 1000 Ang^3
#
#
#
# Elastic Constant Matrix: (Units=GPa)
#
#
# Indices 1 2 3 4 5 6 
#
# 1 158.0397 49.2203 35.6752 -4.3359 -23.1601 15.9107
# 2 49.2203 79.0210 9.3794 6.9951 -11.3514 0.6209
# 3 35.6752 9.3794 44.6733 -0.5932 -18.8200 9.8428
# 4 -4.3359 6.9951 -0.5932 15.8570 4.9940 -1.8175
# 5 -23.1601 -11.3514 -18.8200 4.9940 45.4815 -2.6152
# 6 15.9107 0.6209 9.8428 -1.8175 -2.6152 50.8067
#
#
#
# Elastic Compliance Matrix: (Units=1/GPa)
#
#
# Indices 1 2 3 4 5 6 
#
# 1 0.009841 -0.005746 -0.006026 0.004661 0.000477 -0.001653
# 2 -0.005746 0.017372 0.002024 -0.010119 0.003417 0.001009
# 3 -0.006026 0.002024 0.032280 -0.005302 0.011146 -0.004007
# 4 0.004661 -0.010119 -0.005302 0.072001 -0.010152 0.001745
# 5 0.000477 0.003417 0.011146 -0.010152 0.028738 -0.001234
# 6 -0.001653 0.001009 -0.004007 0.001745 -0.001234 0.020963
#
#
# Mechanical properties :
#
#
# Convention : Reuss Voigt Hill
#
# Bulk Modulus (GPa) = 25.00126 52.25375 38.62750
# Shear Modulus (GPa) = 23.36187 34.92631 29.14409
#
# Velocity S-wave (km/s) = 3.10975 3.80231 3.47333
# Velocity P-wave (km/s) = 4.82112 6.39585 5.66348
#
# Compressibility (1/GPa) = 0.03999799
#
# Stress axis : x y z
#
# Youngs Moduli (GPa) = 101.61109 57.56312 30.97920
#
# Poissons Ratio (x) = 0.33075 0.18667
# Poissons Ratio (y) = 0.58384 -0.06269
# Poissons Ratio (z) = 0.61227 -0.11649
#
# Static dielectric constant tensor:
#      x y z
#    x 1.968590 -0.009290 0.051330 
#    y -0.009290 1.959840 0.031210 
#    z 0.051330 0.031210 1.962970 
# 
# From -- ./inp_files/226627.got.cif
#   From: 2010.05.17/outbox.cif.g08.bks.cpg/sg2_114_cif.got.tgz:226627.got - 2010.06.03 11:33:40.
