data_PCOD9019603
_publ_section_title
;
Structure prediction by ZEFSAII (Michael W. Deem and Ramdas Pophale) SiO2 
 PCOD9019603
Probable space group: P -1
;
_chemical_formula_sum "Si O2"
_cell_formula_units_Z 10
_cell_length_a 9.428998
_cell_length_b 10.166625
_cell_length_c 6.590509
_cell_angle_alpha 95.221374
_cell_angle_beta 116.489687
_cell_angle_gamma 43.566789
_cell_volume 361.045113
_symmetry_space_group_name_H-M "P -1"
_symmetry_group_IT_number 2
_symmetry_cell_setting 'triclinic'
loop_
_space_group_symop_operation_xyz
x,y,z
-x,-y,-z
loop_
_atom_site_type_symbol
_atom_site_label
_atom_site_fract_x
_atom_site_fract_y
_atom_site_fract_z
Si Si1 0.707495 0.876241 0.798545
Si Si2 0.475074 0.364913 0.516401
Si Si3 0.945924 0.632324 0.292645
Si Si4 0.244006 0.867833 0.988841
Si Si5 0.921113 0.887954 0.604878
O O1 0.940106 0.771999 0.791358
O O2 0.500000 0.000000 0.500000
O O3 0.675613 0.032278 0.927692
O O4 0.756627 0.743085 0.996055
O O5 0.500000 0.500000 0.500000
O O6 0.209037 0.475413 0.328845
O O7 0.521428 0.344318 0.785019
O O8 0.678695 0.134837 0.521982
O O9 0.899868 0.804519 0.391523
O O10 0.000000 0.500000 0.500000
O O11 0.149989 0.843064 0.738277
O O12 0.000000 0.000000 0.000000
#
# Coordination Sequence:
#
# PCOD9019603 Si02
#       5
#     2   2   2   2   2
#     4  10  23  47  74 104 158 207 244 321 396 455
#     4  10  21  44  77 112 149 202 258 319 385 463
#     4  12  28  46  76 121 151 201 270 311 391 470
#     4   8  18  41  69 104 140 197 249 303 384 445
#     4  10  24  47  74 108 159 201 248 335 381 453
#
# _framework density 27.697368999999998
#
# number of rings (size 3 to 8) (size 9 to 14) (size 15 to 20)
#    0.000    2.400    0.000    3.600    5.600    5.600 
#    7.200    0.000    0.000    0.000    0.000    0.000 
#    0.000    0.000    0.000    0.000    0.000    0.000 
#
# Total GULP energy -55687.880157 kJ/mol
# GULP energy per Si atom -5568.788016 kJ/mol
# Density = 2.763433 g / cm^3
# Si number density = 27.697369 Si / 1000 Ang^3
#
#
#
# Elastic Constant Matrix: (Units=GPa)
#
#
# Indices 1 2 3 4 5 6 
#
# 1 108.4798 29.1953 87.1076 -3.1929 3.0352 21.8994
# 2 29.1953 143.3525 67.2141 19.5329 9.2585 24.5379
# 3 87.1076 67.2141 258.3367 -4.9391 0.0624 35.8181
# 4 -3.1929 19.5329 -4.9391 40.8505 11.5457 6.3355
# 5 3.0352 9.2585 0.0624 11.5457 51.5879 -0.5089
# 6 21.8994 24.5379 35.8181 6.3355 -0.5089 43.4356
#
#
#
# Elastic Compliance Matrix: (Units=1/GPa)
#
#
# Indices 1 2 3 4 5 6 
#
# 1 0.013186 -0.000452 -0.003812 0.001637 -0.001091 -0.003501
# 2 -0.000452 0.009005 -0.001886 -0.003937 -0.000733 -0.002738
# 3 -0.003812 -0.001886 0.005980 0.001616 0.000172 -0.002177
# 4 0.001637 -0.003937 0.001616 0.029018 -0.005928 -0.004236
# 5 -0.001091 -0.000733 0.000172 -0.005928 0.020926 0.001932
# 6 -0.003501 -0.002738 -0.002177 -0.004236 0.001932 0.028771
#
#
# Mechanical properties :
#
#
# Convention : Reuss Voigt Hill
#
# Bulk Modulus (GPa) = 63.00446 97.46699 80.23572
# Shear Modulus (GPa) = 40.16919 48.95160 44.56039
#
# Velocity S-wave (km/s) = 3.81240 4.20858 4.01538
# Velocity P-wave (km/s) = 6.49431 7.67349 7.10839
#
# Compressibility (1/GPa) = 0.01587189
#
# Stress axis : x y z
#
# Youngs Moduli (GPa) = 75.83742 111.05449 167.23563
#
# Poissons Ratio (x) = 0.05015 0.63744
# Poissons Ratio (y) = 0.03425 0.31540
# Poissons Ratio (z) = 0.28907 0.20945
#
# Static dielectric constant tensor:
#      x y z
#    x 2.421180 0.036550 -0.046030 
#    y 0.036550 2.214960 0.016990 
#    z -0.046030 0.016990 2.316660 
# 
# From -- ./inp_files/19156.got.cif
#   From: 2010.05.17/outbox.cif.g08.bks.cpg/sg2_10_cif.got.tgz:19156.got - 2010.06.03 11:33:40.
