data_PCOD9019331
_publ_section_title
;
Structure prediction by ZEFSAII (Michael W. Deem and Ramdas Pophale) SiO2 
 PCOD9019331
Probable space group: P -1
;
_chemical_formula_sum "Si O2"
_cell_formula_units_Z 14
_cell_length_a 22.848509
_cell_length_b 16.254069
_cell_length_c 5.128659
_cell_angle_alpha 77.449533
_cell_angle_beta 91.186870
_cell_angle_gamma 160.094634
_cell_volume 527.616604
_symmetry_space_group_name_H-M "P -1"
_symmetry_group_IT_number 2
_symmetry_cell_setting 'triclinic'
loop_
_space_group_symop_operation_xyz
x,y,z
-x,-y,-z
loop_
_atom_site_type_symbol
_atom_site_label
_atom_site_fract_x
_atom_site_fract_y
_atom_site_fract_z
Si Si1 0.486400 0.619776 0.443447
Si Si2 0.456849 0.015518 0.286754
Si Si3 0.689890 0.040520 0.347219
Si Si4 0.941440 0.497845 0.676434
Si Si5 0.838778 0.614566 0.619685
Si Si6 0.302780 0.232865 0.358967
Si Si7 0.187362 0.310196 0.931011
O O1 0.324521 0.352977 0.422589
O O2 0.648718 0.770869 0.416516
O O3 0.374129 0.501741 0.773084
O O4 0.594960 0.857564 0.220630
O O5 0.500000 0.000000 0.500000
O O6 0.440017 0.084139 0.376127
O O7 0.229627 0.686931 0.367838
O O8 0.649759 0.294366 0.916611
O O9 0.834454 0.171280 0.416455
O O10 0.820395 0.295130 0.053321
O O11 0.000000 0.500000 0.500000
O O12 0.796406 0.590818 0.344635
O O13 0.841850 0.694087 0.781282
O O14 0.074334 0.905454 0.449241
O O15 0.500000 0.500000 0.000000
O O16 0.000000 0.000000 0.000000
#
# Coordination Sequence:
#
# PCOD9019331 Si02
#       7
#     2   2   2   2   2   2   2
#     4  11  24  43  70 101 143 191 248 300 380 459
#     4  11  25  45  70 106 150 199 258 320 380 448
#     4  10  21  44  70  99 137 192 257 309 382 449
#     4   9  21  41  68 100 136 185 249 313 374 446
#     4  12  27  47  75 113 152 206 254 318 392 451
#     4  11  27  45  68 108 152 193 241 313 390 465
#     4  12  24  46  78 110 148 200 259 314 382 470
#
# _framework density 26.534417999999999
#
# number of rings (size 3 to 8) (size 9 to 14) (size 15 to 20)
#    0.000    1.143    2.857    2.143    4.000    6.286 
#    2.571    0.000    0.000    0.000    0.000    0.000 
#    0.000    0.000    0.000    0.000    0.000    0.000 
#
# Total GULP energy -78238.873728 kJ/mol
# GULP energy per Si atom -5588.490981 kJ/mol
# Density = 2.647402 g / cm^3
# Si number density = 26.534418 Si / 1000 Ang^3
#
#
#
# Elastic Constant Matrix: (Units=GPa)
#
#
# Indices 1 2 3 4 5 6 
#
# 1 132.7653 49.0272 27.0216 1.0409 -9.6252 13.8037
# 2 49.0272 143.8632 13.4398 -6.4401 4.8792 42.3823
# 3 27.0216 13.4398 82.0527 -6.6461 -8.5410 22.9372
# 4 1.0409 -6.4401 -6.6461 44.1424 2.8772 -5.7256
# 5 -9.6252 4.8792 -8.5410 2.8772 47.1769 11.2741
# 6 13.8037 42.3823 22.9372 -5.7256 11.2741 60.3067
#
#
#
# Elastic Compliance Matrix: (Units=1/GPa)
#
#
# Indices 1 2 3 4 5 6 
#
# 1 0.009327 -0.003258 -0.002668 -0.001106 0.001643 0.000757
# 2 -0.003258 0.009943 0.001403 0.000860 0.000113 -0.006715
# 3 -0.002668 0.001403 0.015194 0.001456 0.003570 -0.006683
# 4 -0.001106 0.000860 0.001456 0.023363 -0.001873 0.001663
# 5 0.001643 0.000113 0.003570 -0.001873 0.023821 -0.006445
# 6 0.000757 -0.006715 -0.006683 0.001663 -0.006445 0.025033
#
#
# Mechanical properties :
#
#
# Convention : Reuss Voigt Hill
#
# Bulk Modulus (GPa) = 39.34179 59.73982 49.54081
# Shear Modulus (GPa) = 40.25794 48.27137 44.26465
#
# Velocity S-wave (km/s) = 3.89935 4.26983 4.08879
# Velocity P-wave (km/s) = 5.92723 6.84628 6.40327
#
# Compressibility (1/GPa) = 0.02541826
#
# Stress axis : x y z
#
# Youngs Moduli (GPa) = 107.21321 100.57162 65.81586
#
# Poissons Ratio (x) = 0.32763 0.17561
# Poissons Ratio (y) = 0.34926 -0.09233
# Poissons Ratio (z) = 0.28607 -0.14109
#
# Static dielectric constant tensor:
#      x y z
#    x 2.102890 -0.036020 0.050160 
#    y -0.036020 2.373160 -0.217350 
#    z 0.050160 -0.217350 2.298800 
# 
# From -- ./inp_files/124679.got.cif
#   From: 2010.05.17/outbox.cif.g08.bks.cpg/sg2_63_cif.got.tgz:124679.got - 2010.06.03 11:33:40.
