data_PCOD9019713
_publ_section_title
;
Structure prediction by ZEFSAII (Michael W. Deem and Ramdas Pophale) SiO2 
 PCOD9019713
Probable space group: P -1
;
_chemical_formula_sum "Si O2"
_cell_formula_units_Z 14
_cell_length_a 11.626073
_cell_length_b 5.353553
_cell_length_c 12.362296
_cell_angle_alpha 71.994858
_cell_angle_beta 133.444025
_cell_angle_gamma 94.617063
_cell_volume 521.483909
_symmetry_space_group_name_H-M "P -1"
_symmetry_group_IT_number 2
_symmetry_cell_setting 'triclinic'
loop_
_space_group_symop_operation_xyz
x,y,z
-x,-y,-z
loop_
_atom_site_type_symbol
_atom_site_label
_atom_site_fract_x
_atom_site_fract_y
_atom_site_fract_z
Si Si1 0.060951 0.622654 0.683976
Si Si2 0.341710 0.735753 0.588949
Si Si3 0.075915 0.673460 0.936157
Si Si4 0.165872 0.866375 0.259594
Si Si5 0.753576 0.910407 0.334103
Si Si6 0.679708 0.604479 0.738584
Si Si7 0.604175 0.663673 0.119484
O O1 0.020114 0.641006 0.782652
O O2 0.209864 0.372699 0.800336
O O3 0.904139 0.675922 0.498602
O O4 0.150107 0.867309 0.678393
O O5 0.185548 0.773153 0.408232
O O6 0.488910 0.676773 0.609333
O O7 0.367021 0.507323 0.725384
O O8 0.330110 0.002475 0.616147
O O9 0.262162 0.541341 0.089673
O O10 0.020000 0.982035 0.894100
O O11 0.000000 0.500000 0.000000
O O12 0.246191 0.624285 0.268359
O O13 0.257417 0.118145 0.272309
O O14 0.602571 0.940491 0.147774
O O15 0.500000 0.500000 0.000000
#
# Coordination Sequence:
#
# PCOD9019713 Si02
#       7
#     2   2   2   2   2   2   2
#     4  10  21  45  67 104 140 181 247 285 370 426
#     4  11  24  41  70  99 138 188 244 292 367 430
#     4  10  22  44  69 101 144 184 239 298 366 433
#     4  11  24  44  68 102 142 190 246 294 361 443
#     4  10  23  43  72 100 139 189 238 303 351 443
#     4  11  25  43  67 105 144 189 237 304 366 425
#     4  11  25  43  68 106 142 185 242 302 376 428
#
# _framework density 26.846467000000001
#
# number of rings (size 3 to 8) (size 9 to 14) (size 15 to 20)
#    0.000    1.429    1.429    2.571    4.000    2.286 
#   12.857    0.000    0.000    0.000    0.000    0.000 
#    0.000    0.000    0.000    0.000    0.000    0.000 
#
# Total GULP energy -78074.751149 kJ/mol
# GULP energy per Si atom -5576.767939 kJ/mol
# Density = 2.678536 g / cm^3
# Si number density = 26.846467 Si / 1000 Ang^3
#
#
#
# Elastic Constant Matrix: (Units=GPa)
#
#
# Indices 1 2 3 4 5 6 
#
# 1 67.5507 -7.1265 -33.8332 14.9567 -15.3748 1.0567
# 2 -7.1265 19.0971 -90.9620 73.5642 -21.6203 32.9192
# 3 -33.8332 -90.9620 16.0698 110.7918 -25.8857 57.6598
# 4 14.9567 73.5642 110.7918 9.4047 7.1601 -33.6693
# 5 -15.3748 -21.6203 -25.8857 7.1601 37.0741 7.7355
# 6 1.0567 32.9192 57.6598 -33.6693 7.7355 21.9530
#
#
#
# Elastic Compliance Matrix: (Units=1/GPa)
#
#
# Indices 1 2 3 4 5 6 
#
# 1 0.015089 -0.002256 0.000150 0.001781 0.003950 0.003604
# 2 -0.002256 0.008186 -0.003995 0.003998 -0.000705 0.004705
# 3 0.000150 -0.003995 0.003327 0.003463 -0.001237 0.002992
# 4 0.001781 0.003998 0.003463 0.007450 0.005215 -0.005588
# 5 0.003950 -0.000705 -0.001237 0.005215 0.025690 0.003063
# 6 0.003604 0.004705 0.002992 -0.005588 0.003063 0.020816
#
#
# Mechanical properties :
#
#
# Convention : Reuss Voigt Hill
#
# Bulk Modulus (GPa) = 69.44498 -17.90289 25.77104
# Shear Modulus (GPa) = 51.24996 29.32898 40.28947
#
# Velocity S-wave (km/s) = 4.37395 3.30884 3.87814
# Velocity P-wave (km/s) = 7.17163 2.81333 5.44734
#
# Compressibility (1/GPa) = 0.01439989
#
# Stress axis : x y z
#
# Youngs Moduli (GPa) = 66.27315 122.15951 300.54507
#
# Poissons Ratio (x) = 0.27564 -0.04502
# Poissons Ratio (y) = 0.14954 1.20058
# Poissons Ratio (z) = -0.00993 0.48799
#
# Static dielectric constant tensor:
#      x y z
#    x 2.122510 -0.093380 0.071520 
#    y -0.093380 2.835170 -0.038260 
#    z 0.071520 -0.038260 2.199660 
# 
# From -- ./inp_files/410386.got.cif
#   From: 2010.05.17/outbox.cif.g08.bks.cpg/sg2_206_cif.got.tgz:410386.got - 2010.06.03 11:33:40.
