data_PCOD9019276
_publ_section_title
;
Structure prediction by ZEFSAII (Michael W. Deem and Ramdas Pophale) SiO2 
 PCOD9019276
Probable space group: P -1
;
_chemical_formula_sum "Si O2"
_cell_formula_units_Z 16
_cell_length_a 17.492556
_cell_length_b 9.805176
_cell_length_c 5.051554
_cell_angle_alpha 111.645485
_cell_angle_beta 116.894087
_cell_angle_gamma 59.607611
_cell_volume 655.401649
_symmetry_space_group_name_H-M "P -1"
_symmetry_group_IT_number 2
_symmetry_cell_setting 'triclinic'
loop_
_space_group_symop_operation_xyz
x,y,z
-x,-y,-z
loop_
_atom_site_type_symbol
_atom_site_label
_atom_site_fract_x
_atom_site_fract_y
_atom_site_fract_z
Si Si1 0.753997 0.268204 0.813223
Si Si2 0.534976 0.814295 0.235791
Si Si3 0.186771 0.942158 0.771139
Si Si4 0.290768 0.377882 0.912893
Si Si5 0.942533 0.715049 0.356282
Si Si6 0.459814 0.612268 0.271394
Si Si7 0.347343 0.068050 0.137922
Si Si8 0.120102 0.417868 0.335474
O O1 0.773387 0.175943 0.500554
O O2 0.651691 0.302572 0.801516
O O3 0.824899 0.155320 0.065008
O O4 0.751656 0.445420 0.901093
O O5 0.604909 0.669189 0.066909
O O6 0.502685 0.743228 0.387852
O O7 0.600221 0.900972 0.502858
O O8 0.436933 0.930307 0.033787
O O9 0.096488 0.099100 0.649580
O O10 0.265137 0.010290 0.017474
O O11 0.223551 0.384901 0.567353
O O12 0.304128 0.230266 0.017948
O O13 0.914424 0.684438 0.585633
O O14 0.052172 0.604539 0.408776
O O15 0.894996 0.632344 0.017336
O O16 0.500000 0.500000 0.500000
O O17 0.500000 0.500000 0.000000
#
# Coordination Sequence:
#
# PCOD9019276 Si02
#       8
#     2   2   2   2   2   2   2   2
#     4  12  28  42  67  97 140 183 229 271 348 406
#     4  11  25  42  67  99 132 181 232 294 331 396
#     4  12  25  46  68  99 138 182 226 282 336 413
#     4  12  25  43  68 101 136 179 228 288 336 409
#     4  10  21  44  70 107 133 175 221 286 341 408
#     4  12  24  44  64  91 134 183 227 277 332 401
#     4  11  25  42  67  96 132 176 231 286 336 390
#     4  10  22  40  76 104 135 170 228 280 347 401
#
# _framework density 24.412509
#
# number of rings (size 3 to 8) (size 9 to 14) (size 15 to 20)
#    0.000    0.750    3.750    3.375    3.500    0.000 
#    0.000    1.250    0.000    0.000    0.000    0.000 
#    0.000    0.000    0.000    0.000    0.000    0.000 
#
# Total GULP energy -89614.301679 kJ/mol
# GULP energy per Si atom -5600.893855 kJ/mol
# Density = 2.435695 g / cm^3
# Si number density = 24.412509 Si / 1000 Ang^3
#
#
#
# Elastic Constant Matrix: (Units=GPa)
#
#
# Indices 1 2 3 4 5 6 
#
# 1 43.1374 24.7455 9.3063 -9.8981 0.6272 -13.7225
# 2 24.7455 186.4646 30.9623 -24.6535 6.4531 -3.1948
# 3 9.3063 30.9623 84.6603 -10.3270 -9.6790 7.5644
# 4 -9.8981 -24.6535 -10.3270 42.5997 -3.5160 2.6831
# 5 0.6272 6.4531 -9.6790 -3.5160 27.9476 -9.8406
# 6 -13.7225 -3.1948 7.5644 2.6831 -9.8406 42.4059
#
#
#
# Elastic Compliance Matrix: (Units=1/GPa)
#
#
# Indices 1 2 3 4 5 6 
#
# 1 0.029522 -0.002934 -0.002177 0.004270 0.003404 0.010241
# 2 -0.002934 0.006452 -0.001901 0.002471 -0.002037 -0.000753
# 3 -0.002177 -0.001901 0.013773 0.002270 0.004714 -0.002354
# 4 0.004270 0.002471 0.002270 0.026724 0.003589 0.000305
# 5 0.003404 -0.002037 0.004714 0.003589 0.041618 0.009538
# 6 0.010241 -0.000753 -0.002354 0.000305 0.009538 0.029453
#
#
# Mechanical properties :
#
#
# Convention : Reuss Voigt Hill
#
# Bulk Modulus (GPa) = 27.99388 49.36561 38.67975
# Shear Modulus (GPa) = 28.82267 39.20720 34.01493
#
# Velocity S-wave (km/s) = 3.43979 4.01188 3.73680
# Velocity P-wave (km/s) = 5.22189 6.45953 5.87340
#
# Compressibility (1/GPa) = 0.03572209
#
# Stress axis : x y z
#
# Youngs Moduli (GPa) = 33.87254 154.98287 72.60655
#
# Poissons Ratio (x) = 0.45475 0.15808
# Poissons Ratio (y) = 0.09939 0.13806
# Poissons Ratio (z) = 0.07375 0.29469
#
# Static dielectric constant tensor:
#      x y z
#    x 1.926040 -0.020090 -0.004900 
#    y -0.020090 1.988340 0.037270 
#    z -0.004900 0.037270 1.919590 
# 
# From -- ./inp_files/117280.got.cif
#   From: 2010.05.17/outbox.cif.g08.bks.cpg/sg2_59_cif.got.tgz:117280.got - 2010.06.03 11:33:40.
