data_PCOD9019307
_publ_section_title
;
Structure prediction by ZEFSAII (Michael W. Deem and Ramdas Pophale) SiO2 
 PCOD9019307
Probable space group: P -1
;
_chemical_formula_sum "Si O2"
_cell_formula_units_Z 16
_cell_length_a 12.888055
_cell_length_b 7.752823
_cell_length_c 15.649149
_cell_angle_alpha 126.761706
_cell_angle_beta 34.718243
_cell_angle_gamma 128.078234
_cell_volume 686.248648
_symmetry_space_group_name_H-M "P -1"
_symmetry_group_IT_number 2
_symmetry_cell_setting 'triclinic'
loop_
_space_group_symop_operation_xyz
x,y,z
-x,-y,-z
loop_
_atom_site_type_symbol
_atom_site_label
_atom_site_fract_x
_atom_site_fract_y
_atom_site_fract_z
Si Si1 0.690799 0.849678 0.641783
Si Si2 0.694645 0.157518 0.879043
Si Si3 0.813004 0.490586 0.570630
Si Si4 0.218335 0.105629 0.865688
Si Si5 0.551463 0.573066 0.082526
Si Si6 0.647318 0.555878 0.272014
Si Si7 0.900341 0.719686 0.311079
Si Si8 0.275939 0.713608 0.599348
O O1 0.797397 0.704937 0.587248
O O2 0.471188 0.702222 0.739012
O O3 0.784756 0.856464 0.487049
O O4 0.712840 0.078003 0.745524
O O5 0.881456 0.144464 0.799099
O O6 0.673698 0.404071 0.973994
O O7 0.500000 0.000000 0.000000
O O8 0.637303 0.460688 0.744188
O O9 0.778474 0.291006 0.464756
O O10 0.000000 0.500000 0.500000
O O11 0.325578 0.178897 0.903768
O O12 0.265551 0.324258 0.838158
O O13 0.290162 0.931115 0.708672
O O14 0.000000 0.000000 0.000000
O O15 0.500000 0.500000 0.000000
O O16 0.804026 0.626885 0.259803
O O17 0.475604 0.655019 0.448280
O O18 0.877420 0.492474 0.314051
#
# Coordination Sequence:
#
# PCOD9019307 Si02
#       8
#     2   2   2   2   2   2   2   2
#     4  10  21  44  71  98 134 175 223 284 328 399
#     4  12  24  45  64  95 143 176 218 274 339 395
#     4  10  22  42  72  99 133 175 228 273 340 395
#     4  12  25  44  66  99 137 177 222 275 341 397
#     4  12  28  45  65  99 138 180 223 281 336 398
#     4  10  21  44  70  97 131 169 228 271 334 395
#     4  10  23  41  71 100 127 174 225 272 333 403
#     4  10  22  44  73  95 136 172 224 289 327 396
#
# _framework density 23.315162999999998
#
# number of rings (size 3 to 8) (size 9 to 14) (size 15 to 20)
#    0.000    1.500    3.750    3.000    5.250    4.000 
#    0.000    4.375    0.000    0.000    0.000    0.000 
#    0.000    0.000    0.000    0.000    0.000    0.000 
#
# Total GULP energy -89477.630931 kJ/mol
# GULP energy per Si atom -5592.351933 kJ/mol
# Density = 2.326210 g / cm^3
# Si number density = 23.315163 Si / 1000 Ang^3
#
#
#
# Elastic Constant Matrix: (Units=GPa)
#
#
# Indices 1 2 3 4 5 6 
#
# 1 112.4577 36.8392 51.4304 5.9774 17.3778 49.8386
# 2 36.8392 73.5577 58.3087 11.5729 2.5208 34.0335
# 3 51.4304 58.3087 93.7993 12.1565 12.8096 27.1492
# 4 5.9774 11.5729 12.1565 53.7013 21.5185 8.6170
# 5 17.3778 2.5208 12.8096 21.5185 33.6119 0.7316
# 6 49.8386 34.0335 27.1492 8.6170 0.7316 41.4538
#
#
#
# Elastic Compliance Matrix: (Units=1/GPa)
#
#
# Indices 1 2 3 4 5 6 
#
# 1 0.030215 0.010715 -0.010481 0.010448 -0.018247 -0.040110
# 2 0.010715 0.039955 -0.021645 -0.000008 0.000404 -0.031515
# 3 -0.010481 -0.021645 0.026522 -0.001298 -0.002524 0.013316
# 4 0.010448 -0.000008 -0.001298 0.030105 -0.023798 -0.017542
# 5 -0.018247 0.000404 -0.002524 -0.023798 0.054760 0.027240
# 6 -0.040110 -0.031515 0.013316 -0.017542 0.027240 0.092664
#
#
# Mechanical properties :
#
#
# Convention : Reuss Voigt Hill
#
# Bulk Modulus (GPa) = 18.56299 63.66347 41.11323
# Shear Modulus (GPa) = 14.92542 34.63582 24.78062
#
# Velocity S-wave (km/s) = 2.53288 3.85846 3.26368
# Velocity P-wave (km/s) = 4.06608 6.87133 5.64572
#
# Compressibility (1/GPa) = 0.05387064
#
# Stress axis : x y z
#
# Youngs Moduli (GPa) = 33.09579 25.02826 37.70501
#
# Poissons Ratio (x) = -0.26818 0.39518
# Poissons Ratio (y) = -0.35462 0.81611
# Poissons Ratio (z) = 0.34687 0.54173
#
# Static dielectric constant tensor:
#      x y z
#    x 1.955240 0.024880 0.013430 
#    y 0.024880 1.985170 0.045130 
#    z 0.013430 0.045130 1.848270 
# 
# From -- ./inp_files/516214.got.cif
#   From: 2010.05.17/outbox.cif.g08.bks.cpg/sg2_259_cif.got.tgz:516214.got - 2010.06.03 11:33:40.
