data_PCOD9019815
_publ_section_title
;
Structure prediction by ZEFSAII (Michael W. Deem and Ramdas Pophale) SiO2 
 PCOD9019815
Probable space group: P -1
;
_chemical_formula_sum "Si O2"
_cell_formula_units_Z 13
_cell_length_a 7.877703
_cell_length_b 8.886249
_cell_length_c 13.311644
_cell_angle_alpha 54.109371
_cell_angle_beta 46.831406
_cell_angle_gamma 44.477609
_cell_volume 467.325652
_symmetry_space_group_name_H-M "P -1"
_symmetry_group_IT_number 2
_symmetry_cell_setting 'triclinic'
loop_
_space_group_symop_operation_xyz
x,y,z
-x,-y,-z
loop_
_atom_site_type_symbol
_atom_site_label
_atom_site_fract_x
_atom_site_fract_y
_atom_site_fract_z
Si Si1 0.826375 0.922631 0.537943
Si Si2 0.938196 0.594977 0.874500
Si Si3 0.956166 0.123996 0.743923
Si Si4 0.528820 0.684712 0.746068
Si Si5 0.557248 0.378340 0.415309
Si Si6 0.153231 0.736687 0.055707
Si Si7 0.500000 0.000000 0.000000
O O1 0.742946 0.752141 0.670265
O O2 0.994955 0.824119 0.407000
O O3 0.561148 0.158998 0.527597
O O4 0.000000 0.000000 0.500000
O O5 0.006364 0.375275 0.876088
O O6 0.149832 0.656166 0.722634
O O7 0.000000 0.500000 0.000000
O O8 0.633493 0.806098 0.929894
O O9 0.851399 0.295457 0.810121
O O10 0.736785 0.050206 0.860945
O O11 0.252496 0.917838 0.734661
O O12 0.582193 0.564343 0.662663
O O13 0.403639 0.639776 0.913149
O O14 0.500000 0.500000 0.500000
O O15 0.000000 0.000000 0.000000
#
# Coordination Sequence:
#
# PCOD9019815 Si02
#       7
#     2   2   2   2   2   2   1
#     4  11  25  45  70 102 144 198 249 306 377 450
#     4  12  24  46  74 111 153 194 257 312 386 451
#     4  10  22  42  67 105 137 192 242 306 371 442
#     4  10  21  45  69 103 145 193 248 301 386 452
#     4  11  24  43  71 110 142 198 252 308 382 453
#     4  10  22  40  72 107 140 192 244 307 376 448
#     4  12  24  44  76 104 156 186 260 308 372 456
#
# _framework density 27.817862999999999
#
# number of rings (size 3 to 8) (size 9 to 14) (size 15 to 20)
#    0.000    1.231    4.615    2.769    8.615    1.846 
#    0.000    0.769    0.000    0.000    0.000    0.000 
#    0.000    0.000    0.000    0.000    0.000    0.000 
#
# Total GULP energy -72382.452033 kJ/mol
# GULP energy per Si atom -5567.880926 kJ/mol
# Density = 2.775455 g / cm^3
# Si number density = 27.817863 Si / 1000 Ang^3
#
#
#
# Elastic Constant Matrix: (Units=GPa)
#
#
# Indices 1 2 3 4 5 6 
#
# 1 104.3510 15.0523 39.6618 -0.2709 34.1122 37.4176
# 2 15.0523 127.3668 27.9832 33.3096 23.8772 40.1198
# 3 39.6618 27.9832 123.5173 3.6079 13.0121 6.5562
# 4 -0.2709 33.3096 3.6079 73.1926 21.1307 5.1328
# 5 34.1122 23.8772 13.0121 21.1307 69.5259 1.8010
# 6 37.4176 40.1198 6.5562 5.1328 1.8010 43.3671
#
#
#
# Elastic Compliance Matrix: (Units=1/GPa)
#
#
# Indices 1 2 3 4 5 6 
#
# 1 0.028261 0.011352 -0.008258 0.002314 -0.016061 -0.033244
# 2 0.011352 0.018224 -0.005384 -0.003611 -0.009075 -0.025036
# 3 -0.008258 -0.005384 0.011047 0.000137 0.003525 0.010273
# 4 0.002314 -0.003611 0.000137 0.016786 -0.005011 -0.000455
# 5 -0.016061 -0.009075 0.003525 -0.005011 0.025693 0.021246
# 6 -0.033244 -0.025036 0.010273 -0.000455 0.021246 0.072523
#
#
# Mechanical properties :
#
#
# Convention : Reuss Voigt Hill
#
# Bulk Modulus (GPa) = 18.88434 57.84774 38.36604
# Shear Modulus (GPa) = 25.67216 55.38629 40.52923
#
# Velocity S-wave (km/s) = 3.04117 4.46694 3.82114
# Velocity P-wave (km/s) = 4.37435 6.88804 5.76975
#
# Compressibility (1/GPa) = 0.05295394
#
# Stress axis : x y z
#
# Youngs Moduli (GPa) = 35.38428 54.87141 90.52565
#
# Poissons Ratio (x) = -0.62290 0.74752
# Poissons Ratio (y) = -0.40168 0.48735
# Poissons Ratio (z) = 0.29219 0.29540
#
# Static dielectric constant tensor:
#      x y z
#    x 2.166140 -0.198190 0.139660 
#    y -0.198190 2.460990 -0.085870 
#    z 0.139660 -0.085870 2.042980 
# 
# From -- ./inp_files/492212.got.cif
#   From: 2010.05.17/outbox.cif.g08.bks.cpg/sg2_247_cif.got.tgz:492212.got - 2010.06.03 11:33:40.
