data_PCOD9019812
_publ_section_title
;
Structure prediction by ZEFSAII (Michael W. Deem and Ramdas Pophale) SiO2 
 PCOD9019812
Probable space group: P -1
;
_chemical_formula_sum "Si O2"
_cell_formula_units_Z 14
_cell_length_a 7.792969
_cell_length_b 5.232147
_cell_length_c 18.339389
_cell_angle_alpha 53.553441
_cell_angle_beta 68.800111
_cell_angle_gamma 63.790352
_cell_volume 534.541821
_symmetry_space_group_name_H-M "P -1"
_symmetry_group_IT_number 2
_symmetry_cell_setting 'triclinic'
loop_
_space_group_symop_operation_xyz
x,y,z
-x,-y,-z
loop_
_atom_site_type_symbol
_atom_site_label
_atom_site_fract_x
_atom_site_fract_y
_atom_site_fract_z
Si Si1 0.596850 0.742528 0.143041
Si Si2 0.087346 0.613173 0.392130
Si Si3 0.830967 0.225714 0.085080
Si Si4 0.511654 0.608473 0.561048
Si Si5 0.204516 0.708302 0.701397
Si Si6 0.320852 0.399065 0.080423
Si Si7 0.878626 0.379410 0.784520
O O1 0.709516 0.575717 0.082171
O O2 0.632474 0.416654 0.241873
O O3 0.707419 0.971076 0.129981
O O4 0.383896 0.000687 0.128139
O O5 0.294294 0.615934 0.391558
O O6 0.149076 0.505689 0.315513
O O7 0.000000 0.500000 0.500000
O O8 0.896038 0.905390 0.351389
O O9 0.862020 0.366806 0.976232
O O10 0.001621 0.006437 0.147705
O O11 0.500000 0.500000 0.500000
O O12 0.318657 0.579476 0.632657
O O13 0.500000 0.000000 0.500000
O O14 0.022986 0.575406 0.759660
O O15 0.297048 0.488841 0.153748
O O16 0.500000 0.500000 0.000000
#
# Coordination Sequence:
#
# PCOD9019812 Si02
#       7
#     2   2   2   2   2   2   2
#     4  10  22  42  69 105 149 193 250 315 371 456
#     4  12  26  49  79 109 155 206 255 322 392 467
#     4  10  21  45  69 102 149 199 249 313 382 449
#     4  12  29  48  77 110 149 200 258 324 392 462
#     4  11  26  47  72 111 155 198 264 318 385 466
#     4  10  23  44  72 112 152 207 258 322 388 461
#     4  11  25  47  75 111 157 206 263 324 387 467
#
# _framework density 26.190656000000001
#
# number of rings (size 3 to 8) (size 9 to 14) (size 15 to 20)
#    0.000    1.143    2.857    1.714    4.000    3.429 
#    5.143    4.286    0.000    0.000    0.000    0.000 
#    0.000    0.000    0.000    0.000    0.000    0.000 
#
# Total GULP energy -78055.841179 kJ/mol
# GULP energy per Si atom -5575.417227 kJ/mol
# Density = 2.613104 g / cm^3
# Si number density = 26.190656 Si / 1000 Ang^3
#
#
#
# Elastic Constant Matrix: (Units=GPa)
#
#
# Indices 1 2 3 4 5 6 
#
# 1 94.6694 42.7134 19.7477 6.8568 17.0800 -15.8589
# 2 42.7134 137.6519 54.9717 17.2012 13.9860 -2.4633
# 3 19.7477 54.9717 158.6370 18.0365 24.6338 -1.0600
# 4 6.8568 17.2012 18.0365 62.6919 -8.8605 2.1556
# 5 17.0800 13.9860 24.6338 -8.8605 39.5722 13.7916
# 6 -15.8589 -2.4633 -1.0600 2.1556 13.7916 31.0592
#
#
#
# Elastic Compliance Matrix: (Units=1/GPa)
#
#
# Indices 1 2 3 4 5 6 
#
# 1 0.016954 -0.003956 0.001751 -0.003576 -0.012808 0.014338
# 2 -0.003956 0.009727 -0.002749 -0.001383 0.000125 -0.001302
# 3 0.001751 -0.002749 0.008562 -0.003094 -0.007358 0.004451
# 4 -0.003576 -0.001383 -0.003094 0.019489 0.011245 -0.008387
# 5 -0.012808 0.000125 -0.007358 0.011245 0.047901 -0.028832
# 6 0.014338 -0.001302 0.004451 -0.008387 -0.028832 0.052951
#
#
# Mechanical properties :
#
#
# Convention : Reuss Voigt Hill
#
# Bulk Modulus (GPa) = 39.46779 69.53599 54.50189
# Shear Modulus (GPa) = 28.74610 44.89968 36.82289
#
# Velocity S-wave (km/s) = 3.31655 4.14495 3.75367
# Velocity P-wave (km/s) = 5.45602 7.03669 6.29616
#
# Compressibility (1/GPa) = 0.02533712
#
# Stress axis : x y z
#
# Youngs Moduli (GPa) = 58.98262 102.80913 116.78980
#
# Poissons Ratio (x) = 0.40666 -0.20455
# Poissons Ratio (y) = 0.23331 0.32106
# Poissons Ratio (z) = -0.10330 0.28262
#
# Static dielectric constant tensor:
#      x y z
#    x 1.291890 -0.213040 -1.087100 
#    y -0.213040 2.205140 -0.309370 
#    z -1.087100 -0.309370 0.843100 
# 
# From -- ./inp_files/553242.got.cif
#   From: 2010.05.17/outbox.cif.g08.bks.cpg/sg2_277_cif.got.tgz:553242.got - 2010.06.03 11:33:40.
