data_PCOD9019208
_publ_section_title
;
Structure prediction by ZEFSAII (Michael W. Deem and Ramdas Pophale) SiO2 
 PCOD9019208
Probable space group: P -1
;
_chemical_formula_sum "Si O2"
_cell_formula_units_Z 16
_cell_length_a 11.802034
_cell_length_b 11.463596
_cell_length_c 12.453811
_cell_angle_alpha 62.138733
_cell_angle_beta 45.292349
_cell_angle_gamma 98.167284
_cell_volume 701.037413
_symmetry_space_group_name_H-M "P -1"
_symmetry_group_IT_number 2
_symmetry_cell_setting 'triclinic'
loop_
_space_group_symop_operation_xyz
x,y,z
-x,-y,-z
loop_
_atom_site_type_symbol
_atom_site_label
_atom_site_fract_x
_atom_site_fract_y
_atom_site_fract_z
Si Si1 0.904379 0.580622 0.073278
Si Si2 0.841336 0.029478 0.620076
Si Si3 0.023453 0.600063 0.553724
Si Si4 0.465376 0.131784 0.924846
Si Si5 0.152563 0.948861 0.021002
Si Si6 0.716810 0.998003 0.473486
Si Si7 0.212655 0.723521 0.997687
Si Si8 0.339908 0.233953 0.571352
O O1 0.623183 0.434969 0.307629
O O2 0.000000 0.500000 0.000000
O O3 0.071829 0.790190 0.813476
O O4 0.981479 0.621249 0.127534
O O5 0.763432 0.030229 0.554932
O O6 0.958237 0.227319 0.524032
O O7 0.000000 0.000000 0.500000
O O8 0.607759 0.844467 0.925197
O O9 0.000000 0.500000 0.500000
O O10 0.280189 0.698497 0.376750
O O11 0.828828 0.436499 0.842718
O O12 0.267249 0.069826 0.002754
O O13 0.500000 0.000000 0.000000
O O14 0.239708 0.852970 0.011611
O O15 0.265764 0.086641 0.780408
O O16 0.865775 0.783328 0.275960
O O17 0.440649 0.874612 0.702651
O O18 0.706164 0.855737 0.476753
#
# Coordination Sequence:
#
# PCOD9019208 Si02
#       8
#     2   2   2   2   2   2   2   2
#     4  12  23  41  67 101 135 183 235 280 357 425
#     4  11  24  44  70  99 141 189 234 298 362 419
#     4  11  23  42  70 106 137 186 248 293 352 431
#     4  10  21  44  69  94 137 189 239 287 349 429
#     4  11  23  44  68  99 141 186 233 292 359 420
#     4  12  24  44  68 101 142 181 235 293 355 426
#     4  12  22  41  69 100 136 180 237 297 345 424
#     4  11  25  44  67 101 146 184 230 295 363 432
#
# _framework density 22.823319000000001
#
# number of rings (size 3 to 8) (size 9 to 14) (size 15 to 20)
#    0.000    0.750    2.500    7.125    0.000    0.500 
#    4.500    2.500    0.000    0.000    0.000    0.000 
#    0.000    0.000    0.000    0.000    0.000    0.000 
#
# Total GULP energy -89131.325861 kJ/mol
# GULP energy per Si atom -5570.707866 kJ/mol
# Density = 2.277137 g / cm^3
# Si number density = 22.823319 Si / 1000 Ang^3
#
#
#
# Elastic Constant Matrix: (Units=GPa)
#
#
# Indices 1 2 3 4 5 6 
#
# 1 54.2555 18.1951 22.1372 1.9156 -10.6966 11.1147
# 2 18.1951 86.7313 32.0282 16.3906 -7.3246 3.7187
# 3 22.1372 32.0282 152.5700 -0.0668 -19.4269 -11.0090
# 4 1.9156 16.3906 -0.0668 34.8939 2.6836 -2.7722
# 5 -10.6966 -7.3246 -19.4269 2.6836 43.5364 10.6686
# 6 11.1147 3.7187 -11.0090 -2.7722 10.6686 32.2139
#
#
#
# Elastic Compliance Matrix: (Units=1/GPa)
#
#
# Indices 1 2 3 4 5 6 
#
# 1 0.024349 -0.002633 -0.002903 -0.001580 0.007185 -0.011605
# 2 -0.002633 0.014699 -0.002690 -0.007133 0.001778 -0.002911
# 3 -0.002903 -0.002690 0.007986 0.001628 0.001385 0.003723
# 4 -0.001580 -0.007133 0.001628 0.032933 -0.004417 0.006221
# 5 0.007185 0.001778 0.001385 -0.004417 0.028905 -0.012164
# 6 -0.011605 -0.002911 0.003723 0.006221 -0.012164 0.041218
#
#
# Mechanical properties :
#
#
# Convention : Reuss Voigt Hill
#
# Bulk Modulus (GPa) = 32.70089 48.69754 40.69921
# Shear Modulus (GPa) = 28.29082 36.87524 32.58303
#
# Velocity S-wave (km/s) = 3.52455 4.02392 3.78249
# Velocity P-wave (km/s) = 5.56078 6.55532 6.07843
#
# Compressibility (1/GPa) = 0.03058021
#
# Stress axis : x y z
#
# Youngs Moduli (GPa) = 41.07022 68.03329 125.21784
#
# Poissons Ratio (x) = 0.17913 0.36355
# Poissons Ratio (y) = 0.10814 0.33687
# Poissons Ratio (z) = 0.11924 0.18303
#
# Static dielectric constant tensor:
#      x y z
#    x 1.821250 0.021910 -0.041980 
#    y 0.021910 1.994360 -0.088340 
#    z -0.041980 -0.088340 1.911820 
# 
# From -- ./inp_files/427961.got.cif
#   From: 2010.05.17/outbox.cif.g08.bks.cpg/sg2_214_cif.got.tgz:427961.got - 2010.06.03 11:33:40.
