data_PCOD9019902
_publ_section_title
;
Structure prediction by ZEFSAII (Michael W. Deem and Ramdas Pophale) SiO2 
 PCOD9019902
Probable space group: P -1
;
_chemical_formula_sum "Si O2"
_cell_formula_units_Z 12
_cell_length_a 15.265188
_cell_length_b 13.248324
_cell_length_c 8.720966
_cell_angle_alpha 130.936892
_cell_angle_beta 64.007298
_cell_angle_gamma 153.168490
_cell_volume 543.111614
_symmetry_space_group_name_H-M "P -1"
_symmetry_group_IT_number 2
_symmetry_cell_setting 'triclinic'
loop_
_space_group_symop_operation_xyz
x,y,z
-x,-y,-z
loop_
_atom_site_type_symbol
_atom_site_label
_atom_site_fract_x
_atom_site_fract_y
_atom_site_fract_z
Si Si1 0.806647 0.765595 0.033850
Si Si2 0.549943 0.159049 0.981497
Si Si3 0.709732 0.177107 0.453597
Si Si4 0.928758 0.636161 0.946637
Si Si5 0.341832 0.149278 0.634854
Si Si6 0.601838 0.771110 0.684392
O O1 0.832025 0.663501 0.011888
O O2 0.800441 0.894165 0.263286
O O3 0.583745 0.482317 0.831416
O O4 0.000000 0.000000 0.000000
O O5 0.354285 0.915903 0.766755
O O6 0.771385 0.390719 0.957208
O O7 0.555124 0.314038 0.200952
O O8 0.500000 0.000000 0.000000
O O9 0.500000 0.000000 0.500000
O O10 0.724457 0.056675 0.414433
O O11 0.901139 0.507542 0.690827
O O12 0.172364 0.948827 0.121375
O O13 0.349864 0.129733 0.429379
O O14 0.500000 0.500000 0.500000
#
# Coordination Sequence:
#
# PCOD9019902 Si02
#       6
#     2   2   2   2   2   2
#     4  11  24  42  72 100 134 187 234 276 350 413
#     4  11  25  45  73 103 142 182 229 292 355 409
#     4  10  21  45  71  97 139 182 229 288 342 411
#     4  11  25  47  69 103 144 183 233 288 345 421
#     4  11  24  44  69  99 142 178 232 293 336 414
#     4  12  27  44  70 106 143 183 234 288 351 411
#
# _framework density 22.094908
#
# number of rings (size 3 to 8) (size 9 to 14) (size 15 to 20)
#    0.000    1.000    3.333    4.000    4.667    7.333 
#    0.000    0.000    0.000    0.000    0.000    0.000 
#    0.000    0.000    0.000    0.000    0.000    0.000 
#
# Total GULP energy -67168.988389 kJ/mol
# GULP energy per Si atom -5597.415699 kJ/mol
# Density = 2.204462 g / cm^3
# Si number density = 22.094908 Si / 1000 Ang^3
#
#
#
# Elastic Constant Matrix: (Units=GPa)
#
#
# Indices 1 2 3 4 5 6 
#
# 1 68.5229 21.5415 46.0029 0.0688 -14.4282 -25.8631
# 2 21.5415 98.9313 29.2302 -3.2362 -2.1053 -12.3106
# 3 46.0029 29.2302 135.3202 -6.5490 -4.6659 -13.0557
# 4 0.0688 -3.2362 -6.5490 40.3713 3.7566 4.5357
# 5 -14.4282 -2.1053 -4.6659 3.7566 41.0172 1.1679
# 6 -25.8631 -12.3106 -13.0557 4.5357 1.1679 43.6493
#
#
#
# Elastic Compliance Matrix: (Units=1/GPa)
#
#
# Indices 1 2 3 4 5 6 
#
# 1 0.027001 -0.001982 -0.007344 -0.003694 0.008518 0.013399
# 2 -0.001982 0.011201 -0.001593 0.000515 -0.000392 0.001465
# 3 -0.007344 -0.001593 0.010078 0.001890 -0.001636 -0.001939
# 4 -0.003694 0.000515 0.001890 0.025891 -0.003313 -0.004080
# 5 0.008518 -0.000392 -0.001636 -0.003313 0.027358 0.004059
# 6 0.013399 0.001465 -0.001939 -0.004080 0.004059 0.030998
#
#
# Mechanical properties :
#
#
# Convention : Reuss Voigt Hill
#
# Bulk Modulus (GPa) = 37.81551 55.14707 46.48129
# Shear Modulus (GPa) = 30.64118 38.74089 34.69104
#
# Velocity S-wave (km/s) = 3.72801 4.19189 3.96674
# Velocity P-wave (km/s) = 5.97352 6.96007 6.48558
#
# Compressibility (1/GPa) = 0.02644417
#
# Stress axis : x y z
#
# Youngs Moduli (GPa) = 37.03515 89.27728 99.22148
#
# Poissons Ratio (x) = 0.17693 0.72863
# Poissons Ratio (y) = 0.07340 0.15806
# Poissons Ratio (z) = 0.27197 0.14222
#
# Static dielectric constant tensor:
#      x y z
#    x 1.794570 0.001450 -0.021060 
#    y 0.001450 1.887950 0.006370 
#    z -0.021060 0.006370 1.828120 
# 
# From -- ./inp_files/158137.got.cif
#   From: 2010.05.17/outbox.cif.g08.bks.cpg/sg2_80_cif.got.tgz:158137.got - 2010.06.03 11:33:40.
