data_PCOD9019686
_publ_section_title
;
Structure prediction by ZEFSAII (Michael W. Deem and Ramdas Pophale) SiO2 
 PCOD9019686
Probable space group: P -1
;
_chemical_formula_sum "Si O2"
_cell_formula_units_Z 16
_cell_length_a 6.547472
_cell_length_b 19.369418
_cell_length_c 15.084216
_cell_angle_alpha 157.205461
_cell_angle_beta 90.556289
_cell_angle_gamma 77.544660
_cell_volume 626.777367
_symmetry_space_group_name_H-M "P -1"
_symmetry_group_IT_number 2
_symmetry_cell_setting 'triclinic'
loop_
_space_group_symop_operation_xyz
x,y,z
-x,-y,-z
loop_
_atom_site_type_symbol
_atom_site_label
_atom_site_fract_x
_atom_site_fract_y
_atom_site_fract_z
Si Si1 0.063994 0.170598 0.620331
Si Si2 0.772256 0.012946 0.900193
Si Si3 0.431889 0.400741 0.634095
Si Si4 0.501674 0.759804 0.112598
Si Si5 0.691263 0.782763 0.953217
Si Si6 0.212180 0.674356 0.611284
Si Si7 0.120569 0.954064 0.681990
Si Si8 0.043099 0.482337 0.846015
O O1 0.120626 0.297753 0.698203
O O2 0.922826 0.083077 0.462566
O O3 0.311325 0.964232 0.407646
O O4 0.924251 0.341539 0.897658
O O5 0.506157 0.063953 0.939029
O O6 0.747975 0.230885 0.188038
O O7 0.943672 0.843594 0.773572
O O8 0.927796 0.940285 0.725298
O O9 0.585945 0.337112 0.468878
O O10 0.617248 0.235204 0.511143
O O11 0.182876 0.416760 0.675271
O O12 0.389849 0.626789 0.922664
O O13 0.562119 0.829980 0.103929
O O14 0.756352 0.599404 0.969066
O O15 0.767951 0.547745 0.649060
O O16 0.892008 0.836113 0.037514
#
# Coordination Sequence:
#
# PCOD9019686 Si02
#       8
#     2   2   2   2   2   2   2   2
#     4  11  24  46  66  95 130 171 217 273 317 388
#     4  10  21  45  66  93 137 167 212 273 311 381
#     4  10  23  42  66  95 130 169 211 271 322 387
#     4  11  23  43  65  98 128 169 218 268 320 387
#     4  11  23  38  68  96 130 173 209 262 326 382
#     4   9  22  43  69  96 132 167 218 265 317 382
#     4  11  23  42  65  96 132 172 216 259 331 381
#     4  11  25  45  67  92 131 170 218 272 326 373
#
# _framework density 25.527405999999999
#
# number of rings (size 3 to 8) (size 9 to 14) (size 15 to 20)
#    0.000    1.500    2.500    1.500    1.750    1.500 
#    2.250    8.125    0.000    0.000    0.000    0.000 
#    0.000    0.000    0.000    0.000    0.000    0.000 
#
# Total GULP energy -89549.360065 kJ/mol
# GULP energy per Si atom -5596.835004 kJ/mol
# Density = 2.546930 g / cm^3
# Si number density = 25.527406 Si / 1000 Ang^3
#
#
#
# Elastic Constant Matrix: (Units=GPa)
#
#
# Indices 1 2 3 4 5 6 
#
# 1 92.1150 21.3634 21.4766 -0.7776 11.2230 -1.9749
# 2 21.3634 36.4703 8.5271 0.5831 -0.5481 -7.0401
# 3 21.4766 8.5271 116.7944 0.3670 6.2535 -7.2181
# 4 -0.7776 0.5831 0.3670 41.6789 -9.2147 2.7534
# 5 11.2230 -0.5481 6.2535 -9.2147 31.7841 -11.9262
# 6 -1.9749 -7.0401 -7.2181 2.7534 -11.9262 40.4332
#
#
#
# Elastic Compliance Matrix: (Units=1/GPa)
#
#
# Indices 1 2 3 4 5 6 
#
# 1 0.013862 -0.008318 -0.001794 -0.000740 -0.005949 -0.002796
# 2 -0.008318 0.033985 -0.000853 0.000337 0.006511 0.007256
# 3 -0.001794 -0.000853 0.009072 -0.000363 -0.000836 0.001162
# 4 -0.000740 0.000337 -0.000363 0.025710 0.008005 0.000568
# 5 -0.005949 0.006511 -0.000836 0.008005 0.040723 0.012161
# 6 -0.002796 0.007256 0.001162 0.000568 0.012161 0.029615
#
#
# Mechanical properties :
#
#
# Convention : Reuss Voigt Hill
#
# Bulk Modulus (GPa) = 28.57998 38.67932 33.62965
# Shear Modulus (GPa) = 26.80137 35.71344 31.25741
#
# Velocity S-wave (km/s) = 3.24374 3.74441 3.50303
# Velocity P-wave (km/s) = 5.02486 5.82058 5.43729
#
# Compressibility (1/GPa) = 0.03498952
#
# Stress axis : x y z
#
# Youngs Moduli (GPa) = 72.14065 29.42518 110.23146
#
# Poissons Ratio (x) = 0.24475 0.19772
# Poissons Ratio (y) = 0.60005 0.09402
# Poissons Ratio (z) = 0.12939 0.02510
#
# Static dielectric constant tensor:
#      x y z
#    x 2.072780 -0.022760 0.031080 
#    y -0.022760 1.956340 0.048350 
#    z 0.031080 0.048350 1.999190 
# 
# From -- ./inp_files/52588.got.cif
#   From: 2010.05.17/outbox.cif.g08.bks.cpg/sg2_27_cif.got.tgz:52588.got - 2010.06.03 11:33:40.
