data_PCOD9019809
_publ_section_title
;
Structure prediction by ZEFSAII (Michael W. Deem and Ramdas Pophale) SiO2 
 PCOD9019809
Probable space group: P -1
;
_chemical_formula_sum "Si O2"
_cell_formula_units_Z 14
_cell_length_a 6.653008
_cell_length_b 19.630572
_cell_length_c 5.227756
_cell_angle_alpha 72.710195
_cell_angle_beta 69.652183
_cell_angle_gamma 53.019138
_cell_volume 507.832451
_symmetry_space_group_name_H-M "P -1"
_symmetry_group_IT_number 2
_symmetry_cell_setting 'triclinic'
loop_
_space_group_symop_operation_xyz
x,y,z
-x,-y,-z
loop_
_atom_site_type_symbol
_atom_site_label
_atom_site_fract_x
_atom_site_fract_y
_atom_site_fract_z
Si Si1 0.789542 0.471234 0.931507
Si Si2 0.143524 0.288994 0.198983
Si Si3 0.775001 0.619990 0.583833
Si Si4 0.629951 0.256654 0.714741
Si Si5 0.497659 0.957471 0.324061
Si Si6 0.042155 0.189498 0.975715
Si Si7 0.013323 0.925961 0.513975
O O1 0.777689 0.559488 0.872441
O O2 0.972136 0.433521 0.642427
O O3 0.500000 0.500000 0.000000
O O4 0.918340 0.388762 0.148346
O O5 0.234648 0.295280 0.428978
O O6 0.074784 0.226164 0.184010
O O7 0.389066 0.266378 0.950547
O O8 0.504730 0.662766 0.506309
O O9 0.804137 0.159123 0.644884
O O10 0.807855 0.263325 0.834557
O O11 0.292569 0.140657 0.741101
O O12 0.289083 0.040969 0.534574
O O13 0.210729 0.961912 0.417450
O O14 0.500000 0.000000 0.000000
O O15 0.977566 0.120605 0.171499
#
# Coordination Sequence:
#
# PCOD9019809 Si02
#       7
#     2   2   2   2   2   2   2
#     4  10  24  46  76 111 145 199 246 301 382 456
#     4  11  25  46  72 108 149 191 242 312 372 450
#     4  10  24  50  73 110 153 191 249 314 367 467
#     4  11  24  45  71 104 147 187 251 304 376 447
#     4  10  21  45  69 101 143 192 254 312 372 459
#     4  11  25  46  72 106 145 199 247 311 384 456
#     4  11  24  43  70 101 141 192 248 313 376 446
#
# _framework density 27.568145000000001
#
# number of rings (size 3 to 8) (size 9 to 14) (size 15 to 20)
#    0.000    1.429    1.429    2.143    4.000    3.429 
#   10.286    0.000    0.000    0.000    0.000    0.000 
#    0.000    0.000    0.000    0.000    0.000    0.000 
#
# Total GULP energy -78083.674855 kJ/mol
# GULP energy per Si atom -5577.405347 kJ/mol
# Density = 2.750540 g / cm^3
# Si number density = 27.568145 Si / 1000 Ang^3
#
#
#
# Elastic Constant Matrix: (Units=GPa)
#
#
# Indices 1 2 3 4 5 6 
#
# 1 155.7377 79.9541 60.4060 -9.3683 -18.6123 -14.7401
# 2 79.9541 151.8276 50.6030 1.0029 -5.0484 -9.4405
# 3 60.4060 50.6030 85.9953 1.9524 7.7996 6.2427
# 4 -9.3683 1.0029 1.9524 48.2224 5.7849 0.8031
# 5 -18.6123 -5.0484 7.7996 5.7849 37.6875 -2.9541
# 6 -14.7401 -9.4405 6.2427 0.8031 -2.9541 78.4270
#
#
#
# Elastic Compliance Matrix: (Units=1/GPa)
#
#
# Indices 1 2 3 4 5 6 
#
# 1 0.012411 -0.003659 -0.007451 0.001891 0.007105 0.002734
# 2 -0.003659 0.009629 -0.003160 -0.000834 0.000323 0.000744
# 3 -0.007451 -0.003160 0.019766 -0.001125 -0.008308 -0.003656
# 4 0.001891 -0.000834 -0.001125 0.021435 -0.002232 0.000041
# 5 0.007105 0.000323 -0.008308 -0.002232 0.032405 0.003279
# 6 0.002734 0.000744 -0.003656 0.000041 0.003279 0.013768
#
#
# Mechanical properties :
#
#
# Convention : Reuss Voigt Hill
#
# Bulk Modulus (GPa) = 75.37806 86.16519 80.77163
# Shear Modulus (GPa) = 35.11830 46.37387 40.74609
#
# Velocity S-wave (km/s) = 3.57301 4.10586 3.84866
# Velocity P-wave (km/s) = 6.66511 7.33489 7.00800
#
# Compressibility (1/GPa) = 0.01326646
#
# Stress axis : x y z
#
# Youngs Moduli (GPa) = 80.57428 103.85285 50.59126
#
# Poissons Ratio (x) = 0.37997 0.37694
# Poissons Ratio (y) = 0.29480 0.15989
# Poissons Ratio (z) = 0.60033 0.32822
#
# Static dielectric constant tensor:
#      x y z
#    x 2.433110 0.009550 0.133140 
#    y 0.009550 2.158500 -0.024210 
#    z 0.133140 -0.024210 2.223860 
# 
# From -- ./inp_files/10371.got.cif
#   From: 2010.05.17/outbox.cif.g08.bks.cpg/sg2_6_cif.got.tgz:10371.got - 2010.06.03 11:33:40.
