data_PCOD9019388
_publ_section_title
;
Structure prediction by ZEFSAII (Michael W. Deem and Ramdas Pophale) SiO2 
 PCOD9019388
Probable space group: P -1
;
_chemical_formula_sum "Si O2"
_cell_formula_units_Z 16
_cell_length_a 5.159024
_cell_length_b 13.869808
_cell_length_c 10.592766
_cell_angle_alpha 108.620768
_cell_angle_beta 91.217625
_cell_angle_gamma 84.580325
_cell_volume 715.041761
_symmetry_space_group_name_H-M "P -1"
_symmetry_group_IT_number 2
_symmetry_cell_setting 'triclinic'
loop_
_space_group_symop_operation_xyz
x,y,z
-x,-y,-z
loop_
_atom_site_type_symbol
_atom_site_label
_atom_site_fract_x
_atom_site_fract_y
_atom_site_fract_z
Si Si1 0.793150 0.546906 0.122514
Si Si2 0.020761 0.877500 0.460438
Si Si3 0.094070 0.532351 0.651736
Si Si4 0.493286 0.957016 0.123670
Si Si5 0.570992 0.665960 0.736301
Si Si6 0.530033 0.847304 0.613213
Si Si7 0.981915 0.168284 0.849502
Si Si8 0.581547 0.337196 0.999571
O O1 0.890009 0.552015 0.270284
O O2 0.608951 0.453838 0.090252
O O3 0.627448 0.646925 0.108419
O O4 0.000000 0.500000 0.000000
O O5 0.291195 0.841517 0.514030
O O6 0.006249 0.834951 0.302365
O O7 0.789039 0.849497 0.535250
O O8 0.000000 0.000000 0.500000
O O9 0.364934 0.584246 0.664893
O O10 0.000000 0.500000 0.500000
O O11 0.864368 0.615273 0.729414
O O12 0.228061 0.907339 0.134132
O O13 0.738649 0.874116 0.113398
O O14 0.516056 0.049598 0.261078
O O15 0.500000 0.000000 0.000000
O O16 0.553283 0.752436 0.667674
O O17 0.497306 0.712543 0.891943
O O18 0.851367 0.279041 0.934966
#
# Coordination Sequence:
#
# PCOD9019388 Si02
#       8
#     2   2   2   2   2   2   2   2
#     4  10  21  44  71  94 132 186 220 277 355 406
#     4  12  23  45  68  93 136 183 225 278 344 401
#     4  11  24  44  71 101 143 175 228 283 345 416
#     4  12  25  42  67  98 133 177 224 281 338 399
#     4  11  24  44  68 101 135 181 222 286 342 400
#     4  12  24  44  68  95 136 181 226 272 348 411
#     4  12  26  42  68 100 132 176 230 284 332 405
#     4  10  24  43  68 100 135 174 233 286 337 413
#
# _framework density 22.376318000000001
#
# number of rings (size 3 to 8) (size 9 to 14) (size 15 to 20)
#    0.000    0.750    3.750    3.375    1.750    4.000 
#    4.500    0.000    0.000    0.000    0.000    0.000 
#    0.000    0.000    0.000    0.000    0.000    0.000 
#
# Total GULP energy -89546.659903 kJ/mol
# GULP energy per Si atom -5596.666244 kJ/mol
# Density = 2.232539 g / cm^3
# Si number density = 22.376318 Si / 1000 Ang^3
#
#
#
# Elastic Constant Matrix: (Units=GPa)
#
#
# Indices 1 2 3 4 5 6 
#
# 1 123.8997 40.9123 56.1810 -32.4298 -20.6809 -16.3034
# 2 40.9123 91.2998 65.5280 -41.9394 -14.1357 -17.3219
# 3 56.1810 65.5280 196.1527 -41.8531 -14.4443 -20.6859
# 4 -32.4298 -41.9394 -41.8531 51.9117 0.2615 5.1600
# 5 -20.6809 -14.1357 -14.4443 0.2615 40.5900 5.7228
# 6 -16.3034 -17.3219 -20.6859 5.1600 5.7228 47.8589
#
#
#
# Elastic Compliance Matrix: (Units=1/GPa)
#
#
# Indices 1 2 3 4 5 6 
#
# 1 0.011312 -0.000541 -0.001372 0.005309 0.004782 0.001921
# 2 -0.000541 0.021585 -0.003225 0.014069 0.005430 0.004068
# 3 -0.001372 -0.003225 0.007210 0.002230 0.000564 0.001174
# 4 0.005309 0.014069 0.002230 0.035395 0.007729 0.003124
# 5 0.004782 0.005430 0.000564 0.007729 0.029183 -0.000485
# 6 0.001921 0.004068 0.001174 0.003124 -0.000485 0.023250
#
#
# Mechanical properties :
#
#
# Convention : Reuss Voigt Hill
#
# Bulk Modulus (GPa) = 33.52268 81.84387 57.68328
# Shear Modulus (GPa) = 33.74850 44.65417 39.20133
#
# Velocity S-wave (km/s) = 3.88780 4.47206 4.19013
# Velocity P-wave (km/s) = 5.93019 7.95747 7.01742
#
# Compressibility (1/GPa) = 0.02983055
#
# Stress axis : x y z
#
# Youngs Moduli (GPa) = 88.40019 46.32795 138.70368
#
# Poissons Ratio (x) = 0.02507 0.19027
# Poissons Ratio (y) = 0.04784 0.44736
# Poissons Ratio (z) = 0.12127 0.14942
#
# Static dielectric constant tensor:
#      x y z
#    x 1.769160 0.080620 -0.142490 
#    y 0.080620 1.820900 0.098120 
#    z -0.142490 0.098120 1.643860 
# 
# From -- ./inp_files/135525.got.cif
#   From: 2010.05.17/outbox.cif.g08.bks.cpg/sg2_68_cif.got.tgz:135525.got - 2010.06.03 11:33:40.
