data_PCOD9019835
_publ_section_title
;
Structure prediction by ZEFSAII (Michael W. Deem and Ramdas Pophale) SiO2 
 PCOD9019835
Probable space group: P -1
;
_chemical_formula_sum "Si O2"
_cell_formula_units_Z 14
_cell_length_a 9.997416
_cell_length_b 12.018635
_cell_length_c 12.303971
_cell_angle_alpha 117.630262
_cell_angle_beta 45.480281
_cell_angle_gamma 145.894779
_cell_volume 565.265739
_symmetry_space_group_name_H-M "P -1"
_symmetry_group_IT_number 2
_symmetry_cell_setting 'triclinic'
loop_
_space_group_symop_operation_xyz
x,y,z
-x,-y,-z
loop_
_atom_site_type_symbol
_atom_site_label
_atom_site_fract_x
_atom_site_fract_y
_atom_site_fract_z
Si Si1 0.403782 0.526590 0.317124
Si Si2 0.698065 0.881971 0.179134
Si Si3 0.247324 0.952376 0.563466
Si Si4 0.595085 0.694014 0.507521
Si Si5 0.318818 0.099908 0.230672
Si Si6 0.388612 0.899974 0.778714
Si Si7 0.197952 0.505063 0.963816
O O1 0.455652 0.643158 0.235471
O O2 0.399999 0.604757 0.465994
O O3 0.074457 0.284733 0.385863
O O4 0.676537 0.565590 0.178904
O O5 0.808908 0.977145 0.279997
O O6 0.585137 0.944694 0.207904
O O7 0.000000 0.000000 0.000000
O O8 0.047200 0.104129 0.643745
O O9 0.406771 0.068558 0.410902
O O10 0.500000 0.000000 0.500000
O O11 0.500000 0.500000 0.500000
O O12 0.573870 0.748293 0.663286
O O13 0.461091 0.043807 0.164037
O O14 0.482834 0.244517 0.096418
O O15 0.039356 0.660169 0.879666
O O16 0.000000 0.500000 0.000000
#
# Coordination Sequence:
#
# PCOD9019835 Si02
#       7
#     2   2   2   2   2   2   2
#     4  12  24  43  74 102 139 187 237 287 351 419
#     4  11  24  45  72 103 134 180 238 290 352 415
#     4  10  25  46  72  99 141 181 237 294 348 412
#     4  11  22  39  71 107 137 181 236 281 350 416
#     4  10  22  41  69 103 143 181 226 293 342 411
#     4  10  21  45  69  98 141 183 229 289 349 408
#     4  10  22  42  68 101 146 182 229 283 353 413
#
# _framework density 24.767112999999998
#
# number of rings (size 3 to 8) (size 9 to 14) (size 15 to 20)
#    0.000    1.429    2.857    1.714    4.000    2.857 
#    0.000    7.143    9.429    0.000    0.000    0.000 
#    0.000    0.000    0.000    0.000    0.000    0.000 
#
# Total GULP energy -78103.465959 kJ/mol
# GULP energy per Si atom -5578.818997 kJ/mol
# Density = 2.471074 g / cm^3
# Si number density = 24.767113 Si / 1000 Ang^3
#
#
#
# Elastic Constant Matrix: (Units=GPa)
#
#
# Indices 1 2 3 4 5 6 
#
# 1 70.8547 21.3943 18.7283 0.5994 -10.5042 -14.3464
# 2 21.3943 97.7716 65.6885 -22.6684 5.3319 -12.0213
# 3 18.7283 65.6885 145.0069 -34.6781 -3.0688 9.6993
# 4 0.5994 -22.6684 -34.6781 55.1686 -3.9411 6.0649
# 5 -10.5042 5.3319 -3.0688 -3.9411 33.7056 -9.0324
# 6 -14.3464 -12.0213 9.6993 6.0649 -9.0324 50.7972
#
#
#
# Elastic Compliance Matrix: (Units=1/GPa)
#
#
# Indices 1 2 3 4 5 6 
#
# 1 0.017874 -0.002856 -0.001952 -0.002778 0.007224 0.006361
# 2 -0.002856 0.016622 -0.007039 0.001816 -0.002948 0.003730
# 3 -0.001952 -0.007039 0.011942 0.005244 0.000874 -0.004968
# 4 -0.002778 0.001816 0.005244 0.022694 0.000933 -0.003900
# 5 0.007224 -0.002948 0.000874 0.000933 0.034505 0.007200
# 6 0.006361 0.003730 -0.004968 -0.003900 0.007200 0.025060
#
#
# Mechanical properties :
#
#
# Convention : Reuss Voigt Hill
#
# Bulk Modulus (GPa) = 43.96451 58.36171 51.16311
# Shear Modulus (GPa) = 31.25574 41.78910 36.52242
#
# Velocity S-wave (km/s) = 3.55630 4.11211 3.84426
# Velocity P-wave (km/s) = 5.88665 6.79421 6.35665
#
# Compressibility (1/GPa) = 0.02274562
#
# Stress axis : x y z
#
# Youngs Moduli (GPa) = 55.94717 60.16038 83.73994
#
# Poissons Ratio (x) = 0.17180 0.16344
# Poissons Ratio (y) = 0.15977 0.58942
# Poissons Ratio (z) = 0.10919 0.42345
#
# Static dielectric constant tensor:
#      x y z
#    x 2.416900 -0.271170 -0.157620 
#    y -0.271170 2.199210 0.135950 
#    z -0.157620 0.135950 2.063760 
# 
# From -- ./inp_files/275806.got.cif
#   From: 2010.05.17/outbox.cif.g08.bks.cpg/sg2_138_cif.got.tgz:275806.got - 2010.06.03 11:33:40.
