data_PCOD9019225
_publ_section_title
;
Structure prediction by ZEFSAII (Michael W. Deem and Ramdas Pophale) SiO2 
 PCOD9019225
Probable space group: P -1
;
_chemical_formula_sum "Si O2"
_cell_formula_units_Z 14
_cell_length_a 7.465718
_cell_length_b 14.244828
_cell_length_c 8.125615
_cell_angle_alpha 51.918844
_cell_angle_beta 105.427213
_cell_angle_gamma 125.662993
_cell_volume 546.686294
_symmetry_space_group_name_H-M "P -1"
_symmetry_group_IT_number 2
_symmetry_cell_setting 'triclinic'
loop_
_space_group_symop_operation_xyz
x,y,z
-x,-y,-z
loop_
_atom_site_type_symbol
_atom_site_label
_atom_site_fract_x
_atom_site_fract_y
_atom_site_fract_z
Si Si1 0.110443 0.388498 0.687979
Si Si2 0.257317 0.141100 0.705184
Si Si3 0.863605 0.823263 0.861373
Si Si4 0.158538 0.550008 0.222268
Si Si5 0.970114 0.724490 0.661114
Si Si6 0.661014 0.171820 0.605515
Si Si7 0.536799 0.857373 0.902648
O O1 0.061253 0.469430 0.729644
O O2 0.868338 0.264737 0.683686
O O3 0.203180 0.305641 0.889699
O O4 0.243820 0.501744 0.452415
O O5 0.472437 0.198248 0.580920
O O6 0.326504 0.143672 0.905690
O O7 0.144728 0.228249 0.551667
O O8 0.077403 0.975516 0.800445
O O9 0.666919 0.851335 0.783632
O O10 0.928417 0.780534 0.756004
O O11 0.301689 0.711265 0.024556
O O12 0.133647 0.443600 0.189820
O O13 0.219064 0.790498 0.583118
O O14 0.546252 0.001534 0.772049
#
# Coordination Sequence:
#
# PCOD9019225 Si02
#       7
#     2   2   2   2   2   2   2
#     4  10  21  44  69  97 128 169 228 278 319 385
#     4  12  23  42  71 100 129 173 225 279 319 384
#     4  12  25  42  68  98 140 175 215 271 330 396
#     4  10  23  43  67  98 130 170 222 275 330 385
#     4  11  27  46  62  99 144 176 212 264 335 408
#     4  11  22  44  73  99 127 172 228 277 324 377
#     4  12  22  41  71 102 127 167 229 281 321 381
#
# _framework density 25.608836
#
# number of rings (size 3 to 8) (size 9 to 14) (size 15 to 20)
#    0.000    0.857    4.286    3.857    0.000    4.000 
#    2.571    0.000    0.000    0.000    0.000    0.000 
#    0.000    0.000    0.000    0.000    0.000    0.000 
#
# Total GULP energy -78428.537675 kJ/mol
# GULP energy per Si atom -5602.038405 kJ/mol
# Density = 2.555055 g / cm^3
# Si number density = 25.608836 Si / 1000 Ang^3
#
#
#
# Elastic Constant Matrix: (Units=GPa)
#
#
# Indices 1 2 3 4 5 6 
#
# 1 149.3282 30.5493 3.4343 -2.5440 -3.9462 -27.8944
# 2 30.5493 58.3243 29.5717 -13.2921 4.3633 -30.8708
# 3 3.4343 29.5717 86.7840 -22.1110 4.2455 1.3374
# 4 -2.5440 -13.2921 -22.1110 40.6175 -8.3944 4.8629
# 5 -3.9462 4.3633 4.2455 -8.3944 45.8331 -3.5539
# 6 -27.8944 -30.8708 1.3374 4.8629 -3.5539 41.8617
#
#
#
# Elastic Compliance Matrix: (Units=1/GPa)
#
#
# Indices 1 2 3 4 5 6 
#
# 1 0.007898 -0.002728 0.000424 -0.000344 0.001099 0.003370
# 2 -0.002728 0.041442 -0.013850 0.002345 -0.000227 0.028894
# 3 0.000424 -0.013850 0.018107 0.006709 0.000031 -0.011286
# 4 -0.000344 0.002345 0.006709 0.030170 0.004509 -0.001836
# 5 0.001099 -0.000227 0.000031 0.004509 0.022911 0.001985
# 6 0.003370 0.028894 -0.011286 -0.001836 0.001985 0.048184
#
#
# Mechanical properties :
#
#
# Convention : Reuss Voigt Hill
#
# Bulk Modulus (GPa) = 28.45940 46.83858 37.64899
# Shear Modulus (GPa) = 23.50367 41.05453 32.27910
#
# Velocity S-wave (km/s) = 3.03280 4.00827 3.55416
# Velocity P-wave (km/s) = 4.83747 6.30486 5.61927
#
# Compressibility (1/GPa) = 0.03513777
#
# Stress axis : x y z
#
# Youngs Moduli (GPa) = 126.61705 24.13039 55.22679
#
# Poissons Ratio (x) = 0.06583 -0.02341
# Poissons Ratio (y) = 0.34544 0.76489
# Poissons Ratio (z) = -0.05366 0.33420
#
# Static dielectric constant tensor:
#      x y z
#    x 1.986840 0.021870 -0.021280 
#    y 0.021870 2.092640 0.065950 
#    z -0.021280 0.065950 2.004660 
# 
# From -- ./inp_files/358648.got.cif
#   From: 2010.05.17/outbox.cif.g08.bks.cpg/sg2_180_cif.got.tgz:358648.got - 2010.06.03 11:33:40.
