data_PCOD9019598
_publ_section_title
;
Structure prediction by ZEFSAII (Michael W. Deem and Ramdas Pophale) SiO2 
 PCOD9019598
Probable space group: P -1
;
_chemical_formula_sum "Si O2"
_cell_formula_units_Z 14
_cell_length_a 9.253554
_cell_length_b 8.670784
_cell_length_c 10.147723
_cell_angle_alpha 123.962429
_cell_angle_beta 87.826381
_cell_angle_gamma 78.837911
_cell_volume 651.770525
_symmetry_space_group_name_H-M "P -1"
_symmetry_group_IT_number 2
_symmetry_cell_setting 'triclinic'
loop_
_space_group_symop_operation_xyz
x,y,z
-x,-y,-z
loop_
_atom_site_type_symbol
_atom_site_label
_atom_site_fract_x
_atom_site_fract_y
_atom_site_fract_z
Si Si1 0.089095 0.792476 0.965692
Si Si2 0.373643 0.187600 0.060007
Si Si3 0.118472 0.706669 0.636417
Si Si4 0.206880 0.279685 0.365354
Si Si5 0.578000 0.439932 0.109930
Si Si6 0.359100 0.182259 0.582561
Si Si7 0.181470 0.110183 0.793842
O O1 0.103034 0.662286 0.771524
O O2 0.262319 0.727011 0.979047
O O3 0.979639 0.780436 0.085261
O O4 0.000000 0.000000 0.000000
O O5 0.250116 0.202199 0.182267
O O6 0.455306 0.356814 0.148638
O O7 0.302299 0.169407 0.912485
O O8 0.500000 0.000000 0.000000
O O9 0.194751 0.506592 0.471269
O O10 0.950179 0.763731 0.615523
O O11 0.193054 0.882234 0.700259
O O12 0.319383 0.196939 0.437626
O O13 0.603851 0.625650 0.271264
O O14 0.500000 0.500000 0.000000
O O15 0.222688 0.154214 0.665811
O O16 0.500000 0.000000 0.500000
#
# Coordination Sequence:
#
# PCOD9019598 Si02
#       7
#     2   2   2   2   2   2   2
#     4  10  21  44  77 102 137 185 246 299 343 428
#     4  12  25  43  74 105 136 195 243 289 359 434
#     4  10  22  44  73 103 134 179 244 302 340 418
#     4  11  25  44  70 103 140 183 241 295 355 419
#     4  12  27  48  71 109 151 185 241 304 365 428
#     4  12  28  47  66 105 154 189 228 299 373 430
#     4  11  24  45  74 102 139 191 243 291 361 429
#
# _framework density 21.479952000000001
#
# number of rings (size 3 to 8) (size 9 to 14) (size 15 to 20)
#    0.000    0.857    4.286    2.571    4.000    1.714 
#    5.143    0.000    0.000    0.000    0.000    0.000 
#    0.000    0.000    0.000    0.000    0.000    0.000 
#
# Total GULP energy -78142.218536 kJ/mol
# GULP energy per Si atom -5581.587038 kJ/mol
# Density = 2.143106 g / cm^3
# Si number density = 21.479952 Si / 1000 Ang^3
#
#
#
# Elastic Constant Matrix: (Units=GPa)
#
#
# Indices 1 2 3 4 5 6 
#
# 1 97.4557 43.5273 -1.1867 8.7184 7.9798 -6.0499
# 2 43.5273 67.2371 12.4847 7.8446 1.6903 4.6929
# 3 -1.1867 12.4847 45.9579 8.1734 2.1209 4.7949
# 4 8.7184 7.8446 8.1734 28.7304 -4.9893 3.0923
# 5 7.9798 1.6903 2.1209 -4.9893 30.2511 -4.7624
# 6 -6.0499 4.6929 4.7949 3.0923 -4.7624 47.8804
#
#
#
# Elastic Compliance Matrix: (Units=1/GPa)
#
#
# Indices 1 2 3 4 5 6 
#
# 1 0.015917 -0.010637 0.003949 -0.004040 -0.004153 0.002506
# 2 -0.010637 0.023163 -0.006196 -0.000793 0.001373 -0.002806
# 3 0.003949 -0.006196 0.025139 -0.007184 -0.003852 -0.001330
# 4 -0.004040 -0.000793 -0.007184 0.039834 0.007948 -0.001495
# 5 -0.004153 0.001373 -0.003852 0.007948 0.036098 0.002804
# 6 0.002506 -0.002806 -0.001330 -0.001495 0.002804 0.021986
#
#
# Mechanical properties :
#
#
# Convention : Reuss Voigt Hill
#
# Bulk Modulus (GPa) = 26.00730 35.58901 30.79815
# Shear Modulus (GPa) = 24.91028 31.76075 28.33551
#
# Velocity S-wave (km/s) = 3.40913 3.84946 3.63597
# Velocity P-wave (km/s) = 5.25644 6.03011 5.65652
#
# Compressibility (1/GPa) = 0.03845075
#
# Stress axis : x y z
#
# Youngs Moduli (GPa) = 62.82634 43.17238 39.77958
#
# Poissons Ratio (x) = 0.45920 -0.15710
# Poissons Ratio (y) = 0.66825 0.24649
# Poissons Ratio (z) = -0.24811 0.26752
#
# Static dielectric constant tensor:
#      x y z
#    x 1.882790 0.044780 -0.040620 
#    y 0.044780 1.826230 0.019670 
#    z -0.040620 0.019670 1.788620 
# 
# From -- ./inp_files/156623.got.cif
#   From: 2010.05.17/outbox.cif.g08.bks.cpg/sg2_79_cif.got.tgz:156623.got - 2010.06.03 11:33:40.
