data_PCOD9019367
_publ_section_title
;
Structure prediction by ZEFSAII (Michael W. Deem and Ramdas Pophale) SiO2 
 PCOD9019367
Probable space group: P -1
;
_chemical_formula_sum "Si O2"
_cell_formula_units_Z 14
_cell_length_a 8.215413
_cell_length_b 25.153721
_cell_length_c 11.311779
_cell_angle_alpha 22.172222
_cell_angle_beta 43.680625
_cell_angle_gamma 43.045196
_cell_volume 592.290835
_symmetry_space_group_name_H-M "P -1"
_symmetry_group_IT_number 2
_symmetry_cell_setting 'triclinic'
loop_
_space_group_symop_operation_xyz
x,y,z
-x,-y,-z
loop_
_atom_site_type_symbol
_atom_site_label
_atom_site_fract_x
_atom_site_fract_y
_atom_site_fract_z
Si Si1 0.114545 0.846793 0.648961
Si Si2 0.901546 0.637884 0.349877
Si Si3 0.331134 0.936749 0.586251
Si Si4 0.630276 0.250975 0.509497
Si Si5 0.034312 0.663003 0.654568
Si Si6 0.739794 0.969583 0.173447
Si Si7 0.693978 0.350463 0.695367
O O1 0.258130 0.912335 0.538175
O O2 0.303848 0.749889 0.660757
O O3 0.920421 0.966847 0.430600
O O4 0.943161 0.765837 0.979412
O O5 0.629759 0.657856 0.498353
O O6 0.000000 0.500000 0.500000
O O7 0.074587 0.638657 0.369648
O O8 0.561959 0.003166 0.310979
O O9 0.400365 0.782711 0.929240
O O10 0.841994 0.306923 0.350269
O O11 0.637021 0.084767 0.887608
O O12 0.224925 0.677178 0.424122
O O13 0.800721 0.795381 0.481188
O O14 0.000000 0.500000 0.000000
O O15 0.000000 0.000000 0.000000
O O16 0.500000 0.500000 0.500000
#
# Coordination Sequence:
#
# PCOD9019367 Si02
#       7
#     2   2   2   2   2   2   2
#     4  10  23  42  73 106 137 182 232 297 360 414
#     4  11  25  44  70 102 142 182 238 297 354 425
#     4  10  21  44  71 104 141 178 238 292 356 427
#     4  11  24  46  71 105 143 184 243 297 351 427
#     4  11  25  44  66 102 144 187 239 283 357 428
#     4  10  22  42  67 104 139 184 237 291 349 420
#     4  11  24  44  68  99 138 188 228 291 360 420
#
# _framework density 23.637038
#
# number of rings (size 3 to 8) (size 9 to 14) (size 15 to 20)
#    0.000    1.429    1.429    2.571    4.000    2.286 
#    5.143    4.286    0.000    0.000    0.000    0.000 
#    0.000    0.000    0.000    0.000    0.000    0.000 
#
# Total GULP energy -78328.129591 kJ/mol
# GULP energy per Si atom -5594.866399 kJ/mol
# Density = 2.358324 g / cm^3
# Si number density = 23.637038 Si / 1000 Ang^3
#
#
#
# Elastic Constant Matrix: (Units=GPa)
#
#
# Indices 1 2 3 4 5 6 
#
# 1 56.3585 17.3554 15.5453 -2.0113 -5.5522 4.6858
# 2 17.3554 143.8194 18.1716 -0.2637 -1.8712 -11.9400
# 3 15.5453 18.1716 101.9585 -11.9799 -7.4080 -9.9680
# 4 -2.0113 -0.2637 -11.9799 44.9062 -3.2604 0.2095
# 5 -5.5522 -1.8712 -7.4080 -3.2604 28.7479 -3.9997
# 6 4.6858 -11.9400 -9.9680 0.2095 -3.9997 41.5988
#
#
#
# Elastic Compliance Matrix: (Units=1/GPa)
#
#
# Indices 1 2 3 4 5 6 
#
# 1 0.019725 -0.002278 -0.002695 0.000351 0.002551 -0.003278
# 2 -0.002278 0.007515 -0.000796 -0.000272 0.000124 0.002236
# 3 -0.002695 -0.000796 0.011247 0.003086 0.003101 0.003053
# 4 0.000351 -0.000272 0.003086 0.023364 0.003614 0.000852
# 5 0.002551 0.000124 0.003101 0.003614 0.037056 0.004036
# 6 -0.003278 0.002236 0.003053 0.000852 0.004036 0.026166
#
#
# Mechanical properties :
#
#
# Convention : Reuss Voigt Hill
#
# Bulk Modulus (GPa) = 37.10851 44.92012 41.01432
# Shear Modulus (GPa) = 34.34166 39.78818 37.06492
#
# Velocity S-wave (km/s) = 3.81579 4.10725 3.96420
# Velocity P-wave (km/s) = 5.92850 6.44500 6.19214
#
# Compressibility (1/GPa) = 0.02694799
#
# Stress axis : x y z
#
# Youngs Moduli (GPa) = 50.69742 133.05887 88.91184
#
# Poissons Ratio (x) = 0.30312 0.23964
# Poissons Ratio (y) = 0.11549 0.07081
# Poissons Ratio (z) = 0.13664 0.10597
#
# Static dielectric constant tensor:
#      x y z
#    x 1.945080 -0.025910 -0.004280 
#    y -0.025910 1.929110 -0.027240 
#    z -0.004280 -0.027240 1.941990 
# 
# From -- ./inp_files/244602.got.cif
#   From: 2010.05.17/outbox.cif.g08.bks.cpg/sg2_123_cif.got.tgz:244602.got - 2010.06.03 11:33:40.
