data_PCOD9019104
_publ_section_title
;
Structure prediction by ZEFSAII (Michael W. Deem and Ramdas Pophale) SiO2 
 PCOD9019104
Probable space group: P -1
;
_chemical_formula_sum "Si O2"
_cell_formula_units_Z 16
_cell_length_a 28.388481
_cell_length_b 13.991076
_cell_length_c 9.213363
_cell_angle_alpha 50.919048
_cell_angle_beta 37.866335
_cell_angle_gamma 22.134800
_cell_volume 761.656445
_symmetry_space_group_name_H-M "P -1"
_symmetry_group_IT_number 2
_symmetry_cell_setting 'triclinic'
loop_
_space_group_symop_operation_xyz
x,y,z
-x,-y,-z
loop_
_atom_site_type_symbol
_atom_site_label
_atom_site_fract_x
_atom_site_fract_y
_atom_site_fract_z
Si Si1 0.412591 0.226113 0.891587
Si Si2 0.141637 0.242176 0.291666
Si Si3 0.255541 0.629573 0.116057
Si Si4 0.395616 0.805306 0.613160
Si Si5 0.942868 0.706723 0.860283
Si Si6 0.379251 0.748475 0.397346
Si Si7 0.680006 0.758432 0.203049
Si Si8 0.090705 0.711974 0.678047
O O1 0.551918 0.128602 0.593550
O O2 0.340480 0.263030 0.889444
O O3 0.279497 0.495531 0.058280
O O4 0.500000 0.000000 0.000000
O O5 0.042973 0.328119 0.311669
O O6 0.000000 0.500000 0.500000
O O7 0.257682 0.974977 0.350364
O O8 0.261270 0.183932 0.002656
O O9 0.221137 0.614608 0.368554
O O10 0.434855 0.447422 0.867092
O O11 0.089059 0.955339 0.176257
O O12 0.305453 0.889878 0.600938
O O13 0.567284 0.471430 0.532127
O O14 0.261081 0.978530 0.903918
O O15 0.050788 0.661540 0.709201
O O16 0.000000 0.500000 0.000000
O O17 0.826023 0.468970 0.210138
O O18 0.500000 0.000000 0.500000
#
# Coordination Sequence:
#
# PCOD9019104 Si02
#       8
#     2   2   2   2   2   2   2   2
#     4  11  24  41  70  98 130 175 223 270 328 396
#     4  12  27  42  67 104 134 172 223 283 329 393
#     4  10  23  44  67  98 133 179 217 272 332 394
#     4  10  22  41  68  95 128 175 215 266 334 393
#     4  12  24  42  67  96 135 173 219 273 336 392
#     4  10  21  44  68  93 137 170 219 268 333 395
#     4  12  25  45  68  98 136 177 227 276 325 400
#     4  11  24  44  68  95 138 175 221 272 334 393
#
# _framework density 21.006847
#
# number of rings (size 3 to 8) (size 9 to 14) (size 15 to 20)
#    0.000    1.000    2.500    4.500    3.500    1.000 
#    4.500    0.000    0.000    0.000    0.000    0.000 
#    0.000    0.000    0.000    0.000    0.000    0.000 
#
# Total GULP energy -89556.219190 kJ/mol
# GULP energy per Si atom -5597.263699 kJ/mol
# Density = 2.095903 g / cm^3
# Si number density = 21.006847 Si / 1000 Ang^3
#
#
#
# Elastic Constant Matrix: (Units=GPa)
#
#
# Indices 1 2 3 4 5 6 
#
# 1 125.5509 60.1727 16.3520 -10.5559 22.2607 -9.8338
# 2 60.1727 132.5866 17.2667 -31.8971 15.2188 -13.2168
# 3 16.3520 17.2667 68.3119 -6.0813 4.0215 -1.3632
# 4 -10.5559 -31.8971 -6.0813 35.1077 6.0145 8.2341
# 5 22.2607 15.2188 4.0215 6.0145 37.3810 -10.7112
# 6 -9.8338 -13.2168 -1.3632 8.2341 -10.7112 33.9851
#
#
#
# Elastic Compliance Matrix: (Units=1/GPa)
#
#
# Indices 1 2 3 4 5 6 
#
# 1 0.011020 -0.004303 -0.001277 -0.000016 -0.004672 -0.000005
# 2 -0.004303 0.012714 -0.000961 0.010926 -0.004373 -0.000364
# 3 -0.001277 -0.000961 0.015391 0.001798 -0.001049 -0.000892
# 4 -0.000016 0.010926 0.001798 0.043833 -0.014830 -0.010977
# 5 -0.004672 -0.004373 -0.001049 -0.014830 0.037327 0.012263
# 6 -0.000005 -0.000364 -0.000892 -0.010977 0.012263 0.035771
#
#
# Mechanical properties :
#
#
# Convention : Reuss Voigt Hill
#
# Bulk Modulus (GPa) = 38.39572 57.11469 47.75521
# Shear Modulus (GPa) = 28.11846 36.80528 32.46187
#
# Velocity S-wave (km/s) = 3.66257 4.19030 3.93529
# Velocity P-wave (km/s) = 6.01692 7.11753 6.59024
#
# Compressibility (1/GPa) = 0.02604457
#
# Stress axis : x y z
#
# Youngs Moduli (GPa) = 90.74220 78.65100 64.97190
#
# Poissons Ratio (x) = 0.33844 0.08295
# Poissons Ratio (y) = 0.39047 0.06243
# Poissons Ratio (z) = 0.11585 0.07557
#
# Static dielectric constant tensor:
#      x y z
#    x 1.730470 0.019810 -0.010300 
#    y 0.019810 1.739980 0.007690 
#    z -0.010300 0.007690 1.796290 
# 
# From -- ./inp_files/358849.got.cif
#   From: 2010.05.17/outbox.cif.g08.bks.cpg/sg2_180_cif.got.tgz:358849.got - 2010.06.03 11:33:40.
