data_PCOD9019910
_publ_section_title
;
Structure prediction by ZEFSAII (Michael W. Deem and Ramdas Pophale) SiO2 
 PCOD9019910
Probable space group: P -1
;
_chemical_formula_sum "Si O2"
_cell_formula_units_Z 16
_cell_length_a 9.331993
_cell_length_b 19.508915
_cell_length_c 5.708839
_cell_angle_alpha 120.882971
_cell_angle_beta 46.614971
_cell_angle_gamma 124.230603
_cell_volume 610.416874
_symmetry_space_group_name_H-M "P -1"
_symmetry_group_IT_number 2
_symmetry_cell_setting 'triclinic'
loop_
_space_group_symop_operation_xyz
x,y,z
-x,-y,-z
loop_
_atom_site_type_symbol
_atom_site_label
_atom_site_fract_x
_atom_site_fract_y
_atom_site_fract_z
Si Si1 0.659297 0.810935 0.247634
Si Si2 0.469115 0.372104 0.781987
Si Si3 0.323785 0.037539 0.187352
Si Si4 0.057341 0.926228 0.933901
Si Si5 0.511231 0.596301 0.675645
Si Si6 0.637412 0.160456 0.721770
Si Si7 0.005596 0.673471 0.234897
Si Si8 0.951179 0.585533 0.647045
O O1 0.637624 0.729551 0.281708
O O2 0.711220 0.902923 0.468564
O O3 0.447662 0.797828 0.322811
O O4 0.882907 0.835439 0.914478
O O5 0.590411 0.392365 0.436362
O O6 0.574009 0.389914 0.951600
O O7 0.295355 0.419453 0.074559
O O8 0.425659 0.108861 0.003075
O O9 0.500000 0.000000 0.000000
O O10 0.132221 0.959708 0.170419
O O11 0.265894 0.911327 0.580176
O O12 0.000000 0.000000 0.000000
O O13 0.500000 0.500000 0.500000
O O14 0.753799 0.659127 0.501709
O O15 0.814147 0.235189 0.785510
O O16 0.019126 0.621515 0.369592
O O17 0.034238 0.642702 0.885753
O O18 0.000000 0.500000 0.500000
#
# Coordination Sequence:
#
# PCOD9019910 Si02
#       8
#     2   2   2   2   2   2   2   2
#     4  12  27  48  75 107 151 201 248 316 381 459
#     4  10  24  43  70 106 140 190 247 299 382 448
#     4  12  26  47  76 111 147 199 257 315 381 459
#     4  12  24  47  78 105 151 199 253 313 384 457
#     4  10  21  45  72 101 144 187 246 312 366 453
#     4  12  27  49  72 108 158 190 250 321 380 460
#     4  10  24  43  71 103 143 195 241 303 387 445
#     4  10  21  45  72 102 143 188 248 306 373 450
#
# _framework density 26.211594999999999
#
# number of rings (size 3 to 8) (size 9 to 14) (size 15 to 20)
#    0.000    1.000    2.500    3.750    3.500    4.000 
#   13.500    0.000    0.000    0.000    0.000    0.000 
#    0.000    0.000    0.000    0.000    0.000    0.000 
#
# Total GULP energy -89410.649336 kJ/mol
# GULP energy per Si atom -5588.165584 kJ/mol
# Density = 2.615194 g / cm^3
# Si number density = 26.211595 Si / 1000 Ang^3
#
#
#
# Elastic Constant Matrix: (Units=GPa)
#
#
# Indices 1 2 3 4 5 6 
#
# 1 154.0841 19.7848 43.7396 7.3571 9.4340 5.5604
# 2 19.7848 104.0027 19.9932 4.0759 15.2117 1.9083
# 3 43.7396 19.9932 71.8101 7.7351 39.2125 -1.2986
# 4 7.3571 4.0759 7.7351 36.9430 -1.0494 12.8387
# 5 9.4340 15.2117 39.2125 -1.0494 58.0735 -1.0062
# 6 5.5604 1.9083 -1.2986 12.8387 -1.0062 62.8657
#
#
#
# Elastic Compliance Matrix: (Units=1/GPa)
#
#
# Indices 1 2 3 4 5 6 
#
# 1 0.008315 -0.000776 -0.006743 0.000231 0.003395 -0.000844
# 2 -0.000776 0.010306 -0.001448 -0.000668 -0.001610 -0.000163
# 3 -0.006743 -0.001448 0.029045 -0.005840 -0.018205 0.002142
# 4 0.000231 -0.000668 -0.005840 0.030639 0.004525 -0.006306
# 5 0.003395 -0.001610 -0.018205 0.004525 0.029446 -0.001080
# 6 -0.000844 -0.000163 0.002142 -0.006306 -0.001080 0.017301
#
#
# Mechanical properties :
#
#
# Convention : Reuss Voigt Hill
#
# Bulk Modulus (GPa) = 33.63361 55.21466 44.42413
# Shear Modulus (GPa) = 32.70182 48.00173 40.35178
#
# Velocity S-wave (km/s) = 3.53598 4.28403 3.92786
# Velocity P-wave (km/s) = 5.43418 6.75139 6.12828
#
# Compressibility (1/GPa) = 0.02973216
#
# Stress axis : x y z
#
# Youngs Moduli (GPa) = 120.26183 97.03199 34.42937
#
# Poissons Ratio (x) = 0.07527 0.23215
# Poissons Ratio (y) = 0.09329 0.04987
# Poissons Ratio (z) = 0.81089 0.14055
#
# Static dielectric constant tensor:
#      x y z
#    x 2.362640 0.531160 -0.315480 
#    y 0.531160 3.032660 -0.781440 
#    z -0.315480 -0.781440 2.710070 
# 
# From -- ./inp_files/53611.got.cif
#   From: 2010.05.17/outbox.cif.g08.bks.cpg/sg2_27_cif.got.tgz:53611.got - 2010.06.03 11:33:40.
