data_PCOD9019125
_publ_section_title
;
Structure prediction by ZEFSAII (Michael W. Deem and Ramdas Pophale) SiO2 
 PCOD9019125
Probable space group: P -1
;
_chemical_formula_sum "Si O2"
_cell_formula_units_Z 16
_cell_length_a 9.183187
_cell_length_b 16.099013
_cell_length_c 8.755195
_cell_angle_alpha 111.502590
_cell_angle_beta 48.914569
_cell_angle_gamma 77.830287
_cell_volume 694.335362
_symmetry_space_group_name_H-M "P -1"
_symmetry_group_IT_number 2
_symmetry_cell_setting 'triclinic'
loop_
_space_group_symop_operation_xyz
x,y,z
-x,-y,-z
loop_
_atom_site_type_symbol
_atom_site_label
_atom_site_fract_x
_atom_site_fract_y
_atom_site_fract_z
Si Si1 0.536472 0.065478 0.147505
Si Si2 0.927385 0.463504 0.379358
Si Si3 0.679248 0.389845 0.688579
Si Si4 0.870208 0.612608 0.266490
Si Si5 0.866063 0.107120 0.789427
Si Si6 0.714057 0.009008 0.322418
Si Si7 0.038039 0.741989 0.316113
Si Si8 0.435412 0.272337 0.718463
O O1 0.722771 0.001381 0.124128
O O2 0.249109 0.153891 0.461821
O O3 0.628856 0.123593 0.028092
O O4 0.500000 0.000000 0.000000
O O5 0.756880 0.431636 0.526796
O O6 0.802159 0.576959 0.437655
O O7 0.000000 0.500000 0.500000
O O8 0.179428 0.349679 0.047596
O O9 0.550831 0.335573 0.698840
O O10 0.922018 0.286386 0.550938
O O11 0.500000 0.500000 0.000000
O O12 0.072553 0.631984 0.154934
O O13 0.636168 0.715929 0.401377
O O14 0.000000 0.500000 0.000000
O O15 0.808414 0.218451 0.820660
O O16 0.000000 0.000000 0.500000
O O17 0.041289 0.077572 0.797372
O O18 0.614337 0.135624 0.532574
O O19 0.500000 0.000000 0.500000
#
# Coordination Sequence:
#
# PCOD9019125 Si02
#       8
#     2   2   2   2   2   2   2   2
#     4  12  26  47  73 104 141 191 243 298 357 426
#     4  11  22  44  71  99 137 186 230 289 357 418
#     4  12  25  43  72 107 140 182 239 294 348 431
#     4  10  21  44  68  96 140 178 227 290 347 423
#     4  12  25  47  72 107 146 190 236 296 356 427
#     4  12  24  49  73 105 149 189 239 300 357 427
#     4  12  24  46  70 100 144 184 235 289 362 412
#     4  11  24  44  68 103 141 180 233 291 354 424
#
# _framework density 23.043621000000002
#
# number of rings (size 3 to 8) (size 9 to 14) (size 15 to 20)
#    0.000    0.500    6.250    1.875    0.000    4.500 
#    6.750    0.000    0.000    0.000    0.000    0.000 
#    0.000    0.000    0.000    0.000    0.000    0.000 
#
# Total GULP energy -89318.034546 kJ/mol
# GULP energy per Si atom -5582.377159 kJ/mol
# Density = 2.299117 g / cm^3
# Si number density = 23.043621 Si / 1000 Ang^3
#
#
#
# Elastic Constant Matrix: (Units=GPa)
#
#
# Indices 1 2 3 4 5 6 
#
# 1 106.6746 31.6560 15.4452 -6.9096 14.2140 21.3134
# 2 31.6560 152.4905 31.1968 -29.5367 4.8243 35.2208
# 3 15.4452 31.1968 56.4882 -17.7788 12.3491 17.0029
# 4 -6.9096 -29.5367 -17.7788 39.1652 6.8663 -7.2355
# 5 14.2140 4.8243 12.3491 6.8663 35.0174 -1.2220
# 6 21.3134 35.2208 17.0029 -7.2355 -1.2220 66.6579
#
#
#
# Elastic Compliance Matrix: (Units=1/GPa)
#
#
# Indices 1 2 3 4 5 6 
#
# 1 0.011007 -0.001231 -0.000079 0.001271 -0.004617 -0.002796
# 2 -0.001231 0.009031 -0.001604 0.005478 -0.001372 -0.003400
# 3 -0.000079 -0.001604 0.026286 0.011847 -0.011506 -0.004757
# 4 0.001271 0.005478 0.011847 0.037042 -0.012800 -0.002537
# 5 -0.004617 -0.001372 -0.011506 -0.012800 0.037343 0.004431
# 6 -0.002796 -0.003400 -0.004757 -0.002537 0.004431 0.018712
#
#
# Mechanical properties :
#
#
# Convention : Reuss Voigt Hill
#
# Bulk Modulus (GPa) = 24.69305 52.47215 38.58260
# Shear Modulus (GPa) = 31.49669 43.99180 37.74425
#
# Velocity S-wave (km/s) = 3.70108 4.37403 4.05155
# Velocity P-wave (km/s) = 5.38544 6.95196 6.21823
#
# Compressibility (1/GPa) = 0.04049722
#
# Stress axis : x y z
#
# Youngs Moduli (GPa) = 90.85029 110.72798 38.04278
#
# Poissons Ratio (x) = 0.13630 0.00301
# Poissons Ratio (y) = 0.11183 0.06101
# Poissons Ratio (z) = 0.00718 0.17757
#
# Static dielectric constant tensor:
#      x y z
#    x 1.849480 -0.113820 -0.003840 
#    y -0.113820 1.881870 0.083530 
#    z -0.003840 0.083530 1.909970 
# 
# From -- ./inp_files/208140.got.cif
#   From: 2010.05.17/outbox.cif.g08.bks.cpg/sg2_105_cif.got.tgz:208140.got - 2010.06.03 11:33:40.
