data_PCOD9019330
_publ_section_title
;
Structure prediction by ZEFSAII (Michael W. Deem and Ramdas Pophale) SiO2 
 PCOD9019330
Probable space group: P -1
;
_chemical_formula_sum "Si O2"
_cell_formula_units_Z 16
_cell_length_a 19.395026
_cell_length_b 13.737550
_cell_length_c 8.688752
_cell_angle_alpha 138.004810
_cell_angle_beta 46.221180
_cell_angle_gamma 151.134191
_cell_volume 741.700457
_symmetry_space_group_name_H-M "P -1"
_symmetry_group_IT_number 2
_symmetry_cell_setting 'triclinic'
loop_
_space_group_symop_operation_xyz
x,y,z
-x,-y,-z
loop_
_atom_site_type_symbol
_atom_site_label
_atom_site_fract_x
_atom_site_fract_y
_atom_site_fract_z
Si Si1 0.479754 0.314915 0.376771
Si Si2 0.509391 0.917077 0.166560
Si Si3 0.920530 0.795176 0.273823
Si Si4 0.088114 0.880626 0.840097
Si Si5 0.314593 0.595239 0.613212
Si Si6 0.886116 0.593128 0.553819
Si Si7 0.281034 0.850332 0.615434
Si Si8 0.176450 0.068830 0.624276
O O1 0.500000 0.500000 0.500000
O O2 0.572349 0.389240 0.473465
O O3 0.311044 0.120255 0.447481
O O4 0.516391 0.234492 0.098979
O O5 0.604398 0.158032 0.232440
O O6 0.601580 0.960343 0.219807
O O7 0.367575 0.831800 0.356306
O O8 0.821245 0.569783 0.254870
O O9 0.821340 0.781340 0.299081
O O10 0.000000 0.000000 0.500000
O O11 0.046164 0.874415 0.067701
O O12 0.200535 0.877590 0.671064
O O13 0.936563 0.673124 0.745645
O O14 0.156421 0.075651 0.846229
O O15 0.247623 0.485099 0.418889
O O16 0.841634 0.374219 0.362263
O O17 0.031132 0.814312 0.508038
#
# Coordination Sequence:
#
# PCOD9019330 Si02
#       8
#     2   2   2   2   2   2   2   2
#     4  12  25  42  69 101 141 183 226 281 344 410
#     4  10  25  43  68 102 142 182 229 283 344 411
#     4  12  23  41  67 101 138 179 227 288 345 403
#     4  10  23  39  69  95 135 180 226 287 334 406
#     4  11  23  43  68  97 140 184 222 282 348 400
#     4   9  22  41  68  96 131 174 231 281 337 400
#     4  10  21  44  70  99 136 181 236 280 339 411
#     4  10  23  41  61  98 137 172 232 274 339 409
#
# _framework density 21.572051999999999
#
# number of rings (size 3 to 8) (size 9 to 14) (size 15 to 20)
#    0.750    0.750    2.500    1.875    3.500    1.000 
#    0.000    2.500    0.000    5.250    0.000    0.000 
#    0.000    0.000    0.000    0.000    0.000    0.000 
#
# Total GULP energy -89176.358886 kJ/mol
# GULP energy per Si atom -5573.522430 kJ/mol
# Density = 2.152295 g / cm^3
# Si number density = 21.572052 Si / 1000 Ang^3
#
#
#
# Elastic Constant Matrix: (Units=GPa)
#
#
# Indices 1 2 3 4 5 6 
#
# 1 135.3560 43.2773 36.9138 12.0792 -8.6431 3.2843
# 2 43.2773 92.3844 26.5035 1.1310 2.2289 -1.0255
# 3 36.9138 26.5035 68.8549 -5.0351 -1.0135 17.4588
# 4 12.0792 1.1310 -5.0351 19.3088 2.7642 2.4483
# 5 -8.6431 2.2289 -1.0135 2.7642 15.7746 -2.9632
# 6 3.2843 -1.0255 17.4588 2.4483 -2.9632 36.1918
#
#
#
# Elastic Compliance Matrix: (Units=1/GPa)
#
#
# Indices 1 2 3 4 5 6 
#
# 1 0.011742 -0.003734 -0.006337 -0.010493 0.009019 0.003334
# 2 -0.003734 0.013794 -0.003869 0.000806 -0.003969 0.002217
# 3 -0.006337 -0.003869 0.023323 0.012659 -0.005923 -0.012127
# 4 -0.010493 0.000806 0.012659 0.065685 -0.018645 -0.011102
# 5 0.009019 -0.003969 -0.005923 -0.018645 0.073511 0.009207
# 6 0.003334 0.002217 -0.012127 -0.011102 0.009207 0.034746
#
#
# Mechanical properties :
#
#
# Convention : Reuss Voigt Hill
#
# Bulk Modulus (GPa) = 47.66968 56.66494 52.16731
# Shear Modulus (GPa) = 19.40431 26.91511 23.15971
#
# Velocity S-wave (km/s) = 3.00244 3.53609 3.28014
# Velocity P-wave (km/s) = 5.84512 6.55719 6.21136
#
# Compressibility (1/GPa) = 0.02097770
#
# Stress axis : x y z
#
# Youngs Moduli (GPa) = 85.16744 72.49438 42.87529
#
# Poissons Ratio (x) = 0.27072 0.27171
# Poissons Ratio (y) = 0.31805 0.16589
# Poissons Ratio (z) = 0.53973 0.28049
#
# Static dielectric constant tensor:
#      x y z
#    x 1.830620 -0.000970 0.037470 
#    y -0.000970 1.827390 -0.019470 
#    z 0.037470 -0.019470 1.769190 
# 
# From -- ./inp_files/347376.got.cif
#   From: 2010.05.17/outbox.cif.g08.bks.cpg/sg2_174_cif.got.tgz:347376.got - 2010.06.03 11:33:40.
