data_PCOD9019168
_publ_section_title
;
Structure prediction by ZEFSAII (Michael W. Deem and Ramdas Pophale) SiO2 
 PCOD9019168
Probable space group: P -1
;
_chemical_formula_sum "Si O2"
_cell_formula_units_Z 10
_cell_length_a 5.805073
_cell_length_b 10.861524
_cell_length_c 6.390642
_cell_angle_alpha 79.587106
_cell_angle_beta 73.249452
_cell_angle_gamma 96.432686
_cell_volume 373.683487
_symmetry_space_group_name_H-M "P -1"
_symmetry_group_IT_number 2
_symmetry_cell_setting 'triclinic'
loop_
_space_group_symop_operation_xyz
x,y,z
-x,-y,-z
loop_
_atom_site_type_symbol
_atom_site_label
_atom_site_fract_x
_atom_site_fract_y
_atom_site_fract_z
Si Si1 0.339709 0.835100 0.554065
Si Si2 0.948596 0.309267 0.639370
Si Si3 0.493400 0.689304 0.921880
Si Si4 0.165110 0.057973 0.747426
Si Si5 0.771864 0.542650 0.159301
O O1 0.175135 0.706516 0.550597
O O2 0.487939 0.805588 0.731184
O O3 0.545199 0.887689 0.312566
O O4 0.182641 0.941432 0.622526
O O5 0.051165 0.178363 0.669121
O O6 0.159625 0.420900 0.630835
O O7 0.734121 0.312377 0.862247
O O8 0.449769 0.567534 0.813679
O O9 0.716620 0.669983 0.017249
O O10 0.000000 0.000000 0.000000
O O11 0.000000 0.500000 0.000000
#
# Coordination Sequence:
#
# PCOD9019168 Si02
#       5
#     2   2   2   2   2
#     4  11  25  43  72 105 134 185 236 274 345 417
#     4  11  22  43  67 102 141 178 228 287 341 401
#     4  10  21  44  69 101 140 181 230 282 339 419
#     4  11  24  46  67 103 142 183 227 287 341 409
#     4   9  21  41  70 100 140 180 225 289 346 401
#
# _framework density 26.760614
#
# number of rings (size 3 to 8) (size 9 to 14) (size 15 to 20)
#    0.000    1.600    2.000    1.800    0.000    4.800 
#   10.800   14.000    0.000    0.000    0.000    0.000 
#    0.000    0.000    0.000    0.000    0.000    0.000 
#
# Total GULP energy -55948.164380 kJ/mol
# GULP energy per Si atom -5594.816438 kJ/mol
# Density = 2.669971 g / cm^3
# Si number density = 26.760614 Si / 1000 Ang^3
#
#
#
# Elastic Constant Matrix: (Units=GPa)
#
#
# Indices 1 2 3 4 5 6 
#
# 1 105.4945 38.7025 58.0164 29.5418 1.6140 -23.9327
# 2 38.7025 128.5017 31.9560 32.8755 5.7940 -13.5218
# 3 58.0164 31.9560 102.9908 28.5442 -38.6328 -8.1554
# 4 29.5418 32.8755 28.5442 39.4352 1.5399 10.3203
# 5 1.6140 5.7940 -38.6328 1.5399 53.5108 14.4323
# 6 -23.9327 -13.5218 -8.1554 10.3203 14.4323 57.5262
#
#
#
# Elastic Compliance Matrix: (Units=1/GPa)
#
#
# Indices 1 2 3 4 5 6 
#
# 1 0.024184 0.001738 -0.015926 -0.011134 -0.015927 0.014205
# 2 0.001738 0.011426 -0.003123 -0.009939 -0.004869 0.005970
# 3 -0.015926 -0.003123 0.029975 -0.005967 0.024864 -0.008278
# 4 -0.011134 -0.009939 -0.005967 0.050736 0.000221 -0.016972
# 5 -0.015927 -0.004869 0.024864 0.000221 0.041611 -0.014725
# 6 0.014205 0.005970 -0.008278 -0.016972 -0.014725 0.030262
#
#
# Mechanical properties :
#
#
# Convention : Reuss Voigt Hill
#
# Bulk Modulus (GPa) = 32.29753 66.03742 49.16747
# Shear Modulus (GPa) = 21.44656 43.98193 32.71424
#
# Velocity S-wave (km/s) = 2.83401 4.05845 3.50019
# Velocity P-wave (km/s) = 4.77536 6.83315 5.89475
#
# Compressibility (1/GPa) = 0.03096212
#
# Stress axis : x y z
#
# Youngs Moduli (GPa) = 41.34929 87.52187 33.36102
#
# Poissons Ratio (x) = -0.15211 0.53132
# Poissons Ratio (y) = -0.07186 0.10419
# Poissons Ratio (z) = 0.65854 0.27334
#
# Static dielectric constant tensor:
#      x y z
#    x 2.170480 0.076830 0.063960 
#    y 0.076830 2.119890 -0.040030 
#    z 0.063960 -0.040030 2.032060 
# 
# From -- ./inp_files/1552.got.cif
#   From: 2010.05.17/outbox.cif.g08.bks.cpg/sg2_1_cif.got.tgz:1552.got - 2010.06.03 11:33:40.
