data_PCOD9019202
_publ_section_title
;
Structure prediction by ZEFSAII (Michael W. Deem and Ramdas Pophale) SiO2 
 PCOD9019202
Probable space group: P -1
;
_chemical_formula_sum "Si O2"
_cell_formula_units_Z 15
_cell_length_a 6.769591
_cell_length_b 8.669920
_cell_length_c 20.565788
_cell_angle_alpha 136.166998
_cell_angle_beta 52.449531
_cell_angle_gamma 109.334902
_cell_volume 649.672926
_symmetry_space_group_name_H-M "P -1"
_symmetry_group_IT_number 2
_symmetry_cell_setting 'triclinic'
loop_
_space_group_symop_operation_xyz
x,y,z
-x,-y,-z
loop_
_atom_site_type_symbol
_atom_site_label
_atom_site_fract_x
_atom_site_fract_y
_atom_site_fract_z
Si Si1 0.467334 0.343905 0.256736
Si Si2 0.410887 0.323544 0.416023
Si Si3 0.245004 0.143501 0.752822
Si Si4 0.092804 0.773078 0.453842
Si Si5 0.353860 0.852823 0.109950
Si Si6 0.449485 0.577247 0.138187
Si Si7 0.500000 0.000000 0.500000
Si Si8 0.848770 0.632717 0.290704
O O1 0.408170 0.355911 0.349055
O O2 0.268799 0.542037 0.319930
O O3 0.747650 0.411040 0.220115
O O4 0.427988 0.098785 0.165919
O O5 0.500000 0.500000 0.500000
O O6 0.133639 0.298225 0.484568
O O7 0.598187 0.085651 0.320472
O O8 0.361597 0.341822 0.823726
O O9 0.288242 0.168886 0.673883
O O10 0.948268 0.146380 0.824374
O O11 0.281632 0.853199 0.490790
O O12 0.000000 0.000000 0.500000
O O13 0.468439 0.728671 0.115746
O O14 0.460819 0.684888 0.978873
O O15 0.147466 0.617156 0.225716
O O16 0.298766 0.241913 0.581178
#
# Coordination Sequence:
#
# PCOD9019202 Si02
#       8
#     2   2   2   2   2   2   1   2
#     4  11  24  44  61  99 136 168 218 278 323 388
#     4  12  25  40  66  96 135 178 214 269 331 389
#     4  11  22  42  65  97 126 171 224 263 327 399
#     4  11  25  42  66  92 133 176 221 258 327 397
#     4  10  22  42  69  95 127 168 219 284 324 381
#     4  10  21  44  69  93 126 174 222 268 334 385
#     4  10  22  40  64  92 128 174 208 262 310 394
#     4  10  24  39  65  91 135 168 221 261 328 392
#
# _framework density 23.088542
#
# number of rings (size 3 to 8) (size 9 to 14) (size 15 to 20)
#    0.000    1.333    1.333    4.000    9.333    0.533 
#    2.400    0.667    0.000    0.000    0.000    0.000 
#    0.000    0.000    0.000    0.000    0.000    0.000 
#
# Total GULP energy -83637.533533 kJ/mol
# GULP energy per Si atom -5575.835569 kJ/mol
# Density = 2.303599 g / cm^3
# Si number density = 23.088542 Si / 1000 Ang^3
#
#
#
# Elastic Constant Matrix: (Units=GPa)
#
#
# Indices 1 2 3 4 5 6 
#
# 1 92.7532 38.8200 35.6209 14.6050 17.9681 20.4422
# 2 38.8200 91.4084 35.9637 31.3856 16.0534 16.7559
# 3 35.6209 35.9637 102.8500 44.7469 20.9768 15.5545
# 4 14.6050 31.3856 44.7469 46.0824 11.8948 8.0176
# 5 17.9681 16.0534 20.9768 11.8948 28.7021 -2.4079
# 6 20.4422 16.7559 15.5545 8.0176 -2.4079 48.2063
#
#
#
# Elastic Compliance Matrix: (Units=1/GPa)
#
#
# Indices 1 2 3 4 5 6 
#
# 1 0.015874 -0.004672 -0.003544 0.004251 -0.006916 -0.005016
# 2 -0.004672 0.016983 0.001052 -0.009697 -0.003562 -0.002826
# 3 -0.003544 0.001052 0.019307 -0.016346 -0.005931 -0.002670
# 4 0.004251 -0.009697 -0.016346 0.043846 -0.003514 -0.000626
# 5 -0.006916 -0.003562 -0.005931 -0.003514 0.047712 0.009052
# 6 -0.005016 -0.002826 -0.002670 -0.000626 0.009052 0.025272
#
#
# Mechanical properties :
#
#
# Convention : Reuss Voigt Hill
#
# Bulk Modulus (GPa) = 26.42953 56.42453 41.42703
# Shear Modulus (GPa) = 25.51873 36.37196 30.94534
#
# Velocity S-wave (km/s) = 3.32814 3.97334 3.66497
# Velocity P-wave (km/s) = 5.12256 6.74843 5.99091
#
# Compressibility (1/GPa) = 0.03783647
#
# Stress axis : x y z
#
# Youngs Moduli (GPa) = 62.99627 58.88151 51.79357
#
# Poissons Ratio (x) = 0.27512 0.18356
# Poissons Ratio (y) = 0.29434 -0.05450
# Poissons Ratio (z) = 0.22326 -0.06196
#
# Static dielectric constant tensor:
#      x y z
#    x 1.877070 0.003890 -0.163720 
#    y 0.003890 1.860320 0.143310 
#    z -0.163720 0.143310 1.502890 
# 
# From -- ./inp_files/134524.got.cif
#   From: 2010.05.17/outbox.cif.g08.bks.cpg/sg2_68_cif.got.tgz:134524.got - 2010.06.03 11:33:40.
