data_PCOD9019615
_publ_section_title
;
Structure prediction by ZEFSAII (Michael W. Deem and Ramdas Pophale) SiO2 
 PCOD9019615
Probable space group: P -1
;
_chemical_formula_sum "Si O2"
_cell_formula_units_Z 14
_cell_length_a 14.003220
_cell_length_b 9.262896
_cell_length_c 6.795148
_cell_angle_alpha 96.057294
_cell_angle_beta 39.537649
_cell_angle_gamma 103.471433
_cell_volume 541.722343
_symmetry_space_group_name_H-M "P -1"
_symmetry_group_IT_number 2
_symmetry_cell_setting 'triclinic'
loop_
_space_group_symop_operation_xyz
x,y,z
-x,-y,-z
loop_
_atom_site_type_symbol
_atom_site_label
_atom_site_fract_x
_atom_site_fract_y
_atom_site_fract_z
Si Si1 0.179384 0.082275 0.742312
Si Si2 0.502177 0.603665 0.201769
Si Si3 0.924898 0.416403 0.410637
Si Si4 0.165553 0.847044 0.230204
Si Si5 0.205986 0.400891 0.682902
Si Si6 0.377503 0.885583 0.539367
Si Si7 0.807824 0.823575 0.808411
O O1 0.218412 0.022808 0.224652
O O2 0.298708 0.978066 0.526494
O O3 0.196274 0.133949 0.949542
O O4 0.000000 0.000000 0.000000
O O5 0.368880 0.493442 0.525281
O O6 0.445217 0.758140 0.313773
O O7 0.500000 0.500000 0.000000
O O8 0.680409 0.669420 0.977633
O O9 0.814523 0.264511 0.645760
O O10 0.839279 0.506570 0.414088
O O11 0.000000 0.500000 0.500000
O O12 0.064641 0.382638 0.055764
O O13 0.981732 0.817326 0.482230
O O14 0.245174 0.812537 0.898107
O O15 0.218060 0.235131 0.580142
O O16 0.500000 0.000000 0.500000
#
# Coordination Sequence:
#
# PCOD9019615 Si02
#       7
#     2   2   2   2   2   2   2
#     4  11  25  47  84 119 165 216 284 350 414 498
#     4  12  28  51  77 120 175 215 278 350 427 500
#     4  11  25  46  80 117 161 219 276 353 426 494
#     4  10  21  44  85 112 157 214 288 334 422 505
#     4  11  28  49  74 123 169 212 282 350 421 510
#     4  11  24  52  84 125 162 225 288 341 426 512
#     4  10  23  46  78 119 159 220 274 347 425 504
#
# _framework density 25.843499000000001
#
# number of rings (size 3 to 8) (size 9 to 14) (size 15 to 20)
#    0.000    1.143    4.286    0.857   10.000    1.714 
#    2.571    1.429    0.000    0.000    0.000    0.000 
#    0.000    0.000    0.000    0.000    0.000    0.000 
#
# Total GULP energy -78429.023612 kJ/mol
# GULP energy per Si atom -5602.073115 kJ/mol
# Density = 2.578468 g / cm^3
# Si number density = 25.843499 Si / 1000 Ang^3
#
#
#
# Elastic Constant Matrix: (Units=GPa)
#
#
# Indices 1 2 3 4 5 6 
#
# 1 90.6434 61.6856 31.3120 -5.8565 7.6458 -6.9678
# 2 61.6856 185.6841 28.7872 -1.2633 2.8257 4.2821
# 3 31.3120 28.7872 98.3258 8.3093 -9.5810 -18.3574
# 4 -5.8565 -1.2633 8.3093 62.0300 -8.6668 2.6457
# 5 7.6458 2.8257 -9.5810 -8.6668 48.1106 -7.6107
# 6 -6.9678 4.2821 -18.3574 2.6457 -7.6107 67.8560
#
#
#
# Elastic Compliance Matrix: (Units=1/GPa)
#
#
# Indices 1 2 3 4 5 6 
#
# 1 0.015939 -0.004630 -0.004027 0.001551 -0.002708 0.000475
# 2 -0.004630 0.007074 -0.000801 -0.000144 -0.000045 -0.001138
# 3 -0.004027 -0.000801 0.012845 -0.001782 0.003489 0.003573
# 4 0.001551 -0.000144 -0.001782 0.016860 0.002332 -0.000710
# 5 -0.002708 -0.000045 0.003489 0.002332 0.022830 0.003138
# 6 0.000475 -0.001138 0.003573 -0.000710 0.003138 0.016204
#
#
# Mechanical properties :
#
#
# Convention : Reuss Voigt Hill
#
# Bulk Modulus (GPa) = 59.02518 68.69144 63.85831
# Shear Modulus (GPa) = 42.98682 52.45722 47.72202
#
# Velocity S-wave (km/s) = 4.08284 4.51022 4.30184
# Velocity P-wave (km/s) = 6.71679 7.33214 7.03120
#
# Compressibility (1/GPa) = 0.01694192
#
# Stress axis : x y z
#
# Youngs Moduli (GPa) = 62.73784 141.36614 77.85257
#
# Poissons Ratio (x) = 0.65454 0.31348
# Poissons Ratio (y) = 0.29048 0.06238
# Poissons Ratio (z) = 0.25262 0.11328
#
# Static dielectric constant tensor:
#      x y z
#    x 2.100690 -0.028350 0.052270 
#    y -0.028350 2.114560 -0.009610 
#    z 0.052270 -0.009610 2.073390 
# 
# From -- ./inp_files/93828.got.cif
#   From: 2010.05.17/outbox.cif.g08.bks.cpg/sg2_47_cif.got.tgz:93828.got - 2010.06.03 11:33:40.
