data_PCOD9019717
_publ_section_title
;
Structure prediction by ZEFSAII (Michael W. Deem and Ramdas Pophale) SiO2 
 PCOD9019717
Probable space group: P -1
;
_chemical_formula_sum "Si O2"
_cell_formula_units_Z 14
_cell_length_a 11.163448
_cell_length_b 9.298779
_cell_length_c 7.278092
_cell_angle_alpha 64.856432
_cell_angle_beta 61.287444
_cell_angle_gamma 85.663387
_cell_volume 591.920586
_symmetry_space_group_name_H-M "P -1"
_symmetry_group_IT_number 2
_symmetry_cell_setting 'triclinic'
loop_
_space_group_symop_operation_xyz
x,y,z
-x,-y,-z
loop_
_atom_site_type_symbol
_atom_site_label
_atom_site_fract_x
_atom_site_fract_y
_atom_site_fract_z
Si Si1 0.158766 0.669407 0.766619
Si Si2 0.981544 0.827103 0.302312
Si Si3 0.656143 0.584136 0.374098
Si Si4 0.093743 0.440175 0.237311
Si Si5 0.278459 0.024059 0.505652
Si Si6 0.373796 0.359963 0.202903
Si Si7 0.207467 0.087550 0.913405
O O1 0.238563 0.533200 0.697881
O O2 0.255181 0.839400 0.569349
O O3 0.920814 0.843475 0.132376
O O4 0.123113 0.620591 0.032219
O O5 0.969358 0.646286 0.481085
O O6 0.868991 0.912873 0.449827
O O7 0.130394 0.934896 0.161415
O O8 0.500000 0.500000 0.500000
O O9 0.667705 0.623283 0.561708
O O10 0.698038 0.759149 0.153882
O O11 0.247827 0.400216 0.154315
O O12 0.987415 0.344450 0.221106
O O13 0.388785 0.172321 0.268945
O O14 0.291678 0.025072 0.717313
O O15 0.500000 0.500000 0.000000
#
# Coordination Sequence:
#
# PCOD9019717 Si02
#       7
#     2   2   2   2   2   2   2
#     4  11  24  38  59 100 126 156 201 271 308 342
#     4   8  16  35  64  84 118 167 203 241 294 382
#     4  11  23  42  62  86 126 163 205 254 314 369
#     4  10  22  38  61  94 133 157 202 252 312 362
#     4   8  18  38  61  85 126 155 206 248 306 360
#     4  10  21  45  67  87 116 178 208 237 307 392
#     4   8  17  37  61  87 117 169 205 239 307 375
#
# _framework density 23.651821000000002
#
# number of rings (size 3 to 8) (size 9 to 14) (size 15 to 20)
#    0.857    1.714    1.429    0.857    4.000    2.857 
#    5.143    7.143    0.000    0.000    0.000    0.000 
#    0.000    0.000    0.000    0.000    0.000    0.000 
#
# Total GULP energy -78010.838206 kJ/mol
# GULP energy per Si atom -5572.202729 kJ/mol
# Density = 2.359799 g / cm^3
# Si number density = 23.651821 Si / 1000 Ang^3
#
#
#
# Elastic Constant Matrix: (Units=GPa)
#
#
# Indices 1 2 3 4 5 6 
#
# 1 70.8859 16.2327 25.3901 -6.9508 -3.5476 18.7230
# 2 16.2327 96.2220 24.7840 -39.2863 -17.7922 8.4450
# 3 25.3901 24.7840 114.1023 -46.9709 -18.9092 7.1113
# 4 -6.9508 -39.2863 -46.9709 56.0557 15.8279 -8.0503
# 5 -3.5476 -17.7922 -18.9092 15.8279 41.2485 -13.9748
# 6 18.7230 8.4450 7.1113 -8.0503 -13.9748 20.7038
#
#
#
# Elastic Compliance Matrix: (Units=1/GPa)
#
#
# Indices 1 2 3 4 5 6 
#
# 1 0.023371 -0.004553 -0.007179 -0.007440 -0.009161 -0.025888
# 2 -0.004553 0.015966 0.003260 0.012696 0.004667 0.004572
# 3 -0.007179 0.003260 0.015995 0.014514 0.005642 0.009120
# 4 -0.007440 0.012696 0.014514 0.039612 0.000446 0.012268
# 5 -0.009161 0.004667 0.005642 0.000446 0.038178 0.030386
# 6 -0.025888 0.004572 0.009120 0.012268 0.030386 0.091995
#
#
# Mechanical properties :
#
#
# Convention : Reuss Voigt Hill
#
# Bulk Modulus (GPa) = 26.04975 46.00265 36.02620
# Shear Modulus (GPa) = 19.61882 37.92184 28.77033
#
# Velocity S-wave (km/s) = 2.88320 4.00851 3.49149
# Velocity P-wave (km/s) = 4.70336 6.39659 5.61418
#
# Compressibility (1/GPa) = 0.03838808
#
# Stress axis : x y z
#
# Youngs Moduli (GPa) = 42.78800 62.63198 62.52108
#
# Poissons Ratio (x) = 0.28516 0.44883
# Poissons Ratio (y) = 0.19481 -0.20381
# Poissons Ratio (z) = 0.30717 -0.20417
#
# Static dielectric constant tensor:
#      x y z
#    x 1.879520 0.028990 0.035910 
#    y 0.028990 1.974120 0.005300 
#    z 0.035910 0.005300 2.045210 
# 
# From -- ./inp_files/294728.got.cif
#   From: 2010.05.17/outbox.cif.g08.bks.cpg/sg2_148_cif.got.tgz:294728.got - 2010.06.03 11:33:40.
