data_PCOD9019818
_publ_section_title
;
Structure prediction by ZEFSAII (Michael W. Deem and Ramdas Pophale) SiO2 
 PCOD9019818
Probable space group: P -1
;
_chemical_formula_sum "Si O2"
_cell_formula_units_Z 14
_cell_length_a 12.737325
_cell_length_b 9.400630
_cell_length_c 18.801558
_cell_angle_alpha 46.028527
_cell_angle_beta 147.726919
_cell_angle_gamma 145.273950
_cell_volume 684.768101
_symmetry_space_group_name_H-M "P -1"
_symmetry_group_IT_number 2
_symmetry_cell_setting 'triclinic'
loop_
_space_group_symop_operation_xyz
x,y,z
-x,-y,-z
loop_
_atom_site_type_symbol
_atom_site_label
_atom_site_fract_x
_atom_site_fract_y
_atom_site_fract_z
Si Si1 0.316051 0.783448 0.913248
Si Si2 0.180781 0.288070 0.313893
Si Si3 0.615247 0.235775 0.202034
Si Si4 0.521397 0.806557 0.396274
Si Si5 0.744128 0.723894 0.933363
Si Si6 0.639063 0.785186 0.692252
Si Si7 0.802674 0.330990 0.602722
O O1 0.426590 0.853883 0.872306
O O2 0.064575 0.755054 0.785983
O O3 0.246906 0.509152 0.981023
O O4 0.500000 0.000000 0.000000
O O5 0.416020 0.571868 0.366770
O O6 0.234895 0.123599 0.447781
O O7 0.198515 0.252838 0.253044
O O8 0.450619 0.319298 0.104219
O O9 0.907057 0.455420 0.301690
O O10 0.552375 0.021078 0.294534
O O11 0.319798 0.712272 0.375398
O O12 0.654770 0.734227 0.800354
O O13 0.000000 0.000000 0.000000
O O14 0.356343 0.629666 0.555559
O O15 0.749774 0.071362 0.644664
#
# Coordination Sequence:
#
# PCOD9019818 Si02
#       7
#     2   2   2   2   2   2   2
#     4  12  29  44  63 104 142 180 235 279 329 415
#     4  10  23  44  68  97 144 168 217 285 350 407
#     4  12  25  45  76  95 135 181 232 285 338 404
#     4  10  21  45  72 101 129 177 218 286 356 399
#     4  12  27  47  71  95 139 197 232 268 339 412
#     4  10  23  42  72 100 137 172 223 288 340 402
#     4  10  21  45  69 107 132 166 229 290 343 402
#
# _framework density 20.444876000000001
#
# number of rings (size 3 to 8) (size 9 to 14) (size 15 to 20)
#    0.000    1.143    2.857    2.143    6.000    2.857 
#    0.000    0.000    0.000    0.000    0.000    0.000 
#    0.000    0.000    0.000    0.000    0.000    0.000 
#
# Total GULP energy -78240.109199 kJ/mol
# GULP energy per Si atom -5588.579228 kJ/mol
# Density = 2.039834 g / cm^3
# Si number density = 20.444876 Si / 1000 Ang^3
#
#
#
# Elastic Constant Matrix: (Units=GPa)
#
#
# Indices 1 2 3 4 5 6 
#
# 1 157.0613 19.5362 52.3875 7.2744 -1.7561 -17.7772
# 2 19.5362 60.4675 18.4671 5.2042 -3.2476 -8.9658
# 3 52.3875 18.4671 63.7678 9.0019 -6.0814 5.1180
# 4 7.2744 5.2042 9.0019 29.4839 -8.6552 -2.0323
# 5 -1.7561 -3.2476 -6.0814 -8.6552 34.3689 -3.3221
# 6 -17.7772 -8.9658 5.1180 -2.0323 -3.3221 30.6774
#
#
#
# Elastic Compliance Matrix: (Units=1/GPa)
#
#
# Indices 1 2 3 4 5 6 
#
# 1 0.010235 0.000611 -0.009316 0.000698 -0.000148 0.007694
# 2 0.000611 0.019534 -0.006516 -0.000748 0.001235 0.007234
# 3 -0.009316 -0.006516 0.027049 -0.005287 0.001200 -0.012036
# 4 0.000698 -0.000748 -0.005287 0.038501 0.009171 0.004612
# 5 -0.000148 0.001235 0.001200 0.009171 0.032129 0.004162
# 6 0.007694 0.007234 -0.012036 0.004612 0.004162 0.041934
#
#
# Mechanical properties :
#
#
# Convention : Reuss Voigt Hill
#
# Bulk Modulus (GPa) = 37.91300 51.34202 44.62751
# Shear Modulus (GPa) = 23.96751 31.63310 27.80030
#
# Velocity S-wave (km/s) = 3.42760 3.93776 3.69150
# Velocity P-wave (km/s) = 5.85225 6.77064 6.32813
#
# Compressibility (1/GPa) = 0.02637618
#
# Stress axis : x y z
#
# Youngs Moduli (GPa) = 97.70422 51.19309 36.97025
#
# Poissons Ratio (x) = -0.03128 0.34440
# Poissons Ratio (y) = -0.05970 0.24091
# Poissons Ratio (z) = 0.91016 0.33359
#
# Static dielectric constant tensor:
#      x y z
#    x 1.754040 -0.052070 -0.025020 
#    y -0.052070 1.750160 0.006030 
#    z -0.025020 0.006030 1.770700 
# 
# From -- ./inp_files/255649.got.cif
#   From: 2010.05.17/outbox.cif.g08.bks.cpg/sg2_128_cif.got.tgz:255649.got - 2010.06.03 11:33:40.
