data_PCOD9019523
_publ_section_title
;
Structure prediction by ZEFSAII (Michael W. Deem and Ramdas Pophale) SiO2 
 PCOD9019523
Probable space group: P -1
;
_chemical_formula_sum "Si O2"
_cell_formula_units_Z 14
_cell_length_a 5.951389
_cell_length_b 22.197046
_cell_length_c 4.957951
_cell_angle_alpha 94.920346
_cell_angle_beta 97.036032
_cell_angle_gamma 63.826699
_cell_volume 583.007253
_symmetry_space_group_name_H-M "P -1"
_symmetry_group_IT_number 2
_symmetry_cell_setting 'triclinic'
loop_
_space_group_symop_operation_xyz
x,y,z
-x,-y,-z
loop_
_atom_site_type_symbol
_atom_site_label
_atom_site_fract_x
_atom_site_fract_y
_atom_site_fract_z
Si Si1 0.121392 0.765209 0.142412
Si Si2 0.357508 0.335610 0.733598
Si Si3 0.262283 0.013811 0.281065
Si Si4 0.890703 0.410763 0.094402
Si Si5 0.967815 0.085468 0.771048
Si Si6 0.593690 0.541343 0.329118
Si Si7 0.069402 0.278960 0.378789
O O1 0.057310 0.745602 0.417239
O O2 0.876646 0.626576 0.086100
O O3 0.127817 0.836122 0.173372
O O4 0.918664 0.762581 0.901501
O O5 0.368730 0.393277 0.565280
O O6 0.320842 0.278988 0.534191
O O7 0.611627 0.294802 0.919420
O O8 0.041241 0.064587 0.463749
O O9 0.500000 0.000000 0.500000
O O10 0.207518 0.049378 0.995018
O O11 0.224326 0.946506 0.204092
O O12 0.849610 0.483313 0.223155
O O13 0.918940 0.357817 0.312186
O O14 0.628918 0.428676 0.911092
O O15 0.500000 0.500000 0.500000
#
# Coordination Sequence:
#
# PCOD9019523 Si02
#       7
#     2   2   2   2   2   2   2
#     4  12  27  46  70 102 150 184 233 288 344 421
#     4  12  25  45  71  99 138 188 233 289 363 419
#     4  10  21  44  73 106 143 180 232 284 333 400
#     4  11  24  44  69 100 134 179 240 295 355 422
#     4  10  23  42  70 106 142 186 228 281 342 400
#     4  11  24  45  71 101 134 178 236 304 361 417
#     4  12  26  48  66 102 140 187 235 290 346 424
#
# _framework density 24.013425999999999
#
# number of rings (size 3 to 8) (size 9 to 14) (size 15 to 20)
#    0.000    0.857    2.857    3.429    2.000    6.857 
#    0.000    0.000    0.000    0.000    0.000    0.000 
#    0.000    0.000    0.000    0.000    0.000    0.000 
#
# Total GULP energy -78301.889975 kJ/mol
# GULP energy per Si atom -5592.992141 kJ/mol
# Density = 2.395877 g / cm^3
# Si number density = 24.013426 Si / 1000 Ang^3
#
#
#
# Elastic Constant Matrix: (Units=GPa)
#
#
# Indices 1 2 3 4 5 6 
#
# 1 52.5030 45.0201 18.3027 -8.8092 7.4536 13.5040
# 2 45.0201 179.2985 33.7732 9.3484 -0.4118 29.3563
# 3 18.3027 33.7732 113.6601 -9.6040 -0.6290 10.3904
# 4 -8.8092 9.3484 -9.6040 32.7969 6.2157 4.7700
# 5 7.4536 -0.4118 -0.6290 6.2157 41.9042 4.0245
# 6 13.5040 29.3563 10.3904 4.7700 4.0245 17.4038
#
#
#
# Elastic Compliance Matrix: (Units=1/GPa)
#
#
# Indices 1 2 3 4 5 6 
#
# 1 0.031718 -0.005818 -0.000747 0.013540 -0.006120 -0.016647
# 2 -0.005818 0.009024 -0.001150 -0.003555 0.002559 -0.009638
# 3 -0.000747 -0.001150 0.009981 0.003672 0.000157 -0.004483
# 4 0.013540 -0.003555 0.003672 0.039831 -0.006754 -0.016057
# 5 -0.006120 0.002559 0.000157 -0.006754 0.026357 -0.003906
# 6 -0.016647 -0.009638 -0.004483 -0.016057 -0.003906 0.094614
#
#
# Mechanical properties :
#
#
# Convention : Reuss Voigt Hill
#
# Bulk Modulus (GPa) = 28.33312 59.96153 44.14733
# Shear Modulus (GPa) = 20.94519 34.97869 27.96194
#
# Velocity S-wave (km/s) = 2.95656 3.82072 3.41608
# Velocity P-wave (km/s) = 4.84556 6.66994 5.82956
#
# Compressibility (1/GPa) = 0.03529438
#
# Stress axis : x y z
#
# Youngs Moduli (GPa) = 31.52810 110.81675 100.19050
#
# Poissons Ratio (x) = 0.64470 0.07482
# Poissons Ratio (y) = 0.18342 0.11518
# Poissons Ratio (z) = 0.02354 0.12740
#
# Static dielectric constant tensor:
#      x y z
#    x 1.972300 0.019730 0.002510 
#    y 0.019730 1.870020 0.022310 
#    z 0.002510 0.022310 1.942650 
# 
# From -- ./inp_files/11128.got.cif
#   From: 2010.05.17/outbox.cif.g08.bks.cpg/sg2_6_cif.got.tgz:11128.got - 2010.06.03 11:33:40.
