data_PCOD9019414
_publ_section_title
;
Structure prediction by ZEFSAII (Michael W. Deem and Ramdas Pophale) SiO2 
 PCOD9019414
Probable space group: P -1
;
_chemical_formula_sum "Si O2"
_cell_formula_units_Z 16
_cell_length_a 11.786171
_cell_length_b 14.291711
_cell_length_c 7.284041
_cell_angle_alpha 46.557731
_cell_angle_beta 128.998878
_cell_angle_gamma 127.009985
_cell_volume 660.464764
_symmetry_space_group_name_H-M "P -1"
_symmetry_group_IT_number 2
_symmetry_cell_setting 'triclinic'
loop_
_space_group_symop_operation_xyz
x,y,z
-x,-y,-z
loop_
_atom_site_type_symbol
_atom_site_label
_atom_site_fract_x
_atom_site_fract_y
_atom_site_fract_z
Si Si1 0.027027 0.913853 0.471855
Si Si2 0.339433 0.096576 0.372896
Si Si3 0.612118 0.349370 0.045985
Si Si4 0.725671 0.652152 0.873738
Si Si5 0.350508 0.896554 0.341739
Si Si6 0.165112 0.534127 0.218533
Si Si7 0.923954 0.266546 0.932986
Si Si8 0.271471 0.279400 0.646588
O O1 0.870539 0.854085 0.280680
O O2 0.177238 0.002942 0.405260
O O3 0.059024 0.785410 0.774146
O O4 0.000000 0.000000 0.500000
O O5 0.335595 0.249824 0.191331
O O6 0.494701 0.084460 0.644719
O O7 0.359308 0.028123 0.292107
O O8 0.645568 0.491406 0.999814
O O9 0.715782 0.384848 0.921267
O O10 0.438699 0.299102 0.866621
O O11 0.653258 0.232258 0.359214
O O12 0.713809 0.704926 0.581670
O O13 0.907771 0.682738 0.049174
O O14 0.194095 0.854136 0.129078
O O15 0.153344 0.615926 0.278020
O O16 0.215032 0.403326 0.490868
O O17 0.000000 0.500000 0.000000
#
# Coordination Sequence:
#
# PCOD9019414 Si02
#       8
#     2   2   2   2   2   2   2   2
#     4  11  21  42  75  99 125 175 237 282 337 388
#     4  11  25  49  64  98 143 179 233 280 337 418
#     4  11  24  45  69 101 142 182 226 278 349 412
#     4  10  21  44  71  99 132 170 233 289 331 400
#     4  11  29  45  63 101 145 190 220 271 355 410
#     4  11  19  40  72 103 133 165 230 295 334 388
#     4  11  23  41  69 105 133 172 229 284 342 404
#     4  10  22  39  71 107 126 175 229 288 343 390
#
# _framework density 24.225366999999999
#
# number of rings (size 3 to 8) (size 9 to 14) (size 15 to 20)
#    0.000    1.250    6.250    2.250    3.500    4.000 
#    2.250    0.000    0.000    0.000    0.000    0.000 
#    0.000    0.000    0.000    0.000    0.000    0.000 
#
# Total GULP energy -89518.657652 kJ/mol
# GULP energy per Si atom -5594.916103 kJ/mol
# Density = 2.417023 g / cm^3
# Si number density = 24.225367 Si / 1000 Ang^3
#
#
#
# Elastic Constant Matrix: (Units=GPa)
#
#
# Indices 1 2 3 4 5 6 
#
# 1 130.1147 64.6075 37.7123 -3.5036 39.7339 1.9499
# 2 64.6075 171.3205 55.5507 4.6694 30.2176 3.2471
# 3 37.7123 55.5507 107.4502 6.7735 27.9516 10.9091
# 4 -3.5036 4.6694 6.7735 45.2775 5.0013 16.5284
# 5 39.7339 30.2176 27.9516 5.0013 30.6747 -5.6530
# 6 1.9499 3.2471 10.9091 16.5284 -5.6530 57.7451
#
#
#
# Elastic Compliance Matrix: (Units=1/GPa)
#
#
# Indices 1 2 3 4 5 6 
#
# 1 0.014579 -0.002625 0.001241 0.004674 -0.018885 -0.003766
# 2 -0.002625 0.008068 -0.002712 -0.000438 -0.001990 0.000078
# 3 0.001241 -0.002712 0.013868 0.001168 -0.012512 -0.004069
# 4 0.004674 -0.000438 0.001168 0.027164 -0.012846 -0.009387
# 5 -0.018885 -0.001990 -0.012512 -0.012846 0.075124 0.014145
# 6 -0.003766 0.000078 -0.004069 -0.009387 0.014145 0.022280
#
#
# Mechanical properties :
#
#
# Convention : Reuss Voigt Hill
#
# Bulk Modulus (GPa) = 35.31010 80.51404 57.91207
# Shear Modulus (GPa) = 27.97728 43.47379 35.72553
#
# Velocity S-wave (km/s) = 3.40203 4.24082 3.84437
# Velocity P-wave (km/s) = 5.48079 7.56881 6.60780
#
# Compressibility (1/GPa) = 0.02832051
#
# Stress axis : x y z
#
# Youngs Moduli (GPa) = 68.59349 123.94742 72.11010
#
# Poissons Ratio (x) = 0.32540 -0.08947
# Poissons Ratio (y) = 0.18008 0.19559
# Poissons Ratio (z) = -0.08511 0.33619
#
# Static dielectric constant tensor:
#      x y z
#    x 1.954060 -0.035280 -0.046710 
#    y -0.035280 2.011240 0.007090 
#    z -0.046710 0.007090 2.008640 
# 
# From -- ./inp_files/271994.got.cif
#   From: 2010.05.17/outbox.cif.g08.bks.cpg/sg2_136_cif.got.tgz:271994.got - 2010.06.03 11:33:40.
