data_PCOD9019117
_publ_section_title
;
Structure prediction by ZEFSAII (Michael W. Deem and Ramdas Pophale) SiO2 
 PCOD9019117
Probable space group: P -1
;
_chemical_formula_sum "Si O2"
_cell_formula_units_Z 16
_cell_length_a 9.060203
_cell_length_b 13.359152
_cell_length_c 14.326899
_cell_angle_alpha 30.793067
_cell_angle_beta 105.280590
_cell_angle_gamma 85.698370
_cell_volume 678.370384
_symmetry_space_group_name_H-M "P -1"
_symmetry_group_IT_number 2
_symmetry_cell_setting 'triclinic'
loop_
_space_group_symop_operation_xyz
x,y,z
-x,-y,-z
loop_
_atom_site_type_symbol
_atom_site_label
_atom_site_fract_x
_atom_site_fract_y
_atom_site_fract_z
Si Si1 0.266356 0.843058 0.658231
Si Si2 0.057431 0.684462 0.860988
Si Si3 0.656494 0.177917 0.890770
Si Si4 0.411893 0.035783 0.664550
Si Si5 0.361973 0.387766 0.827565
Si Si6 0.563341 0.622999 0.738105
Si Si7 0.629906 0.618152 0.474745
Si Si8 0.939105 0.331638 0.597696
O O1 0.168956 0.711707 0.772285
O O2 0.481222 0.693727 0.773321
O O3 0.275391 0.976029 0.644641
O O4 0.140294 0.042001 0.396360
O O5 0.207739 0.594467 0.042232
O O6 0.000000 0.500000 0.000000
O O7 0.508221 0.198267 0.922693
O O8 0.625477 0.434594 0.687783
O O9 0.574902 0.188018 0.766405
O O10 0.874849 0.948372 0.132324
O O11 0.463917 0.154905 0.499581
O O12 0.314848 0.238344 0.569534
O O13 0.600261 0.785807 0.940933
O O14 0.445193 0.531699 0.755037
O O15 0.157119 0.582140 0.589228
O O16 0.771896 0.430140 0.567706
O O17 0.000000 0.500000 0.500000
#
# Coordination Sequence:
#
# PCOD9019117 Si02
#       8
#     2   2   2   2   2   2   2   2
#     4  11  26  45  70 102 142 184 234 291 348 419
#     4  11  24  45  72 100 133 183 235 291 353 410
#     4  10  21  44  68  95 142 178 227 284 348 412
#     4  12  23  43  71 100 139 186 234 286 349 415
#     4  11  25  43  68 100 140 181 229 287 345 415
#     4  12  25  47  69 101 143 187 230 289 354 415
#     4  10  22  41  69 100 134 182 226 285 349 413
#     4  11  23  43  66 102 136 181 228 284 353 417
#
# _framework density 23.585937000000001
#
# number of rings (size 3 to 8) (size 9 to 14) (size 15 to 20)
#    0.000    1.000    3.750    2.625    0.000    3.000 
#    6.750    2.500    0.000    0.000    0.000    0.000 
#    0.000    0.000    0.000    0.000    0.000    0.000 
#
# Total GULP energy -89296.695299 kJ/mol
# GULP energy per Si atom -5581.043456 kJ/mol
# Density = 2.353225 g / cm^3
# Si number density = 23.585937 Si / 1000 Ang^3
#
#
#
# Elastic Constant Matrix: (Units=GPa)
#
#
# Indices 1 2 3 4 5 6 
#
# 1 76.5954 14.2338 64.4886 -0.9396 -18.2693 22.1455
# 2 14.2338 79.5899 38.0541 4.1289 5.0863 28.9115
# 3 64.4886 38.0541 181.0847 20.5888 4.9520 11.2383
# 4 -0.9396 4.1289 20.5888 26.3306 4.6395 3.4265
# 5 -18.2693 5.0863 4.9520 4.6395 58.6717 3.3484
# 6 22.1455 28.9115 11.2383 3.4265 3.3484 44.0461
#
#
#
# Elastic Compliance Matrix: (Units=1/GPa)
#
#
# Indices 1 2 3 4 5 6 
#
# 1 0.029551 0.005455 -0.012036 0.010064 0.009914 -0.016904
# 2 0.005455 0.019145 -0.005467 0.003133 0.001065 -0.014239
# 3 -0.012036 -0.005467 0.011607 -0.008945 -0.003984 0.007678
# 4 0.010064 0.003133 -0.008945 0.045856 0.000473 -0.008437
# 5 0.009914 0.001065 -0.003984 0.000473 0.020696 -0.006277
# 6 -0.016904 -0.014239 0.007678 -0.008437 -0.006277 0.039723
#
#
# Mechanical properties :
#
#
# Convention : Reuss Voigt Hill
#
# Bulk Modulus (GPa) = 27.62061 63.42477 45.52269
# Shear Modulus (GPa) = 24.66165 40.50925 32.58545
#
# Velocity S-wave (km/s) = 3.23709 4.14879 3.72097
# Velocity P-wave (km/s) = 5.07028 7.06394 6.14846
#
# Compressibility (1/GPa) = 0.03620485
#
# Stress axis : x y z
#
# Youngs Moduli (GPa) = 33.83962 52.23395 86.15332
#
# Poissons Ratio (x) = -0.28492 1.03698
# Poissons Ratio (y) = -0.18459 0.47103
# Poissons Ratio (z) = 0.40731 0.28558
#
# Static dielectric constant tensor:
#      x y z
#    x 2.156750 -0.256500 -0.036540 
#    y -0.256500 2.109510 0.049390 
#    z -0.036540 0.049390 1.899240 
# 
# From -- ./inp_files/505092.got.cif
#   From: 2010.05.17/outbox.cif.g08.bks.cpg/sg2_253_cif.got.tgz:505092.got - 2010.06.03 11:33:40.
