data_PCOD9019061
_publ_section_title
;
Structure prediction by ZEFSAII (Michael W. Deem and Ramdas Pophale) SiO2 
 PCOD9019061
Probable space group: P -1
;
_chemical_formula_sum "Si O2"
_cell_formula_units_Z 14
_cell_length_a 20.939002
_cell_length_b 11.579900
_cell_length_c 14.576179
_cell_angle_alpha 32.164102
_cell_angle_beta 20.919776
_cell_angle_gamma 29.894412
_cell_volume 615.423830
_symmetry_space_group_name_H-M "P -1"
_symmetry_group_IT_number 2
_symmetry_cell_setting 'triclinic'
loop_
_space_group_symop_operation_xyz
x,y,z
-x,-y,-z
loop_
_atom_site_type_symbol
_atom_site_label
_atom_site_fract_x
_atom_site_fract_y
_atom_site_fract_z
Si Si1 0.642950 0.956002 0.709722
Si Si2 0.596957 0.082043 0.469024
Si Si3 0.048355 0.839815 0.343181
Si Si4 0.663896 0.596115 0.188507
Si Si5 0.245672 0.589263 0.066779
Si Si6 0.039453 0.374797 0.728549
Si Si7 0.831883 0.753292 0.032458
O O1 0.647266 0.693272 0.879224
O O2 0.837749 0.942398 0.507651
O O3 0.631541 0.034166 0.564730
O O4 0.458841 0.165518 0.863235
O O5 0.371824 0.143246 0.706963
O O6 0.763700 0.844131 0.364485
O O7 0.640687 0.298395 0.225622
O O8 0.201718 0.716925 0.137989
O O9 0.060181 0.623199 0.537697
O O10 0.086378 0.044565 0.206166
O O11 0.500000 0.500000 0.500000
O O12 0.755664 0.697229 0.076925
O O13 0.853648 0.397661 0.022545
O O14 0.038168 0.640669 0.259951
O O15 0.000000 0.500000 0.000000
#
# Coordination Sequence:
#
# PCOD9019061 Si02
#       7
#     2   2   2   2   2   2   2
#     4  10  21  44  68 101 132 174 227 275 332 394
#     4  11  23  42  71  97 132 182 227 268 331 401
#     4  11  23  42  69  97 143 172 218 288 330 397
#     4  11  25  44  71  98 134 181 226 279 332 401
#     4  11  22  39  72 105 131 171 232 281 324 394
#     4  11  22  42  71 103 129 178 233 270 334 399
#     4  11  27  45  63 100 139 177 222 278 344 397
#
# _framework density 22.748549000000001
#
# number of rings (size 3 to 8) (size 9 to 14) (size 15 to 20)
#    0.000    1.143    2.857    3.857    4.000    5.143 
#    0.000    0.000    0.000    0.000    0.000    0.000 
#    0.000    0.000    0.000    0.000    0.000    0.000 
#
# Total GULP energy -78211.274807 kJ/mol
# GULP energy per Si atom -5586.519629 kJ/mol
# Density = 2.269677 g / cm^3
# Si number density = 22.748549 Si / 1000 Ang^3
#
#
#
# Elastic Constant Matrix: (Units=GPa)
#
#
# Indices 1 2 3 4 5 6 
#
# 1 58.5208 33.2765 38.4199 -13.1836 -11.1836 9.7873
# 2 33.2765 170.9075 79.2381 6.7583 -14.1704 -16.2504
# 3 38.4199 79.2381 135.1860 -16.3214 -13.0549 -10.7068
# 4 -13.1836 6.7583 -16.3214 58.7157 6.6942 -0.7941
# 5 -11.1836 -14.1704 -13.0549 6.6942 32.8919 -5.5945
# 6 9.7873 -16.2504 -10.7068 -0.7941 -5.5945 37.5298
#
#
#
# Elastic Compliance Matrix: (Units=1/GPa)
#
#
# Indices 1 2 3 4 5 6 
#
# 1 0.025382 -0.003326 -0.005209 0.004200 0.002736 -0.009049
# 2 -0.003326 0.009187 -0.004281 -0.003221 0.002450 0.003921
# 3 -0.005209 -0.004281 0.012066 0.002585 0.001188 0.003179
# 4 0.004200 -0.003221 0.002585 0.019403 -0.003192 -0.001818
# 5 0.002736 0.002450 0.001188 -0.003192 0.034489 0.005760
# 6 -0.009049 0.003921 0.003179 -0.001818 0.005760 0.032430
#
#
# Mechanical properties :
#
#
# Convention : Reuss Voigt Hill
#
# Bulk Modulus (GPa) = 47.61773 74.05371 60.83572
# Shear Modulus (GPa) = 30.19502 40.07280 35.13391
#
# Velocity S-wave (km/s) = 3.64722 4.20164 3.93421
# Velocity P-wave (km/s) = 6.22205 7.49414 6.88753
#
# Compressibility (1/GPa) = 0.02100058
#
# Stress axis : x y z
#
# Youngs Moduli (GPa) = 39.39856 108.84895 82.88049
#
# Poissons Ratio (x) = 0.36208 0.43174
# Poissons Ratio (y) = 0.13106 0.35483
# Poissons Ratio (z) = 0.20523 0.46600
#
# Static dielectric constant tensor:
#      x y z
#    x 1.984760 0.034560 0.044860 
#    y 0.034560 1.938300 0.077480 
#    z 0.044860 0.077480 1.913840 
# 
# From -- ./inp_files/282796.got.cif
#   From: 2010.05.17/outbox.cif.g08.bks.cpg/sg2_142_cif.got.tgz:282796.got - 2010.06.03 11:33:40.
