data_PCOD9019344
_publ_section_title
;
Structure prediction by ZEFSAII (Michael W. Deem and Ramdas Pophale) SiO2 
 PCOD9019344
Probable space group: P -1
;
_chemical_formula_sum "Si O2"
_cell_formula_units_Z 14
_cell_length_a 8.918529
_cell_length_b 10.906169
_cell_length_c 12.568346
_cell_angle_alpha 64.623810
_cell_angle_beta 148.641391
_cell_angle_gamma 116.350408
_cell_volume 566.846347
_symmetry_space_group_name_H-M "P -1"
_symmetry_group_IT_number 2
_symmetry_cell_setting 'triclinic'
loop_
_space_group_symop_operation_xyz
x,y,z
-x,-y,-z
loop_
_atom_site_type_symbol
_atom_site_label
_atom_site_fract_x
_atom_site_fract_y
_atom_site_fract_z
Si Si1 0.781085 0.111866 0.324033
Si Si2 0.648973 0.007891 0.705539
Si Si3 0.798701 0.530216 0.097009
Si Si4 0.004643 0.338695 0.533905
Si Si5 0.338578 0.706026 0.454980
Si Si6 0.636752 0.259559 0.979140
Si Si7 0.091105 0.241346 0.097362
O O1 0.537204 0.053604 0.283705
O O2 0.912486 0.264357 0.394003
O O3 0.669257 0.139009 0.127716
O O4 0.000000 0.000000 0.500000
O O5 0.891856 0.913840 0.868180
O O6 0.500000 0.000000 0.500000
O O7 0.715668 0.171216 0.699624
O O8 0.111745 0.573766 0.328541
O O9 0.786169 0.655243 0.961220
O O10 0.500000 0.500000 0.000000
O O11 0.808483 0.399398 0.080171
O O12 0.780606 0.264262 0.512211
O O13 0.000000 0.500000 0.500000
O O14 0.312246 0.293178 0.762306
O O15 0.679859 0.711688 0.682488
O O16 0.775125 0.243691 0.954298
#
# Coordination Sequence:
#
# PCOD9019344 Si02
#       7
#     2   2   2   2   2   2   2
#     4  12  26  48  78 112 154 199 257 317 371 454
#     4  10  21  44  71 100 145 199 244 300 378 444
#     4  12  25  44  71 107 139 191 256 303 367 453
#     4  12  26  47  79 110 151 206 250 312 386 449
#     4  11  24  43  76  99 144 200 248 301 384 443
#     4  12  28  45  75 113 152 192 261 311 378 454
#     4  11  25  46  71 105 150 190 243 320 369 449
#
# _framework density 24.698049999999999
#
# number of rings (size 3 to 8) (size 9 to 14) (size 15 to 20)
#    0.000    0.571    4.286    4.714    0.000    4.000 
#    0.000    0.000    0.000    0.000    0.000    0.000 
#    0.000    0.000    0.000    0.000    0.000    0.000 
#
# Total GULP energy -78237.382322 kJ/mol
# GULP energy per Si atom -5588.384452 kJ/mol
# Density = 2.464184 g / cm^3
# Si number density = 24.698050 Si / 1000 Ang^3
#
#
#
# Elastic Constant Matrix: (Units=GPa)
#
#
# Indices 1 2 3 4 5 6 
#
# 1 116.5366 31.0927 33.4045 -25.2253 9.9286 5.0167
# 2 31.0927 103.7933 8.8252 -14.2874 -3.6017 6.3975
# 3 33.4045 8.8252 117.3588 -14.9468 9.8608 8.9705
# 4 -25.2253 -14.2874 -14.9468 37.8077 -3.4481 -13.1107
# 5 9.9286 -3.6017 9.8608 -3.4481 52.2254 -8.8875
# 6 5.0167 6.3975 8.9705 -13.1107 -8.8875 40.2151
#
#
#
# Elastic Compliance Matrix: (Units=1/GPa)
#
#
# Indices 1 2 3 4 5 6 
#
# 1 0.011230 -0.002470 -0.002231 0.005956 -0.001296 0.001145
# 2 -0.002470 0.010770 0.000125 0.002471 0.001294 -0.000342
# 3 -0.002231 0.000125 0.009615 0.001627 -0.001565 -0.001702
# 4 0.005956 0.002471 0.001627 0.036055 0.002968 0.010911
# 5 -0.001296 0.001294 -0.001565 0.002968 0.020980 0.005909
# 6 0.001145 -0.000342 -0.001702 0.010911 0.005909 0.030021
#
#
# Mechanical properties :
#
#
# Convention : Reuss Voigt Hill
#
# Bulk Modulus (GPa) = 44.51572 53.81485 49.16529
# Shear Modulus (GPa) = 36.95216 43.67407 40.31311
#
# Velocity S-wave (km/s) = 3.87222 4.20970 4.04448
# Velocity P-wave (km/s) = 6.16889 6.74279 6.46221
#
# Compressibility (1/GPa) = 0.02246397
#
# Stress axis : x y z
#
# Youngs Moduli (GPa) = 89.04871 92.85144 104.00170
#
# Poissons Ratio (x) = 0.22935 0.23200
# Poissons Ratio (y) = 0.21995 -0.01303
# Poissons Ratio (z) = 0.19864 -0.01163
#
# Static dielectric constant tensor:
#      x y z
#    x 1.944300 -0.020190 -0.145770 
#    y -0.020190 2.041060 -0.011390 
#    z -0.145770 -0.011390 1.937540 
# 
# From -- ./inp_files/558471.got.cif
#   From: 2010.05.17/outbox.cif.g08.bks.cpg/sg2_280_cif.got.tgz:558471.got - 2010.06.03 11:33:40.
