data_PCOD9019364
_publ_section_title
;
Structure prediction by ZEFSAII (Michael W. Deem and Ramdas Pophale) SiO2 
 PCOD9019364
Probable space group: P -1
;
_chemical_formula_sum "Si O2"
_cell_formula_units_Z 14
_cell_length_a 7.293010
_cell_length_b 21.050746
_cell_length_c 11.916304
_cell_angle_alpha 30.431698
_cell_angle_beta 37.973291
_cell_angle_gamma 52.072042
_cell_volume 557.598898
_symmetry_space_group_name_H-M "P -1"
_symmetry_group_IT_number 2
_symmetry_cell_setting 'triclinic'
loop_
_space_group_symop_operation_xyz
x,y,z
-x,-y,-z
loop_
_atom_site_type_symbol
_atom_site_label
_atom_site_fract_x
_atom_site_fract_y
_atom_site_fract_z
Si Si1 0.622826 0.880507 0.672091
Si Si2 0.611820 0.491807 0.652196
Si Si3 0.679972 0.918977 0.226305
Si Si4 0.339928 0.289358 0.273759
Si Si5 0.799825 0.399047 0.464983
Si Si6 0.950784 0.772273 0.130043
Si Si7 0.699989 0.867118 0.901805
O O1 0.803942 0.814732 0.594080
O O2 0.500000 0.000000 0.500000
O O3 0.790924 0.894495 0.687302
O O4 0.287489 0.789872 0.991122
O O5 0.776188 0.460308 0.505489
O O6 0.287362 0.507466 0.731651
O O7 0.789622 0.626356 0.410569
O O8 0.554245 0.395746 0.932187
O O9 0.538511 0.804112 0.555596
O O10 0.760683 0.846909 0.187778
O O11 0.472668 0.021245 0.150535
O O12 0.000000 0.000000 0.000000
O O13 0.113429 0.357959 0.347203
O O14 0.542413 0.268965 0.774864
O O15 0.953058 0.842585 0.902603
#
# Coordination Sequence:
#
# PCOD9019364 Si02
#       7
#     2   2   2   2   2   2   2
#     4  12  24  45  68 106 143 187 237 294 362 417
#     4  10  24  44  69 105 144 190 240 286 362 421
#     4  12  22  44  71 103 142 183 237 297 358 414
#     4  12  23  41  73 104 141 189 239 290 354 429
#     4  10  21  44  71 103 148 189 232 300 352 419
#     4  11  26  46  70 102 143 190 235 295 355 428
#     4  11  22  45  73 100 143 190 233 294 364 412
#
# _framework density 25.107652999999999
#
# number of rings (size 3 to 8) (size 9 to 14) (size 15 to 20)
#    0.000    0.857    5.714    0.857    0.000    1.714 
#    2.571    0.000    0.000    0.000    0.000    0.000 
#    0.000    0.000    0.000    0.000    0.000    0.000 
#
# Total GULP energy -78352.788993 kJ/mol
# GULP energy per Si atom -5596.627785 kJ/mol
# Density = 2.505051 g / cm^3
# Si number density = 25.107653 Si / 1000 Ang^3
#
#
#
# Elastic Constant Matrix: (Units=GPa)
#
#
# Indices 1 2 3 4 5 6 
#
# 1 115.2512 11.1957 23.0560 -2.8983 19.1277 8.9497
# 2 11.1957 172.1991 4.3386 -1.7597 -11.3589 26.2507
# 3 23.0560 4.3386 109.8765 -20.0424 18.9624 16.5746
# 4 -2.8983 -1.7597 -20.0424 30.9812 -1.3972 4.3828
# 5 19.1277 -11.3589 18.9624 -1.3972 39.5283 -1.3047
# 6 8.9497 26.2507 16.5746 4.3828 -1.3047 39.3032
#
#
#
# Elastic Compliance Matrix: (Units=1/GPa)
#
#
# Indices 1 2 3 4 5 6 
#
# 1 0.009813 -0.000671 -0.000969 0.000270 -0.004519 -0.001558
# 2 -0.000671 0.006680 0.000494 0.001374 0.001904 -0.004607
# 3 -0.000969 0.000494 0.012881 0.008975 -0.005473 -0.006724
# 4 0.000270 0.001374 0.008975 0.039362 -0.002955 -0.009251
# 5 -0.004519 0.001904 -0.005473 -0.002955 0.030666 0.003413
# 6 -0.001558 -0.004607 -0.006724 -0.009251 0.003413 0.032856
#
#
# Mechanical properties :
#
#
# Convention : Reuss Voigt Hill
#
# Bulk Modulus (GPa) = 36.92395 52.72304 44.82349
# Shear Modulus (GPa) = 34.82431 45.87832 40.35131
#
# Velocity S-wave (km/s) = 3.72829 4.27929 4.01325
# Velocity P-wave (km/s) = 5.76816 6.74246 6.27425
#
# Compressibility (1/GPa) = 0.02708270
#
# Stress axis : x y z
#
# Youngs Moduli (GPa) = 101.90115 149.69062 77.63537
#
# Poissons Ratio (x) = 0.10051 0.07520
# Poissons Ratio (y) = 0.06842 -0.03836
# Poissons Ratio (z) = 0.09870 -0.07397
#
# Static dielectric constant tensor:
#      x y z
#    x 1.953670 0.016340 0.008100 
#    y 0.016340 1.990070 -0.052650 
#    z 0.008100 -0.052650 2.077150 
# 
# From -- ./inp_files/405219.got.cif
#   From: 2010.05.17/outbox.cif.g08.bks.cpg/sg2_203_cif.got.tgz:405219.got - 2010.06.03 11:33:40.
