data_PCOD9019408
_publ_section_title
;
Structure prediction by ZEFSAII (Michael W. Deem and Ramdas Pophale) SiO2 
 PCOD9019408
Probable space group: P -1
;
_chemical_formula_sum "Si O2"
_cell_formula_units_Z 14
_cell_length_a 11.448920
_cell_length_b 5.390954
_cell_length_c 9.503086
_cell_angle_alpha 79.423080
_cell_angle_beta 94.004802
_cell_angle_gamma 98.072969
_cell_volume 570.271435
_symmetry_space_group_name_H-M "P -1"
_symmetry_group_IT_number 2
_symmetry_cell_setting 'triclinic'
loop_
_space_group_symop_operation_xyz
x,y,z
-x,-y,-z
loop_
_atom_site_type_symbol
_atom_site_label
_atom_site_fract_x
_atom_site_fract_y
_atom_site_fract_z
Si Si1 0.447113 0.723105 0.385115
Si Si2 0.651165 0.204552 0.362768
Si Si3 0.134657 0.047560 0.669385
Si Si4 0.126796 0.551969 0.085480
Si Si5 0.539980 0.626433 0.134884
Si Si6 0.223407 0.126678 0.959069
Si Si7 0.072083 0.358437 0.404199
O O1 0.500000 0.500000 0.500000
O O2 0.338610 0.767913 0.469972
O O3 0.432614 0.666900 0.225182
O O4 0.546872 0.968786 0.364391
O O5 0.610066 0.441176 0.253757
O O6 0.770185 0.146164 0.309895
O O7 0.147449 0.177012 0.808049
O O8 0.165543 0.242600 0.523498
O O9 0.009922 0.884051 0.645795
O O10 0.114912 0.518605 0.255859
O O11 0.202789 0.341905 0.047993
O O12 0.000000 0.500000 0.000000
O O13 0.178412 0.842188 0.030823
O O14 0.639785 0.856314 0.078698
O O15 0.500000 0.500000 0.000000
O O16 0.000000 0.500000 0.500000
#
# Coordination Sequence:
#
# PCOD9019408 Si02
#       7
#     2   2   2   2   2   2   2
#     4   9  20  41  69  98 132 183 241 300 365 426
#     4  10  21  44  71  98 136 192 242 300 366 434
#     4  11  24  45  74 104 142 193 249 294 367 446
#     4  12  26  48  75 107 152 192 246 307 373 451
#     4  11  25  46  69 104 147 190 248 308 367 442
#     4  12  26  48  76 107 144 207 243 295 390 444
#     4  11  27  45  72 108 147 187 242 311 359 437
#
# _framework density 24.549709
#
# number of rings (size 3 to 8) (size 9 to 14) (size 15 to 20)
#    0.000    1.143    2.857    2.143    6.000    0.571 
#   10.286    0.000    0.000    0.000    0.000    0.000 
#    0.000    0.000    0.000    0.000    0.000    0.000 
#
# Total GULP energy -78348.178978 kJ/mol
# GULP energy per Si atom -5596.298498 kJ/mol
# Density = 2.449383 g / cm^3
# Si number density = 24.549709 Si / 1000 Ang^3
#
#
#
# Elastic Constant Matrix: (Units=GPa)
#
#
# Indices 1 2 3 4 5 6 
#
# 1 33.3084 15.7116 31.6430 0.2878 -14.2947 1.4376
# 2 15.7116 110.9212 54.5156 -9.1318 -15.9613 24.6383
# 3 31.6430 54.5156 219.1697 15.7416 -30.9968 11.5253
# 4 0.2878 -9.1318 15.7416 52.7314 -2.6042 -14.3145
# 5 -14.2947 -15.9613 -30.9968 -2.6042 31.5331 5.6714
# 6 1.4376 24.6383 11.5253 -14.3145 5.6714 44.3840
#
#
#
# Elastic Compliance Matrix: (Units=1/GPa)
#
#
# Indices 1 2 3 4 5 6 
#
# 1 0.040200 -0.001669 -0.003376 0.000927 0.014322 -0.001030
# 2 -0.001669 0.012469 -0.001891 0.001178 0.004987 -0.006634
# 3 -0.003376 -0.001891 0.006339 -0.002495 0.003859 -0.001785
# 4 0.000927 0.001178 -0.002495 0.021793 -0.000915 0.007109
# 5 0.014322 0.004987 0.003859 -0.000915 0.046326 -0.010449
# 6 -0.001030 -0.006634 -0.001785 0.007109 -0.010449 0.030338
#
#
# Mechanical properties :
#
#
# Convention : Reuss Voigt Hill
#
# Bulk Modulus (GPa) = 22.15493 63.01553 42.58523
# Shear Modulus (GPa) = 26.82654 43.16497 34.99575
#
# Velocity S-wave (km/s) = 3.30925 4.19772 3.77968
# Velocity P-wave (km/s) = 4.86268 7.01561 6.03591
#
# Compressibility (1/GPa) = 0.04513668
#
# Stress axis : x y z
#
# Youngs Moduli (GPa) = 24.87591 80.19596 157.74641
#
# Poissons Ratio (x) = 0.13385 0.53248
# Poissons Ratio (y) = 0.04152 0.29833
# Poissons Ratio (z) = 0.08397 0.15167
#
# Static dielectric constant tensor:
#      x y z
#    x 2.006900 -0.020650 -0.003500 
#    y -0.020650 2.064300 0.008370 
#    z -0.003500 0.008370 1.973420 
# 
# From -- ./inp_files/27567.got.cif
#   From: 2010.05.17/outbox.cif.g08.bks.cpg/sg2_14_cif.got.tgz:27567.got - 2010.06.03 11:33:40.
