data_PCOD9019000
_publ_section_title
;
Structure prediction by ZEFSAII (Michael W. Deem and Ramdas Pophale) SiO2 
 PCOD9019000
Probable space group: P -1
;
_chemical_formula_sum "Si O2"
_cell_formula_units_Z 16
_cell_length_a 8.506713
_cell_length_b 15.677975
_cell_length_c 14.755239
_cell_angle_alpha 37.140143
_cell_angle_beta 61.933567
_cell_angle_gamma 89.310069
_cell_volume 767.361190
_symmetry_space_group_name_H-M "P -1"
_symmetry_group_IT_number 2
_symmetry_cell_setting 'triclinic'
loop_
_space_group_symop_operation_xyz
x,y,z
-x,-y,-z
loop_
_atom_site_type_symbol
_atom_site_label
_atom_site_fract_x
_atom_site_fract_y
_atom_site_fract_z
Si Si1 0.554758 0.539160 0.056223
Si Si2 0.097918 0.897352 0.592927
Si Si3 0.069377 0.650965 0.933160
Si Si4 0.415779 0.781135 0.890004
Si Si5 0.712057 0.877630 0.179156
Si Si6 0.369805 0.584372 0.362496
Si Si7 0.194288 0.758537 0.150222
Si Si8 0.534216 0.404290 0.355426
O O1 0.449056 0.375187 0.298171
O O2 0.500000 0.500000 0.000000
O O3 0.480997 0.656586 0.006919
O O4 0.843505 0.679458 0.852733
O O5 0.327282 0.999782 0.379022
O O6 0.000000 0.000000 0.500000
O O7 0.181211 0.866172 0.690726
O O8 0.822637 0.536921 0.155513
O O9 0.000000 0.500000 0.000000
O O10 0.273671 0.696662 0.905400
O O11 0.253813 0.763669 0.025072
O O12 0.554585 0.708233 0.290753
O O13 0.598286 0.782451 0.389039
O O14 0.693977 0.032093 0.029750
O O15 0.000000 0.000000 0.000000
O O16 0.319006 0.701153 0.222368
O O17 0.475516 0.519900 0.323776
O O18 0.097069 0.394947 0.628011
#
# Coordination Sequence:
#
# PCOD9019000 Si02
#       8
#     2   2   2   2   2   2   2   2
#     4  10  21  44  67  93 132 180 227 270 334 410
#     4   9  21  40  60  89 129 168 219 272 327 392
#     4  11  24  40  65  95 131 177 221 276 335 396
#     4  11  21  40  65  97 129 172 223 278 339 397
#     4  12  26  44  70 108 135 174 234 287 340 415
#     4  11  24  49  71  95 142 182 225 285 343 420
#     4  11  25  45  72 100 138 180 227 283 348 411
#     4  11  23  45  67  97 135 185 221 275 355 394
#
# _framework density 20.850679
#
# number of rings (size 3 to 8) (size 9 to 14) (size 15 to 20)
#    0.000    1.250    2.500    3.375    3.500    0.000 
#    9.000    0.000    0.000    0.000    0.000    0.000 
#    0.000    0.000    0.000    0.000    0.000    0.000 
#
# Total GULP energy -89073.355721 kJ/mol
# GULP energy per Si atom -5567.084733 kJ/mol
# Density = 2.080322 g / cm^3
# Si number density = 20.850679 Si / 1000 Ang^3
#
#
#
# Elastic Constant Matrix: (Units=GPa)
#
#
# Indices 1 2 3 4 5 6 
#
# 1 97.7302 23.1717 47.1412 8.3514 3.1236 -6.3993
# 2 23.1717 87.9481 36.4458 15.6485 -8.7457 -2.4169
# 3 47.1412 36.4458 124.1977 29.1541 15.0790 -7.4258
# 4 8.3514 15.6485 29.1541 29.7015 -6.3489 3.1106
# 5 3.1236 -8.7457 15.0790 -6.3489 37.7852 1.6008
# 6 -6.3993 -2.4169 -7.4258 3.1106 1.6008 43.2318
#
#
#
# Elastic Compliance Matrix: (Units=1/GPa)
#
#
# Indices 1 2 3 4 5 6 
#
# 1 0.012853 -0.001603 -0.005003 0.002257 0.000910 0.000758
# 2 -0.001603 0.014122 -0.003424 -0.002707 0.004313 -0.000001
# 3 -0.005003 -0.003424 0.015647 -0.014439 -0.009182 0.003135
# 4 0.002257 -0.002707 -0.014439 0.052319 0.014019 -0.006581
# 5 0.000910 0.004313 -0.009182 0.014019 0.033555 -0.003453
# 6 0.000758 -0.000001 0.003135 -0.006581 -0.003453 0.024383
#
#
# Mechanical properties :
#
#
# Convention : Reuss Voigt Hill
#
# Bulk Modulus (GPa) = 44.32261 58.15482 51.23871
# Shear Modulus (GPa) = 27.70692 35.68484 31.69588
#
# Velocity S-wave (km/s) = 3.64926 4.14145 3.90312
# Velocity P-wave (km/s) = 6.24976 7.12885 6.70373
#
# Compressibility (1/GPa) = 0.02256185
#
# Stress axis : x y z
#
# Youngs Moduli (GPa) = 77.80036 70.81100 63.90967
#
# Poissons Ratio (x) = 0.11354 0.31975
# Poissons Ratio (y) = 0.12475 0.21881
# Poissons Ratio (z) = 0.38925 0.24244
#
# Static dielectric constant tensor:
#      x y z
#    x 1.431310 -0.088470 -0.006360 
#    y -0.088470 1.749400 -0.040970 
#    z -0.006360 -0.040970 1.733390 
# 
# From -- ./inp_files/503805.got.cif
#   From: 2010.05.17/outbox.cif.g08.bks.cpg/sg2_252_cif.got.tgz:503805.got - 2010.06.03 11:33:40.
