data_PCOD9019919
_publ_section_title
;
Structure prediction by ZEFSAII (Michael W. Deem and Ramdas Pophale) SiO2 
 PCOD9019919
Probable space group: P -1
;
_chemical_formula_sum "Si O2"
_cell_formula_units_Z 16
_cell_length_a 7.256220
_cell_length_b 12.269600
_cell_length_c 12.789876
_cell_angle_alpha 46.382939
_cell_angle_beta 76.331322
_cell_angle_gamma 108.482965
_cell_volume 585.543104
_symmetry_space_group_name_H-M "P -1"
_symmetry_group_IT_number 2
_symmetry_cell_setting 'triclinic'
loop_
_space_group_symop_operation_xyz
x,y,z
-x,-y,-z
loop_
_atom_site_type_symbol
_atom_site_label
_atom_site_fract_x
_atom_site_fract_y
_atom_site_fract_z
Si Si1 0.133443 0.325420 0.261010
Si Si2 0.453830 0.050818 0.345915
Si Si3 0.095430 0.490653 0.360210
Si Si4 0.668829 0.449174 0.132774
Si Si5 0.360271 0.154401 0.860668
Si Si6 0.293368 0.105959 0.670299
Si Si7 0.236078 0.423635 0.732358
Si Si8 0.202913 0.969487 0.228606
O O1 0.173904 0.475188 0.244572
O O2 0.366442 0.335925 0.248107
O O3 0.190184 0.407000 0.081886
O O4 0.839295 0.111104 0.462021
O O5 0.647766 0.259299 0.247053
O O6 0.425339 0.048279 0.622158
O O7 0.416775 0.104376 0.200518
O O8 0.338405 0.643681 0.300425
O O9 0.047280 0.430402 0.691278
O O10 0.918802 0.259487 0.579734
O O11 0.796585 0.571395 0.142160
O O12 0.302041 0.052238 0.824242
O O13 0.221993 0.242764 0.822920
O O14 0.295782 0.031408 0.056536
O O15 0.479128 0.353170 0.476914
O O16 0.013176 0.017342 0.736397
#
# Coordination Sequence:
#
# PCOD9019919 Si02
#       8
#     2   2   2   2   2   2   2   2
#     4  10  21  45  72 108 144 193 244 295 373 435
#     4  11  25  49  72 108 151 192 237 307 370 431
#     4  11  24  49  72 107 153 189 244 303 370 438
#     4  11  24  44  76 106 149 193 244 301 365 439
#     4  12  27  48  79 105 149 198 241 311 367 431
#     4  12  26  50  75 110 146 193 252 298 372 438
#     4  12  25  49  72 112 149 191 246 304 365 438
#     4  11  25  48  75 108 148 193 247 304 366 440
#
# _framework density 27.325060000000001
#
# number of rings (size 3 to 8) (size 9 to 14) (size 15 to 20)
#    0.000    0.750    5.000    2.625    1.750    5.000 
#    2.250    0.000    0.000    0.000    0.000    0.000 
#    0.000    0.000    0.000    0.000    0.000    0.000 
#
# Total GULP energy -89968.237091 kJ/mol
# GULP energy per Si atom -5623.014818 kJ/mol
# Density = 2.726287 g / cm^3
# Si number density = 27.325060 Si / 1000 Ang^3
#
#
#
# Elastic Constant Matrix: (Units=GPa)
#
#
# Indices 1 2 3 4 5 6 
#
# 1 140.8017 41.5024 28.7594 7.5182 6.4881 -5.4286
# 2 41.5024 123.4488 42.3841 19.1587 4.4373 -2.3975
# 3 28.7594 42.3841 122.4867 27.0922 28.9837 -21.5939
# 4 7.5182 19.1587 27.0922 50.1312 10.1059 8.1053
# 5 6.4881 4.4373 28.9837 10.1059 32.1395 11.1235
# 6 -5.4286 -2.3975 -21.5939 8.1053 11.1235 33.9816
#
#
#
# Elastic Compliance Matrix: (Units=1/GPa)
#
#
# Indices 1 2 3 4 5 6 
#
# 1 0.008036 -0.002450 -0.000602 0.000114 -0.001150 0.001077
# 2 -0.002450 0.010475 -0.004538 -0.001568 0.004943 -0.003780
# 3 -0.000602 -0.004538 0.021605 -0.008769 -0.024032 0.023270
# 4 0.000114 -0.001568 -0.008769 0.026554 0.004403 -0.013440
# 5 -0.001150 0.004943 -0.024032 0.004403 0.063767 -0.037030
# 6 0.001077 -0.003780 0.023270 -0.013440 -0.037030 0.059447
#
#
# Mechanical properties :
#
#
# Convention : Reuss Voigt Hill
#
# Bulk Modulus (GPa) = 40.10743 68.00323 54.05533
# Shear Modulus (GPa) = 23.43272 41.52323 32.47798
#
# Velocity S-wave (km/s) = 2.93158 3.90244 3.45132
# Velocity P-wave (km/s) = 5.11553 6.72653 5.97557
#
# Compressibility (1/GPa) = 0.02493304
#
# Stress axis : x y z
#
# Youngs Moduli (GPa) = 124.44243 95.46728 46.28657
#
# Poissons Ratio (x) = 0.23392 0.02788
# Poissons Ratio (y) = 0.30492 0.21007
# Poissons Ratio (z) = 0.07495 0.43328
#
# Static dielectric constant tensor:
#      x y z
#    x 2.079350 -0.012550 -0.023780 
#    y -0.012550 2.085610 0.004270 
#    z -0.023780 0.004270 2.162360 
# 
# From -- ./inp_files/349129.got.cif
#   From: 2010.05.17/outbox.cif.g08.bks.cpg/sg2_175_cif.got.tgz:349129.got - 2010.06.03 11:33:40.
