data_PCOD9019768
_publ_section_title
;
Structure prediction by ZEFSAII (Michael W. Deem and Ramdas Pophale) SiO2 
 PCOD9019768
Probable space group: P -1
;
_chemical_formula_sum "Si O2"
_cell_formula_units_Z 14
_cell_length_a 20.711786
_cell_length_b 13.263039
_cell_length_c 9.026072
_cell_angle_alpha 33.745891
_cell_angle_beta 34.242096
_cell_angle_gamma 32.595941
_cell_volume 672.883409
_symmetry_space_group_name_H-M "P -1"
_symmetry_group_IT_number 2
_symmetry_cell_setting 'triclinic'
loop_
_space_group_symop_operation_xyz
x,y,z
-x,-y,-z
loop_
_atom_site_type_symbol
_atom_site_label
_atom_site_fract_x
_atom_site_fract_y
_atom_site_fract_z
Si Si1 0.074010 0.318110 0.460271
Si Si2 0.421099 0.385436 0.830705
Si Si3 0.201286 0.511045 0.318173
Si Si4 0.470698 0.007848 0.719205
Si Si5 0.709577 0.635679 0.180608
Si Si6 0.339551 0.619814 0.184716
Si Si7 0.259196 0.056335 0.676535
O O1 0.170927 0.116398 0.622026
O O2 0.000000 0.500000 0.500000
O O3 0.953181 0.319904 0.601412
O O4 0.157126 0.385809 0.113801
O O5 0.500000 0.500000 0.500000
O O6 0.390232 0.293947 0.854894
O O7 0.279002 0.521797 0.012289
O O8 0.508122 0.211228 0.998736
O O9 0.277412 0.539377 0.274991
O O10 0.217064 0.278122 0.566773
O O11 0.338257 0.193085 0.808189
O O12 0.500000 0.000000 0.500000
O O13 0.588417 0.027400 0.550795
O O14 0.700714 0.444025 0.506672
O O15 0.500000 0.500000 0.000000
O O16 0.270611 0.869130 0.984269
#
# Coordination Sequence:
#
# PCOD9019768 Si02
#       7
#     2   2   2   2   2   2   2
#     4  10  21  45  68  90 133 185 229 269 328 408
#     4  11  23  37  64  99 130 166 223 278 337 391
#     4  10  23  46  67  91 138 180 219 279 333 401
#     4  11  23  40  62  97 135 172 218 275 350 393
#     4  12  22  39  68  96 130 178 220 275 337 404
#     4  12  25  39  66 103 136 167 224 283 341 398
#     4  10  22  41  68  92 136 178 214 280 344 386
#
# _framework density 20.805982
#
# number of rings (size 3 to 8) (size 9 to 14) (size 15 to 20)
#    0.000    1.143    5.714    3.000    2.000    1.143 
#    0.000    2.857    0.000    0.000    0.000    0.000 
#    0.000    0.000    0.000    0.000    0.000    0.000 
#
# Total GULP energy -78098.876057 kJ/mol
# GULP energy per Si atom -5578.491147 kJ/mol
# Density = 2.075863 g / cm^3
# Si number density = 20.805982 Si / 1000 Ang^3
#
#
#
# Elastic Constant Matrix: (Units=GPa)
#
#
# Indices 1 2 3 4 5 6 
#
# 1 119.3386 29.6955 45.4146 9.0577 -0.2322 -17.0522
# 2 29.6955 67.3192 68.9718 13.3012 -0.7352 -15.6250
# 3 45.4146 68.9718 195.4834 -5.9771 15.9801 -18.5929
# 4 9.0577 13.3012 -5.9771 36.1990 -0.4273 5.7487
# 5 -0.2322 -0.7352 15.9801 -0.4273 34.3816 3.5548
# 6 -17.0522 -15.6250 -18.5929 5.7487 3.5548 32.4483
#
#
#
# Elastic Compliance Matrix: (Units=1/GPa)
#
#
# Indices 1 2 3 4 5 6 
#
# 1 0.010153 -0.001167 -0.001655 -0.003069 0.000327 0.004333
# 2 -0.001167 0.031867 -0.010766 -0.014845 0.004385 0.010713
# 3 -0.001655 -0.010766 0.009762 0.006092 -0.004596 -0.001036
# 4 -0.003069 -0.014845 0.006092 0.036678 -0.001514 -0.011602
# 5 0.000327 0.004385 -0.004596 -0.001514 0.031666 -0.003551
# 6 0.004333 0.010713 -0.001036 -0.011602 -0.003551 0.040104
#
#
# Mechanical properties :
#
#
# Convention : Reuss Voigt Hill
#
# Bulk Modulus (GPa) = 40.64151 74.47834 57.55992
# Shear Modulus (GPa) = 25.56134 36.47638 31.01886
#
# Velocity S-wave (km/s) = 3.50888 4.19163 3.86536
# Velocity P-wave (km/s) = 5.99936 7.70069 6.90264
#
# Compressibility (1/GPa) = 0.02460539
#
# Stress axis : x y z
#
# Youngs Moduli (GPa) = 98.49756 31.38055 102.43763
#
# Poissons Ratio (x) = 0.03661 0.16958
# Poissons Ratio (y) = 0.11491 1.10284
# Poissons Ratio (z) = 0.16306 0.33784
#
# Static dielectric constant tensor:
#      x y z
#    x 1.822580 -0.017200 0.001480 
#    y -0.017200 1.808350 -0.049540 
#    z 0.001480 -0.049540 1.773890 
# 
# From -- ./inp_files/354252.got.cif
#   From: 2010.05.17/outbox.cif.g08.bks.cpg/sg2_178_cif.got.tgz:354252.got - 2010.06.03 11:33:40.
