data_PCOD9019094
_publ_section_title
;
Structure prediction by ZEFSAII (Michael W. Deem and Ramdas Pophale) SiO2 
 PCOD9019094
Probable space group: P -1
;
_chemical_formula_sum "Si O2"
_cell_formula_units_Z 16
_cell_length_a 9.763263
_cell_length_b 11.950808
_cell_length_c 9.473750
_cell_angle_alpha 79.639732
_cell_angle_beta 45.169147
_cell_angle_gamma 80.930389
_cell_volume 770.395353
_symmetry_space_group_name_H-M "P -1"
_symmetry_group_IT_number 2
_symmetry_cell_setting 'triclinic'
loop_
_space_group_symop_operation_xyz
x,y,z
-x,-y,-z
loop_
_atom_site_type_symbol
_atom_site_label
_atom_site_fract_x
_atom_site_fract_y
_atom_site_fract_z
Si Si1 0.073827 0.101836 0.518332
Si Si2 0.681175 0.446193 0.794704
Si Si3 0.258970 0.613595 0.713795
Si Si4 0.462453 0.992141 0.195857
Si Si5 0.749973 0.243164 0.586631
Si Si6 0.131038 0.929887 0.029389
Si Si7 0.305258 0.402441 0.515558
Si Si8 0.071857 0.674972 0.112668
O O1 0.956648 0.211939 0.517104
O O2 0.988624 0.075082 0.737827
O O3 0.303885 0.089063 0.339878
O O4 0.000000 0.000000 0.500000
O O5 0.644696 0.337860 0.743278
O O6 0.740245 0.541099 0.616642
O O7 0.829941 0.400511 0.816685
O O8 0.500000 0.500000 0.000000
O O9 0.218229 0.708516 0.602835
O O10 0.269675 0.498203 0.640985
O O11 0.468966 0.630796 0.627590
O O12 0.107598 0.615369 0.949975
O O13 0.372884 0.869248 0.311463
O O14 0.500000 0.000000 0.000000
O O15 0.666708 0.011068 0.114267
O O16 0.164849 0.796693 0.000524
O O17 0.000000 0.000000 0.000000
O O18 0.152936 0.308747 0.684980
#
# Coordination Sequence:
#
# PCOD9019094 Si02
#       8
#     2   2   2   2   2   2   2   2
#     4  10  21  44  68  91 133 175 232 272 326 406
#     4  11  21  44  69 100 135 169 224 285 326 403
#     4  10  23  42  65  93 132 166 222 271 329 404
#     4  11  22  44  72  95 132 185 233 272 333 408
#     4  10  22  43  68  99 131 179 232 270 335 408
#     4  12  28  44  64 106 141 169 228 289 335 404
#     4  10  23  43  65  93 130 174 217 269 330 407
#     4  12  24  43  65  96 133 173 219 275 347 384
#
# _framework density 20.768557000000001
#
# number of rings (size 3 to 8) (size 9 to 14) (size 15 to 20)
#    0.000    1.250    5.000    0.750    5.250    1.500 
#    2.250    0.000    0.000    0.000    0.000    0.000 
#    0.000    0.000    0.000    0.000    0.000    0.000 
#
# Total GULP energy -89347.454723 kJ/mol
# GULP energy per Si atom -5584.215920 kJ/mol
# Density = 2.072129 g / cm^3
# Si number density = 20.768557 Si / 1000 Ang^3
#
#
#
# Elastic Constant Matrix: (Units=GPa)
#
#
# Indices 1 2 3 4 5 6 
#
# 1 117.7227 33.3338 59.1847 -13.7157 0.4619 -24.5712
# 2 33.3338 58.4786 43.5743 3.0659 1.5394 -7.1430
# 3 59.1847 43.5743 116.6754 5.7810 -0.4579 -10.5020
# 4 -13.7157 3.0659 5.7810 34.4991 -0.4327 2.1368
# 5 0.4619 1.5394 -0.4579 -0.4327 46.7138 -4.1121
# 6 -24.5712 -7.1430 -10.5020 2.1368 -4.1121 32.8872
#
#
#
# Elastic Compliance Matrix: (Units=1/GPa)
#
#
# Indices 1 2 3 4 5 6 
#
# 1 0.014915 -0.003518 -0.005848 0.006726 0.000692 0.008162
# 2 -0.003518 0.024752 -0.007301 -0.002415 -0.000834 0.000468
# 3 -0.005848 -0.007301 0.014368 -0.004014 0.000308 -0.001067
# 4 0.006726 -0.002415 -0.004014 0.032480 0.000376 0.001155
# 5 0.000692 -0.000834 0.000308 0.000376 0.021709 0.003124
# 6 0.008162 0.000468 -0.001067 0.001155 0.003124 0.036581
#
#
# Mechanical properties :
#
#
# Convention : Reuss Voigt Hill
#
# Bulk Modulus (GPa) = 48.30730 62.78471 55.54600
# Shear Modulus (GPa) = 27.02137 33.27226 30.14682
#
# Velocity S-wave (km/s) = 3.61095 4.00690 3.81407
# Velocity P-wave (km/s) = 6.37931 7.19050 6.79702
#
# Compressibility (1/GPa) = 0.02070081
#
# Stress axis : x y z
#
# Youngs Moduli (GPa) = 67.04624 40.40157 69.60103
#
# Poissons Ratio (x) = 0.14215 0.40700
# Poissons Ratio (y) = 0.23590 0.50813
# Poissons Ratio (z) = 0.39207 0.29495
#
# Static dielectric constant tensor:
#      x y z
#    x 1.737670 -0.028060 0.014710 
#    y -0.028060 1.713490 0.082730 
#    z 0.014710 0.082730 1.632390 
# 
# From -- ./inp_files/186374.got.cif
#   From: 2010.05.17/outbox.cif.g08.bks.cpg/sg2_94_cif.got.tgz:186374.got - 2010.06.03 11:33:40.
