data_PCOD9019549
_publ_section_title
;
Structure prediction by ZEFSAII (Michael W. Deem and Ramdas Pophale) SiO2 
 PCOD9019549
Probable space group: P -1
;
_chemical_formula_sum "Si O2"
_cell_formula_units_Z 14
_cell_length_a 9.004138
_cell_length_b 15.111432
_cell_length_c 8.139626
_cell_angle_alpha 144.282558
_cell_angle_beta 62.069087
_cell_angle_gamma 120.586778
_cell_volume 553.219074
_symmetry_space_group_name_H-M "P -1"
_symmetry_group_IT_number 2
_symmetry_cell_setting 'triclinic'
loop_
_space_group_symop_operation_xyz
x,y,z
-x,-y,-z
loop_
_atom_site_type_symbol
_atom_site_label
_atom_site_fract_x
_atom_site_fract_y
_atom_site_fract_z
Si Si1 0.346930 0.900753 0.310054
Si Si2 0.153757 0.004244 0.798278
Si Si3 0.249617 0.844273 0.784655
Si Si4 0.379893 0.126391 0.341108
Si Si5 0.698588 0.577490 0.062849
Si Si6 0.867304 0.659678 0.761272
Si Si7 0.325013 0.538953 0.726879
O O1 0.500000 0.000000 0.500000
O O2 0.161490 0.933202 0.506367
O O3 0.389864 0.988215 0.248744
O O4 0.347835 0.723479 0.012206
O O5 0.233017 0.866212 0.632594
O O6 0.218553 0.192077 0.011049
O O7 0.000000 0.000000 0.000000
O O8 0.418662 0.786534 0.657968
O O9 0.071405 0.742185 0.792329
O O10 0.283862 0.028869 0.093243
O O11 0.281095 0.239644 0.643174
O O12 0.721360 0.519910 0.149766
O O13 0.500000 0.500000 0.000000
O O14 0.806260 0.572107 0.832623
O O15 0.819958 0.546227 0.457675
O O16 0.500000 0.500000 0.500000
#
# Coordination Sequence:
#
# PCOD9019549 Si02
#       7
#     2   2   2   2   2   2   2
#     4  12  23  45  75 107 142 191 252 300 361 455
#     4  10  21  44  74 102 145 188 237 308 368 424
#     4  10  24  41  73 105 143 185 244 314 361 434
#     4  11  24  44  75 106 135 193 255 296 372 444
#     4  12  25  45  75 107 149 196 246 303 371 444
#     4  11  24  49  71 108 153 189 245 312 369 434
#     4  12  27  45  78 111 150 201 243 300 384 438
#
# _framework density 25.306431
#
# number of rings (size 3 to 8) (size 9 to 14) (size 15 to 20)
#    0.000    0.857    4.286    2.571    4.000    0.571 
#    5.143    5.714    0.000    0.000    0.000    0.000 
#    0.000    0.000    0.000    0.000    0.000    0.000 
#
# Total GULP energy -78052.430833 kJ/mol
# GULP energy per Si atom -5575.173631 kJ/mol
# Density = 2.524883 g / cm^3
# Si number density = 25.306431 Si / 1000 Ang^3
#
#
#
# Elastic Constant Matrix: (Units=GPa)
#
#
# Indices 1 2 3 4 5 6 
#
# 1 85.1649 40.4683 18.1258 -3.0420 8.4202 18.0308
# 2 40.4683 185.8565 43.4435 -8.9120 4.0164 3.1911
# 3 18.1258 43.4435 180.4302 14.6701 4.7834 2.2911
# 4 -3.0420 -8.9120 14.6701 40.5826 -0.2219 -8.0687
# 5 8.4202 4.0164 4.7834 -0.2219 21.9379 -1.6107
# 6 18.0308 3.1911 2.2911 -8.0687 -1.6107 45.9624
#
#
#
# Elastic Compliance Matrix: (Units=1/GPa)
#
#
# Indices 1 2 3 4 5 6 
#
# 1 0.015054 -0.002957 -0.000533 -0.000545 -0.005564 -0.005964
# 2 -0.002957 0.006424 -0.001431 0.001935 0.000374 0.001138
# 3 -0.000533 -0.001431 0.006191 -0.002698 -0.000948 -0.000507
# 4 -0.000545 0.001935 -0.002698 0.026999 0.001083 0.004991
# 5 -0.005564 0.000374 -0.000948 0.001083 0.048168 0.004082
# 6 -0.005964 0.001138 -0.000507 0.004991 0.004082 0.025062
#
#
# Mechanical properties :
#
#
# Convention : Reuss Voigt Hill
#
# Bulk Modulus (GPa) = 56.09405 72.83632 64.46519
# Shear Modulus (GPa) = 34.79903 44.99085 39.89494
#
# Velocity S-wave (km/s) = 3.71227 4.22102 3.97479
# Velocity P-wave (km/s) = 6.37092 7.25260 6.82601
#
# Compressibility (1/GPa) = 0.01782720
#
# Stress axis : x y z
#
# Youngs Moduli (GPa) = 66.42912 155.66557 161.51267
#
# Poissons Ratio (x) = 0.46025 0.08606
# Poissons Ratio (y) = 0.19641 0.23119
# Poissons Ratio (z) = 0.03540 0.22282
#
# Static dielectric constant tensor:
#      x y z
#    x 2.315500 0.089310 0.008200 
#    y 0.089310 2.091410 0.043520 
#    z 0.008200 0.043520 2.062740 
# 
# From -- ./inp_files/271283.got.cif
#   From: 2010.05.17/outbox.cif.g08.bks.cpg/sg2_136_cif.got.tgz:271283.got - 2010.06.03 11:33:40.
