data_PCOD9019010
_publ_section_title
;
Structure prediction by ZEFSAII (Michael W. Deem and Ramdas Pophale) SiO2 
 PCOD9019010
Probable space group: P -1
;
_chemical_formula_sum "Si O2"
_cell_formula_units_Z 16
_cell_length_a 11.470628
_cell_length_b 9.391607
_cell_length_c 6.664133
_cell_angle_alpha 74.703170
_cell_angle_beta 102.874432
_cell_angle_gamma 110.276640
_cell_volume 642.679489
_symmetry_space_group_name_H-M "P -1"
_symmetry_group_IT_number 2
_symmetry_cell_setting 'triclinic'
loop_
_space_group_symop_operation_xyz
x,y,z
-x,-y,-z
loop_
_atom_site_type_symbol
_atom_site_label
_atom_site_fract_x
_atom_site_fract_y
_atom_site_fract_z
Si Si1 0.371133 0.745474 0.380488
Si Si2 0.080771 0.646031 0.780852
Si Si3 0.483975 0.654731 0.832716
Si Si4 0.812579 0.514354 0.835165
Si Si5 0.397018 0.160344 0.828997
Si Si6 0.288758 0.240006 0.424169
Si Si7 0.820701 0.100986 0.930725
Si Si8 0.094911 0.933507 0.429153
O O1 0.380461 0.681726 0.630371
O O2 0.313350 0.592676 0.276482
O O3 0.505710 0.853269 0.304826
O O4 0.271040 0.834370 0.266935
O O5 0.088018 0.760569 0.556896
O O6 0.943159 0.520851 0.775847
O O7 0.174777 0.547869 0.914178
O O8 0.106638 0.769040 0.931302
O O9 0.602319 0.706498 0.711846
O O10 0.500000 0.500000 0.000000
O O11 0.508044 0.775889 0.977173
O O12 0.812612 0.687789 0.731159
O O13 0.339666 0.285414 0.651697
O O14 0.278032 0.033391 0.928661
O O15 0.229611 0.056394 0.482780
O O16 0.911664 0.060173 0.817266
O O17 0.000000 0.000000 0.500000
#
# Coordination Sequence:
#
# PCOD9019010 Si02
#       8
#     2   2   2   2   2   2   2   2
#     4  10  24  42  67  98 138 175 221 274 328 401
#     4  10  23  44  69  94 134 174 228 276 331 392
#     4  11  23  40  64 102 132 178 222 267 333 403
#     4  10  21  44  67  94 133 179 216 276 334 387
#     4  11  22  41  66 100 134 175 219 274 332 398
#     4  11  22  41  66  97 136 172 221 274 330 394
#     4  11  24  43  67 102 132 174 224 272 340 396
#     4  12  24  44  68  97 132 175 223 281 332 391
#
# _framework density 24.895769000000001
#
# number of rings (size 3 to 8) (size 9 to 14) (size 15 to 20)
#    0.000    1.250    3.750    1.875    0.000    6.000 
#    2.250    6.875    0.000    0.000    0.000    0.000 
#    0.000    0.000    0.000    0.000    0.000    0.000 
#
# Total GULP energy -89191.357296 kJ/mol
# GULP energy per Si atom -5574.459831 kJ/mol
# Density = 2.483910 g / cm^3
# Si number density = 24.895769 Si / 1000 Ang^3
#
#
#
# Elastic Constant Matrix: (Units=GPa)
#
#
# Indices 1 2 3 4 5 6 
#
# 1 61.9000 19.4512 68.8306 -17.5160 -4.2829 12.7737
# 2 19.4512 51.6976 35.8591 -24.9656 -16.8179 23.1617
# 3 68.8306 35.8591 171.1607 -33.2106 -4.7661 9.5550
# 4 -17.5160 -24.9656 -33.2106 44.2265 3.7848 -5.1923
# 5 -4.2829 -16.8179 -4.7661 3.7848 48.8833 -10.7351
# 6 12.7737 23.1617 9.5550 -5.1923 -10.7351 38.2768
#
#
#
# Elastic Compliance Matrix: (Units=1/GPa)
#
#
# Indices 1 2 3 4 5 6 
#
# 1 0.031523 0.001834 -0.011902 0.003615 0.000169 -0.008121
# 2 0.001834 0.042553 -0.004780 0.018045 0.008470 -0.020345
# 3 -0.011902 -0.004780 0.011766 0.001959 -0.000822 0.003962
# 4 0.003615 0.018045 0.001959 0.034642 0.002446 -0.007229
# 5 0.000169 0.008470 -0.000822 0.002446 0.023546 0.001959
# 6 -0.008121 -0.020345 0.003962 -0.007229 0.001959 0.039726
#
#
# Mechanical properties :
#
#
# Convention : Reuss Voigt Hill
#
# Bulk Modulus (GPa) = 17.81033 59.22667 38.51850
# Shear Modulus (GPa) = 21.53619 36.98515 29.26067
#
# Velocity S-wave (km/s) = 2.94437 3.85853 3.43202
# Velocity P-wave (km/s) = 4.32765 6.61003 5.58664
#
# Compressibility (1/GPa) = 0.05614719
#
# Stress axis : x y z
#
# Youngs Moduli (GPa) = 31.72248 23.50013 84.99097
#
# Poissons Ratio (x) = -0.04309 1.01152
# Poissons Ratio (y) = -0.05816 0.40622
# Poissons Ratio (z) = 0.37755 0.11232
#
# Static dielectric constant tensor:
#      x y z
#    x 2.154540 -0.040640 0.055050 
#    y -0.040640 2.019700 0.001150 
#    z 0.055050 0.001150 2.060570 
# 
# From -- ./inp_files/69271.got.cif
#   From: 2010.05.17/outbox.cif.g08.bks.cpg/sg2_35_cif.got.tgz:69271.got - 2010.06.03 11:33:40.
