data_PCOD9019961
_publ_section_title
;
Structure prediction by ZEFSAII (Michael W. Deem and Ramdas Pophale) SiO2 
 PCOD9019961
Probable space group: P -1
;
_chemical_formula_sum "Si O2"
_cell_formula_units_Z 14
_cell_length_a 9.132894
_cell_length_b 16.652272
_cell_length_c 12.319690
_cell_angle_alpha 145.926218
_cell_angle_beta 34.797185
_cell_angle_gamma 135.801403
_cell_volume 595.077503
_symmetry_space_group_name_H-M "P -1"
_symmetry_group_IT_number 2
_symmetry_cell_setting 'triclinic'
loop_
_space_group_symop_operation_xyz
x,y,z
-x,-y,-z
loop_
_atom_site_type_symbol
_atom_site_label
_atom_site_fract_x
_atom_site_fract_y
_atom_site_fract_z
Si Si1 0.247668 0.933884 0.516629
Si Si2 0.790611 0.301177 0.560231
Si Si3 0.241447 0.982232 0.209120
Si Si4 0.592579 0.733380 0.435766
Si Si5 0.306762 0.740120 0.066658
Si Si6 0.716504 0.520260 0.529258
Si Si7 0.110489 0.519420 0.108897
O O1 0.107294 0.822677 0.566420
O O2 0.500000 0.000000 0.500000
O O3 0.239197 0.836504 0.115540
O O4 0.366809 0.856985 0.255837
O O5 0.590984 0.236937 0.520411
O O6 0.025572 0.406199 0.484045
O O7 0.697207 0.400296 0.826210
O O8 0.274180 0.124013 0.426419
O O9 0.978254 0.981111 0.298833
O O10 0.500000 0.000000 0.000000
O O11 0.416246 0.629309 0.509836
O O12 0.783235 0.627587 0.150450
O O13 0.525899 0.641845 0.791074
O O14 0.165020 0.498283 0.683278
O O15 0.109048 0.626595 0.128164
#
# Coordination Sequence:
#
# PCOD9019961 Si02
#       7
#     2   2   2   2   2   2   2
#     4  11  24  47  72 102 145 199 241 300 367 438
#     4   9  19  39  72 104 146 184 243 291 360 437
#     4  12  28  47  71 110 149 188 250 303 364 433
#     4  11  21  43  71 110 145 191 236 307 363 423
#     4  10  21  45  74 101 145 187 235 306 360 426
#     4   9  20  41  72 110 144 186 244 287 366 435
#     4   8  20  40  73 106 146 185 244 292 362 439
#
# _framework density 23.526347999999999
#
# number of rings (size 3 to 8) (size 9 to 14) (size 15 to 20)
#    0.857    1.143    0.000    3.000    0.000    1.143 
#    7.714   15.714    0.000    0.000    0.000    0.000 
#    0.000    0.000    0.000    0.000    0.000    0.000 
#
# Total GULP energy -78166.824629 kJ/mol
# GULP energy per Si atom -5583.344616 kJ/mol
# Density = 2.347280 g / cm^3
# Si number density = 23.526348 Si / 1000 Ang^3
#
#
#
# Elastic Constant Matrix: (Units=GPa)
#
#
# Indices 1 2 3 4 5 6 
#
# 1 160.3528 45.8046 32.9964 6.0421 0.1388 -14.8524
# 2 45.8046 132.6036 24.7349 -14.6416 -1.7169 -29.8338
# 3 32.9964 24.7349 79.5282 -20.9651 -6.4888 -14.9567
# 4 6.0421 -14.6416 -20.9651 45.7474 3.1785 2.6494
# 5 0.1388 -1.7169 -6.4888 3.1785 20.3685 19.9364
# 6 -14.8524 -29.8338 -14.9567 2.6494 19.9364 49.0873
#
#
#
# Elastic Compliance Matrix: (Units=1/GPa)
#
#
# Indices 1 2 3 4 5 6 
#
# 1 0.007765 -0.002263 -0.003351 -0.003222 -0.001548 0.000756
# 2 -0.002263 0.010713 -0.000457 0.003594 -0.008573 0.008975
# 3 -0.003351 -0.000457 0.016794 0.007735 0.001315 0.002874
# 4 -0.003222 0.003594 0.007735 0.027125 -0.005812 0.004463
# 5 -0.001548 -0.008573 0.001315 -0.005812 0.090574 -0.041750
# 6 0.000756 0.008975 0.002874 0.004463 -0.041750 0.043646
#
#
# Mechanical properties :
#
#
# Convention : Reuss Voigt Hill
#
# Bulk Modulus (GPa) = 43.23644 64.39516 53.81580
# Shear Modulus (GPa) = 23.09793 40.97057 32.03425
#
# Velocity S-wave (km/s) = 3.13675 4.17763 3.69403
# Velocity P-wave (km/s) = 5.61576 7.12046 6.41240
#
# Compressibility (1/GPa) = 0.02312864
#
# Stress axis : x y z
#
# Youngs Moduli (GPa) = 128.78288 93.34216 59.54645
#
# Poissons Ratio (x) = 0.21122 0.19957
# Poissons Ratio (y) = 0.29142 0.02723
# Poissons Ratio (z) = 0.43161 0.04269
#
# Static dielectric constant tensor:
#      x y z
#    x 1.944700 0.045690 0.030930 
#    y 0.045690 1.956140 0.020460 
#    z 0.030930 0.020460 1.898500 
# 
# From -- ./inp_files/402423.got.cif
#   From: 2010.05.17/outbox.cif.g08.bks.cpg/sg2_202_cif.got.tgz:402423.got - 2010.06.03 11:33:40.
