data_PCOD9019577
_publ_section_title
;
Structure prediction by ZEFSAII (Michael W. Deem and Ramdas Pophale) SiO2 
 PCOD9019577
Probable space group: P -1
;
_chemical_formula_sum "Si O2"
_cell_formula_units_Z 14
_cell_length_a 29.711769
_cell_length_b 27.447222
_cell_length_c 6.375392
_cell_angle_alpha 49.427753
_cell_angle_beta 129.324390
_cell_angle_gamma 170.955688
_cell_volume 619.194240
_symmetry_space_group_name_H-M "P -1"
_symmetry_group_IT_number 2
_symmetry_cell_setting 'triclinic'
loop_
_space_group_symop_operation_xyz
x,y,z
-x,-y,-z
loop_
_atom_site_type_symbol
_atom_site_label
_atom_site_fract_x
_atom_site_fract_y
_atom_site_fract_z
Si Si1 0.218199 0.741844 0.659803
Si Si2 0.238335 0.200991 0.911524
Si Si3 0.455839 0.262346 0.972948
Si Si4 0.053972 0.878388 0.525838
Si Si5 0.849829 0.436529 0.679256
Si Si6 0.043112 0.123838 0.406473
Si Si7 0.099224 0.359678 0.644269
O O1 0.000000 0.500000 0.500000
O O2 0.116329 0.695163 0.615370
O O3 0.558402 0.114093 0.584274
O O4 0.180384 0.640699 0.988066
O O5 0.070379 0.087766 0.717597
O O6 0.500000 0.500000 0.000000
O O7 0.233869 0.179815 0.709088
O O8 0.128476 0.016404 0.202176
O O9 0.639376 0.395752 0.160193
O O10 0.686349 0.569451 0.806089
O O11 0.204866 0.990112 0.169006
O O12 0.306878 0.111767 0.729583
O O13 0.943847 0.802029 0.608055
O O14 0.883271 0.644202 0.535039
O O15 0.883030 0.545693 0.535515
#
# Coordination Sequence:
#
# PCOD9019577 Si02
#       7
#     2   2   2   2   2   2   2
#     4  10  21  44  75 104 140 177 227 281 323 386
#     4  11  23  43  71  96 129 177 233 299 360 404
#     4  12  25  46  66 100 138 184 229 281 338 424
#     4  12  25  45  68  98 137 182 229 290 357 409
#     4  10  23  43  69 107 138 181 227 273 330 402
#     4  11  25  45  67 100 129 174 242 289 349 421
#     4  12  28  45  70 100 149 182 224 280 346 410
#
# _framework density 22.610029000000001
#
# number of rings (size 3 to 8) (size 9 to 14) (size 15 to 20)
#    0.000    0.857    4.286    1.714    2.000    4.000 
#    5.143    0.000    0.000    0.000    0.000    0.000 
#    0.000    0.000    0.000    0.000    0.000    0.000 
#
# Total GULP energy -78123.524600 kJ/mol
# GULP energy per Si atom -5580.251757 kJ/mol
# Density = 2.255857 g / cm^3
# Si number density = 22.610029 Si / 1000 Ang^3
#
#
#
# Elastic Constant Matrix: (Units=GPa)
#
#
# Indices 1 2 3 4 5 6 
#
# 1 143.3102 38.8112 69.2868 10.2800 32.3947 -7.0875
# 2 38.8112 85.1714 57.3230 23.2011 -1.2959 -0.3640
# 3 69.2868 57.3230 93.9878 45.1877 7.1997 -7.0629
# 4 10.2800 23.2011 45.1877 41.9821 0.1703 -4.4612
# 5 32.3947 -1.2959 7.1997 0.1703 36.3700 6.8762
# 6 -7.0875 -0.3640 -7.0629 -4.4612 6.8762 43.6577
#
#
#
# Elastic Compliance Matrix: (Units=1/GPa)
#
#
# Indices 1 2 3 4 5 6 
#
# 1 0.020456 0.001386 -0.024892 0.021470 -0.014045 0.003711
# 2 0.001386 0.021144 -0.017501 0.006555 0.003386 -0.002293
# 3 -0.024892 -0.017501 0.065062 -0.054368 0.009045 -0.000642
# 4 0.021470 0.006555 -0.054368 0.073894 -0.009181 0.003741
# 5 -0.014045 0.003386 0.009045 -0.009181 0.039893 -0.008010
# 6 0.003711 -0.002293 -0.000642 0.003741 -0.008010 0.025029
#
#
# Mechanical properties :
#
#
# Convention : Reuss Voigt Hill
#
# Bulk Modulus (GPa) = 40.57303 72.59017 56.58160
# Shear Modulus (GPa) = 14.89392 34.87185 24.88288
#
# Velocity S-wave (km/s) = 2.56936 3.93150 3.32101
# Velocity P-wave (km/s) = 5.17550 7.26525 6.30752
#
# Compressibility (1/GPa) = 0.02464691
#
# Stress axis : x y z
#
# Youngs Moduli (GPa) = 48.88594 47.29439 15.37001
#
# Poissons Ratio (x) = -0.06554 0.38260
# Poissons Ratio (y) = -0.06774 0.26899
# Poissons Ratio (z) = 1.21689 0.82768
#
# Static dielectric constant tensor:
#      x y z
#    x 1.939370 0.034450 -0.044420 
#    y 0.034450 1.897600 -0.016320 
#    z -0.044420 -0.016320 1.832390 
# 
# From -- ./inp_files/13659.got.cif
#   From: 2010.05.17/outbox.cif.g08.bks.cpg/sg2_7_cif.got.tgz:13659.got - 2010.06.03 11:33:40.
