data_PCOD9019399
_publ_section_title
;
Structure prediction by ZEFSAII (Michael W. Deem and Ramdas Pophale) SiO2 
 PCOD9019399
Probable space group: P -1
;
_chemical_formula_sum "Si O2"
_cell_formula_units_Z 12
_cell_length_a 6.987749
_cell_length_b 14.748365
_cell_length_c 10.504974
_cell_angle_alpha 135.160553
_cell_angle_beta 43.330288
_cell_angle_gamma 103.907443
_cell_volume 430.672849
_symmetry_space_group_name_H-M "P -1"
_symmetry_group_IT_number 2
_symmetry_cell_setting 'triclinic'
loop_
_space_group_symop_operation_xyz
x,y,z
-x,-y,-z
loop_
_atom_site_type_symbol
_atom_site_label
_atom_site_fract_x
_atom_site_fract_y
_atom_site_fract_z
Si Si1 0.812449 0.378485 0.050032
Si Si2 0.373110 0.037132 0.345150
Si Si3 0.783316 0.592749 0.494775
Si Si4 0.791534 0.139408 0.129564
Si Si5 0.788509 0.104902 0.511145
Si Si6 0.642294 0.368341 0.653673
O O1 0.860276 0.451483 0.225479
O O2 0.468865 0.388772 0.253712
O O3 0.718729 0.482229 0.070947
O O4 0.132231 0.204355 0.698546
O O5 0.698548 0.028623 0.131572
O O6 0.141662 0.053501 0.355478
O O7 0.422018 0.902477 0.279586
O O8 0.541101 0.748093 0.684021
O O9 0.895250 0.413979 0.618639
O O10 0.776090 0.261741 0.355985
O O11 0.897110 0.966310 0.220831
O O12 0.640714 0.262759 0.661200
#
# Coordination Sequence:
#
# PCOD9019399 Si02
#       6
#     2   2   2   2   2   2
#     4  10  23  44  69 103 133 180 227 275 341 395
#     4  11  24  44  74  97 137 184 222 277 341 402
#     4  10  21  44  71  97 139 179 221 282 333 404
#     4  11  23  45  71  99 138 179 222 279 340 398
#     4  11  24  45  69 102 135 181 226 276 339 400
#     4  11  24  41  73 103 132 181 225 280 340 397
#
# _framework density 27.863378999999998
#
# number of rings (size 3 to 8) (size 9 to 14) (size 15 to 20)
#    0.000    1.333    3.333    1.500    0.000    4.000 
#    3.000    0.000    0.000    0.000    0.000    0.000 
#    0.000    0.000    0.000    0.000    0.000    0.000 
#
# Total GULP energy -67425.202457 kJ/mol
# GULP energy per Si atom -5618.766871 kJ/mol
# Density = 2.779996 g / cm^3
# Si number density = 27.863379 Si / 1000 Ang^3
#
#
#
# Elastic Constant Matrix: (Units=GPa)
#
#
# Indices 1 2 3 4 5 6 
#
# 1 176.7862 52.5364 18.6095 -3.4427 -3.3480 13.3286
# 2 52.5364 152.0797 41.0185 10.5630 1.6855 -26.4849
# 3 18.6095 41.0185 89.5205 -5.3277 -12.2181 13.6331
# 4 -3.4427 10.5630 -5.3277 13.1921 -8.3371 10.5924
# 5 -3.3480 1.6855 -12.2181 -8.3371 27.7131 6.4635
# 6 13.3286 -26.4849 13.6331 10.5924 6.4635 33.4140
#
#
#
# Elastic Compliance Matrix: (Units=1/GPa)
#
#
# Indices 1 2 3 4 5 6 
#
# 1 0.004538 0.002170 -0.004991 -0.013693 -0.007718 0.007780
# 2 0.002170 -0.001967 0.007670 0.031777 0.017770 -0.019065
# 3 -0.004991 0.007670 0.001240 -0.034142 -0.015795 0.021443
# 4 -0.013693 0.031777 -0.034142 -0.061260 -0.054452 0.074533
# 5 -0.007718 0.017770 -0.015795 -0.054452 0.001251 0.040627
# 6 0.007780 -0.019065 0.021443 0.074533 0.040627 -0.028522
#
#
# Mechanical properties :
#
#
# Convention : Reuss Voigt Hill
#
# Bulk Modulus (GPa) = 74.01964 71.41280 72.71622
# Shear Modulus (GPa) = -55.60710 35.27864 -10.16423
#
# Velocity S-wave (km/s) = -4.47218 3.56213 -1.91201
# Velocity P-wave (km/s) = 0.21047 6.52715 4.61299
#
# Compressibility (1/GPa) = 0.01350993
#
# Stress axis : x y z
#
# Youngs Moduli (GPa) = 220.37697 -508.31432 806.24510
#
# Poissons Ratio (x) = 1.10302 4.02367
# Poissons Ratio (y) = -0.47821 -6.18412
# Poissons Ratio (z) = 1.09982 3.89891
#
# Static dielectric constant tensor:
#      x y z
#    x 2.173500 -0.051560 -0.019190 
#    y -0.051560 2.250980 0.026620 
#    z -0.019190 0.026620 2.106450 
# 
# From -- ./inp_files/244460.got.cif
#   From: 2010.05.17/outbox.cif.g08.bks.cpg/sg2_123_cif.got.tgz:244460.got - 2010.06.03 11:33:40.
