data_PCOD9019722
_publ_section_title
;
Structure prediction by ZEFSAII (Michael W. Deem and Ramdas Pophale) SiO2 
 PCOD9019722
Probable space group: P -1
;
_chemical_formula_sum "Si O2"
_cell_formula_units_Z 16
_cell_length_a 19.711595
_cell_length_b 12.749829
_cell_length_c 8.915215
_cell_angle_alpha 79.907269
_cell_angle_beta 133.177175
_cell_angle_gamma 140.549973
_cell_volume 672.196986
_symmetry_space_group_name_H-M "P -1"
_symmetry_group_IT_number 2
_symmetry_cell_setting 'triclinic'
loop_
_space_group_symop_operation_xyz
x,y,z
-x,-y,-z
loop_
_atom_site_type_symbol
_atom_site_label
_atom_site_fract_x
_atom_site_fract_y
_atom_site_fract_z
Si Si1 0.460550 0.033513 0.572445
Si Si2 0.899402 0.513098 0.321250
Si Si3 0.503814 0.695694 0.481978
Si Si4 0.555666 0.461622 0.886586
Si Si5 0.149189 0.054044 0.864912
Si Si6 0.817892 0.749961 0.685043
Si Si7 0.313421 0.066936 0.855694
Si Si8 0.367449 0.789109 0.732304
O O1 0.389211 0.076662 0.404861
O O2 0.500000 0.000000 0.500000
O O3 0.297650 0.800537 0.497309
O O4 0.695174 0.295492 0.951060
O O5 0.811957 0.452643 0.371175
O O6 0.000000 0.500000 0.500000
O O7 0.100407 0.800155 0.509329
O O8 0.440600 0.607822 0.237359
O O9 0.677924 0.787822 0.775747
O O10 0.294543 0.460310 0.334183
O O11 0.786628 0.766013 0.157041
O O12 0.369973 0.359706 0.611846
O O13 0.471974 0.306358 0.937434
O O14 0.214147 0.030717 0.851339
O O15 0.920416 0.816100 0.667811
O O16 0.000000 0.000000 0.000000
O O17 0.464917 0.121940 0.108879
O O18 0.500000 0.000000 0.000000
#
# Coordination Sequence:
#
# PCOD9019722 Si02
#       8
#     2   2   2   2   2   2   2   2
#     4  11  24  43  69  99 133 173 226 277 328 395
#     4  11  24  43  68  94 134 180 220 271 335 394
#     4  11  23  40  69  95 127 181 221 268 340 393
#     4  11  23  40  67  96 131 174 223 270 335 404
#     4  11  24  43  65  97 138 171 218 282 330 397
#     4  11  21  42  64  95 133 171 221 276 333 393
#     4  12  25  41  69 101 131 177 225 272 339 398
#     4  10  21  45  67  89 139 177 216 273 334 394
#
# _framework density 23.802546
#
# number of rings (size 3 to 8) (size 9 to 14) (size 15 to 20)
#    0.000    1.000    5.000    3.375    1.750    4.500 
#    0.000    0.625    0.000    0.000    0.000    0.000 
#    0.000    0.000    0.000    0.000    0.000    0.000 
#
# Total GULP energy -89522.015184 kJ/mol
# GULP energy per Si atom -5595.125949 kJ/mol
# Density = 2.374837 g / cm^3
# Si number density = 23.802546 Si / 1000 Ang^3
#
#
#
# Elastic Constant Matrix: (Units=GPa)
#
#
# Indices 1 2 3 4 5 6 
#
# 1 165.7839 54.8202 0.9188 5.7695 5.2857 16.5602
# 2 54.8202 144.0508 25.2785 1.4351 2.9916 17.5005
# 3 0.9188 25.2785 49.2158 12.6273 -7.3054 6.5828
# 4 5.7695 1.4351 12.6273 25.3703 0.5981 2.3927
# 5 5.2857 2.9916 -7.3054 0.5981 29.6071 2.4856
# 6 16.5602 17.5005 6.5828 2.3927 2.4856 40.7759
#
#
#
# Elastic Compliance Matrix: (Units=1/GPa)
#
#
# Indices 1 2 3 4 5 6 
#
# 1 0.007254 -0.002881 0.002172 -0.002382 -0.000260 -0.001904
# 2 -0.002881 0.009243 -0.005464 0.003079 -0.001663 -0.001994
# 3 0.002172 -0.005464 0.028214 -0.014150 0.007641 -0.002727
# 4 -0.002382 0.003079 -0.014150 0.046981 -0.004279 -0.000566
# 5 -0.000260 -0.001663 0.007641 -0.004279 0.036161 -0.002368
# 6 -0.001904 -0.001994 -0.002727 -0.000566 -0.002368 0.026771
#
#
# Mechanical properties :
#
#
# Convention : Reuss Voigt Hill
#
# Bulk Modulus (GPa) = 30.89792 57.89839 44.39815
# Shear Modulus (GPa) = 28.12783 37.68617 32.90700
#
# Velocity S-wave (km/s) = 3.44134 3.98337 3.72223
# Velocity P-wave (km/s) = 5.36652 6.74785 6.09644
#
# Compressibility (1/GPa) = 0.03236464
#
# Stress axis : x y z
#
# Youngs Moduli (GPa) = 137.85367 108.18490 35.44327
#
# Poissons Ratio (x) = 0.31170 -0.07697
# Poissons Ratio (y) = 0.39718 0.19366
# Poissons Ratio (z) = -0.29937 0.59112
#
# Static dielectric constant tensor:
#      x y z
#    x 1.894370 0.001960 -0.009800 
#    y 0.001960 1.954820 0.022150 
#    z -0.009800 0.022150 1.927460 
# 
# From -- ./inp_files/313288.got.cif
#   From: 2010.05.17/outbox.cif.g08.bks.cpg/sg2_157_cif.got.tgz:313288.got - 2010.06.03 11:33:40.
