data_PCOD9019328
_publ_section_title
;
Structure prediction by ZEFSAII (Michael W. Deem and Ramdas Pophale) SiO2 
 PCOD9019328
Probable space group: P -1
;
_chemical_formula_sum "Si O2"
_cell_formula_units_Z 14
_cell_length_a 12.053590
_cell_length_b 10.297337
_cell_length_c 9.922704
_cell_angle_alpha 134.588323
_cell_angle_beta 134.107086
_cell_angle_gamma 56.119562
_cell_volume 624.064200
_symmetry_space_group_name_H-M "P -1"
_symmetry_group_IT_number 2
_symmetry_cell_setting 'triclinic'
loop_
_space_group_symop_operation_xyz
x,y,z
-x,-y,-z
loop_
_atom_site_type_symbol
_atom_site_label
_atom_site_fract_x
_atom_site_fract_y
_atom_site_fract_z
Si Si1 0.039517 0.484168 0.362224
Si Si2 0.385803 0.792403 0.126533
Si Si3 0.626514 0.560944 0.299917
Si Si4 0.584462 0.383289 0.606430
Si Si5 0.914507 0.894028 0.466142
Si Si6 0.138742 0.805338 0.149557
Si Si7 0.543995 0.988004 0.184821
O O1 0.225371 0.437411 0.481835
O O2 0.000000 0.500000 0.500000
O O3 0.984388 0.681839 0.391882
O O4 0.968512 0.319464 0.110162
O O5 0.556820 0.750682 0.309158
O O6 0.261984 0.864343 0.187022
O O7 0.416033 0.892485 0.088058
O O8 0.340906 0.594573 0.898441
O O9 0.485966 0.520336 0.247271
O O10 0.500000 0.500000 0.500000
O O11 0.767075 0.327347 0.752990
O O12 0.534139 0.184343 0.392344
O O13 0.727516 0.904832 0.290894
O O14 0.936877 0.011956 0.705994
O O15 0.000000 0.000000 0.500000
O O16 0.500000 0.000000 0.000000
#
# Coordination Sequence:
#
# PCOD9019328 Si02
#       7
#     2   2   2   2   2   2   2
#     4  12  25  44  72 102 137 192 227 280 363 414
#     4  10  21  44  70  99 133 172 234 294 335 403
#     4  10  22  39  68  97 130 173 227 280 338 411
#     4  10  23  41  66  96 131 177 232 280 339 409
#     4  11  29  47  66 105 147 183 233 288 350 431
#     4  10  25  47  70 100 142 181 232 297 339 415
#     4  11  25  41  71  99 134 182 230 288 350 403
#
# _framework density 22.433589000000001
#
# number of rings (size 3 to 8) (size 9 to 14) (size 15 to 20)
#    0.000    1.429    1.429    1.714   12.000    8.571 
#    0.000    0.000    0.000    0.000    0.000    0.000 
#    0.000    0.000    0.000    0.000    0.000    0.000 
#
# Total GULP energy -78184.321580 kJ/mol
# GULP energy per Si atom -5584.594399 kJ/mol
# Density = 2.238253 g / cm^3
# Si number density = 22.433589 Si / 1000 Ang^3
#
#
#
# Elastic Constant Matrix: (Units=GPa)
#
#
# Indices 1 2 3 4 5 6 
#
# 1 90.6098 27.9541 22.1117 9.2268 -12.5262 11.1700
# 2 27.9541 61.6455 28.1473 -10.2557 7.3940 15.4937
# 3 22.1117 28.1473 134.8678 3.9433 -3.9931 -5.1765
# 4 9.2268 -10.2557 3.9433 28.7069 -0.7046 -8.5939
# 5 -12.5262 7.3940 -3.9931 -0.7046 41.5282 -7.5413
# 6 11.1700 15.4937 -5.1765 -8.5939 -7.5413 32.2748
#
#
#
# Elastic Compliance Matrix: (Units=1/GPa)
#
#
# Indices 1 2 3 4 5 6 
#
# 1 0.015684 -0.008349 -0.000509 -0.008559 0.005573 -0.002478
# 2 -0.008349 0.028192 -0.005529 0.009914 -0.009938 -0.011213
# 3 -0.000509 -0.005529 0.008942 -0.001664 0.002461 0.004397
# 4 -0.008559 0.009914 -0.001664 0.044052 -0.002093 0.009177
# 5 0.005573 -0.009938 0.002461 -0.002093 0.029469 0.009565
# 6 -0.002478 -0.011213 0.004397 0.009177 0.009565 0.042608
#
#
# Mechanical properties :
#
#
# Convention : Reuss Voigt Hill
#
# Bulk Modulus (GPa) = 41.59116 49.28325 45.43721
# Shear Modulus (GPa) = 24.30289 34.42932 29.36610
#
# Velocity S-wave (km/s) = 3.29496 3.92180 3.62197
# Velocity P-wave (km/s) = 5.74940 6.52101 6.14733
#
# Compressibility (1/GPa) = 0.02404357
#
# Stress axis : x y z
#
# Youngs Moduli (GPa) = 63.75982 35.47073 111.82753
#
# Poissons Ratio (x) = 0.29616 0.05689
# Poissons Ratio (y) = 0.53235 0.61834
# Poissons Ratio (z) = 0.03244 0.19613
#
# Static dielectric constant tensor:
#      x y z
#    x 1.851120 -0.017110 0.014880 
#    y -0.017110 1.857200 -0.035160 
#    z 0.014880 -0.035160 1.834270 
# 
# From -- ./inp_files/245715.got.cif
#   From: 2010.05.17/outbox.cif.g08.bks.cpg/sg2_123_cif.got.tgz:245715.got - 2010.06.03 11:33:40.
