data_PCOD9019601
_publ_section_title
;
Structure prediction by ZEFSAII (Michael W. Deem and Ramdas Pophale) SiO2 
 PCOD9019601
Probable space group: P -1
;
_chemical_formula_sum "Si O2"
_cell_formula_units_Z 12
_cell_length_a 14.522094
_cell_length_b 7.723734
_cell_length_c 12.039460
_cell_angle_alpha 60.818820
_cell_angle_beta 142.178008
_cell_angle_gamma 143.403694
_cell_volume 452.236594
_symmetry_space_group_name_H-M "P -1"
_symmetry_group_IT_number 2
_symmetry_cell_setting 'triclinic'
loop_
_space_group_symop_operation_xyz
x,y,z
-x,-y,-z
loop_
_atom_site_type_symbol
_atom_site_label
_atom_site_fract_x
_atom_site_fract_y
_atom_site_fract_z
Si Si1 0.541601 0.723513 0.058020
Si Si2 0.149142 0.121805 0.994109
Si Si3 0.388216 0.909061 0.694229
Si Si4 0.715069 0.183246 0.735395
Si Si5 0.284392 0.244948 0.465402
Si Si6 0.089082 0.369051 0.391216
O O1 0.367072 0.495647 0.065138
O O2 0.821119 0.016451 0.263103
O O3 0.500000 0.500000 0.000000
O O4 0.455755 0.839520 0.882661
O O5 0.243617 0.996699 0.132010
O O6 0.000000 0.000000 0.000000
O O7 0.963995 0.967239 0.767595
O O8 0.209859 0.597694 0.541179
O O9 0.627315 0.198533 0.757943
O O10 0.279512 0.013444 0.572901
O O11 0.930434 0.493379 0.772397
O O12 0.500000 0.000000 0.500000
O O13 0.500000 0.500000 0.500000
O O14 0.265882 0.382902 0.504980
#
# Coordination Sequence:
#
# PCOD9019601 Si02
#       6
#     2   2   2   2   2   2
#     4  12  26  51  78 116 158 214 265 332 404 471
#     4  12  27  50  77 114 163 200 271 336 388 484
#     4  11  25  48  78 116 164 205 270 321 396 482
#     4  10  21  44  77 111 150 208 257 312 397 473
#     4  12  26  45  79 122 156 209 267 324 392 481
#     4  11  25  49  81 114 157 214 258 331 404 461
#
# _framework density 26.534780999999999
#
# number of rings (size 3 to 8) (size 9 to 14) (size 15 to 20)
#    0.000    0.667    5.000    2.000    4.667    2.667 
#    3.000    3.333    0.000    0.000    0.000    0.000 
#    0.000    0.000    0.000    0.000    0.000    0.000 
#
# Total GULP energy -67340.842662 kJ/mol
# GULP energy per Si atom -5611.736888 kJ/mol
# Density = 2.647439 g / cm^3
# Si number density = 26.534781 Si / 1000 Ang^3
#
#
#
# Elastic Constant Matrix: (Units=GPa)
#
#
# Indices 1 2 3 4 5 6 
#
# 1 125.6817 78.7315 55.6373 -3.3187 4.4185 -7.9245
# 2 78.7315 159.6812 62.0720 -19.0000 23.2961 13.2189
# 3 55.6373 62.0720 162.6483 -8.2140 9.2481 -17.0882
# 4 -3.3187 -19.0000 -8.2140 77.2538 -7.5575 17.1685
# 5 4.4185 23.2961 9.2481 -7.5575 32.3316 2.6694
# 6 -7.9245 13.2189 -17.0882 17.1685 2.6694 63.2047
#
#
#
# Elastic Compliance Matrix: (Units=1/GPa)
#
#
# Indices 1 2 3 4 5 6 
#
# 1 0.012854 -0.006427 -0.001895 -0.001565 0.002823 0.002749
# 2 -0.006427 0.011917 -0.002331 0.002804 -0.006020 -0.004436
# 3 -0.001895 -0.002331 0.007969 -0.000438 -0.000654 0.002551
# 4 -0.001565 0.002804 -0.000438 0.014854 0.002206 -0.005029
# 5 0.002823 -0.006020 -0.000654 0.002206 0.035639 -0.000668
# 6 0.002749 -0.004436 0.002551 -0.005029 -0.000668 0.019178
#
#
# Mechanical properties :
#
#
# Convention : Reuss Voigt Hill
#
# Bulk Modulus (GPa) = 87.46369 93.43252 90.44810
# Shear Modulus (GPa) = 39.20683 51.32938 45.26811
#
# Velocity S-wave (km/s) = 3.84808 4.40297 4.13485
# Velocity P-wave (km/s) = 7.26478 7.81895 7.54696
#
# Compressibility (1/GPa) = 0.01143332
#
# Stress axis : x y z
#
# Youngs Moduli (GPa) = 77.79472 83.91654 125.48078
#
# Poissons Ratio (x) = 0.53932 0.23780
# Poissons Ratio (y) = 0.49998 0.29256
# Poissons Ratio (z) = 0.14743 0.19565
#
# Static dielectric constant tensor:
#      x y z
#    x 2.157330 0.014750 0.017640 
#    y 0.014750 2.126400 0.022070 
#    z 0.017640 0.022070 2.187180 
# 
# From -- ./inp_files/527444.got.cif
#   From: 2010.05.17/outbox.cif.g08.bks.cpg/sg2_264_cif.got.tgz:527444.got - 2010.06.03 11:33:40.
