data_PCOD9019432
_publ_section_title
;
Structure prediction by ZEFSAII (Michael W. Deem and Ramdas Pophale) SiO2 
 PCOD9019432
Probable space group: P -1
;
_chemical_formula_sum "Si O2"
_cell_formula_units_Z 13
_cell_length_a 16.593092
_cell_length_b 7.511183
_cell_length_c 13.049006
_cell_angle_alpha 137.409930
_cell_angle_beta 147.808928
_cell_angle_gamma 53.438508
_cell_volume 584.662842
_symmetry_space_group_name_H-M "P -1"
_symmetry_group_IT_number 2
_symmetry_cell_setting 'triclinic'
loop_
_space_group_symop_operation_xyz
x,y,z
-x,-y,-z
loop_
_atom_site_type_symbol
_atom_site_label
_atom_site_fract_x
_atom_site_fract_y
_atom_site_fract_z
Si Si1 0.194454 0.705117 0.764926
Si Si2 0.131265 0.734777 0.225695
Si Si3 0.629449 0.916703 0.030029
Si Si4 0.409616 0.634037 0.343608
Si Si5 0.000000 0.000000 0.000000
Si Si6 0.288924 0.006544 0.197765
Si Si7 0.142608 0.173999 0.587301
O O1 0.216353 0.406091 0.692249
O O2 0.029905 0.743203 0.554728
O O3 0.318467 0.835990 0.878800
O O4 0.206383 0.870516 0.953273
O O5 0.288016 0.643368 0.308502
O O6 0.079833 0.929470 0.164231
O O7 0.148740 0.897925 0.418580
O O8 0.000000 0.500000 0.000000
O O9 0.771493 0.836465 0.217492
O O10 0.574547 0.666527 0.796838
O O11 0.500000 0.000000 0.000000
O O12 0.343570 0.774230 0.230964
O O13 0.431136 0.198366 0.398045
O O14 0.164306 0.132997 0.186796
#
# Coordination Sequence:
#
# PCOD9019432 Si02
#       7
#     2   2   2   2   1   2   2
#     4  11  24  45  75  96 142 183 226 288 344 408
#     4  11  24  42  73 102 136 179 229 288 337 414
#     4  12  28  46  67 103 141 184 230 281 345 416
#     4  10  24  44  70 101 142 177 231 287 342 414
#     4  10  22  42  68 102 134 172 238 270 350 402
#     4  10  21  44  72 101 136 183 226 290 344 405
#     4  11  25  47  69 106 134 184 231 281 348 409
#
# _framework density 22.235037999999999
#
# number of rings (size 3 to 8) (size 9 to 14) (size 15 to 20)
#    0.000    1.231    3.077    1.385    2.154    7.385 
#    0.000    0.000    0.000    0.000    0.000    0.000 
#    0.000    0.000    0.000    0.000    0.000    0.000 
#
# Total GULP energy -72449.248309 kJ/mol
# GULP energy per Si atom -5573.019101 kJ/mol
# Density = 2.218443 g / cm^3
# Si number density = 22.235038 Si / 1000 Ang^3
#
#
#
# Elastic Constant Matrix: (Units=GPa)
#
#
# Indices 1 2 3 4 5 6 
#
# 1 99.9483 19.1374 21.5692 31.8904 30.6852 10.8749
# 2 19.1374 43.4636 16.7399 15.0628 1.4614 22.8394
# 3 21.5692 16.7399 89.6678 19.7760 11.5555 7.5420
# 4 31.8904 15.0628 19.7760 54.9850 10.2160 -1.5627
# 5 30.6852 1.4614 11.5555 10.2160 39.3056 6.0530
# 6 10.8749 22.8394 7.5420 -1.5627 6.0530 30.6663
#
#
#
# Elastic Compliance Matrix: (Units=1/GPa)
#
#
# Indices 1 2 3 4 5 6 
#
# 1 0.016196 -0.004033 -0.000326 -0.006218 -0.010647 -0.000875
# 2 -0.004033 0.050707 -0.003817 -0.013463 0.011800 -0.038412
# 3 -0.000326 -0.003817 0.012916 -0.002910 -0.002669 0.000160
# 4 -0.006218 -0.013463 -0.002910 0.027560 -0.003262 0.014996
# 5 -0.010647 0.011800 -0.002669 -0.003262 0.036761 -0.011778
# 6 -0.000875 -0.038412 0.000160 0.014996 -0.011778 0.064577
#
#
# Mechanical properties :
#
#
# Convention : Reuss Voigt Hill
#
# Bulk Modulus (GPa) = 15.75630 38.66366 27.20998
# Shear Modulus (GPa) = 20.30673 36.70025 28.50349
#
# Velocity S-wave (km/s) = 3.02532 4.06712 3.58427
# Velocity P-wave (km/s) = 4.39375 6.28344 5.42156
#
# Compressibility (1/GPa) = 0.06346669
#
# Stress axis : x y z
#
# Youngs Moduli (GPa) = 61.74538 19.72103 77.42620
#
# Poissons Ratio (x) = 0.07954 0.02523
# Poissons Ratio (y) = 0.24902 0.29553
# Poissons Ratio (z) = 0.02012 0.07527
#
# Static dielectric constant tensor:
#      x y z
#    x 1.745470 -0.028220 0.019090 
#    y -0.028220 1.833920 -0.026130 
#    z 0.019090 -0.026130 1.805170 
# 
# From -- ./inp_files/441479.got.cif
#   From: 2010.05.17/outbox.cif.g08.bks.cpg/sg2_221_cif.got.tgz:441479.got - 2010.06.03 11:33:40.
