data_PCOD9019491
_publ_section_title
;
Structure prediction by ZEFSAII (Michael W. Deem and Ramdas Pophale) SiO2 
 PCOD9019491
Probable space group: P -1
;
_chemical_formula_sum "Si O2"
_cell_formula_units_Z 14
_cell_length_a 5.069221
_cell_length_b 5.145083
_cell_length_c 21.901069
_cell_angle_alpha 94.617745
_cell_angle_beta 120.770724
_cell_angle_gamma 83.833683
_cell_volume 487.741400
_symmetry_space_group_name_H-M "P -1"
_symmetry_group_IT_number 2
_symmetry_cell_setting 'triclinic'
loop_
_space_group_symop_operation_xyz
x,y,z
-x,-y,-z
loop_
_atom_site_type_symbol
_atom_site_label
_atom_site_fract_x
_atom_site_fract_y
_atom_site_fract_z
Si Si1 0.006433 0.302410 0.751696
Si Si2 0.183092 0.007935 0.164886
Si Si3 0.683057 0.277955 0.407382
Si Si4 0.216536 0.223198 0.975934
Si Si5 0.792746 0.231726 0.281277
Si Si6 0.617379 0.435474 0.112298
Si Si7 0.630843 0.803668 0.460105
O O1 0.972475 0.577920 0.717922
O O2 0.330296 0.354941 0.825087
O O3 0.056648 0.063766 0.706918
O O4 0.801946 0.206749 0.781868
O O5 0.468560 0.188132 0.207614
O O6 0.870496 0.192029 0.148140
O O7 0.091460 0.900651 0.085283
O O8 0.720179 0.336354 0.342039
O O9 0.509937 0.521723 0.427433
O O10 0.016756 0.250185 0.478790
O O11 0.584646 0.985353 0.398377
O O12 0.268108 0.427382 0.932442
O O13 0.283359 0.353105 0.051529
O O14 0.500000 0.000000 0.000000
O O15 0.500000 0.000000 0.500000
#
# Coordination Sequence:
#
# PCOD9019491 Si02
#       7
#     2   2   2   2   2   2   2
#     4  11  24  42  62  92 134 174 221 272 323 408
#     4  10  22  41  64  90 130 173 221 277 340 396
#     4  10  23  43  65 102 140 169 226 282 320 402
#     4   8  16  32  64  87 119 172 215 280 342 377
#     4  12  26  42  65  98 137 174 215 272 335 394
#     4   9  17  38  62  87 124 171 222 277 333 388
#     4  10  21  44  72  98 133 178 222 273 333 391
#
# _framework density 28.703738000000001
#
# number of rings (size 3 to 8) (size 9 to 14) (size 15 to 20)
#    0.000    2.000    1.429    1.286    4.000    1.143 
#    2.571    1.429    0.000    0.000    0.000    0.000 
#    0.000    0.000    0.000    0.000    0.000    0.000 
#
# Total GULP energy -78349.603165 kJ/mol
# GULP energy per Si atom -5596.400226 kJ/mol
# Density = 2.863841 g / cm^3
# Si number density = 28.703738 Si / 1000 Ang^3
#
#
#
# Elastic Constant Matrix: (Units=GPa)
#
#
# Indices 1 2 3 4 5 6 
#
# 1 105.8353 41.4324 30.3654 1.2334 13.1109 20.8317
# 2 41.4324 181.2703 42.1173 11.2660 -8.4856 13.6062
# 3 30.3654 42.1173 127.0326 22.0856 16.7921 6.6585
# 4 1.2334 11.2660 22.0856 37.6655 0.6202 -18.6772
# 5 13.1109 -8.4856 16.7921 0.6202 58.5551 -0.3838
# 6 20.8317 13.6062 6.6585 -18.6772 -0.3838 42.3249
#
#
#
# Elastic Compliance Matrix: (Units=1/GPa)
#
#
# Indices 1 2 3 4 5 6 
#
# 1 0.012140 -0.002041 -0.001197 -0.002045 -0.002689 -0.006058
# 2 -0.002041 0.006680 -0.001554 -0.001905 0.001879 -0.001722
# 3 -0.001197 -0.001554 0.010597 -0.007631 -0.002941 -0.003973
# 4 -0.002045 -0.001905 -0.007631 0.042288 0.002063 0.021499
# 5 -0.002689 0.001879 -0.002941 0.002063 0.018789 0.002263
# 6 -0.006058 -0.001722 -0.003973 0.021499 0.002263 0.037294
#
#
# Mechanical properties :
#
#
# Convention : Reuss Voigt Hill
#
# Bulk Modulus (GPa) = 50.41862 71.32983 60.87422
# Shear Modulus (GPa) = 34.72655 47.72398 41.22526
#
# Velocity S-wave (km/s) = 3.48203 4.08197 3.79388
# Velocity P-wave (km/s) = 5.81114 6.86447 6.35965
#
# Compressibility (1/GPa) = 0.01983394
#
# Stress axis : x y z
#
# Youngs Moduli (GPa) = 82.37061 149.70652 94.36587
#
# Poissons Ratio (x) = 0.30553 0.11294
# Poissons Ratio (y) = 0.16811 0.14663
# Poissons Ratio (z) = 0.09859 0.23262
#
# Static dielectric constant tensor:
#      x y z
#    x 2.237250 -0.006390 -0.016220 
#    y -0.006390 2.312810 -0.016840 
#    z -0.016220 -0.016840 2.291000 
# 
# From -- ./inp_files/580838.got.cif
#   From: 2010.05.17/outbox.cif.g08.bks.cpg/sg2_291_cif.got.tgz:580838.got - 2010.06.03 11:33:40.
