data_PCOD9019695
_publ_section_title
;
Structure prediction by ZEFSAII (Michael W. Deem and Ramdas Pophale) SiO2 
 PCOD9019695
Probable space group: P -1
;
_chemical_formula_sum "Si O2"
_cell_formula_units_Z 15
_cell_length_a 12.384136
_cell_length_b 6.819393
_cell_length_c 10.851267
_cell_angle_alpha 100.615607
_cell_angle_beta 91.788626
_cell_angle_gamma 45.365607
_cell_volume 634.612496
_symmetry_space_group_name_H-M "P -1"
_symmetry_group_IT_number 2
_symmetry_cell_setting 'triclinic'
loop_
_space_group_symop_operation_xyz
x,y,z
-x,-y,-z
loop_
_atom_site_type_symbol
_atom_site_label
_atom_site_fract_x
_atom_site_fract_y
_atom_site_fract_z
Si Si1 0.849031 0.065476 0.501352
Si Si2 0.470663 0.049823 0.708002
Si Si3 0.124890 0.358083 0.680262
Si Si4 0.576395 0.596109 0.459281
Si Si5 0.978670 0.282278 0.881110
Si Si6 0.500000 0.000000 0.000000
Si Si7 0.753783 0.933577 0.972854
Si Si8 0.858289 0.019749 0.758571
O O1 0.859275 0.815598 0.451775
O O2 0.777547 0.181354 0.647393
O O3 0.749713 0.295677 0.417817
O O4 0.000000 0.000000 0.500000
O O5 0.291704 0.214001 0.711529
O O6 0.480338 0.242646 0.652940
O O7 0.561559 0.781421 0.587942
O O8 0.518155 0.996056 0.846076
O O9 0.044052 0.320631 0.773040
O O10 0.009711 0.690879 0.695308
O O11 0.500000 0.500000 0.500000
O O12 0.835229 0.607739 0.956698
O O13 0.123634 0.087926 0.954678
O O14 0.913893 0.151802 0.836079
O O15 0.415143 0.891370 0.967089
O O16 0.760521 0.012997 0.845944
#
# Coordination Sequence:
#
# PCOD9019695 Si02
#       8
#     2   2   2   2   2   1   2   2
#     4  12  24  42  72 106 134 179 239 294 340 430
#     4  11  26  47  72 101 143 195 229 298 362 429
#     4  11  22  43  68 102 141 180 229 290 361 421
#     4  11  26  48  72  97 147 190 234 286 372 428
#     4  10  21  45  66  97 139 183 226 287 363 418
#     4  12  26  46  74 104 142 184 248 298 350 424
#     4  10  24  43  67  98 139 183 232 295 354 421
#     4  11  24  39  73 103 140 181 234 297 356 414
#
# _framework density 23.636472000000001
#
# number of rings (size 3 to 8) (size 9 to 14) (size 15 to 20)
#    0.000    1.067    4.000    1.600    3.733    0.000 
#    0.000    1.333    0.000    0.000    0.000    0.000 
#    0.000    0.000    0.000    0.000    0.000    0.000 
#
# Total GULP energy -83553.461725 kJ/mol
# GULP energy per Si atom -5570.230782 kJ/mol
# Density = 2.358267 g / cm^3
# Si number density = 23.636472 Si / 1000 Ang^3
#
#
#
# Elastic Constant Matrix: (Units=GPa)
#
#
# Indices 1 2 3 4 5 6 
#
# 1 106.2739 28.0312 17.9869 -10.4125 -3.4378 35.6171
# 2 28.0312 52.6959 15.5309 -5.3856 1.7106 19.6866
# 3 17.9869 15.5309 108.9186 -30.6740 4.3178 26.1817
# 4 -10.4125 -5.3856 -30.6740 33.5177 10.9277 -2.0550
# 5 -3.4378 1.7106 4.3178 10.9277 38.9789 -5.9826
# 6 35.6171 19.6866 26.1817 -2.0550 -5.9826 26.7618
#
#
#
# Elastic Compliance Matrix: (Units=1/GPa)
#
#
# Indices 1 2 3 4 5 6 
#
# 1 0.025815 0.005288 0.015927 0.025017 -0.015222 -0.055311
# 2 0.005288 0.030834 0.010172 0.017717 -0.013318 -0.041288
# 3 0.015927 0.010172 0.032271 0.039913 -0.023386 -0.062415
# 4 0.025017 0.017717 0.039913 0.084708 -0.040226 -0.087863
# 5 -0.015222 -0.013318 -0.023386 -0.040226 0.048064 0.060590
# 6 -0.055311 -0.041288 -0.062415 -0.087863 0.060590 0.209212
#
#
# Mechanical properties :
#
#
# Convention : Reuss Voigt Hill
#
# Bulk Modulus (GPa) = 6.59218 43.44295 25.01756
# Shear Modulus (GPa) = 11.94192 33.60764 22.77478
#
# Velocity S-wave (km/s) = 2.25018 3.77484 3.10747
# Velocity P-wave (km/s) = 3.08968 6.11709 4.84587
#
# Compressibility (1/GPa) = 0.15169488
#
# Stress axis : x y z
#
# Youngs Moduli (GPa) = 38.73732 32.43209 30.98741
#
# Poissons Ratio (x) = -0.17151 -0.49354
# Poissons Ratio (y) = -0.20485 -0.31521
# Poissons Ratio (z) = -0.61697 -0.32991
#
# Static dielectric constant tensor:
#      x y z
#    x 2.063470 -0.103600 -0.124440 
#    y -0.103600 1.959020 0.058490 
#    z -0.124440 0.058490 2.056360 
# 
# From -- ./inp_files/80160.got.cif
#   From: 2010.05.17/outbox.cif.g08.bks.cpg/sg2_41_cif.got.tgz:80160.got - 2010.06.03 11:33:40.
