data_PCOD9019497
_publ_section_title
;
Structure prediction by ZEFSAII (Michael W. Deem and Ramdas Pophale) SiO2 
 PCOD9019497
Probable space group: P -1
;
_chemical_formula_sum "Si O2"
_cell_formula_units_Z 16
_cell_length_a 13.399479
_cell_length_b 12.773144
_cell_length_c 7.293233
_cell_angle_alpha 132.725702
_cell_angle_beta 48.708473
_cell_angle_gamma 135.944496
_cell_volume 600.270560
_symmetry_space_group_name_H-M "P -1"
_symmetry_group_IT_number 2
_symmetry_cell_setting 'triclinic'
loop_
_space_group_symop_operation_xyz
x,y,z
-x,-y,-z
loop_
_atom_site_type_symbol
_atom_site_label
_atom_site_fract_x
_atom_site_fract_y
_atom_site_fract_z
Si Si1 0.479116 0.192695 0.728658
Si Si2 0.785388 0.251223 0.409979
Si Si3 0.412240 0.340222 0.292144
Si Si4 0.175990 0.104796 0.877879
Si Si5 0.621531 0.904929 0.658663
Si Si6 0.859738 0.609104 0.250790
Si Si7 0.118316 0.376729 0.201346
Si Si8 0.795025 0.251924 0.977216
O O1 0.614635 0.160724 0.590398
O O2 0.293683 0.079236 0.833635
O O3 0.488350 0.195909 0.498327
O O4 0.495302 0.346245 0.008405
O O5 0.821850 0.440964 0.586090
O O6 0.784330 0.204022 0.145669
O O7 0.937306 0.271767 0.344838
O O8 0.500000 0.500000 0.500000
O O9 0.413692 0.193805 0.229660
O O10 0.243554 0.318167 0.461602
O O11 0.219838 0.077868 0.589380
O O12 0.208456 0.290049 0.065039
O O13 0.000000 0.000000 0.000000
O O14 0.337718 0.908299 0.147478
O O15 0.785880 0.416002 0.153014
O O16 0.871082 0.622315 0.031592
O O17 0.031052 0.696314 0.226048
#
# Coordination Sequence:
#
# PCOD9019497 Si02
#       8
#     2   2   2   2   2   2   2   2
#     4  10  26  44  73 104 140 190 237 294 367 423
#     4  10  23  43  68 101 138 184 236 296 362 429
#     4  12  26  45  73 106 141 186 244 295 356 432
#     4  10  24  43  70 102 141 189 238 294 360 430
#     4  10  26  47  69 104 147 184 239 302 356 427
#     4  10  22  43  70 103 132 189 239 294 355 429
#     4  10  21  44  72  99 141 184 241 302 356 425
#     4  10  24  42  71  99 142 185 237 294 362 424
#
# _framework density 26.654647000000001
#
# number of rings (size 3 to 8) (size 9 to 14) (size 15 to 20)
#    0.750    1.000    1.250    0.750    5.250    7.000 
#    2.250    2.500    0.000    0.000    0.000    0.000 
#    0.000    0.000    0.000    0.000    0.000    0.000 
#
# Total GULP energy -89502.470493 kJ/mol
# GULP energy per Si atom -5593.904406 kJ/mol
# Density = 2.659398 g / cm^3
# Si number density = 26.654647 Si / 1000 Ang^3
#
#
#
# Elastic Constant Matrix: (Units=GPa)
#
#
# Indices 1 2 3 4 5 6 
#
# 1 126.7341 47.0030 70.7171 -3.1761 -1.3436 -8.2866
# 2 47.0030 110.0701 30.8333 4.5737 -9.6460 9.7646
# 3 70.7171 30.8333 125.5635 6.5643 -16.9594 2.3745
# 4 -3.1761 4.5737 6.5643 45.4548 8.7093 -11.3503
# 5 -1.3436 -9.6460 -16.9594 8.7093 64.7114 1.6502
# 6 -8.2866 9.7646 2.3745 -11.3503 1.6502 41.7365
#
#
#
# Elastic Compliance Matrix: (Units=1/GPa)
#
#
# Indices 1 2 3 4 5 6 
#
# 1 0.014578 -0.005061 -0.007772 0.004764 -0.003281 0.005946
# 2 -0.005061 0.011870 0.000516 -0.003272 0.002362 -0.004795
# 3 -0.007772 0.000516 0.013041 -0.004165 0.003988 -0.003696
# 4 0.004764 -0.003272 -0.004165 0.026627 -0.005304 0.009399
# 5 -0.003281 0.002362 0.003988 -0.005304 0.017587 -0.003569
# 6 0.005946 -0.004795 -0.003696 0.009399 -0.003569 0.029170
#
#
# Mechanical properties :
#
#
# Convention : Reuss Voigt Hill
#
# Bulk Modulus (GPa) = 67.31632 73.27496 70.29564
# Shear Modulus (GPa) = 35.09831 44.63481 39.86656
#
# Velocity S-wave (km/s) = 3.63268 4.09658 3.87159
# Velocity P-wave (km/s) = 6.55019 7.06584 6.81290
#
# Compressibility (1/GPa) = 0.01485524
#
# Stress axis : x y z
#
# Youngs Moduli (GPa) = 68.59833 84.24619 76.68237
#
# Poissons Ratio (x) = 0.42636 0.59598
# Poissons Ratio (y) = 0.34717 -0.03959
# Poissons Ratio (z) = 0.53315 -0.04350
#
# Static dielectric constant tensor:
#      x y z
#    x 2.090760 0.065540 -0.044140 
#    y 0.065540 2.134960 0.013630 
#    z -0.044140 0.013630 2.124100 
# 
# From -- ./inp_files/314071.got.cif
#   From: 2010.05.17/outbox.cif.g08.bks.cpg/sg2_158_cif.got.tgz:314071.got - 2010.06.03 11:33:40.
