data_PCOD9019541
_publ_section_title
;
Structure prediction by ZEFSAII (Michael W. Deem and Ramdas Pophale) SiO2 
 PCOD9019541
Probable space group: P -1
;
_chemical_formula_sum "Si O2"
_cell_formula_units_Z 16
_cell_length_a 5.461874
_cell_length_b 5.254579
_cell_length_c 26.745254
_cell_angle_alpha 58.787788
_cell_angle_beta 74.968968
_cell_angle_gamma 94.928014
_cell_volume 611.053062
_symmetry_space_group_name_H-M "P -1"
_symmetry_group_IT_number 2
_symmetry_cell_setting 'triclinic'
loop_
_space_group_symop_operation_xyz
x,y,z
-x,-y,-z
loop_
_atom_site_type_symbol
_atom_site_label
_atom_site_fract_x
_atom_site_fract_y
_atom_site_fract_z
Si Si1 0.307546 0.105882 0.458576
Si Si2 0.702572 0.311105 0.912690
Si Si3 0.537497 0.710675 0.427311
Si Si4 0.164638 0.712399 0.779110
Si Si5 0.599536 0.832590 0.153270
Si Si6 0.376468 0.780159 0.268711
Si Si7 0.886694 0.721528 0.948306
Si Si8 0.931633 0.869797 0.678312
O O1 0.421901 0.473600 0.413552
O O2 0.500000 0.000000 0.500000
O O3 0.359116 0.940802 0.422425
O O4 0.000000 0.000000 0.500000
O O5 0.913094 0.542308 0.842224
O O6 0.677769 0.506252 0.943146
O O7 0.464002 0.188851 0.899818
O O8 0.799807 0.004130 0.949895
O O9 0.500000 0.500000 0.500000
O O10 0.838376 0.895223 0.387960
O O11 0.357085 0.495056 0.800567
O O12 0.086636 0.712057 0.725943
O O13 0.319560 0.062984 0.748795
O O14 0.383496 0.883256 0.198791
O O15 0.865426 0.100477 0.116887
O O16 0.253163 0.415010 0.312576
O O17 0.215173 0.937944 0.298590
O O18 0.000000 0.500000 0.000000
#
# Coordination Sequence:
#
# PCOD9019541 Si02
#       8
#     2   2   2   2   2   2   2   2
#     4  10  21  44  73  99 134 188 239 287 348 435
#     4  11  24  41  72  92 139 181 224 289 349 409
#     4  10  23  48  68  99 143 184 234 292 363 436
#     4  11  24  43  67 101 136 173 238 284 357 414
#     4  11  25  43  71 100 135 185 228 285 361 409
#     4  12  24  43  67 101 136 176 233 290 353 415
#     4  11  26  44  67 103 139 180 233 281 339 421
#     4  12  27  44  70 103 141 179 235 294 356 424
#
# _framework density 26.184308999999999
#
# number of rings (size 3 to 8) (size 9 to 14) (size 15 to 20)
#    0.000    1.000    3.750    1.500    5.250    1.000 
#   13.500    0.000    0.000    0.000    0.000    0.000 
#    0.000    0.000    0.000    0.000    0.000    0.000 
#
# Total GULP energy -89612.461382 kJ/mol
# GULP energy per Si atom -5600.778836 kJ/mol
# Density = 2.612471 g / cm^3
# Si number density = 26.184309 Si / 1000 Ang^3
#
#
#
# Elastic Constant Matrix: (Units=GPa)
#
#
# Indices 1 2 3 4 5 6 
#
# 1 80.3155 36.1628 27.6918 -10.9356 -4.3072 11.7305
# 2 36.1628 194.8776 46.0782 -22.8187 -11.5797 -1.2126
# 3 27.6918 46.0782 124.7686 -25.4657 -19.7559 7.4839
# 4 -10.9356 -22.8187 -25.4657 38.5316 7.2341 -9.6465
# 5 -4.3072 -11.5797 -19.7559 7.2341 65.2296 -2.9928
# 6 11.7305 -1.2126 7.4839 -9.6465 -2.9928 49.0039
#
#
#
# Elastic Compliance Matrix: (Units=1/GPa)
#
#
# Indices 1 2 3 4 5 6 
#
# 1 0.014716 -0.002168 -0.002177 0.000729 -0.000296 -0.003119
# 2 -0.002168 0.006161 -0.001325 0.002438 0.000342 0.001374
# 3 -0.002177 -0.001325 0.010363 0.005041 0.002202 0.000032
# 4 0.000729 0.002438 0.005041 0.032551 -0.001353 0.005441
# 5 -0.000296 0.000342 0.002202 -0.001353 0.016210 0.000467
# 6 -0.003119 0.001374 0.000032 0.005441 0.000467 0.022282
#
#
# Mechanical properties :
#
#
# Convention : Reuss Voigt Hill
#
# Bulk Modulus (GPa) = 50.24741 68.86973 59.55857
# Shear Modulus (GPa) = 41.57789 49.88828 45.73309
#
# Velocity S-wave (km/s) = 3.98916 4.36968 4.18375
# Velocity P-wave (km/s) = 6.35999 7.19846 6.79217
#
# Compressibility (1/GPa) = 0.01990152
#
# Stress axis : x y z
#
# Youngs Moduli (GPa) = 67.95164 162.30297 96.49792
#
# Poissons Ratio (x) = 0.35185 0.21004
# Poissons Ratio (y) = 0.14731 0.12786
# Poissons Ratio (z) = 0.14791 0.21506
#
# Static dielectric constant tensor:
#      x y z
#    x 1.973910 -0.048560 -0.030680 
#    y -0.048560 2.107350 -0.024020 
#    z -0.030680 -0.024020 1.990210 
# 
# From -- ./inp_files/621592.got.cif
#   From: 2010.05.17/outbox.cif.g08.bks.cpg/sg2_311_cif.got.tgz:621592.got - 2010.06.03 11:33:40.
