data_PCOD9019045
_publ_section_title
;
Structure prediction by ZEFSAII (Michael W. Deem and Ramdas Pophale) SiO2 
 PCOD9019045
Probable space group: P -1
;
_chemical_formula_sum "Si O2"
_cell_formula_units_Z 16
_cell_length_a 6.939428
_cell_length_b 22.799132
_cell_length_c 9.142423
_cell_angle_alpha 43.977869
_cell_angle_beta 122.499214
_cell_angle_gamma 136.945806
_cell_volume 685.483770
_symmetry_space_group_name_H-M "P -1"
_symmetry_group_IT_number 2
_symmetry_cell_setting 'triclinic'
loop_
_space_group_symop_operation_xyz
x,y,z
-x,-y,-z
loop_
_atom_site_type_symbol
_atom_site_label
_atom_site_fract_x
_atom_site_fract_y
_atom_site_fract_z
Si Si1 0.928119 0.033525 0.162406
Si Si2 0.011246 0.854659 0.515870
Si Si3 0.776874 0.763479 0.892394
Si Si4 0.134052 0.614068 0.918193
Si Si5 0.309082 0.895858 0.286622
Si Si6 0.653726 0.645907 0.607153
Si Si7 0.959944 0.488661 0.332921
Si Si8 0.098281 0.325244 0.634659
O O1 0.632551 0.972867 0.238001
O O2 0.018154 0.956646 0.337560
O O3 0.142913 0.140717 0.142670
O O4 0.854797 0.058476 0.930037
O O5 0.967385 0.809572 0.741790
O O6 0.267419 0.880676 0.470445
O O7 0.744299 0.759686 0.486078
O O8 0.446805 0.696784 0.837787
O O9 0.831449 0.693354 0.141796
O O10 0.913665 0.641502 0.761135
O O11 0.647514 0.635380 0.447728
O O12 0.145612 0.594566 0.129095
O O13 0.000000 0.500000 0.000000
O O14 0.159882 0.785995 0.337352
O O15 0.371611 0.561729 0.728156
O O16 0.023366 0.406978 0.456645
O O17 0.000000 0.500000 0.500000
#
# Coordination Sequence:
#
# PCOD9019045 Si02
#       8
#     2   2   2   2   2   2   2   2
#     4  10  21  44  67  98 139 171 219 272 340 393
#     4  11  23  40  71  95 136 174 224 267 331 405
#     4  11  26  43  66 103 138 178 217 285 333 392
#     4  12  26  46  70  93 139 181 225 278 336 396
#     4   9  21  41  71  99 130 180 217 271 332 405
#     4  11  25  45  69  99 128 181 229 273 334 406
#     4  12  26  42  72  99 130 178 226 285 338 394
#     4  10  23  46  66  98 141 170 224 279 334 398
#
# _framework density 23.341179
#
# number of rings (size 3 to 8) (size 9 to 14) (size 15 to 20)
#    0.000    1.250    1.250    3.375    7.000    1.500 
#    2.250    1.250    0.000    0.000    0.000    0.000 
#    0.000    0.000    0.000    0.000    0.000    0.000 
#
# Total GULP energy -89538.941370 kJ/mol
# GULP energy per Si atom -5596.183836 kJ/mol
# Density = 2.328805 g / cm^3
# Si number density = 23.341179 Si / 1000 Ang^3
#
#
#
# Elastic Constant Matrix: (Units=GPa)
#
#
# Indices 1 2 3 4 5 6 
#
# 1 62.5866 29.5386 33.0440 4.3503 -10.3637 -2.1365
# 2 29.5386 48.4765 -2.4903 -0.7899 8.2692 1.1093
# 3 33.0440 -2.4903 103.0482 11.9629 -12.2522 -16.6369
# 4 4.3503 -0.7899 11.9629 32.3907 -5.3589 -7.3878
# 5 -10.3637 8.2692 -12.2522 -5.3589 39.9180 4.7432
# 6 -2.1365 1.1093 -16.6369 -7.3878 4.7432 32.3493
#
#
#
# Elastic Compliance Matrix: (Units=1/GPa)
#
#
# Indices 1 2 3 4 5 6 
#
# 1 0.034448 -0.023316 -0.010964 -0.000312 0.010869 -0.004229
# 2 -0.023316 0.037168 0.007415 -0.000033 -0.011805 0.002722
# 3 -0.010964 0.007415 0.014555 -0.002496 -0.000973 0.006080
# 4 -0.000312 -0.000033 -0.002496 0.033686 0.002974 0.005954
# 5 0.010869 -0.011805 -0.000973 0.002974 0.030801 -0.003215
# 6 -0.004229 0.002722 0.006080 0.005954 -0.003215 0.035497
#
#
# Mechanical properties :
#
#
# Convention : Reuss Voigt Hill
#
# Bulk Modulus (GPa) = 30.82647 37.14398 33.98523
# Shear Modulus (GPa) = 19.94415 31.19954 25.57185
#
# Velocity S-wave (km/s) = 2.92629 3.66002 3.31353
# Velocity P-wave (km/s) = 4.96519 5.81456 5.40658
#
# Compressibility (1/GPa) = 0.03243965
#
# Stress axis : x y z
#
# Youngs Moduli (GPa) = 29.02921 26.90502 68.70557
#
# Poissons Ratio (x) = 0.62732 0.75329
# Poissons Ratio (y) = 0.67685 -0.50943
# Poissons Ratio (z) = 0.31828 -0.19949
#
# Static dielectric constant tensor:
#      x y z
#    x 1.865460 0.001190 -0.023220 
#    y 0.001190 1.916530 0.037920 
#    z -0.023220 0.037920 1.921740 
# 
# From -- ./inp_files/225247.got.cif
#   From: 2010.05.17/outbox.cif.g08.bks.cpg/sg2_113_cif.got.tgz:225247.got - 2010.06.03 11:33:40.
