data_PCOD9019560
_publ_section_title
;
Structure prediction by ZEFSAII (Michael W. Deem and Ramdas Pophale) SiO2 
 PCOD9019560
Probable space group: P -1
;
_chemical_formula_sum "Si O2"
_cell_formula_units_Z 14
_cell_length_a 11.949455
_cell_length_b 9.817518
_cell_length_c 11.861510
_cell_angle_alpha 36.930869
_cell_angle_beta 46.392921
_cell_angle_gamma 36.062598
_cell_volume 488.443201
_symmetry_space_group_name_H-M "P -1"
_symmetry_group_IT_number 2
_symmetry_cell_setting 'triclinic'
loop_
_space_group_symop_operation_xyz
x,y,z
-x,-y,-z
loop_
_atom_site_type_symbol
_atom_site_label
_atom_site_fract_x
_atom_site_fract_y
_atom_site_fract_z
Si Si1 0.305587 0.441702 0.652729
Si Si2 0.717767 0.740882 0.541996
Si Si3 0.984865 0.186107 0.613714
Si Si4 0.258552 0.992662 0.998454
Si Si5 0.330425 0.382512 0.938857
Si Si6 0.215081 0.713130 0.025798
Si Si7 0.743227 0.025304 0.646671
O O1 0.254460 0.735291 0.449920
O O2 0.528173 0.199584 0.629238
O O3 0.297303 0.485828 0.766127
O O4 0.196693 0.299429 0.808616
O O5 0.860453 0.828461 0.399697
O O6 0.752299 0.549806 0.753650
O O7 0.799719 0.511320 0.537384
O O8 0.500000 0.000000 0.500000
O O9 0.098748 0.099657 0.476259
O O10 0.325946 0.805228 0.961794
O O11 0.094988 0.985460 0.175579
O O12 0.442791 0.848213 0.046235
O O13 0.272202 0.605688 0.930378
O O14 0.232272 0.224930 0.134464
O O15 0.000000 0.000000 0.000000
#
# Coordination Sequence:
#
# PCOD9019560 Si02
#       7
#     2   2   2   2   2   2   2
#     4  10  24  45  81 108 159 218 278 328 407 491
#     4  10  23  48  78 115 164 217 269 330 411 500
#     4  10  22  44  73 119 156 200 275 336 397 479
#     4  10  23  46  70 116 159 205 266 334 410 476
#     4  11  23  49  75 112 160 215 266 335 411 486
#     4  11  25  48  75 120 161 208 267 345 411 489
#     4  10  21  44  74 107 150 211 269 326 391 483
#
# _framework density 28.662496000000001
#
# number of rings (size 3 to 8) (size 9 to 14) (size 15 to 20)
#    0.000    1.714    1.429    2.143    4.000    2.857 
#   12.857    7.143    0.000    4.286    0.000    0.000 
#    0.000    0.000    0.000    0.000    0.000    0.000 
#
# Total GULP energy -78605.069350 kJ/mol
# GULP energy per Si atom -5614.647811 kJ/mol
# Density = 2.859726 g / cm^3
# Si number density = 28.662496 Si / 1000 Ang^3
#
#
#
# Elastic Constant Matrix: (Units=GPa)
#
#
# Indices 1 2 3 4 5 6 
#
# 1 125.3641 45.2271 60.4769 -11.7608 -45.0717 -0.3022
# 2 45.2271 176.6081 53.7072 -0.2364 -18.4092 -18.7281
# 3 60.4769 53.7072 166.1116 -3.9388 -37.0376 0.3023
# 4 -11.7608 -0.2364 -3.9388 55.1960 1.8813 -1.1877
# 5 -45.0717 -18.4092 -37.0376 1.8813 60.7081 -3.9037
# 6 -0.3022 -18.7281 0.3023 -1.1877 -3.9037 66.0741
#
#
#
# Elastic Compliance Matrix: (Units=1/GPa)
#
#
# Indices 1 2 3 4 5 6 
#
# 1 0.012571 -0.001740 -0.002329 0.002256 0.007317 0.000048
# 2 -0.001740 0.006786 -0.001589 -0.000412 -0.000068 0.001911
# 3 -0.002329 -0.001589 0.007968 -0.000031 0.002629 -0.000343
# 4 0.002256 -0.000412 -0.000031 0.018567 0.000974 0.000285
# 5 0.007317 -0.000068 0.002629 0.000974 0.023549 0.001411
# 6 0.000048 0.001911 -0.000343 0.000285 0.001411 0.015767
#
#
# Mechanical properties :
#
#
# Convention : Reuss Voigt Hill
#
# Bulk Modulus (GPa) = 62.46690 87.43402 74.95046
# Shear Modulus (GPa) = 49.08724 56.97381 53.03052
#
# Velocity S-wave (km/s) = 4.14284 4.46325 4.30603
# Velocity P-wave (km/s) = 6.68771 7.55855 7.13643
#
# Compressibility (1/GPa) = 0.01600848
#
# Stress axis : x y z
#
# Youngs Moduli (GPa) = 79.54996 147.35925 125.50503
#
# Poissons Ratio (x) = 0.25642 0.29231
# Poissons Ratio (y) = 0.13842 0.19942
# Poissons Ratio (z) = 0.18528 0.23414
#
# Static dielectric constant tensor:
#      x y z
#    x 2.373550 -0.013970 0.128390 
#    y -0.013970 2.196590 -0.040040 
#    z 0.128390 -0.040040 2.246750 
# 
# From -- ./inp_files/416510.got.cif
#   From: 2010.05.17/outbox.cif.g08.bks.cpg/sg2_209_cif.got.tgz:416510.got - 2010.06.03 11:33:40.
