data_PCOD9019228
_publ_section_title
;
Structure prediction by ZEFSAII (Michael W. Deem and Ramdas Pophale) SiO2 
 PCOD9019228
Probable space group: P -1
;
_chemical_formula_sum "Si O2"
_cell_formula_units_Z 12
_cell_length_a 8.506132
_cell_length_b 11.931762
_cell_length_c 7.081644
_cell_angle_alpha 87.951858
_cell_angle_beta 80.285143
_cell_angle_gamma 140.182711
_cell_volume 437.794035
_symmetry_space_group_name_H-M "P -1"
_symmetry_group_IT_number 2
_symmetry_cell_setting 'triclinic'
loop_
_space_group_symop_operation_xyz
x,y,z
-x,-y,-z
loop_
_atom_site_type_symbol
_atom_site_label
_atom_site_fract_x
_atom_site_fract_y
_atom_site_fract_z
Si Si1 0.666325 0.878845 0.741389
Si Si2 0.504918 0.571022 0.296554
Si Si3 0.026530 0.647296 0.505411
Si Si4 0.827453 0.558439 0.139254
Si Si5 0.162976 0.028866 0.725111
Si Si6 0.703841 0.145861 0.213798
O O1 0.410585 0.660069 0.785653
O O2 0.548624 0.934575 0.816070
O O3 0.880582 0.929946 0.815400
O O4 0.805790 0.975190 0.506128
O O5 0.500000 0.500000 0.500000
O O6 0.206779 0.425167 0.325197
O O7 0.681163 0.594103 0.125891
O O8 0.630303 0.761077 0.284145
O O9 0.976107 0.657237 0.301938
O O10 0.000000 0.500000 0.500000
O O11 0.274860 0.810494 0.569800
O O12 0.053465 0.657491 0.943829
O O13 0.239830 0.954957 0.812238
#
# Coordination Sequence:
#
# PCOD9019228 Si02
#       6
#     2   2   2   2   2   2
#     4  11  23  43  71 103 141 185 233 285 353 420
#     4  10  21  44  69  97 140 184 235 283 346 422
#     4  11  22  41  73 102 134 185 232 282 346 414
#     4  11  24  46  69 105 138 184 238 286 342 423
#     4  11  24  43  73 102 141 191 226 293 358 405
#     4  12  26  45  73 107 141 179 240 289 350 415
#
# _framework density 27.410149000000001
#
# number of rings (size 3 to 8) (size 9 to 14) (size 15 to 20)
#    0.000    1.000    5.000    2.000    7.000    3.333 
#    0.000    0.833    0.000    0.000    0.000    0.000 
#    0.000    0.000    0.000    0.000    0.000    0.000 
#
# Total GULP energy -67246.250777 kJ/mol
# GULP energy per Si atom -5603.854231 kJ/mol
# Density = 2.734776 g / cm^3
# Si number density = 27.410149 Si / 1000 Ang^3
#
#
#
# Elastic Constant Matrix: (Units=GPa)
#
#
# Indices 1 2 3 4 5 6 
#
# 1 242.8828 64.0194 53.6866 -8.4588 -18.4042 -3.8663
# 2 64.0194 128.7172 27.9032 -24.3131 9.8647 1.9916
# 3 53.6866 27.9032 73.8491 -6.3905 0.8999 17.4544
# 4 -8.4588 -24.3131 -6.3905 38.6114 7.2909 3.6098
# 5 -18.4042 9.8647 0.8999 7.2909 38.2405 -3.3242
# 6 -3.8663 1.9916 17.4544 3.6098 -3.3242 56.7254
#
#
#
# Elastic Compliance Matrix: (Units=1/GPa)
#
#
# Indices 1 2 3 4 5 6 
#
# 1 0.006079 -0.002930 -0.004070 -0.002218 0.004389 0.002168
# 2 -0.002930 0.011370 -0.001195 0.007521 -0.005840 -0.001052
# 3 -0.004070 -0.001195 0.018719 0.002641 -0.003146 -0.006348
# 4 -0.002218 0.007521 0.002641 0.032772 -0.009655 -0.003879
# 5 0.004389 -0.005840 -0.003146 -0.009655 0.032028 0.003964
# 6 0.002168 -0.001052 -0.006348 -0.003879 0.003964 0.020246
#
#
# Mechanical properties :
#
#
# Convention : Reuss Voigt Hill
#
# Bulk Modulus (GPa) = 50.56410 81.85194 66.20802
# Shear Modulus (GPa) = 34.67485 46.70479 40.68982
#
# Velocity S-wave (km/s) = 3.56059 4.13234 3.85708
# Velocity P-wave (km/s) = 5.94904 7.25913 6.63649
#
# Compressibility (1/GPa) = 0.01977688
#
# Stress axis : x y z
#
# Youngs Moduli (GPa) = 164.50241 87.95177 53.42242
#
# Poissons Ratio (x) = 0.25770 0.21743
# Poissons Ratio (y) = 0.48200 0.06386
# Poissons Ratio (z) = 0.66952 0.10513
#
# Static dielectric constant tensor:
#      x y z
#    x 2.164050 0.090040 0.003450 
#    y 0.090040 2.299780 0.020610 
#    z 0.003450 0.020610 2.159170 
# 
# From -- ./inp_files/187454.got.cif
#   From: 2010.05.17/outbox.cif.g08.bks.cpg/sg2_94_cif.got.tgz:187454.got - 2010.06.03 11:33:40.
