data_PCOD9019453
_publ_section_title
;
Structure prediction by ZEFSAII (Michael W. Deem and Ramdas Pophale) SiO2 
 PCOD9019453
Probable space group: P -1
;
_chemical_formula_sum "Si O2"
_cell_formula_units_Z 14
_cell_length_a 12.416755
_cell_length_b 11.948614
_cell_length_c 9.392944
_cell_angle_alpha 129.875504
_cell_angle_beta 141.499343
_cell_angle_gamma 47.083339
_cell_volume 617.169580
_symmetry_space_group_name_H-M "P -1"
_symmetry_group_IT_number 2
_symmetry_cell_setting 'triclinic'
loop_
_space_group_symop_operation_xyz
x,y,z
-x,-y,-z
loop_
_atom_site_type_symbol
_atom_site_label
_atom_site_fract_x
_atom_site_fract_y
_atom_site_fract_z
Si Si1 0.530297 0.740714 0.685264
Si Si2 0.660502 0.906635 0.701365
Si Si3 0.624432 0.499514 0.826169
Si Si4 0.794455 0.357230 0.419450
Si Si5 0.940272 0.048237 0.139190
Si Si6 0.974844 0.587876 0.694445
Si Si7 0.157098 0.867628 0.468982
O O1 0.607889 0.821926 0.711785
O O2 0.645513 0.622626 0.831079
O O3 0.426364 0.637208 0.414644
O O4 0.359829 0.875196 0.697554
O O5 0.829157 0.766618 0.684579
O O6 0.500000 0.000000 0.500000
O O7 0.743707 0.030815 0.944921
O O8 0.431177 0.584438 0.785080
O O9 0.819637 0.432546 0.055743
O O10 0.905675 0.219949 0.309264
O O11 0.872000 0.495658 0.605987
O O12 0.830797 0.287469 0.560158
O O13 0.088931 0.911948 0.275156
O O14 0.000000 0.000000 0.000000
O O15 0.000000 0.500000 0.500000
O O16 0.000000 0.000000 0.500000
#
# Coordination Sequence:
#
# PCOD9019453 Si02
#       7
#     2   2   2   2   2   2   2
#     4  10  21  44  72 104 140 182 237 303 351 423
#     4  12  27  43  68 106 145 189 236 290 363 430
#     4  10  23  45  74 104 139 181 243 301 357 414
#     4  10  23  46  70 102 140 185 244 301 351 426
#     4  11  23  43  69  99 147 196 231 292 364 433
#     4  12  27  44  72 105 141 191 241 296 358 433
#     4   9  20  41  67  99 137 179 232 290 357 420
#
# _framework density 22.684203
#
# number of rings (size 3 to 8) (size 9 to 14) (size 15 to 20)
#    0.000    1.429    1.429    2.571    4.000    3.429 
#    0.000    2.143    0.000    0.000    0.000    0.000 
#    0.000    0.000    0.000    0.000    0.000    0.000 
#
# Total GULP energy -78123.137201 kJ/mol
# GULP energy per Si atom -5580.224086 kJ/mol
# Density = 2.263257 g / cm^3
# Si number density = 22.684203 Si / 1000 Ang^3
#
#
#
# Elastic Constant Matrix: (Units=GPa)
#
#
# Indices 1 2 3 4 5 6 
#
# 1 110.2596 27.7240 -2.1579 -3.8474 -5.2876 -0.4564
# 2 27.7240 90.4175 35.2834 -16.1763 8.6382 -15.0037
# 3 -2.1579 35.2834 71.5505 -23.4926 4.0847 -2.3858
# 4 -3.8474 -16.1763 -23.4926 43.0564 0.7044 8.7842
# 5 -5.2876 8.6382 4.0847 0.7044 35.8545 4.8784
# 6 -0.4564 -15.0037 -2.3858 8.7842 4.8784 43.1700
#
#
#
# Elastic Compliance Matrix: (Units=1/GPa)
#
#
# Indices 1 2 3 4 5 6 
#
# 1 0.010440 -0.004636 0.002725 0.001013 0.002578 -0.001848
# 2 -0.004636 0.017098 -0.007920 0.000567 -0.004711 0.005873
# 3 0.002725 -0.007920 0.020919 0.009393 0.000219 -0.003504
# 4 0.001013 0.000567 0.009393 0.029734 -0.000932 -0.005218
# 5 0.002578 -0.004711 0.000219 -0.000932 0.030053 -0.004804
# 6 -0.001848 0.005873 -0.003504 -0.005218 -0.004804 0.026597
#
#
# Mechanical properties :
#
#
# Convention : Reuss Voigt Hill
#
# Bulk Modulus (GPa) = 34.73056 43.76962 39.25009
# Shear Modulus (GPa) = 30.46906 38.50805 34.48856
#
# Velocity S-wave (km/s) = 3.66892 4.12463 3.90343
# Velocity P-wave (km/s) = 5.76990 6.48232 6.13646
#
# Compressibility (1/GPa) = 0.02879308
#
# Stress axis : x y z
#
# Youngs Moduli (GPa) = 95.78715 58.48620 47.80401
#
# Poissons Ratio (x) = 0.27114 -0.13025
# Poissons Ratio (y) = 0.44407 0.37863
# Poissons Ratio (z) = -0.26099 0.46324
#
# Static dielectric constant tensor:
#      x y z
#    x 2.016510 -0.025800 0.010920 
#    y -0.025800 1.910910 -0.060180 
#    z 0.010920 -0.060180 1.769960 
# 
# From -- ./inp_files/263237.got.cif
#   From: 2010.05.17/outbox.cif.g08.bks.cpg/sg2_132_cif.got.tgz:263237.got - 2010.06.03 11:33:40.
