data_PCOD9019397
_publ_section_title
;
Structure prediction by ZEFSAII (Michael W. Deem and Ramdas Pophale) SiO2 
 PCOD9019397
Probable space group: P -1
;
_chemical_formula_sum "Si O2"
_cell_formula_units_Z 16
_cell_length_a 7.585710
_cell_length_b 21.702510
_cell_length_c 6.357780
_cell_angle_alpha 72.632677
_cell_angle_beta 66.500065
_cell_angle_gamma 113.118913
_cell_volume 743.260637
_symmetry_space_group_name_H-M "P -1"
_symmetry_group_IT_number 2
_symmetry_cell_setting 'triclinic'
loop_
_space_group_symop_operation_xyz
x,y,z
-x,-y,-z
loop_
_atom_site_type_symbol
_atom_site_label
_atom_site_fract_x
_atom_site_fract_y
_atom_site_fract_z
Si Si1 0.914277 0.297293 0.520210
Si Si2 0.570481 0.111215 0.419983
Si Si3 0.164149 0.628232 0.869428
Si Si4 0.519900 0.238407 0.098950
Si Si5 0.300715 0.542827 0.596990
Si Si6 0.691760 0.038642 0.056226
Si Si7 0.997337 0.824363 0.521612
Si Si8 0.331172 0.464088 0.316001
O O1 0.901854 0.317680 0.264770
O O2 0.018168 0.246022 0.526020
O O3 0.085383 0.383014 0.459685
O O4 0.665128 0.250947 0.805967
O O5 0.527481 0.175520 0.302573
O O6 0.625390 0.080292 0.216254
O O7 0.793702 0.145345 0.437172
O O8 0.345135 0.035121 0.724350
O O9 0.341113 0.678824 0.921734
O O10 0.275029 0.606650 0.651661
O O11 0.927285 0.544396 0.135859
O O12 0.251155 0.206985 0.223493
O O13 0.307180 0.530664 0.358192
O O14 0.536842 0.557082 0.562948
O O15 0.927856 0.105891 0.752919
O O16 0.500000 0.000000 0.000000
O O17 0.500000 0.500000 0.000000
#
# Coordination Sequence:
#
# PCOD9019397 Si02
#       8
#     2   2   2   2   2   2   2   2
#     4  12  24  42  63  96 135 169 225 283 326 396
#     4  10  21  44  71  97 138 170 219 269 320 391
#     4  11  23  42  62  91 129 168 223 282 329 395
#     4  12  25  43  67  99 135 179 218 273 335 395
#     4  10  23  40  63  89 122 170 223 278 341 391
#     4   9  20  42  72 101 134 173 211 275 317 385
#     4  11  24  42  68  98 135 176 219 265 335 388
#     4  11  22  40  64  90 124 172 223 280 335 395
#
# _framework density 21.526769000000002
#
# number of rings (size 3 to 8) (size 9 to 14) (size 15 to 20)
#    0.000    1.250    5.000    0.750    0.000    4.000 
#    2.250    5.625    0.000    0.000    0.000    0.000 
#    0.000    0.000    0.000    0.000    0.000    0.000 
#
# Total GULP energy -89373.937832 kJ/mol
# GULP energy per Si atom -5585.871114 kJ/mol
# Density = 2.147777 g / cm^3
# Si number density = 21.526769 Si / 1000 Ang^3
#
#
#
# Elastic Constant Matrix: (Units=GPa)
#
#
# Indices 1 2 3 4 5 6 
#
# 1 55.9378 6.2503 5.0150 -6.7870 -8.7906 -5.7443
# 2 6.2503 69.1514 7.1772 7.0775 6.2837 -6.3478
# 3 5.0150 7.1772 84.9684 -0.6144 -7.9383 -14.2323
# 4 -6.7870 7.0775 -0.6144 36.8266 -3.3552 5.4724
# 5 -8.7906 6.2837 -7.9383 -3.3552 29.4822 4.6959
# 6 -5.7443 -6.3478 -14.2323 5.4724 4.6959 22.6687
#
#
#
# Elastic Compliance Matrix: (Units=1/GPa)
#
#
# Indices 1 2 3 4 5 6 
#
# 1 0.019983 -0.002724 0.000020 0.004555 0.006774 0.001811
# 2 -0.002724 0.016403 -0.000846 -0.005089 -0.006047 0.005853
# 3 0.000020 -0.000846 0.013371 -0.000540 0.002486 0.007778
# 4 0.004555 -0.005089 -0.000540 0.031066 0.007368 -0.009636
# 5 0.006774 -0.006047 0.002486 0.007368 0.040089 -0.008499
# 6 0.001811 0.005853 0.007778 -0.009636 -0.008499 0.055182
#
#
# Mechanical properties :
#
#
# Convention : Reuss Voigt Hill
#
# Bulk Modulus (GPa) = 23.44358 27.43809 25.44083
# Shear Modulus (GPa) = 25.32782 30.56983 27.94883
#
# Velocity S-wave (km/s) = 3.43384 3.77249 3.60714
# Velocity P-wave (km/s) = 5.16099 5.63465 5.40301
#
# Compressibility (1/GPa) = 0.04265561
#
# Stress axis : x y z
#
# Youngs Moduli (GPa) = 50.04345 60.96557 74.79115
#
# Poissons Ratio (x) = 0.16605 -0.00147
# Poissons Ratio (y) = 0.13630 0.06329
# Poissons Ratio (z) = -0.00099 0.05159
#
# Static dielectric constant tensor:
#      x y z
#    x 1.796310 -0.003490 0.045320 
#    y -0.003490 1.813550 0.008550 
#    z 0.045320 0.008550 1.809170 
# 
# From -- ./inp_files/52885.got.cif
#   From: 2010.05.17/outbox.cif.g08.bks.cpg/sg2_27_cif.got.tgz:52885.got - 2010.06.03 11:33:40.
