data_PCOD9019794
_publ_section_title
;
Structure prediction by ZEFSAII (Michael W. Deem and Ramdas Pophale) SiO2 
 PCOD9019794
Probable space group: P -1
;
_chemical_formula_sum "Si O2"
_cell_formula_units_Z 16
_cell_length_a 8.848319
_cell_length_b 11.687758
_cell_length_c 13.653657
_cell_angle_alpha 82.811475
_cell_angle_beta 124.023747
_cell_angle_gamma 138.014423
_cell_volume 666.550426
_symmetry_space_group_name_H-M "P -1"
_symmetry_group_IT_number 2
_symmetry_cell_setting 'triclinic'
loop_
_space_group_symop_operation_xyz
x,y,z
-x,-y,-z
loop_
_atom_site_type_symbol
_atom_site_label
_atom_site_fract_x
_atom_site_fract_y
_atom_site_fract_z
Si Si1 0.261107 0.264706 0.063303
Si Si2 0.215175 0.540077 0.191850
Si Si3 0.732846 0.456694 0.387878
Si Si4 0.139386 0.067274 0.726236
Si Si5 0.823226 0.103621 0.074472
Si Si6 0.875034 0.181206 0.637780
Si Si7 0.445401 0.336539 0.504449
Si Si8 0.772623 0.515350 0.081344
O O1 0.469977 0.319624 0.221391
O O2 0.439778 0.301874 0.030503
O O3 0.906186 0.088703 0.999577
O O4 0.302538 0.419388 0.026517
O O5 0.518217 0.726863 0.215869
O O6 0.331896 0.601378 0.339846
O O7 0.078539 0.340730 0.148406
O O8 0.954085 0.505531 0.095767
O O9 0.543652 0.351838 0.430397
O O10 0.000000 0.500000 0.500000
O O11 0.933521 0.672526 0.403470
O O12 0.972563 0.099474 0.694070
O O13 0.144784 0.976859 0.823690
O O14 0.912669 0.888358 0.583217
O O15 0.500000 0.000000 0.000000
O O16 0.007313 0.319877 0.766643
O O17 0.500000 0.000000 0.500000
O O18 0.500000 0.500000 0.500000
#
# Coordination Sequence:
#
# PCOD9019794 Si02
#       8
#     2   2   2   2   2   2   2   2
#     4  10  21  45  68  98 142 184 243 292 354 428
#     4  12  25  46  72 109 146 187 245 304 360 435
#     4  11  22  41  71  99 140 189 230 295 366 428
#     4  12  25  46  73 104 147 192 238 298 373 432
#     4  12  27  47  72 106 148 199 241 291 369 435
#     4  11  24  44  69 108 144 192 242 292 367 437
#     4  12  22  42  71 104 140 184 237 297 362 425
#     4  10  23  42  74 102 140 191 239 301 359 425
#
# _framework density 24.004187000000002
#
# number of rings (size 3 to 8) (size 9 to 14) (size 15 to 20)
#    0.000    0.750    2.500    6.375    0.000    6.000 
#    2.250    1.250    0.000    0.000    0.000    0.000 
#    0.000    0.000    0.000    0.000    0.000    0.000 
#
# Total GULP energy -89386.261811 kJ/mol
# GULP energy per Si atom -5586.641363 kJ/mol
# Density = 2.394955 g / cm^3
# Si number density = 24.004187 Si / 1000 Ang^3
#
#
#
# Elastic Constant Matrix: (Units=GPa)
#
#
# Indices 1 2 3 4 5 6 
#
# 1 122.7304 62.3564 51.9790 -0.7368 35.0857 14.2283
# 2 62.3564 182.6423 43.1155 5.0634 10.5412 9.7024
# 3 51.9790 43.1155 126.5712 -3.0363 17.8005 -2.9230
# 4 -0.7368 5.0634 -3.0363 37.2992 -5.2613 1.1741
# 5 35.0857 10.5412 17.8005 -5.2613 47.8728 -4.0928
# 6 14.2283 9.7024 -2.9230 1.1741 -4.0928 56.1234
#
#
#
# Elastic Compliance Matrix: (Units=1/GPa)
#
#
# Indices 1 2 3 4 5 6 
#
# 1 0.014333 -0.003303 -0.003625 -0.000688 -0.008837 -0.003882
# 2 -0.003303 0.006851 -0.001179 -0.000909 0.001224 -0.000300
# 3 -0.003625 -0.001179 0.009924 0.000768 -0.000554 0.001583
# 4 -0.000688 -0.000909 0.000768 0.027467 0.003441 0.000048
# 5 -0.008837 0.001224 -0.000554 0.003441 0.028020 0.003971
# 6 -0.003882 -0.000300 0.001583 0.000048 0.003971 0.019225
#
#
# Mechanical properties :
#
#
# Convention : Reuss Voigt Hill
#
# Bulk Modulus (GPa) = 67.12824 82.98286 75.05555
# Shear Modulus (GPa) = 39.37123 46.55861 42.96492
#
# Velocity S-wave (km/s) = 4.05431 4.40887 4.23530
# Velocity P-wave (km/s) = 7.06700 7.78221 7.43321
#
# Compressibility (1/GPa) = 0.01489686
#
# Stress axis : x y z
#
# Youngs Moduli (GPa) = 69.76799 145.95489 100.77024
#
# Poissons Ratio (x) = 0.48203 0.36524
# Poissons Ratio (y) = 0.23042 0.11876
# Poissons Ratio (z) = 0.25288 0.17202
#
# Static dielectric constant tensor:
#      x y z
#    x 1.936200 -0.017130 -0.052630 
#    y -0.017130 1.938780 0.118070 
#    z -0.052630 0.118070 2.056260 
# 
# From -- ./inp_files/500321.got.cif
#   From: 2010.05.17/outbox.cif.g08.bks.cpg/sg2_251_cif.got.tgz:500321.got - 2010.06.03 11:33:40.
