data_PCOD9019182
_publ_section_title
;
Structure prediction by ZEFSAII (Michael W. Deem and Ramdas Pophale) SiO2 
 PCOD9019182
Probable space group: P -1
;
_chemical_formula_sum "Si O2"
_cell_formula_units_Z 14
_cell_length_a 16.823104
_cell_length_b 8.224142
_cell_length_c 8.623285
_cell_angle_alpha 135.665121
_cell_angle_beta 48.482874
_cell_angle_gamma 137.888162
_cell_volume 536.400235
_symmetry_space_group_name_H-M "P -1"
_symmetry_group_IT_number 2
_symmetry_cell_setting 'triclinic'
loop_
_space_group_symop_operation_xyz
x,y,z
-x,-y,-z
loop_
_atom_site_type_symbol
_atom_site_label
_atom_site_fract_x
_atom_site_fract_y
_atom_site_fract_z
Si Si1 0.299953 0.811774 0.715787
Si Si2 0.282389 0.358499 0.619044
Si Si3 0.136395 0.931493 0.244393
Si Si4 0.596295 0.902971 0.770521
Si Si5 0.085045 0.360373 0.477135
Si Si6 0.789981 0.517840 0.902227
Si Si7 0.566183 0.598128 0.145582
O O1 0.347781 0.657236 0.661109
O O2 0.207899 0.599041 0.562919
O O3 0.394426 0.086402 0.693432
O O4 0.221532 0.879755 0.984793
O O5 0.211692 0.152567 0.431038
O O6 0.366995 0.249986 0.512608
O O7 0.190903 0.344096 0.861216
O O8 0.078358 0.074646 0.316231
O O9 0.029160 0.672918 0.296882
O O10 0.538419 0.643036 0.780651
O O11 0.718155 0.198843 0.811862
O O12 0.500000 0.000000 0.000000
O O13 0.099439 0.406307 0.306589
O O14 0.690354 0.578994 0.988060
O O15 0.500000 0.500000 0.000000
#
# Coordination Sequence:
#
# PCOD9019182 Si02
#       7
#     2   2   2   2   2   2   2
#     4  11  23  44  70 104 136 178 232 283 334 406
#     4  11  24  43  70  99 142 182 220 282 340 406
#     4  10  21  44  69 103 138 178 228 279 338 405
#     4  10  25  45  65  95 138 180 225 276 340 401
#     4  10  23  41  73 101 137 181 225 282 339 399
#     4  11  24  44  66 102 140 178 226 280 339 408
#     4  11  23  42  69  97 133 177 230 282 333 401
#
# _framework density 26.099913000000001
#
# number of rings (size 3 to 8) (size 9 to 14) (size 15 to 20)
#    0.000    1.429    1.429    3.000    4.000    3.429 
#    2.571    2.857    0.000    0.000    0.000    0.000 
#    0.000    0.000    0.000    0.000    0.000    0.000 
#
# Total GULP energy -78132.071090 kJ/mol
# GULP energy per Si atom -5580.862221 kJ/mol
# Density = 2.604051 g / cm^3
# Si number density = 26.099913 Si / 1000 Ang^3
#
#
#
# Elastic Constant Matrix: (Units=GPa)
#
#
# Indices 1 2 3 4 5 6 
#
# 1 52.8781 26.6943 21.5449 13.9317 -11.2669 -16.6102
# 2 26.6943 162.6126 65.6360 -10.0056 -2.5799 -22.6294
# 3 21.5449 65.6360 163.8123 -10.4258 -14.0569 -29.1900
# 4 13.9317 -10.0056 -10.4258 49.2357 -6.9245 -0.0440
# 5 -11.2669 -2.5799 -14.0569 -6.9245 43.9992 1.1220
# 6 -16.6102 -22.6294 -29.1900 -0.0440 1.1220 37.7099
#
#
#
# Elastic Compliance Matrix: (Units=1/GPa)
#
#
# Indices 1 2 3 4 5 6 
#
# 1 0.026792 -0.003252 -0.000638 -0.007662 0.005026 0.009197
# 2 -0.003252 0.007987 -0.002464 0.001898 -0.000891 0.001482
# 3 -0.000638 -0.002464 0.008329 0.001802 0.002519 0.004615
# 4 -0.007662 0.001898 0.001802 0.023591 0.002460 -0.000887
# 5 0.005026 -0.000891 0.002519 0.002460 0.025081 0.002886
# 6 0.009197 0.001482 0.004615 -0.000887 0.002886 0.034943
#
#
# Mechanical properties :
#
#
# Convention : Reuss Voigt Hill
#
# Bulk Modulus (GPa) = 32.89649 67.45038 50.17344
# Shear Modulus (GPa) = 33.43039 43.88416 38.65727
#
# Velocity S-wave (km/s) = 3.58280 4.10493 3.85272
# Velocity P-wave (km/s) = 5.45405 6.95460 6.24952
#
# Compressibility (1/GPa) = 0.03039838
#
# Stress axis : x y z
#
# Youngs Moduli (GPa) = 37.32486 125.20514 120.06426
#
# Poissons Ratio (x) = 0.40722 0.07661
# Poissons Ratio (y) = 0.12140 0.29585
# Poissons Ratio (z) = 0.02382 0.30851
#
# Static dielectric constant tensor:
#      x y z
#    x 2.397420 -0.068520 -0.012760 
#    y -0.068520 2.015210 -0.067050 
#    z -0.012760 -0.067050 2.115470 
# 
# From -- ./inp_files/89796.got.cif
#   From: 2010.05.17/outbox.cif.g08.bks.cpg/sg2_45_cif.got.tgz:89796.got - 2010.06.03 11:33:40.
