data_PCOD9019891
_publ_section_title
;
Structure prediction by ZEFSAII (Michael W. Deem and Ramdas Pophale) SiO2 
 PCOD9019891
Probable space group: P -1
;
_chemical_formula_sum "Si O2"
_cell_formula_units_Z 14
_cell_length_a 9.581623
_cell_length_b 13.408368
_cell_length_c 5.521544
_cell_angle_alpha 115.332293
_cell_angle_beta 110.100142
_cell_angle_gamma 70.047874
_cell_volume 586.140894
_symmetry_space_group_name_H-M "P -1"
_symmetry_group_IT_number 2
_symmetry_cell_setting 'triclinic'
loop_
_space_group_symop_operation_xyz
x,y,z
-x,-y,-z
loop_
_atom_site_type_symbol
_atom_site_label
_atom_site_fract_x
_atom_site_fract_y
_atom_site_fract_z
Si Si1 0.340594 0.206093 0.074073
Si Si2 0.762413 0.216341 0.861714
Si Si3 0.005004 0.313615 0.865616
Si Si4 0.244265 0.008967 0.591736
Si Si5 0.566049 0.697525 0.279574
Si Si6 0.053767 0.897975 0.737170
Si Si7 0.873506 0.544612 0.274979
O O1 0.416962 0.222914 0.394232
O O2 0.402319 0.262148 0.933367
O O3 0.159196 0.264462 0.060865
O O4 0.352684 0.077728 0.856536
O O5 0.887322 0.233968 0.757114
O O6 0.708299 0.097269 0.672075
O O7 0.608790 0.310853 0.840887
O O8 0.851130 0.206558 0.159500
O O9 0.077552 0.346694 0.696941
O O10 0.900371 0.436725 0.003016
O O11 0.162721 0.951164 0.688087
O O12 0.109229 0.103251 0.482298
O O13 0.698624 0.585918 0.289806
O O14 0.000000 0.000000 0.000000
O O15 0.000000 0.500000 0.500000
#
# Coordination Sequence:
#
# PCOD9019891 Si02
#       7
#     2   2   2   2   2   2   2
#     4  11  24  44  69  96 135 189 224 276 326 407
#     4  11  25  41  64 102 138 176 216 288 336 398
#     4  10  22  41  73  97 127 172 233 272 341 401
#     4  10  22  38  64  94 135 179 237 262 324 398
#     4  11  27  44  66 101 143 173 227 280 346 392
#     4   9  19  37  60  92 129 171 225 279 317 387
#     4  10  21  45  71  96 125 175 225 282 330 417
#
# _framework density 23.885041000000001
#
# number of rings (size 3 to 8) (size 9 to 14) (size 15 to 20)
#    0.000    1.714    1.429    2.571    8.000    2.857 
#    0.000    0.714    0.000    0.000    0.000    0.000 
#    0.000    0.000    0.000    0.000    0.000    0.000 
#
# Total GULP energy -78064.071639 kJ/mol
# GULP energy per Si atom -5576.005117 kJ/mol
# Density = 2.383068 g / cm^3
# Si number density = 23.885041 Si / 1000 Ang^3
#
#
#
# Elastic Constant Matrix: (Units=GPa)
#
#
# Indices 1 2 3 4 5 6 
#
# 1 85.2935 17.8821 20.3097 -18.7530 19.6093 -20.0685
# 2 17.8821 72.8499 20.0437 -18.3528 21.0328 -0.1701
# 3 20.3097 20.0437 86.5646 -20.9270 4.3080 -5.2915
# 4 -18.7530 -18.3528 -20.9270 39.8500 -11.6328 15.7705
# 5 19.6093 21.0328 4.3080 -11.6328 27.4985 -8.2938
# 6 -20.0685 -0.1701 -5.2915 15.7705 -8.2938 30.3915
#
#
#
# Elastic Compliance Matrix: (Units=1/GPa)
#
#
# Indices 1 2 3 4 5 6 
#
# 1 0.016330 -0.000833 -0.002649 0.000442 -0.008023 0.007898
# 2 -0.000833 0.020484 -0.002718 0.006724 -0.014308 -0.008302
# 3 -0.002649 -0.002718 0.014139 0.006805 0.004116 -0.001711
# 4 0.000442 0.006724 0.006805 0.040685 0.005205 -0.018178
# 5 -0.008023 -0.014308 0.004116 0.005205 0.057064 0.008210
# 6 0.007898 -0.008302 -0.001711 -0.018178 0.008210 0.049448
#
#
# Mechanical properties :
#
#
# Convention : Reuss Voigt Hill
#
# Bulk Modulus (GPa) = 25.93875 40.13101 33.03488
# Shear Modulus (GPa) = 22.38117 31.97949 27.18033
#
# Velocity S-wave (km/s) = 3.06443 3.66306 3.37703
# Velocity P-wave (km/s) = 4.83780 5.89312 5.39135
#
# Compressibility (1/GPa) = 0.03855236
#
# Stress axis : x y z
#
# Youngs Moduli (GPa) = 61.23718 48.81745 70.72829
#
# Poissons Ratio (x) = 0.04068 0.18739
# Poissons Ratio (y) = 0.05103 0.19221
# Poissons Ratio (z) = 0.16225 0.13266
#
# Static dielectric constant tensor:
#      x y z
#    x 1.906040 -0.054200 -0.034200 
#    y -0.054200 2.005050 0.099450 
#    z -0.034200 0.099450 2.138700 
# 
# From -- ./inp_files/40074.got.cif
#   From: 2010.05.17/outbox.cif.g08.bks.cpg/sg2_21_cif.got.tgz:40074.got - 2010.06.03 11:33:40.
