data_PCOD9019557
_publ_section_title
;
Structure prediction by ZEFSAII (Michael W. Deem and Ramdas Pophale) SiO2 
 PCOD9019557
Probable space group: P -1
;
_chemical_formula_sum "Si O2"
_cell_formula_units_Z 10
_cell_length_a 9.605599
_cell_length_b 7.291981
_cell_length_c 9.497132
_cell_angle_alpha 97.466074
_cell_angle_beta 102.552785
_cell_angle_gamma 133.669893
_cell_volume 431.152780
_symmetry_space_group_name_H-M "P -1"
_symmetry_group_IT_number 2
_symmetry_cell_setting 'triclinic'
loop_
_space_group_symop_operation_xyz
x,y,z
-x,-y,-z
loop_
_atom_site_type_symbol
_atom_site_label
_atom_site_fract_x
_atom_site_fract_y
_atom_site_fract_z
Si Si1 0.630194 0.860616 0.232393
Si Si2 0.788618 0.369723 0.871485
Si Si3 0.229261 0.242559 0.502087
Si Si4 0.425237 0.835457 0.613621
Si Si5 0.976187 0.890706 0.829351
O O1 0.619574 0.736044 0.364233
O O2 0.712131 0.141709 0.330276
O O3 0.395085 0.678487 0.101006
O O4 0.791791 0.917464 0.169575
O O5 0.872104 0.587092 0.790885
O O6 0.000000 0.500000 0.000000
O O7 0.647857 0.057845 0.768710
O O8 0.316385 0.534377 0.555561
O O9 0.172834 0.144029 0.317823
O O10 0.000000 0.000000 0.500000
O O11 0.500000 0.000000 0.500000
O O12 0.000000 0.000000 0.000000
#
# Coordination Sequence:
#
# PCOD9019557 Si02
#       5
#     2   2   2   2   2
#     4   9  24  45  74 105 145 192 251 300 368 435
#     4  10  24  45  67 106 148 192 242 303 373 428
#     4  10  21  44  75 109 142 195 248 305 370 439
#     4  10  21  44  74 106 145 189 251 303 358 450
#     4  11  24  44  68 109 148 195 245 299 376 447
#
# _framework density 23.193635
#
# number of rings (size 3 to 8) (size 9 to 14) (size 15 to 20)
#    1.200    0.800    2.000    0.000    0.000   11.200 
#    7.200    0.000    0.000    0.000    0.000    1.400 
#    0.000    0.000    0.000    0.000    0.000    0.000 
#
# Total GULP energy -55706.573798 kJ/mol
# GULP energy per Si atom -5570.657380 kJ/mol
# Density = 2.314085 g / cm^3
# Si number density = 23.193635 Si / 1000 Ang^3
#
#
#
# Elastic Constant Matrix: (Units=GPa)
#
#
# Indices 1 2 3 4 5 6 
#
# 1 146.8211 53.5909 78.4745 -0.3133 4.5154 9.2188
# 2 53.5909 133.9815 50.2795 16.1559 0.9034 -5.0753
# 3 78.4745 50.2795 134.8760 6.0365 -4.0014 3.6846
# 4 -0.3133 16.1559 6.0365 30.0196 3.6192 -1.4118
# 5 4.5154 0.9034 -4.0014 3.6192 32.7772 5.3544
# 6 9.2188 -5.0753 3.6846 -1.4118 5.3544 45.1777
#
#
#
# Elastic Compliance Matrix: (Units=1/GPa)
#
#
# Indices 1 2 3 4 5 6 
#
# 1 0.010908 -0.002700 -0.005483 0.002844 -0.002127 -0.001741
# 2 -0.002700 0.009931 -0.001953 -0.004918 0.000132 0.001656
# 3 -0.005483 -0.001953 0.011488 -0.001630 0.002454 -0.000379
# 4 0.002844 -0.004918 -0.001630 0.036909 -0.004646 0.000704
# 5 -0.002127 0.000132 0.002454 -0.004646 0.032218 -0.003715
# 6 -0.001741 0.001656 -0.000379 0.000704 -0.003715 0.023169
#
#
# Mechanical properties :
#
#
# Convention : Reuss Voigt Hill
#
# Bulk Modulus (GPa) = 82.94067 86.70759 84.82413
# Shear Modulus (GPa) = 33.57659 37.15047 35.36353
#
# Velocity S-wave (km/s) = 3.80895 4.00653 3.90899
# Velocity P-wave (km/s) = 7.42845 7.67258 7.55150
#
# Compressibility (1/GPa) = 0.01205681
#
# Stress axis : x y z
#
# Youngs Moduli (GPa) = 91.67727 100.69141 87.04567
#
# Poissons Ratio (x) = 0.27187 0.47725
# Poissons Ratio (y) = 0.24753 0.16996
# Poissons Ratio (z) = 0.50265 0.19660
#
# Static dielectric constant tensor:
#      x y z
#    x 1.919260 0.009610 -0.002860 
#    y 0.009610 1.849370 0.013240 
#    z -0.002860 0.013240 1.965900 
# 
# From -- ./inp_files/244175.got.cif
#   From: 2010.05.17/outbox.cif.g08.bks.cpg/sg2_123_cif.got.tgz:244175.got - 2010.06.03 11:33:40.
