data_PCOD9019618
_publ_section_title
;
Structure prediction by ZEFSAII (Michael W. Deem and Ramdas Pophale) SiO2 
 PCOD9019618
Probable space group: P -1
;
_chemical_formula_sum "Si O2"
_cell_formula_units_Z 12
_cell_length_a 8.422584
_cell_length_b 11.655303
_cell_length_c 10.625660
_cell_angle_alpha 41.114021
_cell_angle_beta 120.469715
_cell_angle_gamma 126.503999
_cell_volume 547.902035
_symmetry_space_group_name_H-M "P -1"
_symmetry_group_IT_number 2
_symmetry_cell_setting 'triclinic'
loop_
_space_group_symop_operation_xyz
x,y,z
-x,-y,-z
loop_
_atom_site_type_symbol
_atom_site_label
_atom_site_fract_x
_atom_site_fract_y
_atom_site_fract_z
Si Si1 0.418756 0.042907 0.123723
Si Si2 0.628624 0.718026 0.889773
Si Si3 0.901062 0.614092 0.537288
Si Si4 0.072416 0.994811 0.392179
Si Si5 0.998862 0.725637 0.196346
Si Si6 0.346806 0.167745 0.728001
O O1 0.481503 0.172256 0.164202
O O2 0.532030 0.900734 0.267225
O O3 0.443058 0.163743 0.905398
O O4 0.185637 0.914921 0.141809
O O5 0.729438 0.836131 0.708604
O O6 0.500000 0.500000 0.000000
O O7 0.815250 0.733106 0.039615
O O8 0.917194 0.647026 0.366651
O O9 0.703745 0.648492 0.471953
O O10 0.919393 0.416336 0.726318
O O11 0.074755 0.789772 0.527941
O O12 0.000000 0.000000 0.500000
O O13 0.880539 0.988099 0.237184
#
# Coordination Sequence:
#
# PCOD9019618 Si02
#       6
#     2   2   2   2   2   2
#     4  11  19  40  68  91 121 167 214 265 312 374
#     4  12  24  42  65  95 129 169 214 255 317 387
#     4   9  20  38  66  91 121 163 215 260 315 369
#     4  10  21  45  61  89 134 171 201 264 319 373
#     4  11  19  40  68  91 121 167 214 265 312 374
#     4   9  20  38  66  91 121 163 215 260 315 369
#
# _framework density 21.901724999999999
#
# number of rings (size 3 to 8) (size 9 to 14) (size 15 to 20)
#    1.000    0.667    5.000    0.500    0.000    2.000 
#   12.000    3.333    0.000    0.000    0.000    0.000 
#    0.000    0.000    0.000    0.000    0.000    0.000 
#
# Total GULP energy -66916.221532 kJ/mol
# GULP energy per Si atom -5576.351794 kJ/mol
# Density = 2.185188 g / cm^3
# Si number density = 21.901725 Si / 1000 Ang^3
#
#
#
# Elastic Constant Matrix: (Units=GPa)
#
#
# Indices 1 2 3 4 5 6 
#
# 1 105.5472 49.8711 23.9527 -16.9395 14.8778 -27.0369
# 2 49.8711 106.2485 26.6285 -35.8517 -5.2784 -13.6123
# 3 23.9527 26.6285 43.8598 -12.2301 7.4380 -19.6121
# 4 -16.9395 -35.8517 -12.2301 32.9022 -3.5730 0.0938
# 5 14.8778 -5.2784 7.4380 -3.5730 43.0906 -5.5284
# 6 -27.0369 -13.6123 -19.6121 0.0938 -5.5284 42.5962
#
#
#
# Elastic Compliance Matrix: (Units=1/GPa)
#
#
# Indices 1 2 3 4 5 6 
#
# 1 0.014963 -0.006239 -0.000546 0.000143 -0.004977 0.006606
# 2 -0.006239 0.019869 -0.004388 0.017559 0.006960 0.001233
# 3 -0.000546 -0.004388 0.034574 0.007320 -0.003960 0.013640
# 4 0.000143 0.017559 0.007320 0.052997 0.006490 0.009798
# 5 -0.004977 0.006960 -0.003960 0.006490 0.027095 0.000744
# 6 0.006606 0.001233 0.013640 0.009798 0.000744 0.034418
#
#
# Mechanical properties :
#
#
# Convention : Reuss Voigt Hill
#
# Bulk Modulus (GPa) = 21.24964 50.72890 35.98927
# Shear Modulus (GPa) = 22.52760 34.06469 28.29615
#
# Velocity S-wave (km/s) = 3.21062 3.94806 3.59828
# Velocity P-wave (km/s) = 4.84432 6.63289 5.80787
#
# Compressibility (1/GPa) = 0.04705961
#
# Stress axis : x y z
#
# Youngs Moduli (GPa) = 66.83153 50.32949 28.92346
#
# Poissons Ratio (x) = 0.31402 0.01579
# Poissons Ratio (y) = 0.41698 0.12692
# Poissons Ratio (z) = 0.03648 0.22085
#
# Static dielectric constant tensor:
#      x y z
#    x 1.861100 -0.003680 0.011990 
#    y -0.003680 1.802600 -0.008140 
#    z 0.011990 -0.008140 1.823770 
# 
# From -- ./inp_files/166586.got.cif
#   From: 2010.05.17/outbox.cif.g08.bks.cpg/sg2_84_cif.got.tgz:166586.got - 2010.06.03 11:33:40.
