data_PCOD9019132
_publ_section_title
;
Structure prediction by ZEFSAII (Michael W. Deem and Ramdas Pophale) SiO2 
 PCOD9019132
Probable space group: P -1
;
_chemical_formula_sum "Si O2"
_cell_formula_units_Z 16
_cell_length_a 9.013070
_cell_length_b 15.176660
_cell_length_c 8.820751
_cell_angle_alpha 70.394559
_cell_angle_beta 119.310248
_cell_angle_gamma 67.596178
_cell_volume 741.129170
_symmetry_space_group_name_H-M "P -1"
_symmetry_group_IT_number 2
_symmetry_cell_setting 'triclinic'
loop_
_space_group_symop_operation_xyz
x,y,z
-x,-y,-z
loop_
_atom_site_type_symbol
_atom_site_label
_atom_site_fract_x
_atom_site_fract_y
_atom_site_fract_z
Si Si1 0.222253 0.574328 0.945501
Si Si2 0.179459 0.344274 0.095978
Si Si3 0.028364 0.877553 0.106940
Si Si4 0.326399 0.725334 0.059551
Si Si5 0.605290 0.922040 0.753229
Si Si6 0.265300 0.902073 0.718379
Si Si7 0.815184 0.529449 0.277744
Si Si8 0.400605 0.710077 0.634864
O O1 0.470725 0.434662 0.179246
O O2 0.212154 0.686163 0.921378
O O3 0.154205 0.578880 0.735140
O O4 0.048790 0.582449 0.964299
O O5 0.238561 0.219883 0.141414
O O6 0.391062 0.305578 0.325633
O O7 0.176555 0.404913 0.903490
O O8 0.166764 0.800090 0.373437
O O9 0.199425 0.769177 0.130337
O O10 0.775581 0.927807 0.925406
O O11 0.000000 0.000000 0.000000
O O12 0.299657 0.843278 0.931352
O O13 0.589581 0.609098 0.222308
O O14 0.400621 0.947831 0.729783
O O15 0.500000 0.000000 0.500000
O O16 0.357615 0.787854 0.717659
O O17 0.000000 0.000000 0.500000
O O18 0.000000 0.500000 0.500000
#
# Coordination Sequence:
#
# PCOD9019132 Si02
#       8
#     2   2   2   2   2   2   2   2
#     4  11  23  43  69  99 136 187 225 261 355 413
#     4  10  21  44  68  97 135 184 225 267 341 418
#     4  12  26  44  69 101 134 176 241 283 335 406
#     4  12  24  43  65  99 138 175 221 287 340 405
#     4  11  22  45  70  95 128 180 229 278 338 410
#     4  11  23  45  70  93 132 179 226 281 350 397
#     4  11  24  41  66 101 142 171 221 283 333 404
#     4  10  22  41  67  96 140 172 227 281 327 411
#
# _framework density 21.58868
#
# number of rings (size 3 to 8) (size 9 to 14) (size 15 to 20)
#    0.000    1.000    5.000    4.875    3.500    1.500 
#    0.000    2.500    0.000    0.000    0.000    0.000 
#    0.000    0.000    0.000    0.000    0.000    0.000 
#
# Total GULP energy -89140.737276 kJ/mol
# GULP energy per Si atom -5571.296080 kJ/mol
# Density = 2.153954 g / cm^3
# Si number density = 21.588680 Si / 1000 Ang^3
#
#
#
# Elastic Constant Matrix: (Units=GPa)
#
#
# Indices 1 2 3 4 5 6 
#
# 1 124.4632 12.9473 37.3171 10.8637 33.9465 6.5520
# 2 12.9473 75.4266 8.8135 6.1848 10.9681 2.3421
# 3 37.3171 8.8135 107.8400 23.5253 24.8402 8.1932
# 4 10.8637 6.1848 23.5253 25.7337 -0.7799 8.7857
# 5 33.9465 10.9681 24.8402 -0.7799 35.7303 -1.9399
# 6 6.5520 2.3421 8.1932 8.7857 -1.9399 43.0897
#
#
#
# Elastic Compliance Matrix: (Units=1/GPa)
#
#
# Indices 1 2 3 4 5 6 
#
# 1 0.011578 0.000043 -0.000458 -0.004374 -0.010860 -0.001273
# 2 0.000043 0.014267 0.001016 -0.004429 -0.005240 -0.000308
# 3 -0.000458 0.001016 0.014796 -0.013735 -0.010489 -0.000471
# 4 -0.004374 -0.004429 -0.013735 0.057356 0.015911 -0.007461
# 5 -0.010860 -0.005240 -0.010489 0.015911 0.047707 0.002834
# 6 -0.001273 -0.000308 -0.000471 -0.007461 0.002834 0.025156
#
#
# Mechanical properties :
#
#
# Convention : Reuss Voigt Hill
#
# Bulk Modulus (GPa) = 23.89829 47.32065 35.60947
# Shear Modulus (GPa) = 27.23241 37.48753 32.35997
#
# Velocity S-wave (km/s) = 3.55550 4.17159 3.87580
# Velocity P-wave (km/s) = 5.28671 6.72084 6.04644
#
# Compressibility (1/GPa) = 0.04184400
#
# Stress axis : x y z
#
# Youngs Moduli (GPa) = 86.37130 70.09418 67.58401
#
# Poissons Ratio (x) = -0.00304 0.03092
# Poissons Ratio (y) = -0.00375 -0.06864
# Poissons Ratio (z) = 0.03952 -0.07119
#
# Static dielectric constant tensor:
#      x y z
#    x 1.887090 0.046870 -0.008200 
#    y 0.046870 1.815640 -0.037660 
#    z -0.008200 -0.037660 1.863040 
# 
# From -- ./inp_files/207181.got.cif
#   From: 2010.05.17/outbox.cif.g08.bks.cpg/sg2_104_cif.got.tgz:207181.got - 2010.06.03 11:33:40.
