data_PCOD9019403
_publ_section_title
;
Structure prediction by ZEFSAII (Michael W. Deem and Ramdas Pophale) SiO2 
 PCOD9019403
Probable space group: P -1
;
_chemical_formula_sum "Si O2"
_cell_formula_units_Z 14
_cell_length_a 7.634615
_cell_length_b 9.625847
_cell_length_c 11.933887
_cell_angle_alpha 46.453376
_cell_angle_beta 114.407833
_cell_angle_gamma 100.010318
_cell_volume 570.637758
_symmetry_space_group_name_H-M "P -1"
_symmetry_group_IT_number 2
_symmetry_cell_setting 'triclinic'
loop_
_space_group_symop_operation_xyz
x,y,z
-x,-y,-z
loop_
_atom_site_type_symbol
_atom_site_label
_atom_site_fract_x
_atom_site_fract_y
_atom_site_fract_z
Si Si1 0.329396 0.433201 0.811240
Si Si2 0.336102 0.212256 0.722319
Si Si3 0.135238 0.558380 0.322320
Si Si4 0.655775 0.135600 0.437877
Si Si5 0.899131 0.353894 0.979562
Si Si6 0.403157 0.829783 0.846227
Si Si7 0.934508 0.069734 0.758061
O O1 0.414773 0.288644 0.814431
O O2 0.407250 0.632773 0.703074
O O3 0.093982 0.468262 0.716773
O O4 0.402939 0.332777 0.003513
O O5 0.266627 0.392288 0.521729
O O6 0.143339 0.129104 0.754824
O O7 0.461437 0.028309 0.798803
O O8 0.154814 0.767458 0.265608
O O9 0.186114 0.543595 0.213640
O O10 0.699981 0.109978 0.332230
O O11 0.821383 0.089691 0.599692
O O12 0.500000 0.000000 0.500000
O O13 0.747658 0.268525 0.066023
O O14 0.036870 0.157253 0.078589
O O15 0.000000 0.500000 0.000000
#
# Coordination Sequence:
#
# PCOD9019403 Si02
#       7
#     2   2   2   2   2   2   2
#     4  11  22  46  68  99 131 174 221 271 330 395
#     4  10  21  44  71  98 125 174 222 280 323 382
#     4  11  21  44  76  96 126 175 231 268 318 397
#     4  12  26  42  67  96 136 176 221 267 331 397
#     4  11  26  40  67 102 138 172 215 274 335 391
#     4  11  27  43  64 100 140 168 213 279 339 380
#     4  10  22  43  66  97 128 177 227 266 317 397
#
# _framework density 24.533951999999999
#
# number of rings (size 3 to 8) (size 9 to 14) (size 15 to 20)
#    0.000    1.143    2.857    3.000    6.000    1.143 
#    2.571    1.429    0.000    0.000    0.000    0.000 
#    0.000    0.000    0.000    0.000    0.000    0.000 
#
# Total GULP energy -78343.032375 kJ/mol
# GULP energy per Si atom -5595.930884 kJ/mol
# Density = 2.447811 g / cm^3
# Si number density = 24.533952 Si / 1000 Ang^3
#
#
#
# Elastic Constant Matrix: (Units=GPa)
#
#
# Indices 1 2 3 4 5 6 
#
# 1 40.4800 63.1031 52.3518 -2.8001 -8.7444 28.9665
# 2 63.1031 109.5463 -2.2694 -19.6110 -31.1947 17.2463
# 3 52.3518 -2.2694 46.6204 10.1710 -23.9472 -7.1092
# 4 -2.8001 -19.6110 10.1710 45.2125 -11.8272 -4.7048
# 5 -8.7444 -31.1947 -23.9472 -11.8272 28.0531 -4.6848
# 6 28.9665 17.2463 -7.1092 -4.7048 -4.6848 24.3635
#
#
#
# Elastic Compliance Matrix: (Units=1/GPa)
#
#
# Indices 1 2 3 4 5 6 
#
# 1 -0.000987 0.007552 0.012095 0.006786 0.022097 0.004916
# 2 0.007552 0.010565 -0.008087 0.007184 0.007559 -0.015976
# 3 0.012095 -0.008087 0.004455 -0.006247 -0.005665 -0.009651
# 4 0.006786 0.007184 -0.006247 0.030856 0.016814 -0.005784
# 5 0.022097 0.007559 -0.005665 0.016814 0.049777 -0.020457
# 6 0.004916 -0.015976 -0.009651 -0.005784 -0.020457 0.038643
#
#
# Mechanical properties :
#
#
# Convention : Reuss Voigt Hill
#
# Bulk Modulus (GPa) = 26.91512 47.00196 36.95854
# Shear Modulus (GPa) = 40.79195 25.08989 32.94092
#
# Velocity S-wave (km/s) = 4.08201 3.20137 3.66822
# Velocity P-wave (km/s) = 5.76294 5.73276 5.74787
#
# Compressibility (1/GPa) = 0.03715384
#
# Stress axis : x y z
#
# Youngs Moduli (GPa) = -1013.52344 94.65582 224.45073
#
# Poissons Ratio (x) = -0.71486 -2.71478
# Poissons Ratio (y) = 7.65432 1.81516
# Poissons Ratio (z) = 12.25879 0.76549
#
# Static dielectric constant tensor:
#      x y z
#    x 2.009860 -0.070310 0.019110 
#    y -0.070310 1.974770 -0.013000 
#    z 0.019110 -0.013000 1.903660 
# 
# From -- ./inp_files/159995.got.cif
#   From: 2010.05.17/outbox.cif.g08.bks.cpg/sg2_80_cif.got.tgz:159995.got - 2010.06.03 11:33:40.
