data_PCOD9019468
_publ_section_title
;
Structure prediction by ZEFSAII (Michael W. Deem and Ramdas Pophale) SiO2 
 PCOD9019468
Probable space group: P -1
;
_chemical_formula_sum "Si O2"
_cell_formula_units_Z 16
_cell_length_a 16.710317
_cell_length_b 8.008745
_cell_length_c 7.358903
_cell_angle_alpha 100.158345
_cell_angle_beta 67.813274
_cell_angle_gamma 49.660480
_cell_volume 558.018607
_symmetry_space_group_name_H-M "P -1"
_symmetry_group_IT_number 2
_symmetry_cell_setting 'triclinic'
loop_
_space_group_symop_operation_xyz
x,y,z
-x,-y,-z
loop_
_atom_site_type_symbol
_atom_site_label
_atom_site_fract_x
_atom_site_fract_y
_atom_site_fract_z
Si Si1 0.869040 0.332702 0.199985
Si Si2 0.818085 0.037263 0.542553
Si Si3 0.861688 0.463341 0.850514
Si Si4 0.673545 0.596367 0.754407
Si Si5 0.955372 0.663906 0.755436
Si Si6 0.424908 0.798655 0.125850
Si Si7 0.713460 0.162500 0.237714
Si Si8 0.493161 0.802078 0.471303
O O1 0.743820 0.494585 0.478246
O O2 0.615952 0.475363 0.346940
O O3 0.928390 0.413012 0.253683
O O4 0.000000 0.000000 0.000000
O O5 0.980260 0.831537 0.398097
O O6 0.739970 0.324505 0.729343
O O7 0.737867 0.000349 0.693666
O O8 0.786884 0.064540 0.356105
O O9 0.747440 0.623048 0.822420
O O10 0.898917 0.594768 0.906723
O O11 0.815015 0.439331 0.064397
O O12 0.510510 0.798982 0.925587
O O13 0.000000 0.500000 0.500000
O O14 0.825994 0.989671 0.946733
O O15 0.454026 0.831384 0.302074
O O16 0.500000 0.500000 0.000000
O O17 0.627187 0.118173 0.300463
O O18 0.500000 0.000000 0.500000
#
# Coordination Sequence:
#
# PCOD9019468 Si02
#       8
#     2   2   2   2   2   2   2   2
#     4  12  25  45  70 111 159 206 265 333 395 479
#     4  10  21  44  72 107 157 209 257 332 408 470
#     4  12  25  43  76 109 158 212 262 320 404 479
#     4  11  23  43  72 111 153 202 277 330 390 483
#     4  12  26  46  72 115 166 213 258 333 410 480
#     4   9  22  43  72 106 151 201 256 331 410 468
#     4  10  23  47  72 113 165 199 275 340 405 491
#     4  10  23  45  82 112 145 216 271 335 411 492
#
# _framework density 28.672879999999999
#
# number of rings (size 3 to 8) (size 9 to 14) (size 15 to 20)
#    0.000    1.250    3.750    0.750    1.750    4.000 
#    0.000    1.250    2.750    6.000    0.000    0.000 
#    0.000    0.000    0.000    0.000    0.000    0.000 
#
# Total GULP energy -89405.299358 kJ/mol
# GULP energy per Si atom -5587.831210 kJ/mol
# Density = 2.860762 g / cm^3
# Si number density = 28.672880 Si / 1000 Ang^3
#
#
#
# Elastic Constant Matrix: (Units=GPa)
#
#
# Indices 1 2 3 4 5 6 
#
# 1 198.9231 42.1879 76.5038 -3.1746 -4.0067 31.0297
# 2 42.1879 108.2078 53.2872 3.1402 -20.6428 24.8443
# 3 76.5038 53.2872 200.5785 -17.7639 -39.3658 -5.5409
# 4 -3.1746 3.1402 -17.7639 55.9541 7.2916 -8.5269
# 5 -4.0067 -20.6428 -39.3658 7.2916 50.6712 -2.6364
# 6 31.0297 24.8443 -5.5409 -8.5269 -2.6364 56.6705
#
#
#
# Elastic Compliance Matrix: (Units=1/GPa)
#
#
# Indices 1 2 3 4 5 6 
#
# 1 0.006926 -0.000642 -0.003093 -0.000883 -0.002200 -0.004049
# 2 -0.000642 0.013035 -0.003063 -0.003044 0.003007 -0.005981
# 3 -0.003093 -0.003063 0.008280 0.002683 0.004787 0.004472
# 4 -0.000883 -0.003044 0.002683 0.019841 -0.001822 0.004981
# 5 -0.002200 0.003007 0.004787 -0.001822 0.024831 0.001236
# 6 -0.004049 -0.005981 0.004472 0.004981 0.001236 0.023729
#
#
# Mechanical properties :
#
#
# Convention : Reuss Voigt Hill
#
# Bulk Modulus (GPa) = 68.28105 94.62969 81.45537
# Shear Modulus (GPa) = 43.43373 55.04122 49.23747
#
# Velocity S-wave (km/s) = 3.89627 4.38611 4.14842
# Velocity P-wave (km/s) = 6.64129 7.66325 7.17050
#
# Compressibility (1/GPa) = 0.01464535
#
# Stress axis : x y z
#
# Youngs Moduli (GPa) = 144.38738 76.71593 120.77894
#
# Poissons Ratio (x) = 0.04922 0.37357
# Poissons Ratio (y) = 0.09264 0.36994
# Poissons Ratio (z) = 0.44660 0.23498
#
# Static dielectric constant tensor:
#      x y z
#    x 2.193110 0.055240 -0.089970 
#    y 0.055240 2.036130 0.177360 
#    z -0.089970 0.177360 2.302210 
# 
# From -- ./inp_files/252093.got.cif
#   From: 2010.05.17/outbox.cif.g08.bks.cpg/sg2_127_cif.got.tgz:252093.got - 2010.06.03 11:33:40.
