data_PCOD9019933
_publ_section_title
;
Structure prediction by ZEFSAII (Michael W. Deem and Ramdas Pophale) SiO2 
 PCOD9019933
Probable space group: P -1
;
_chemical_formula_sum "Si O2"
_cell_formula_units_Z 12
_cell_length_a 9.986617
_cell_length_b 5.510533
_cell_length_c 18.405498
_cell_angle_alpha 57.021358
_cell_angle_beta 145.817604
_cell_angle_gamma 117.516806
_cell_volume 477.228354
_symmetry_space_group_name_H-M "P -1"
_symmetry_group_IT_number 2
_symmetry_cell_setting 'triclinic'
loop_
_space_group_symop_operation_xyz
x,y,z
-x,-y,-z
loop_
_atom_site_type_symbol
_atom_site_label
_atom_site_fract_x
_atom_site_fract_y
_atom_site_fract_z
Si Si1 0.995571 0.826060 0.417483
Si Si2 0.682604 0.780346 0.415491
Si Si3 0.352515 0.756245 0.431787
Si Si4 0.281192 0.296584 0.029597
Si Si5 0.195528 0.001272 0.175085
Si Si6 0.676887 0.132903 0.118319
O O1 0.805219 0.927796 0.377384
O O2 0.000000 0.500000 0.500000
O O3 0.869106 0.918780 0.271666
O O4 0.235036 0.008003 0.515985
O O5 0.766886 0.458388 0.526418
O O6 0.398765 0.779378 0.274741
O O7 0.500000 0.500000 0.500000
O O8 0.500000 0.000000 0.500000
O O9 0.211910 0.933658 0.279045
O O10 0.286701 0.281453 0.122900
O O11 0.516316 0.238321 0.097214
O O12 0.196275 0.597457 0.909245
O O13 0.077740 0.060589 0.956527
O O14 0.500000 0.000000 0.000000
#
# Coordination Sequence:
#
# PCOD9019933 Si02
#       6
#     2   2   2   2   2   2
#     4  11  25  41  70 100 140 188 241 297 364 433
#     4  10  23  43  67 100 139 182 241 300 364 428
#     4  10  23  41  68 102 143 186 231 303 370 433
#     4  10  23  46  70  96 141 185 241 290 365 438
#     4  10  21  45  72  99 135 185 236 305 362 432
#     4  11  25  44  69 101 140 187 236 293 360 437
#
# _framework density 25.145195000000001
#
# number of rings (size 3 to 8) (size 9 to 14) (size 15 to 20)
#    0.000    1.667    1.667    1.000    7.000    2.667 
#    6.000    1.667    0.000    0.000    0.000    0.000 
#    0.000    0.000    0.000    0.000    0.000    0.000 
#
# Total GULP energy -66878.544275 kJ/mol
# GULP energy per Si atom -5573.212023 kJ/mol
# Density = 2.508796 g / cm^3
# Si number density = 25.145195 Si / 1000 Ang^3
#
#
#
# Elastic Constant Matrix: (Units=GPa)
#
#
# Indices 1 2 3 4 5 6 
#
# 1 92.8096 21.3560 25.8492 -24.1479 -29.5969 40.7128
# 2 21.3560 130.9050 42.8894 -27.0598 -23.6156 15.2926
# 3 25.8492 42.8894 149.3331 -44.3870 -34.8356 6.7120
# 4 -24.1479 -27.0598 -44.3870 37.8259 6.7886 -12.9279
# 5 -29.5969 -23.6156 -34.8356 6.7886 53.7696 -12.9076
# 6 40.7128 15.2926 6.7120 -12.9279 -12.9076 39.6282
#
#
#
# Elastic Compliance Matrix: (Units=1/GPa)
#
#
# Indices 1 2 3 4 5 6 
#
# 1 0.023823 0.001522 0.001155 0.009486 0.008692 -0.019333
# 2 0.001522 0.009656 -0.000233 0.006261 0.003653 -0.002019
# 3 0.001155 -0.000233 0.012937 0.015851 0.007991 0.004486
# 4 0.009486 0.006261 0.015851 0.055836 0.013018 0.007609
# 5 0.008692 0.003653 0.007991 0.013018 0.029000 0.002000
# 6 -0.019333 -0.002019 0.004486 0.007609 0.002000 0.048249
#
#
# Mechanical properties :
#
#
# Convention : Reuss Voigt Hill
#
# Bulk Modulus (GPa) = 19.49115 61.47078 40.48097
# Shear Modulus (GPa) = 26.08027 45.10827 35.59427
#
# Velocity S-wave (km/s) = 3.22403 4.24006 3.76646
# Velocity P-wave (km/s) = 4.65053 6.96205 5.92020
#
# Compressibility (1/GPa) = 0.05130533
#
# Stress axis : x y z
#
# Youngs Moduli (GPa) = 41.97565 103.56147 77.29559
#
# Poissons Ratio (x) = -0.15766 -0.08928
# Poissons Ratio (y) = -0.06390 0.01802
# Poissons Ratio (z) = -0.04848 0.02414
#
# Static dielectric constant tensor:
#      x y z
#    x 2.434270 -0.020730 0.024410 
#    y -0.020730 1.901220 -0.057250 
#    z 0.024410 -0.057250 2.018590 
# 
# From -- ./inp_files/75597.got.cif
#   From: 2010.05.17/outbox.cif.g08.bks.cpg/sg2_38_cif.got.tgz:75597.got - 2010.06.03 11:33:40.
