data_PCOD9019921
_publ_section_title
;
Structure prediction by ZEFSAII (Michael W. Deem and Ramdas Pophale) SiO2 
 PCOD9019921
Probable space group: P -1
;
_chemical_formula_sum "Si O2"
_cell_formula_units_Z 16
_cell_length_a 10.609837
_cell_length_b 8.911524
_cell_length_c 14.281174
_cell_angle_alpha 62.926171
_cell_angle_beta 52.033190
_cell_angle_gamma 103.668142
_cell_volume 642.210898
_symmetry_space_group_name_H-M "P -1"
_symmetry_group_IT_number 2
_symmetry_cell_setting 'triclinic'
loop_
_space_group_symop_operation_xyz
x,y,z
-x,-y,-z
loop_
_atom_site_type_symbol
_atom_site_label
_atom_site_fract_x
_atom_site_fract_y
_atom_site_fract_z
Si Si1 0.115879 0.428302 0.636501
Si Si2 0.155597 0.485507 0.319380
Si Si3 0.585453 0.914954 0.328188
Si Si4 0.365790 0.087721 0.917497
Si Si5 0.848806 0.831253 0.455900
Si Si6 0.383076 0.671871 0.769675
Si Si7 0.936387 0.843327 0.982178
Si Si8 0.270847 0.419923 0.091877
O O1 0.187412 0.327505 0.567425
O O2 0.058375 0.549034 0.566707
O O3 0.335041 0.637677 0.543704
O O4 0.865405 0.191003 0.864519
O O5 0.394429 0.746592 0.181292
O O6 0.106784 0.266816 0.451413
O O7 0.192662 0.480150 0.194445
O O8 0.600610 0.115404 0.301417
O O9 0.816912 0.991090 0.230593
O O10 0.595229 0.917845 0.208575
O O11 0.281767 0.215681 0.939145
O O12 0.625308 0.774233 0.596841
O O13 0.070522 0.123490 0.255369
O O14 0.167296 0.422648 0.881347
O O15 0.325839 0.567678 0.931585
O O16 0.000000 0.000000 0.000000
O O17 0.500000 0.500000 0.000000
#
# Coordination Sequence:
#
# PCOD9019921 Si02
#       8
#     2   2   2   2   2   2   2   2
#     4  12  25  40  67  99 134 173 219 266 325 392
#     4  12  23  44  63  99 138 174 217 265 325 393
#     4  11  25  42  69  97 130 173 218 276 324 381
#     4  11  23  46  67  97 132 174 221 269 324 386
#     4  12  24  41  64  94 136 177 216 262 321 392
#     4  12  24  45  66  97 135 168 220 269 330 387
#     4  10  21  45  72  94 126 171 222 271 327 382
#     4  12  25  40  65  96 134 178 214 265 325 392
#
# _framework density 24.913934999999999
#
# number of rings (size 3 to 8) (size 9 to 14) (size 15 to 20)
#    0.000    0.500    3.750    5.250    1.750    0.500 
#    0.000    2.500    0.000    8.250    0.000    0.000 
#    0.000    0.000    0.000    0.000    0.000    0.000 
#
# Total GULP energy -89677.039416 kJ/mol
# GULP energy per Si atom -5604.814963 kJ/mol
# Density = 2.485723 g / cm^3
# Si number density = 24.913935 Si / 1000 Ang^3
#
#
#
# Elastic Constant Matrix: (Units=GPa)
#
#
# Indices 1 2 3 4 5 6 
#
# 1 82.0468 50.8797 37.4589 14.9860 -27.8181 -13.8182
# 2 50.8797 163.8929 53.7238 -12.1803 -8.8308 -18.5855
# 3 37.4589 53.7238 130.8436 -3.6080 -22.3617 3.5343
# 4 14.9860 -12.1803 -3.6080 30.6952 13.6279 -10.1395
# 5 -27.8181 -8.8308 -22.3617 13.6279 44.1542 10.5537
# 6 -13.8182 -18.5855 3.5343 -10.1395 10.5537 44.8549
#
#
#
# Elastic Compliance Matrix: (Units=1/GPa)
#
#
# Indices 1 2 3 4 5 6 
#
# 1 0.047836 -0.019112 0.001499 -0.058813 0.049593 -0.018264
# 2 -0.019112 0.016089 -0.004734 0.030205 -0.023788 0.013577
# 3 0.001499 -0.004734 0.010692 -0.007490 0.009206 -0.006201
# 4 -0.058813 0.030205 -0.007490 0.123225 -0.082964 0.042362
# 5 0.049593 -0.023788 0.009206 -0.082964 0.087695 -0.034692
# 6 -0.018264 0.013577 -0.006201 0.042362 -0.034692 0.040520
#
#
# Mechanical properties :
#
#
# Convention : Reuss Voigt Hill
#
# Bulk Modulus (GPa) = 33.41780 73.43422 53.42601
# Shear Modulus (GPa) = 13.13284 39.58892 26.36088
#
# Velocity S-wave (km/s) = 2.29842 3.99059 3.25634
# Velocity P-wave (km/s) = 4.52615 7.12546 5.96901
#
# Compressibility (1/GPa) = 0.02992417
#
# Stress axis : x y z
#
# Youngs Moduli (GPa) = 20.90465 62.15368 93.53158
#
# Poissons Ratio (x) = 1.18788 -0.14025
# Poissons Ratio (y) = 0.39953 0.44277
# Poissons Ratio (z) = -0.03135 0.29423
#
# Static dielectric constant tensor:
#      x y z
#    x 2.002160 0.016020 0.060990 
#    y 0.016020 1.974180 0.021970 
#    z 0.060990 0.021970 1.991380 
# 
# From -- ./inp_files/515341.got.cif
#   From: 2010.05.17/outbox.cif.g08.bks.cpg/sg2_258_cif.got.tgz:515341.got - 2010.06.03 11:33:40.
