data_PCOD9019189
_publ_section_title
;
Structure prediction by ZEFSAII (Michael W. Deem and Ramdas Pophale) SiO2 
 PCOD9019189
Probable space group: P -1
;
_chemical_formula_sum "Si O2"
_cell_formula_units_Z 16
_cell_length_a 24.746046
_cell_length_b 18.557283
_cell_length_c 5.410586
_cell_angle_alpha 110.474656
_cell_angle_beta 81.207257
_cell_angle_gamma 160.130866
_cell_volume 659.088706
_symmetry_space_group_name_H-M "P -1"
_symmetry_group_IT_number 2
_symmetry_cell_setting 'triclinic'
loop_
_space_group_symop_operation_xyz
x,y,z
-x,-y,-z
loop_
_atom_site_type_symbol
_atom_site_label
_atom_site_fract_x
_atom_site_fract_y
_atom_site_fract_z
Si Si1 0.606517 0.840170 0.234584
Si Si2 0.574662 0.560568 0.270387
Si Si3 0.953006 0.006030 0.360948
Si Si4 0.262135 0.412400 0.263913
Si Si5 0.670666 0.044757 0.041331
Si Si6 0.275075 0.740373 0.471587
Si Si7 0.045103 0.651420 0.110655
Si Si8 0.391471 0.737924 0.445850
O O1 0.479429 0.679688 0.379432
O O2 0.573496 0.871399 0.131587
O O3 0.827288 0.137140 0.514828
O O4 0.518568 0.649834 0.926260
O O5 0.500000 0.500000 0.500000
O O6 0.804325 0.861789 0.429542
O O7 0.500000 0.500000 0.000000
O O8 0.834195 0.799683 0.985560
O O9 0.000000 0.000000 0.500000
O O10 0.154375 0.298132 0.445526
O O11 0.252439 0.477900 0.183116
O O12 0.794241 0.283695 0.335797
O O13 0.531248 0.894394 0.752772
O O14 0.806624 0.160435 0.990158
O O15 0.284346 0.671738 0.518944
O O16 0.478621 0.049663 0.607794
O O17 0.139522 0.554044 0.104300
O O18 0.000000 0.500000 0.000000
#
# Coordination Sequence:
#
# PCOD9019189 Si02
#       8
#     2   2   2   2   2   2   2   2
#     4  11  25  42  77 107 140 206 250 308 384 459
#     4  11  29  53  79 113 160 195 247 326 401 458
#     4  10  25  43  80 102 141 190 251 313 379 459
#     4  10  21  44  69 107 136 184 257 300 373 454
#     4  12  21  40  69  97 136 195 251 295 368 453
#     4  11  24  41  62 104 143 194 236 309 373 434
#     4  12  22  42  66 101 143 184 256 301 358 454
#     4  11  23  41  67  95 147 185 244 303 379 431
#
# _framework density 24.275941
#
# number of rings (size 3 to 8) (size 9 to 14) (size 15 to 20)
#    0.000    1.000    5.000    0.750   10.500    0.000 
#    4.500    0.000    0.000    0.000    0.000    0.000 
#    0.000    0.000    0.000    0.000    0.000    0.000 
#
# Total GULP energy -89132.303702 kJ/mol
# GULP energy per Si atom -5570.768981 kJ/mol
# Density = 2.422069 g / cm^3
# Si number density = 24.275941 Si / 1000 Ang^3
#
#
#
# Elastic Constant Matrix: (Units=GPa)
#
#
# Indices 1 2 3 4 5 6 
#
# 1 92.9603 6.8002 6.8734 -5.7373 -8.4845 5.7897
# 2 6.8002 118.6715 11.5612 -12.7189 -5.5932 17.3410
# 3 6.8734 11.5612 61.9862 -2.4099 -8.6247 12.7162
# 4 -5.7373 -12.7189 -2.4099 31.8818 -1.5830 -5.1972
# 5 -8.4845 -5.5932 -8.6247 -1.5830 43.4178 -0.9335
# 6 5.7897 17.3410 12.7162 -5.1972 -0.9335 33.5752
#
#
#
# Elastic Compliance Matrix: (Units=1/GPa)
#
#
# Indices 1 2 3 4 5 6 
#
# 1 0.011194 -0.000098 -0.000591 0.001820 0.002096 -0.001316
# 2 -0.000098 0.009482 -0.000637 0.003098 0.001100 -0.004129
# 3 -0.000591 -0.000637 0.018069 0.000140 0.003261 -0.006300
# 4 0.001820 0.003098 0.000140 0.033579 0.002078 0.003288
# 5 0.002096 0.001100 0.003261 0.002078 0.024282 -0.001168
# 6 -0.001316 -0.004129 -0.006300 0.003288 -0.001168 0.035006
#
#
# Mechanical properties :
#
#
# Convention : Reuss Voigt Hill
#
# Bulk Modulus (GPa) = 27.70632 36.00973 31.85803
# Shear Modulus (GPa) = 34.17807 38.33383 36.25595
#
# Velocity S-wave (km/s) = 3.75627 3.97808 3.86877
# Velocity P-wave (km/s) = 5.50005 5.99716 5.75398
#
# Compressibility (1/GPa) = 0.03609285
#
# Stress axis : x y z
#
# Youngs Moduli (GPa) = 89.33619 105.46831 55.34457
#
# Poissons Ratio (x) = 0.01031 0.03269
# Poissons Ratio (y) = 0.00873 0.03526
# Poissons Ratio (z) = 0.05277 0.06719
#
# Static dielectric constant tensor:
#      x y z
#    x 1.953340 0.157920 -0.112290 
#    y 0.157920 2.068820 -0.035990 
#    z -0.112290 -0.035990 1.922740 
# 
# From -- ./inp_files/124849.got.cif
#   From: 2010.05.17/outbox.cif.g08.bks.cpg/sg2_63_cif.got.tgz:124849.got - 2010.06.03 11:33:40.
