data_PCOD9019529
_publ_section_title
;
Structure prediction by ZEFSAII (Michael W. Deem and Ramdas Pophale) SiO2 
 PCOD9019529
Probable space group: P -1
;
_chemical_formula_sum "Si O2"
_cell_formula_units_Z 12
_cell_length_a 12.056845
_cell_length_b 11.561446
_cell_length_c 8.067426
_cell_angle_alpha 121.260777
_cell_angle_beta 80.872583
_cell_angle_gamma 145.739381
_cell_volume 447.759745
_symmetry_space_group_name_H-M "P -1"
_symmetry_group_IT_number 2
_symmetry_cell_setting 'triclinic'
loop_
_space_group_symop_operation_xyz
x,y,z
-x,-y,-z
loop_
_atom_site_type_symbol
_atom_site_label
_atom_site_fract_x
_atom_site_fract_y
_atom_site_fract_z
Si Si1 0.699976 0.170432 0.710169
Si Si2 0.491927 0.175202 0.197194
Si Si3 0.980395 0.356019 0.261384
Si Si4 0.003197 0.230662 0.634018
Si Si5 0.713745 0.590568 0.695437
Si Si6 0.124863 0.159581 0.836042
O O1 0.578558 0.023122 0.809255
O O2 0.500000 0.000000 0.500000
O O3 0.916729 0.493779 0.834269
O O4 0.812810 0.144871 0.632012
O O5 0.131472 0.384455 0.299115
O O6 0.707631 0.028139 0.047320
O O7 0.757532 0.453790 0.269009
O O8 0.000000 0.500000 0.500000
O O9 0.492125 0.674124 0.576773
O O10 0.878625 0.981290 0.371309
O O11 0.098441 0.256535 0.792860
O O12 0.877836 0.877299 0.784872
O O13 0.672352 0.600286 0.897187
#
# Coordination Sequence:
#
# PCOD9019529 Si02
#       6
#     2   2   2   2   2   2
#     4  12  26  47  75 108 151 194 246 306 374 438
#     4  11  25  47  73 109 148 197 241 304 377 432
#     4  12  26  46  75 110 150 193 248 308 370 447
#     4  10  23  46  77 113 147 194 253 300 372 438
#     4  10  21  44  73 108 150 192 246 301 374 436
#     4   9  20  44  74 107 153 187 249 314 350 445
#
# _framework density 26.800087000000001
#
# number of rings (size 3 to 8) (size 9 to 14) (size 15 to 20)
#    0.000    1.333    1.667    3.500    0.000    4.000 
#    3.000   31.667    0.000    0.000    0.000    0.000 
#    0.000    0.000    0.000    0.000    0.000    0.000 
#
# Total GULP energy -67194.304291 kJ/mol
# GULP energy per Si atom -5599.525358 kJ/mol
# Density = 2.673909 g / cm^3
# Si number density = 26.800087 Si / 1000 Ang^3
#
#
#
# Elastic Constant Matrix: (Units=GPa)
#
#
# Indices 1 2 3 4 5 6 
#
# 1 115.0882 58.8907 34.2796 1.3337 -9.2970 8.8399
# 2 58.8907 164.5345 23.3968 -8.0421 0.4371 -13.4444
# 3 34.2796 23.3968 204.6356 16.5632 -2.3347 8.7235
# 4 1.3337 -8.0421 16.5632 33.5080 3.1400 15.9692
# 5 -9.2970 0.4371 -2.3347 3.1400 41.8255 5.1202
# 6 8.8399 -13.4444 8.7235 15.9692 5.1202 39.9173
#
#
#
# Elastic Compliance Matrix: (Units=1/GPa)
#
#
# Indices 1 2 3 4 5 6 
#
# 1 0.011952 -0.004424 -0.001348 0.001060 0.003120 -0.004667
# 2 -0.004424 0.008062 -0.000413 0.000696 -0.001597 0.003712
# 3 -0.001348 -0.000413 0.005382 -0.002753 0.000205 0.000058
# 4 0.001060 0.000696 -0.002753 0.038397 -0.001017 -0.014629
# 5 0.003120 -0.001597 0.000205 -0.001017 0.025209 -0.004100
# 6 -0.004667 0.003712 0.000058 -0.014629 -0.004100 0.033701
#
#
# Mechanical properties :
#
#
# Convention : Reuss Voigt Hill
#
# Bulk Modulus (GPa) = 76.76971 79.71029 78.24000
# Shear Modulus (GPa) = 35.86404 47.56292 41.71348
#
# Velocity S-wave (km/s) = 3.66212 4.21732 3.94949
# Velocity P-wave (km/s) = 6.82561 7.31584 7.07497
#
# Compressibility (1/GPa) = 0.01302597
#
# Stress axis : x y z
#
# Youngs Moduli (GPa) = 83.66486 124.04446 185.78923
#
# Poissons Ratio (x) = 0.54880 0.25038
# Poissons Ratio (y) = 0.37015 0.07680
# Poissons Ratio (z) = 0.11275 0.05128
#
# Static dielectric constant tensor:
#      x y z
#    x 2.026450 0.038430 -0.002370 
#    y 0.038430 2.155790 -0.037180 
#    z -0.002370 -0.037180 2.188400 
# 
# From -- ./inp_files/303859.got.cif
#   From: 2010.05.17/outbox.cif.g08.bks.cpg/sg2_152_cif.got.tgz:303859.got - 2010.06.03 11:33:40.
