data_PCOD9019304
_publ_section_title
;
Structure prediction by ZEFSAII (Michael W. Deem and Ramdas Pophale) SiO2 
 PCOD9019304
Probable space group: P -1
;
_chemical_formula_sum "Si O2"
_cell_formula_units_Z 14
_cell_length_a 12.341424
_cell_length_b 6.510404
_cell_length_c 8.244370
_cell_angle_alpha 71.177157
_cell_angle_beta 102.178239
_cell_angle_gamma 69.166584
_cell_volume 544.833808
_symmetry_space_group_name_H-M "P -1"
_symmetry_group_IT_number 2
_symmetry_cell_setting 'triclinic'
loop_
_space_group_symop_operation_xyz
x,y,z
-x,-y,-z
loop_
_atom_site_type_symbol
_atom_site_label
_atom_site_fract_x
_atom_site_fract_y
_atom_site_fract_z
Si Si1 0.310273 0.201146 0.945429
Si Si2 0.719611 0.069061 0.264552
Si Si3 0.851191 0.803297 0.841969
Si Si4 0.641902 0.479569 0.379339
Si Si5 0.569251 0.051276 0.658581
Si Si6 0.976236 0.986485 0.305116
Si Si7 0.153517 0.468842 0.390236
O O1 0.350865 0.966118 0.902514
O O2 0.309553 0.402456 0.776433
O O3 0.177894 0.253743 0.971522
O O4 0.403040 0.146055 0.139203
O O5 0.794309 0.798121 0.440029
O O6 0.827991 0.121976 0.209673
O O7 0.641943 0.259583 0.330556
O O8 0.711202 0.004936 0.694325
O O9 0.872492 0.578690 0.789453
O O10 0.950695 0.899205 0.807034
O O11 0.739170 0.448859 0.562267
O O12 0.513037 0.685227 0.356767
O O13 0.500000 0.000000 0.500000
O O14 0.033017 0.699314 0.359213
O O15 0.000000 0.000000 0.500000
#
# Coordination Sequence:
#
# PCOD9019304 Si02
#       7
#     2   2   2   2   2   2   2
#     4   9  24  41  63 100 133 167 217 261 334 386
#     4  11  24  40  67  98 131 175 217 264 324 388
#     4  10  23  41  62 102 125 169 222 260 327 381
#     4  11  20  41  69  94 133 174 212 264 328 387
#     4  10  21  44  70  96 133 169 217 276 319 383
#     4  12  23  40  68  97 130 171 222 267 321 382
#     4  11  21  41  67  96 128 168 225 266 318 384
#
# _framework density 25.695906999999998
#
# number of rings (size 3 to 8) (size 9 to 14) (size 15 to 20)
#    0.857    0.571    4.286    0.857    0.000    2.286 
#    0.000    7.143    0.000    0.000    0.000    0.000 
#    0.000    0.000    0.000    0.000    0.000    0.000 
#
# Total GULP energy -78191.658008 kJ/mol
# GULP energy per Si atom -5585.118429 kJ/mol
# Density = 2.563742 g / cm^3
# Si number density = 25.695907 Si / 1000 Ang^3
#
#
#
# Elastic Constant Matrix: (Units=GPa)
#
#
# Indices 1 2 3 4 5 6 
#
# 1 112.0056 33.5216 1.5694 -4.4624 -13.7973 2.2508
# 2 33.5216 186.6929 22.9476 44.5017 -7.3513 -19.2901
# 3 1.5694 22.9476 63.8165 15.4949 -6.8146 18.0015
# 4 -4.4624 44.5017 15.4949 32.9751 2.4489 -5.6069
# 5 -13.7973 -7.3513 -6.8146 2.4489 42.4339 -2.1113
# 6 2.2508 -19.2901 18.0015 -5.6069 -2.1113 49.9418
#
#
#
# Elastic Compliance Matrix: (Units=1/GPa)
#
#
# Indices 1 2 3 4 5 6 
#
# 1 0.010402 -0.003137 0.000178 0.005192 0.002515 -0.001056
# 2 -0.003137 0.009253 -0.000958 -0.012087 0.001264 0.002757
# 3 0.000178 -0.000958 0.021562 -0.010639 0.003511 -0.009196
# 4 0.005192 -0.012087 -0.010639 0.053513 -0.004967 0.004730
# 5 0.002515 0.001264 0.003511 -0.004967 0.025435 -0.000373
# 6 -0.001056 0.002757 -0.009196 0.004730 -0.000373 0.024966
#
#
# Mechanical properties :
#
#
# Convention : Reuss Voigt Hill
#
# Bulk Modulus (GPa) = 29.95500 53.17691 41.56596
# Shear Modulus (GPa) = 30.47016 45.36858 37.91937
#
# Velocity S-wave (km/s) = 3.44728 4.20646 3.84565
# Velocity P-wave (km/s) = 5.24669 6.65823 5.99415
#
# Compressibility (1/GPa) = 0.03338340
#
# Stress axis : x y z
#
# Youngs Moduli (GPa) = 96.13103 108.06873 46.37701
#
# Poissons Ratio (x) = 0.33904 -0.00826
# Poissons Ratio (y) = 0.30159 0.04444
# Poissons Ratio (z) = -0.01712 0.10356
#
# Static dielectric constant tensor:
#      x y z
#    x 2.092000 0.021650 -0.041410 
#    y 0.021650 2.051940 -0.043110 
#    z -0.041410 -0.043110 2.084780 
# 
# From -- ./inp_files/287124.got.cif
#   From: 2010.05.17/outbox.cif.g08.bks.cpg/sg2_144_cif.got.tgz:287124.got - 2010.06.03 11:33:40.
