data_PCOD9019171
_publ_section_title
;
Structure prediction by ZEFSAII (Michael W. Deem and Ramdas Pophale) SiO2 
 PCOD9019171
Probable space group: P -1
;
_chemical_formula_sum "Si O2"
_cell_formula_units_Z 12
_cell_length_a 13.684665
_cell_length_b 13.854459
_cell_length_c 5.417313
_cell_angle_alpha 108.523403
_cell_angle_beta 52.145338
_cell_angle_gamma 144.480293
_cell_volume 432.582866
_symmetry_space_group_name_H-M "P -1"
_symmetry_group_IT_number 2
_symmetry_cell_setting 'triclinic'
loop_
_space_group_symop_operation_xyz
x,y,z
-x,-y,-z
loop_
_atom_site_type_symbol
_atom_site_label
_atom_site_fract_x
_atom_site_fract_y
_atom_site_fract_z
Si Si1 0.635756 0.190791 0.051609
Si Si2 0.147491 0.013141 0.496679
Si Si3 0.742222 0.031983 0.212292
Si Si4 0.268504 0.351256 0.099126
Si Si5 0.416194 0.622461 0.760949
Si Si6 0.946347 0.617226 0.243939
O O1 0.613665 0.282128 0.005848
O O2 0.508684 0.115350 0.449862
O O3 0.895414 0.349031 0.820238
O O4 0.500000 0.000000 0.000000
O O5 0.180008 0.964800 0.650019
O O6 0.884692 0.852338 0.790367
O O7 0.325287 0.219641 0.462367
O O8 0.216787 0.010356 0.125322
O O9 0.888618 0.231081 0.100163
O O10 0.314513 0.445846 0.856263
O O11 0.114149 0.328613 0.452328
O O12 0.500000 0.500000 0.000000
O O13 0.291926 0.564002 0.651562
#
# Coordination Sequence:
#
# PCOD9019171 Si02
#       6
#     2   2   2   2   2   2
#     4  11  24  44  72 109 149 192 231 292 366 440
#     4  10  23  46  72 102 146 185 239 299 358 425
#     4  10  21  44  69 101 146 190 230 292 359 429
#     4  11  26  49  73 101 140 192 247 304 357 422
#     4  11  25  44  72 105 141 187 241 292 368 430
#     4  11  23  43  69 105 146 184 241 295 357 436
#
# _framework density 27.740351
#
# number of rings (size 3 to 8) (size 9 to 14) (size 15 to 20)
#    0.000    1.333    1.667    5.000    4.667    2.000 
#    0.000    0.833    0.000    0.000    0.000    0.000 
#    0.000    0.000    0.000    0.000    0.000    0.000 
#
# Total GULP energy -66863.004736 kJ/mol
# GULP energy per Si atom -5571.917061 kJ/mol
# Density = 2.767721 g / cm^3
# Si number density = 27.740351 Si / 1000 Ang^3
#
#
#
# Elastic Constant Matrix: (Units=GPa)
#
#
# Indices 1 2 3 4 5 6 
#
# 1 118.7994 32.8877 34.8809 5.7510 -15.6563 14.1283
# 2 32.8877 189.8357 48.7240 -19.2056 0.1790 19.1861
# 3 34.8809 48.7240 140.5232 -1.2878 -3.8743 5.3066
# 4 5.7510 -19.2056 -1.2878 45.7157 9.8778 -4.0933
# 5 -15.6563 0.1790 -3.8743 9.8778 29.5346 -6.8641
# 6 14.1283 19.1861 5.3066 -4.0933 -6.8641 56.7353
#
#
#
# Elastic Compliance Matrix: (Units=1/GPa)
#
#
# Indices 1 2 3 4 5 6 
#
# 1 0.010561 -0.001561 -0.001887 -0.003505 0.006200 -0.001428
# 2 -0.001561 0.006523 -0.001851 0.003295 -0.002612 -0.001722
# 3 -0.001887 -0.001851 0.008218 -0.000339 0.000281 0.000337
# 4 -0.003505 0.003295 -0.000339 0.026000 -0.010527 0.000393
# 5 0.006200 -0.002612 0.000281 -0.010527 0.041551 0.003581
# 6 -0.001428 -0.001722 0.000337 0.000393 0.003581 0.018994
#
#
# Mechanical properties :
#
#
# Convention : Reuss Voigt Hill
#
# Bulk Modulus (GPa) = 68.01333 75.79374 71.90353
# Shear Modulus (GPa) = 39.26291 48.57484 43.91887
#
# Velocity S-wave (km/s) = 3.76622 4.18910 3.98328
# Velocity P-wave (km/s) = 6.59421 7.12600 6.86526
#
# Compressibility (1/GPa) = 0.01470300
#
# Stress axis : x y z
#
# Youngs Moduli (GPa) = 94.69218 153.29969 121.67742
#
# Poissons Ratio (x) = 0.23934 0.22964
# Poissons Ratio (y) = 0.14784 0.22523
# Poissons Ratio (z) = 0.17871 0.28376
#
# Static dielectric constant tensor:
#      x y z
#    x 2.292080 -0.159970 0.004540 
#    y -0.159970 2.577100 -0.076710 
#    z 0.004540 -0.076710 2.235600 
# 
# From -- ./inp_files/120682.got.cif
#   From: 2010.05.17/outbox.cif.g08.bks.cpg/sg2_61_cif.got.tgz:120682.got - 2010.06.03 11:33:40.
