data_PCOD9019543
_publ_section_title
;
Structure prediction by ZEFSAII (Michael W. Deem and Ramdas Pophale) SiO2 
 PCOD9019543
Probable space group: P -1
;
_chemical_formula_sum "Si O2"
_cell_formula_units_Z 16
_cell_length_a 10.230007
_cell_length_b 7.787044
_cell_length_c 12.278348
_cell_angle_alpha 97.116433
_cell_angle_beta 92.745255
_cell_angle_gamma 132.382531
_cell_volume 705.312079
_symmetry_space_group_name_H-M "P -1"
_symmetry_group_IT_number 2
_symmetry_cell_setting 'triclinic'
loop_
_space_group_symop_operation_xyz
x,y,z
-x,-y,-z
loop_
_atom_site_type_symbol
_atom_site_label
_atom_site_fract_x
_atom_site_fract_y
_atom_site_fract_z
Si Si1 0.496389 0.083459 0.627169
Si Si2 0.327117 0.265661 0.538896
Si Si3 0.938792 0.058123 0.216160
Si Si4 0.668687 0.271837 0.058237
Si Si5 0.162137 0.685765 0.717868
Si Si6 0.260752 0.521550 0.162895
Si Si7 0.434817 0.448868 0.871350
Si Si8 0.989208 0.815339 0.360902
O O1 0.411701 0.194771 0.610962
O O2 0.673267 0.281569 0.725540
O O3 0.500000 0.000000 0.500000
O O4 0.352433 0.850012 0.676591
O O5 0.500000 0.500000 0.500000
O O6 0.197961 0.283177 0.599800
O O7 0.174234 0.032170 0.443490
O O8 0.928253 0.213094 0.309564
O O9 0.072205 0.254908 0.148927
O O10 0.736235 0.831126 0.160392
O O11 0.004423 0.938728 0.260367
O O12 0.797278 0.286979 0.148357
O O13 0.615919 0.397245 0.134761
O O14 0.736726 0.394802 0.951590
O O15 0.500000 0.000000 0.000000
O O16 0.037326 0.411701 0.665221
O O17 0.403007 0.493291 0.179910
O O18 0.500000 0.500000 0.000000
#
# Coordination Sequence:
#
# PCOD9019543 Si02
#       8
#     2   2   2   2   2   2   2   2
#     4  12  25  45  73 107 146 191 242 298 358 425
#     4  11  24  47  72  99 143 189 246 300 356 423
#     4  12  24  46  71 103 152 183 240 297 352 434
#     4  11  22  45  76 108 145 188 238 295 363 430
#     4  12  24  45  74 104 148 187 238 302 359 424
#     4  11  25  45  73 106 144 196 239 290 362 429
#     4  10  21  44  73  99 144 192 228 297 359 411
#     4  11  25  45  70 104 141 190 239 302 358 419
#
# _framework density 22.684994
#
# number of rings (size 3 to 8) (size 9 to 14) (size 15 to 20)
#    0.000    0.750    5.000    2.250    1.750    4.000 
#    4.500    0.000    0.000    0.000    0.000    0.000 
#    0.000    0.000    0.000    0.000    0.000    0.000 
#
# Total GULP energy -89265.918690 kJ/mol
# GULP energy per Si atom -5579.119918 kJ/mol
# Density = 2.263336 g / cm^3
# Si number density = 22.684994 Si / 1000 Ang^3
#
#
#
# Elastic Constant Matrix: (Units=GPa)
#
#
# Indices 1 2 3 4 5 6 
#
# 1 65.0936 35.7820 7.2368 -2.4101 -6.3504 2.0327
# 2 35.7820 175.2218 26.8414 -21.4161 -21.9497 -3.9355
# 3 7.2368 26.8414 73.9166 -8.7455 -7.9527 3.1795
# 4 -2.4101 -21.4161 -8.7455 41.7448 -8.3871 -7.1280
# 5 -6.3504 -21.9497 -7.9527 -8.3871 24.8812 -0.6570
# 6 2.0327 -3.9355 3.1795 -7.1280 -0.6570 38.0471
#
#
#
# Elastic Compliance Matrix: (Units=1/GPa)
#
#
# Indices 1 2 3 4 5 6 
#
# 1 0.017447 -0.003551 -0.000382 -0.000972 0.000832 -0.001435
# 2 -0.003551 0.008424 -0.001234 0.005916 0.008189 0.002414
# 3 -0.000382 -0.001234 0.014937 0.003303 0.004684 -0.000656
# 4 -0.000972 0.005916 0.003303 0.032200 0.017058 0.006715
# 5 0.000832 0.008189 0.004684 0.017058 0.054995 0.004556
# 6 -0.001435 0.002414 -0.000656 0.006715 0.004556 0.028001
#
#
# Mechanical properties :
#
#
# Convention : Reuss Voigt Hill
#
# Bulk Modulus (GPa) = 32.81588 50.43916 41.62752
# Shear Modulus (GPa) = 28.32904 37.22608 32.77756
#
# Velocity S-wave (km/s) = 3.53767 4.05532 3.80531
# Velocity P-wave (km/s) = 5.58428 6.64909 6.13981
#
# Compressibility (1/GPa) = 0.03047305
#
# Stress axis : x y z
#
# Youngs Moduli (GPa) = 57.31626 118.70370 66.94608
#
# Poissons Ratio (x) = 0.42153 0.02560
# Poissons Ratio (y) = 0.20354 0.08264
# Poissons Ratio (z) = 0.02192 0.14652
#
# Static dielectric constant tensor:
#      x y z
#    x 2.082080 0.003850 -0.008480 
#    y 0.003850 1.843220 0.044720 
#    z -0.008480 0.044720 1.954130 
# 
# From -- ./inp_files/417390.got.cif
#   From: 2010.05.17/outbox.cif.g08.bks.cpg/sg2_209_cif.got.tgz:417390.got - 2010.06.03 11:33:40.
