data_PCOD9019060
_publ_section_title
;
Structure prediction by ZEFSAII (Michael W. Deem and Ramdas Pophale) SiO2 
 PCOD9019060
Probable space group: P -1
;
_chemical_formula_sum "Si O2"
_cell_formula_units_Z 12
_cell_length_a 10.066604
_cell_length_b 6.827816
_cell_length_c 10.596455
_cell_angle_alpha 45.354239
_cell_angle_beta 80.639632
_cell_angle_gamma 65.555821
_cell_volume 462.405802
_symmetry_space_group_name_H-M "P -1"
_symmetry_group_IT_number 2
_symmetry_cell_setting 'triclinic'
loop_
_space_group_symop_operation_xyz
x,y,z
-x,-y,-z
loop_
_atom_site_type_symbol
_atom_site_label
_atom_site_fract_x
_atom_site_fract_y
_atom_site_fract_z
Si Si1 0.824498 0.727908 0.282730
Si Si2 0.577195 0.209356 0.442665
Si Si3 0.356103 0.902392 0.223165
Si Si4 0.147698 0.749135 0.020710
Si Si5 0.235489 0.528610 0.842671
Si Si6 0.842842 0.383942 0.666424
O O1 0.839376 0.532765 0.243498
O O2 0.762145 0.606115 0.462280
O O3 0.982945 0.696334 0.325792
O O4 0.745912 0.078169 0.094695
O O5 0.470825 0.574196 0.301857
O O6 0.623618 0.111669 0.623871
O O7 0.705301 0.224681 0.324179
O O8 0.500000 0.000000 0.500000
O O9 0.197170 0.898999 0.220262
O O10 0.356906 0.198367 0.022507
O O11 0.135651 0.636448 0.935296
O O12 0.206026 0.503203 0.234403
O O13 0.000000 0.000000 0.000000
#
# Coordination Sequence:
#
# PCOD9019060 Si02
#       6
#     2   2   2   2   2   2
#     4  10  22  43  69 103 142 185 235 283 356 432
#     4  11  28  48  71 104 140 187 247 301 352 416
#     4  11  25  46  73 105 143 183 242 296 357 422
#     4  10  24  42  66 106 146 184 230 288 348 428
#     4  12  25  44  77 105 141 194 236 290 363 424
#     4  10  21  44  68 100 146 184 224 297 349 425
#
# _framework density 25.951229000000001
#
# number of rings (size 3 to 8) (size 9 to 14) (size 15 to 20)
#    0.000    1.333    3.333    0.500    4.667    3.333 
#    0.000    4.167    0.000    0.000    0.000    0.000 
#    0.000    0.000    0.000    0.000    0.000    0.000 
#
# Total GULP energy -66963.587737 kJ/mol
# GULP energy per Si atom -5580.298978 kJ/mol
# Density = 2.589216 g / cm^3
# Si number density = 25.951229 Si / 1000 Ang^3
#
#
#
# Elastic Constant Matrix: (Units=GPa)
#
#
# Indices 1 2 3 4 5 6 
#
# 1 76.4336 24.3439 16.2861 11.1277 7.2880 20.7844
# 2 24.3439 133.9536 28.3761 21.7665 8.7418 4.1805
# 3 16.2861 28.3761 179.3211 22.2659 -9.8706 6.2967
# 4 11.1277 21.7665 22.2659 47.7949 10.2145 -1.9779
# 5 7.2880 8.7418 -9.8706 10.2145 37.0799 -3.6002
# 6 20.7844 4.1805 6.2967 -1.9779 -3.6002 39.7732
#
#
#
# Elastic Compliance Matrix: (Units=1/GPa)
#
#
# Indices 1 2 3 4 5 6 
#
# 1 0.016992 -0.002048 -0.000799 -0.002316 -0.003301 -0.008952
# 2 -0.002048 0.008542 -0.000884 -0.002768 -0.001077 0.000077
# 3 -0.000799 -0.000884 0.006329 -0.002981 0.002834 -0.000383
# 4 -0.002316 -0.002768 -0.002981 0.025607 -0.006481 0.002660
# 5 -0.003301 -0.001077 0.002834 -0.006481 0.030785 0.003854
# 6 -0.008952 0.000077 -0.000383 0.002660 0.003854 0.030354
#
#
# Mechanical properties :
#
#
# Convention : Reuss Voigt Hill
#
# Bulk Modulus (GPa) = 40.98050 58.63562 49.80806
# Shear Modulus (GPa) = 37.25661 46.30975 41.78318
#
# Velocity S-wave (km/s) = 3.79309 4.22891 4.01692
# Velocity P-wave (km/s) = 5.91684 6.81825 6.38348
#
# Compressibility (1/GPa) = 0.02440185
#
# Stress axis : x y z
#
# Youngs Moduli (GPa) = 58.85183 117.06351 158.01101
#
# Poissons Ratio (x) = 0.23970 0.12624
# Poissons Ratio (y) = 0.12050 0.13968
# Poissons Ratio (z) = 0.04702 0.10349
#
# Static dielectric constant tensor:
#      x y z
#    x 2.150780 -0.085400 0.039980 
#    y -0.085400 2.098640 -0.095810 
#    z 0.039980 -0.095810 2.325800 
# 
# From -- ./inp_files/229445.got.cif
#   From: 2010.05.17/outbox.cif.g08.bks.cpg/sg2_115_cif.got.tgz:229445.got - 2010.06.03 11:33:40.
