data_PCOD9019350
_publ_section_title
;
Structure prediction by ZEFSAII (Michael W. Deem and Ramdas Pophale) SiO2 
 PCOD9019350
Probable space group: P -1
;
_chemical_formula_sum "Si O2"
_cell_formula_units_Z 14
_cell_length_a 12.700155
_cell_length_b 10.560717
_cell_length_c 6.479706
_cell_angle_alpha 102.786399
_cell_angle_beta 135.489205
_cell_angle_gamma 72.115063
_cell_volume 579.814279
_symmetry_space_group_name_H-M "P -1"
_symmetry_group_IT_number 2
_symmetry_cell_setting 'triclinic'
loop_
_space_group_symop_operation_xyz
x,y,z
-x,-y,-z
loop_
_atom_site_type_symbol
_atom_site_label
_atom_site_fract_x
_atom_site_fract_y
_atom_site_fract_z
Si Si1 0.829487 0.503254 0.170877
Si Si2 0.097440 0.093721 0.779285
Si Si3 0.675292 0.948234 0.276007
Si Si4 0.779269 0.126652 0.790895
Si Si5 0.560392 0.384581 0.717114
Si Si6 0.300561 0.317460 0.609168
Si Si7 0.025196 0.682128 0.015252
O O1 0.726580 0.636299 0.173416
O O2 0.000000 0.500000 0.500000
O O3 0.857133 0.451029 0.953592
O O4 0.716078 0.408776 0.054134
O O5 0.225343 0.112337 0.802505
O O6 0.002401 0.238906 0.777612
O O7 0.000000 0.000000 0.500000
O O8 0.178871 0.996744 0.040674
O O9 0.666356 0.840235 0.398416
O O10 0.752992 0.063405 0.513000
O O11 0.500000 0.000000 0.000000
O O12 0.625099 0.238076 0.660232
O O13 0.919435 0.203799 0.002721
O O14 0.500000 0.500000 0.500000
O O15 0.427366 0.376826 0.690477
O O16 0.136185 0.349832 0.280985
#
# Coordination Sequence:
#
# PCOD9019350 Si02
#       7
#     2   2   2   2   2   2   2
#     4   9  22  46  70  97 136 187 235 296 354 421
#     4  12  23  42  75 105 142 196 234 289 371 428
#     4  12  27  41  70 108 147 189 237 294 371 431
#     4  11  24  48  67 108 154 180 243 309 347 434
#     4  11  26  46  73  99 142 194 240 298 366 425
#     4  11  23  45  72 102 145 183 239 303 358 427
#     4  10  21  44  71 101 144 182 233 302 353 422
#
# _framework density 24.145665000000001
#
# number of rings (size 3 to 8) (size 9 to 14) (size 15 to 20)
#    0.000    1.143    2.857    2.571    4.000    1.143 
#    5.143   14.286    0.000    0.000    0.000    0.000 
#    0.000    0.000    0.000    0.000    0.000    0.000 
#
# Total GULP energy -77999.471832 kJ/mol
# GULP energy per Si atom -5571.390845 kJ/mol
# Density = 2.409071 g / cm^3
# Si number density = 24.145665 Si / 1000 Ang^3
#
#
#
# Elastic Constant Matrix: (Units=GPa)
#
#
# Indices 1 2 3 4 5 6 
#
# 1 193.7313 69.5328 64.3678 7.7779 19.6011 -7.5953
# 2 69.5328 104.8238 42.2160 19.7329 -16.7300 -12.5457
# 3 64.3678 42.2160 73.3334 25.2628 7.2840 -7.1008
# 4 7.7779 19.7329 25.2628 39.7679 -4.8362 -9.7437
# 5 19.6011 -16.7300 7.2840 -4.8362 35.7882 12.3430
# 6 -7.5953 -12.5457 -7.1008 -9.7437 12.3430 49.5311
#
#
#
# Elastic Compliance Matrix: (Units=1/GPa)
#
#
# Indices 1 2 3 4 5 6 
#
# 1 0.009807 -0.005851 -0.005860 0.004294 -0.006939 0.001756
# 2 -0.005851 0.018195 -0.005679 -0.002935 0.012767 -0.000862
# 3 -0.005860 -0.005679 0.027802 -0.014429 -0.007268 0.000621
# 4 0.004294 -0.002935 -0.014429 0.036310 0.002624 0.004335
# 5 -0.006939 0.012767 -0.007268 0.002624 0.042643 -0.008983
# 6 0.001756 -0.000862 0.000621 0.004335 -0.008983 0.023421
#
#
# Mechanical properties :
#
#
# Convention : Reuss Voigt Hill
#
# Bulk Modulus (GPa) = 47.56476 80.45798 64.01137
# Shear Modulus (GPa) = 25.00412 38.06889 31.53651
#
# Velocity S-wave (km/s) = 3.22149 3.97499 3.61791
# Velocity P-wave (km/s) = 5.79476 7.37982 6.63479
#
# Compressibility (1/GPa) = 0.02102397
#
# Stress axis : x y z
#
# Youngs Moduli (GPa) = 101.96310 54.95901 35.96880
#
# Poissons Ratio (x) = 0.32159 0.21078
# Poissons Ratio (y) = 0.59662 0.20427
# Poissons Ratio (z) = 0.59750 0.31211
#
# Static dielectric constant tensor:
#      x y z
#    x 2.017060 -0.042220 -0.031230 
#    y -0.042220 1.902790 0.048670 
#    z -0.031230 0.048670 1.949420 
# 
# From -- ./inp_files/72072.got.cif
#   From: 2010.05.17/outbox.cif.g08.bks.cpg/sg2_37_cif.got.tgz:72072.got - 2010.06.03 11:33:40.
