data_PCOD9019385
_publ_section_title
;
Structure prediction by ZEFSAII (Michael W. Deem and Ramdas Pophale) SiO2 
 PCOD9019385
Probable space group: P -1
;
_chemical_formula_sum "Si O2"
_cell_formula_units_Z 16
_cell_length_a 12.542225
_cell_length_b 13.922094
_cell_length_c 8.588161
_cell_angle_alpha 69.593477
_cell_angle_beta 30.867165
_cell_angle_gamma 68.445668
_cell_volume 713.825131
_symmetry_space_group_name_H-M "P -1"
_symmetry_group_IT_number 2
_symmetry_cell_setting 'triclinic'
loop_
_space_group_symop_operation_xyz
x,y,z
-x,-y,-z
loop_
_atom_site_type_symbol
_atom_site_label
_atom_site_fract_x
_atom_site_fract_y
_atom_site_fract_z
Si Si1 0.139929 0.834164 0.407638
Si Si2 0.157390 0.085346 0.998492
Si Si3 0.663476 0.602940 0.576375
Si Si4 0.968907 0.890805 0.275240
Si Si5 0.028439 0.719232 0.062015
Si Si6 0.512052 0.375909 0.554805
Si Si7 0.423978 0.633663 0.179575
Si Si8 0.495716 0.969505 0.841748
O O1 0.210738 0.713759 0.409231
O O2 0.039438 0.894703 0.647705
O O3 0.971899 0.861436 0.468925
O O4 0.348710 0.879953 0.070217
O O5 0.125531 0.191908 0.886202
O O6 0.109872 0.982717 0.026381
O O7 0.373158 0.059571 0.836621
O O8 0.900041 0.624065 0.297684
O O9 0.597692 0.645714 0.460264
O O10 0.630591 0.482883 0.682895
O O11 0.535886 0.648211 0.865166
O O12 0.065652 0.785277 0.130204
O O13 0.728213 0.930315 0.514312
O O14 0.249379 0.679727 0.729854
O O15 0.500000 0.500000 0.500000
O O16 0.449829 0.349130 0.826527
O O17 0.500000 0.000000 0.000000
#
# Coordination Sequence:
#
# PCOD9019385 Si02
#       8
#     2   2   2   2   2   2   2   2
#     4  11  20  39  63  93 125 172 219 267 325 392
#     4  11  23  39  62  93 130 171 214 269 326 388
#     4  10  24  45  66 100 134 168 226 281 323 401
#     4  11  23  40  63  93 132 172 216 273 326 394
#     4  12  25  43  65  98 134 173 220 271 337 392
#     4  10  23  45  69  97 133 173 219 277 332 390
#     4  10  21  44  71  93 134 177 217 277 339 384
#     4  11  20  37  63  91 128 165 221 268 313 392
#
# _framework density 22.414453000000002
#
# number of rings (size 3 to 8) (size 9 to 14) (size 15 to 20)
#    0.000    1.250    3.750    2.625    0.000    5.500 
#    2.250   10.000    0.000    0.000    0.000    0.000 
#    0.000    0.000    0.000    0.000    0.000    0.000 
#
# Total GULP energy -89282.395373 kJ/mol
# GULP energy per Si atom -5580.149711 kJ/mol
# Density = 2.236344 g / cm^3
# Si number density = 22.414453 Si / 1000 Ang^3
#
#
#
# Elastic Constant Matrix: (Units=GPa)
#
#
# Indices 1 2 3 4 5 6 
#
# 1 98.5250 24.3806 21.9899 4.5016 14.6662 9.0871
# 2 24.3806 35.7885 3.5191 16.0337 0.5098 8.3842
# 3 21.9899 3.5191 40.8881 8.9614 3.0983 19.7074
# 4 4.5016 16.0337 8.9614 24.4442 -1.5384 0.7773
# 5 14.6662 0.5098 3.0983 -1.5384 32.4598 8.0888
# 6 9.0871 8.3842 19.7074 0.7773 8.0888 31.4999
#
#
#
# Elastic Compliance Matrix: (Units=1/GPa)
#
#
# Indices 1 2 3 4 5 6 
#
# 1 0.018512 -0.020713 -0.017015 0.015454 -0.008849 0.012709
# 2 -0.020713 0.070255 0.032378 -0.052326 0.011305 -0.034593
# 3 -0.017015 0.032378 0.058548 -0.037583 0.010289 -0.042054
# 4 0.015454 -0.052326 -0.037583 0.084707 -0.006685 0.032609
# 5 -0.008849 0.011305 0.010289 -0.006685 0.037399 -0.016332
# 6 0.012709 -0.034593 -0.042054 0.032609 -0.016332 0.066987
#
#
# Mechanical properties :
#
#
# Convention : Reuss Voigt Hill
#
# Bulk Modulus (GPa) = 7.31990 30.55342 18.93666
# Shear Modulus (GPa) = 12.73412 26.03491 19.38451
#
# Velocity S-wave (km/s) = 2.38611 3.41181 2.94398
# Velocity P-wave (km/s) = 3.29609 5.40197 4.47468
#
# Compressibility (1/GPa) = 0.13661386
#
# Stress axis : x y z
#
# Youngs Moduli (GPa) = 54.01921 14.23390 17.08003
#
# Poissons Ratio (x) = 0.29483 0.29062
# Poissons Ratio (y) = 1.11890 -0.55301
# Poissons Ratio (z) = 0.91915 -0.46086
#
# Static dielectric constant tensor:
#      x y z
#    x 1.931400 -0.017360 0.053090 
#    y -0.017360 1.822370 -0.025630 
#    z 0.053090 -0.025630 1.801640 
# 
# From -- ./inp_files/272294.got.cif
#   From: 2010.05.17/outbox.cif.g08.bks.cpg/sg2_137_cif.got.tgz:272294.got - 2010.06.03 11:33:40.
