data_PCOD9019146
_publ_section_title
;
Structure prediction by ZEFSAII (Michael W. Deem and Ramdas Pophale) SiO2 
 PCOD9019146
Probable space group: P -1
;
_chemical_formula_sum "Si O2"
_cell_formula_units_Z 16
_cell_length_a 24.260565
_cell_length_b 18.319805
_cell_length_c 30.850516
_cell_angle_alpha 19.000139
_cell_angle_beta 9.987380
_cell_angle_gamma 18.565140
_cell_volume 739.258785
_symmetry_space_group_name_H-M "P -1"
_symmetry_group_IT_number 2
_symmetry_cell_setting 'triclinic'
loop_
_space_group_symop_operation_xyz
x,y,z
-x,-y,-z
loop_
_atom_site_type_symbol
_atom_site_label
_atom_site_fract_x
_atom_site_fract_y
_atom_site_fract_z
Si Si1 0.604785 0.330149 0.555267
Si Si2 0.929493 0.661429 0.506493
Si Si3 0.757308 0.092968 0.721731
Si Si4 0.370911 0.495672 0.730154
Si Si5 0.788893 0.114054 0.225453
Si Si6 0.857745 0.117987 0.998684
Si Si7 0.965708 0.922736 0.851560
Si Si8 0.817035 0.499125 0.505414
O O1 0.500000 0.500000 0.500000
O O2 0.577100 0.487480 0.531334
O O3 0.332622 0.189921 0.850293
O O4 0.954232 0.132347 0.391100
O O5 0.536027 0.779637 0.749500
O O6 0.000000 0.500000 0.500000
O O7 0.053891 0.536235 0.525578
O O8 0.101348 0.864090 0.249527
O O9 0.559115 0.265519 0.740702
O O10 0.895747 0.257043 0.554366
O O11 0.500000 0.000000 0.000000
O O12 0.294847 0.725311 0.689962
O O13 0.000000 0.500000 0.000000
O O14 0.582103 0.380014 0.248559
O O15 0.964289 0.001605 0.196946
O O16 0.500000 0.000000 0.500000
O O17 0.032724 0.064729 0.023523
O O18 0.014982 0.327272 0.747064
O O19 0.000000 0.000000 0.000000
#
# Coordination Sequence:
#
# PCOD9019146 Si02
#       8
#     2   2   2   2   2   2   2   2
#     4  11  27  46  73 106 140 181 236 293 356 428
#     4  12  26  43  69 104 145 183 231 289 346 420
#     4  12  26  46  73 105 142 181 237 297 356 421
#     4  10  23  47  72 100 139 178 239 288 353 419
#     4  10  21  44  68  98 138 182 230 281 337 418
#     4  11  24  44  70 101 141 185 233 281 345 419
#     4  11  24  45  72 101 137 190 229 285 358 414
#     4  11  25  43  70 103 142 181 233 288 352 413
#
# _framework density 21.643301000000001
#
# number of rings (size 3 to 8) (size 9 to 14) (size 15 to 20)
#    0.000    1.000    1.250    6.000    8.750    0.000 
#    0.000    0.000    0.000    0.000    0.000    0.000 
#    0.000    0.000    0.000    0.000    0.000    0.000 
#
# Total GULP energy -89482.270068 kJ/mol
# GULP energy per Si atom -5592.641879 kJ/mol
# Density = 2.159404 g / cm^3
# Si number density = 21.643301 Si / 1000 Ang^3
#
#
#
# Elastic Constant Matrix: (Units=GPa)
#
#
# Indices 1 2 3 4 5 6 
#
# 1 165.4718 45.5109 31.8237 0.8405 31.1900 -12.0319
# 2 45.5109 101.5453 41.0588 11.6215 26.2478 -6.6736
# 3 31.8237 41.0588 99.0182 -2.5191 25.0875 -0.5203
# 4 0.8405 11.6215 -2.5191 47.5872 0.6187 11.0120
# 5 31.1900 26.2478 25.0875 0.6187 37.0156 -0.2534
# 6 -12.0319 -6.6736 -0.5203 11.0120 -0.2534 49.7001
#
#
#
# Elastic Compliance Matrix: (Units=1/GPa)
#
#
# Indices 1 2 3 4 5 6 
#
# 1 0.007674 -0.001917 -0.000449 0.000008 -0.004792 0.001570
# 2 -0.001917 0.014465 -0.003994 -0.004173 -0.005849 0.002331
# 3 -0.000449 -0.003994 0.013452 0.001999 -0.005947 -0.000977
# 4 0.000008 -0.004173 0.001999 0.023449 0.001167 -0.005727
# 5 -0.004792 -0.005849 -0.005947 0.001167 0.039198 -0.002066
# 6 0.001570 0.002331 -0.000977 -0.005727 -0.002066 0.022062
#
#
# Mechanical properties :
#
#
# Convention : Reuss Voigt Hill
#
# Bulk Modulus (GPa) = 43.72269 66.98022 55.35145
# Shear Modulus (GPa) = 35.55101 43.37006 39.46054
#
# Velocity S-wave (km/s) = 4.05728 4.48130 4.27455
# Velocity P-wave (km/s) = 6.49569 7.60201 7.07052
#
# Compressibility (1/GPa) = 0.02287142
#
# Stress axis : x y z
#
# Youngs Moduli (GPa) = 130.30498 69.13468 74.33881
#
# Poissons Ratio (x) = 0.13253 0.03337
# Poissons Ratio (y) = 0.24980 0.29689
# Poissons Ratio (z) = 0.05850 0.27611
#
# Static dielectric constant tensor:
#      x y z
#    x 1.830170 0.010240 -0.022580 
#    y 0.010240 1.847620 -0.000190 
#    z -0.022580 -0.000190 1.771320 
# 
# From -- ./inp_files/624201.got.cif
#   From: 2010.05.17/outbox.cif.g08.bks.cpg/sg2_313_cif.got.tgz:624201.got - 2010.06.03 11:33:40.
