data_PCOD9019452
_publ_section_title
;
Structure prediction by ZEFSAII (Michael W. Deem and Ramdas Pophale) SiO2 
 PCOD9019452
Probable space group: P -1
;
_chemical_formula_sum "Si O2"
_cell_formula_units_Z 11
_cell_length_a 10.257454
_cell_length_b 8.893161
_cell_length_c 5.368081
_cell_angle_alpha 68.909786
_cell_angle_beta 92.425801
_cell_angle_gamma 113.007719
_cell_volume 417.772422
_symmetry_space_group_name_H-M "P -1"
_symmetry_group_IT_number 2
_symmetry_cell_setting 'triclinic'
loop_
_space_group_symop_operation_xyz
x,y,z
-x,-y,-z
loop_
_atom_site_type_symbol
_atom_site_label
_atom_site_fract_x
_atom_site_fract_y
_atom_site_fract_z
Si Si1 0.000000 0.500000 0.000000
Si Si2 0.284874 0.496748 0.858469
Si Si3 0.417016 0.003758 0.239603
Si Si4 0.098850 0.799482 0.235239
Si Si5 0.586646 0.685682 0.691243
Si Si6 0.151333 0.150091 0.731056
O O1 0.830708 0.431332 0.115258
O O2 0.048610 0.619240 0.189671
O O3 0.422881 0.607020 0.635295
O O4 0.200014 0.303992 0.849847
O O5 0.362076 0.463871 0.129412
O O6 0.407456 0.191588 0.146758
O O7 0.500000 0.000000 0.500000
O O8 0.256924 0.858226 0.314480
O O9 0.500000 0.000000 0.000000
O O10 0.983438 0.815196 0.416026
O O11 0.107561 0.955188 0.950062
O O12 0.711459 0.808179 0.451132
#
# Coordination Sequence:
#
# PCOD9019452 Si02
#       6
#     1   2   2   2   2   2
#     4  10  22  46  72 102 148 192 240 320 368 440
#     4  10  22  43  69 102 143 190 244 305 369 447
#     4  12  26  46  73 112 152 197 250 313 378 453
#     4  10  22  45  73 105 148 193 250 309 377 443
#     4  11  23  42  72 101 143 195 244 300 373 450
#     4  10  21  44  72 104 139 195 249 308 369 453
#
# _framework density 26.330124000000001
#
# number of rings (size 3 to 8) (size 9 to 14) (size 15 to 20)
#    0.000    1.455    1.818    2.727    0.000    0.727 
#   13.091    1.818    0.000    0.000    0.000    0.000 
#    0.000    0.000    0.000    0.000    0.000    0.000 
#
# Total GULP energy -61311.252584 kJ/mol
# GULP energy per Si atom -5573.750235 kJ/mol
# Density = 2.627020 g / cm^3
# Si number density = 26.330124 Si / 1000 Ang^3
#
#
#
# Elastic Constant Matrix: (Units=GPa)
#
#
# Indices 1 2 3 4 5 6 
#
# 1 250.0438 32.8745 65.8416 8.8489 -20.3708 33.9180
# 2 32.8745 85.4369 32.0421 12.7622 -4.6920 17.7202
# 3 65.8416 32.0421 84.2652 12.5875 -21.2328 -1.0247
# 4 8.8489 12.7622 12.5875 30.3318 9.6966 -2.5747
# 5 -20.3708 -4.6920 -21.2328 9.6966 43.5693 6.0989
# 6 33.9180 17.7202 -1.0247 -2.5747 6.0989 40.7800
#
#
#
# Elastic Compliance Matrix: (Units=1/GPa)
#
#
# Indices 1 2 3 4 5 6 
#
# 1 0.006062 0.000876 -0.004456 -0.001395 0.001894 -0.005906
# 2 0.000876 0.016273 -0.005535 -0.006195 0.002052 -0.008637
# 3 -0.004456 -0.005535 0.020682 -0.007192 0.008309 0.004934
# 4 -0.001395 -0.006195 -0.007192 0.044854 -0.016053 0.008904
# 5 0.001894 0.002052 0.008309 -0.016053 0.032826 -0.008182
# 6 -0.005906 -0.008637 0.004934 0.008904 -0.008182 0.035097
#
#
# Mechanical properties :
#
#
# Convention : Reuss Voigt Hill
#
# Bulk Modulus (GPa) = 40.34375 75.69582 58.01979
# Shear Modulus (GPa) = 27.42949 42.20206 34.81578
#
# Velocity S-wave (km/s) = 3.23112 4.00785 3.64026
# Velocity P-wave (km/s) = 5.41071 7.08719 6.30492
#
# Compressibility (1/GPa) = 0.02478699
#
# Stress axis : x y z
#
# Youngs Moduli (GPa) = 164.95138 61.45333 48.35199
#
# Poissons Ratio (x) = -0.05383 0.21546
# Poissons Ratio (y) = -0.14448 0.26761
# Poissons Ratio (z) = 0.73504 0.34012
#
# Static dielectric constant tensor:
#      x y z
#    x 2.210060 0.053490 0.021410 
#    y 0.053490 2.132300 -0.115160 
#    z 0.021410 -0.115160 2.156440 
# 
# From -- ./inp_files/17306.got.cif
#   From: 2010.05.17/outbox.cif.g08.bks.cpg/sg2_9_cif.got.tgz:17306.got - 2010.06.03 11:33:40.
