data_PCOD9019151
_publ_section_title
;
Structure prediction by ZEFSAII (Michael W. Deem and Ramdas Pophale) SiO2 
 PCOD9019151
Probable space group: P -1
;
_chemical_formula_sum "Si O2"
_cell_formula_units_Z 14
_cell_length_a 7.770196
_cell_length_b 8.448732
_cell_length_c 11.866221
_cell_angle_alpha 95.658403
_cell_angle_beta 52.437997
_cell_angle_gamma 72.939031
_cell_volume 549.342737
_symmetry_space_group_name_H-M "P -1"
_symmetry_group_IT_number 2
_symmetry_cell_setting 'triclinic'
loop_
_space_group_symop_operation_xyz
x,y,z
-x,-y,-z
loop_
_atom_site_type_symbol
_atom_site_label
_atom_site_fract_x
_atom_site_fract_y
_atom_site_fract_z
Si Si1 0.130320 0.778229 0.222863
Si Si2 0.627630 0.811373 0.498340
Si Si3 0.911984 0.347048 0.015599
Si Si4 0.749970 0.916812 0.824801
Si Si5 0.399952 0.058172 0.777803
Si Si6 0.465638 0.639369 0.290585
Si Si7 0.108971 0.565642 0.568580
O O1 0.141514 0.676685 0.095216
O O2 0.358496 0.683991 0.208762
O O3 0.900788 0.796344 0.388092
O O4 0.105539 0.968516 0.205526
O O5 0.704360 0.603027 0.446552
O O6 0.500000 0.000000 0.500000
O O7 0.440637 0.882919 0.682937
O O8 0.138497 0.161581 0.947960
O O9 0.666502 0.435191 0.190896
O O10 0.000000 0.500000 0.000000
O O11 0.903369 0.705373 0.742345
O O12 0.642646 0.975290 0.747330
O O13 0.500000 0.000000 0.000000
O O14 0.423227 0.222841 0.716584
O O15 0.253233 0.664216 0.462014
O O16 0.000000 0.500000 0.500000
#
# Coordination Sequence:
#
# PCOD9019151 Si02
#       7
#     2   2   2   2   2   2   2
#     4  11  22  41  72  97 140 188 235 286 355 408
#     4  12  24  43  71  99 141 182 238 290 355 417
#     4  10  22  39  66 103 142 189 231 284 348 418
#     4  11  26  46  71 107 141 181 241 292 345 421
#     4  10  21  44  68  98 144 187 221 294 355 412
#     4  10  22  41  69 103 137 180 242 278 351 423
#     4  12  24  43  72 102 138 184 238 296 342 414
#
# _framework density 25.484999999999999
#
# number of rings (size 3 to 8) (size 9 to 14) (size 15 to 20)
#    0.000    1.143    4.286    1.286    2.000    5.714 
#    2.571    2.857    0.000    0.000    0.000    0.000 
#    0.000    0.000    0.000    0.000    0.000    0.000 
#
# Total GULP energy -78042.871927 kJ/mol
# GULP energy per Si atom -5574.490852 kJ/mol
# Density = 2.542699 g / cm^3
# Si number density = 25.485000 Si / 1000 Ang^3
#
#
#
# Elastic Constant Matrix: (Units=GPa)
#
#
# Indices 1 2 3 4 5 6 
#
# 1 35.0981 26.3432 11.8120 18.6591 1.9085 1.3714
# 2 26.3432 133.5807 44.1079 33.8722 6.1463 -9.0618
# 3 11.8120 44.1079 120.5047 54.6882 -7.4944 12.4698
# 4 18.6591 33.8722 54.6882 60.1317 -1.0641 -6.5103
# 5 1.9085 6.1463 -7.4944 -1.0641 29.8035 4.7330
# 6 1.3714 -9.0618 12.4698 -6.5103 4.7330 24.1004
#
#
#
# Elastic Compliance Matrix: (Units=1/GPa)
#
#
# Indices 1 2 3 4 5 6 
#
# 1 0.041255 -0.007580 0.008605 -0.017937 0.002835 -0.015053
# 2 -0.007580 0.011070 -0.005304 0.001804 -0.004448 0.008699
# 3 0.008605 -0.005304 0.022189 -0.022051 0.008773 -0.021644
# 4 -0.017937 0.001804 -0.022051 0.043966 -0.007397 0.026438
# 5 0.002835 -0.004448 0.008773 -0.007397 0.038769 -0.015985
# 6 -0.015053 0.008699 -0.021644 0.026438 -0.015985 0.067100
#
#
# Mechanical properties :
#
#
# Convention : Reuss Voigt Hill
#
# Bulk Modulus (GPa) = 15.16184 50.41218 32.78701
# Shear Modulus (GPa) = 19.61600 36.60181 28.10890
#
# Velocity S-wave (km/s) = 2.77737 3.79385 3.32469
# Velocity P-wave (km/s) = 4.03079 6.24621 5.25654
#
# Compressibility (1/GPa) = 0.06595504
#
# Stress axis : x y z
#
# Youngs Moduli (GPa) = 24.23941 90.33501 45.06733
#
# Poissons Ratio (x) = 0.68478 -0.38781
# Poissons Ratio (y) = 0.18375 0.23905
# Poissons Ratio (z) = -0.20858 0.47916
#
# Static dielectric constant tensor:
#      x y z
#    x 2.328850 0.147200 0.090220 
#    y 0.147200 1.729110 -0.204790 
#    z 0.090220 -0.204790 2.153190 
# 
# From -- ./inp_files/493126.got.cif
#   From: 2010.05.17/outbox.cif.g08.bks.cpg/sg2_247_cif.got.tgz:493126.got - 2010.06.03 11:33:40.
