data_PCOD9019427
_publ_section_title
;
Structure prediction by ZEFSAII (Michael W. Deem and Ramdas Pophale) SiO2 
 PCOD9019427
Probable space group: P -1
;
_chemical_formula_sum "Si O2"
_cell_formula_units_Z 16
_cell_length_a 9.396752
_cell_length_b 18.139053
_cell_length_c 5.694317
_cell_angle_alpha 81.554912
_cell_angle_beta 50.179461
_cell_angle_gamma 83.969808
_cell_volume 737.302100
_symmetry_space_group_name_H-M "P -1"
_symmetry_group_IT_number 2
_symmetry_cell_setting 'triclinic'
loop_
_space_group_symop_operation_xyz
x,y,z
-x,-y,-z
loop_
_atom_site_type_symbol
_atom_site_label
_atom_site_fract_x
_atom_site_fract_y
_atom_site_fract_z
Si Si1 0.459583 0.720251 0.760035
Si Si2 0.759977 0.290253 0.503029
Si Si3 0.495416 0.442872 0.238504
Si Si4 0.010561 0.852384 0.629777
Si Si5 0.189684 0.028712 0.890142
Si Si6 0.301863 0.151909 0.389589
Si Si7 0.192164 0.542132 0.765771
Si Si8 0.614487 0.071215 0.923778
O O1 0.364842 0.720860 0.598977
O O2 0.558403 0.640275 0.725453
O O3 0.617017 0.782445 0.572923
O O4 0.328427 0.726139 0.133624
O O5 0.927274 0.230187 0.317358
O O6 0.812430 0.378459 0.403549
O O7 0.340986 0.480299 0.548966
O O8 0.707111 0.436093 0.108899
O O9 0.500000 0.500000 0.000000
O O10 0.901681 0.839206 0.506383
O O11 0.199295 0.899998 0.408793
O O12 0.868976 0.906797 0.892537
O O13 0.302236 0.073680 0.560097
O O14 0.298398 0.957852 0.909693
O O15 0.000000 0.000000 0.000000
O O16 0.466287 0.138153 0.035865
O O17 0.000000 0.500000 0.000000
O O18 0.500000 0.000000 0.000000
#
# Coordination Sequence:
#
# PCOD9019427 Si02
#       8
#     2   2   2   2   2   2   2   2
#     4  11  26  47  74 104 145 195 236 290 364 422
#     4  11  26  48  72 105 151 185 237 298 355 427
#     4  10  21  44  72 100 146 184 236 293 344 420
#     4  12  27  46  68 101 143 181 240 297 357 430
#     4  12  26  44  69 100 136 178 240 302 354 421
#     4  12  27  45  70  99 135 190 236 289 364 424
#     4  10  23  44  72 108 141 190 236 290 354 419
#     4  12  24  46  69  94 135 182 232 296 358 421
#
# _framework density 21.700738999999999
#
# number of rings (size 3 to 8) (size 9 to 14) (size 15 to 20)
#    0.000    0.750    5.000    1.500    7.000    2.500 
#    2.250    0.000    0.000    0.000    0.000    0.000 
#    0.000    0.000    0.000    0.000    0.000    0.000 
#
# Total GULP energy -89091.683094 kJ/mol
# GULP energy per Si atom -5568.230193 kJ/mol
# Density = 2.165135 g / cm^3
# Si number density = 21.700739 Si / 1000 Ang^3
#
#
#
# Elastic Constant Matrix: (Units=GPa)
#
#
# Indices 1 2 3 4 5 6 
#
# 1 89.9573 16.7977 26.1741 -6.2214 -20.8384 7.4171
# 2 16.7977 101.4578 4.1275 -3.8885 -15.5082 7.8101
# 3 26.1741 4.1275 68.0312 -7.3014 -13.6498 10.4764
# 4 -6.2214 -3.8885 -7.3014 26.9112 2.3445 -1.0039
# 5 -20.8384 -15.5082 -13.6498 2.3445 36.0006 -6.1104
# 6 7.4171 7.8101 10.4764 -1.0039 -6.1104 41.5469
#
#
#
# Elastic Compliance Matrix: (Units=1/GPa)
#
#
# Indices 1 2 3 4 5 6 
#
# 1 0.013979 -0.001160 -0.003896 0.001474 0.005954 -0.000384
# 2 -0.001160 0.010777 0.000941 0.001141 0.004009 -0.001439
# 3 -0.003896 0.000941 0.017863 0.003599 0.004130 -0.003291
# 4 0.001474 0.001141 0.003599 0.038615 0.000121 -0.000434
# 5 0.005954 0.004009 0.004130 0.000121 0.034895 0.002277
# 6 -0.000384 -0.001439 -0.003291 -0.000434 0.002277 0.025563
#
#
# Mechanical properties :
#
#
# Convention : Reuss Voigt Hill
#
# Bulk Modulus (GPa) = 29.07876 39.29388 34.18632
# Shear Modulus (GPa) = 30.98179 35.04821 33.01500
#
# Velocity S-wave (km/s) = 3.78257 4.02315 3.90471
# Velocity P-wave (km/s) = 5.70141 6.30297 6.00972
#
# Compressibility (1/GPa) = 0.03438936
#
# Stress axis : x y z
#
# Youngs Moduli (GPa) = 71.53405 92.78642 55.98248
#
# Poissons Ratio (x) = 0.10762 0.21811
# Poissons Ratio (y) = 0.08297 -0.05267
# Poissons Ratio (z) = 0.27871 -0.08730
#
# Static dielectric constant tensor:
#      x y z
#    x 1.863310 0.010840 -0.102740 
#    y 0.010840 2.009860 0.572390 
#    z -0.102740 0.572390 3.971100 
# 
# From -- ./inp_files/47308.got.cif
#   From: 2010.05.17/outbox.cif.g08.bks.cpg/sg2_24_cif.got.tgz:47308.got - 2010.06.03 11:33:40.
