data_PCOD9019063
_publ_section_title
;
Structure prediction by ZEFSAII (Michael W. Deem and Ramdas Pophale) SiO2 
 PCOD9019063
Probable space group: P -1
;
_chemical_formula_sum "Si O2"
_cell_formula_units_Z 14
_cell_length_a 28.591885
_cell_length_b 6.891065
_cell_length_c 5.092788
_cell_angle_alpha 101.384350
_cell_angle_beta 74.785409
_cell_angle_gamma 141.165048
_cell_volume 607.130963
_symmetry_space_group_name_H-M "P -1"
_symmetry_group_IT_number 2
_symmetry_cell_setting 'triclinic'
loop_
_space_group_symop_operation_xyz
x,y,z
-x,-y,-z
loop_
_atom_site_type_symbol
_atom_site_label
_atom_site_fract_x
_atom_site_fract_y
_atom_site_fract_z
Si Si1 0.210564 0.568513 0.874604
Si Si2 0.315000 0.797434 0.156734
Si Si3 0.067186 0.322063 0.841553
Si Si4 0.249774 0.288799 0.454227
Si Si5 0.446591 0.367184 0.792645
Si Si6 0.923194 0.393027 0.603700
Si Si7 0.668907 0.793075 0.362826
O O1 0.132663 0.369779 0.803894
O O2 0.239394 0.453219 0.686191
O O3 0.259714 0.916934 0.836582
O O4 0.228641 0.596471 0.161062
O O5 0.301342 0.534046 0.205812
O O6 0.343470 0.053233 0.387984
O O7 0.374315 0.002879 0.883987
O O8 0.061682 0.382387 0.569439
O O9 0.082449 0.556496 0.072475
O O10 0.000000 0.000000 0.000000
O O11 0.301030 0.290594 0.529756
O O12 0.162859 0.950912 0.429192
O O13 0.500000 0.500000 0.500000
O O14 0.403036 0.433821 0.787686
O O15 0.500000 0.500000 0.000000
O O16 0.000000 0.500000 0.500000
#
# Coordination Sequence:
#
# PCOD9019063 Si02
#       7
#     2   2   2   2   2   2   2
#     4  10  23  40  66  99 139 184 232 287 347 409
#     4  10  23  40  72  99 140 181 230 279 355 401
#     4  12  26  45  70  97 144 184 237 289 352 408
#     4  11  24  42  70 105 142 178 242 288 342 419
#     4  11  22  44  74 100 140 183 225 281 349 419
#     4  12  27  45  70 103 142 187 236 293 348 402
#     4  10  21  44  68 101 137 184 227 285 345 414
#
# _framework density 23.059273000000001
#
# number of rings (size 3 to 8) (size 9 to 14) (size 15 to 20)
#    0.000    1.143    2.857    2.571    6.000    2.286 
#    0.000    1.429    0.000    0.000    0.000    0.000 
#    0.000    0.000    0.000    0.000    0.000    0.000 
#
# Total GULP energy -77954.591492 kJ/mol
# GULP energy per Si atom -5568.185107 kJ/mol
# Density = 2.300679 g / cm^3
# Si number density = 23.059273 Si / 1000 Ang^3
#
#
#
# Elastic Constant Matrix: (Units=GPa)
#
#
# Indices 1 2 3 4 5 6 
#
# 1 199.4878 63.1277 37.7582 -29.6899 35.6738 12.6182
# 2 63.1277 68.4405 17.4720 -22.7782 8.4621 4.7465
# 3 37.7582 17.4720 84.6873 -14.4635 16.6280 1.9282
# 4 -29.6899 -22.7782 -14.4635 34.7841 -3.4055 5.7016
# 5 35.6738 8.4621 16.6280 -3.4055 42.0586 -4.2407
# 6 12.6182 4.7465 1.9282 5.7016 -4.2407 35.7703
#
#
#
# Elastic Compliance Matrix: (Units=1/GPa)
#
#
# Indices 1 2 3 4 5 6 
#
# 1 0.008822 -0.005801 -0.000897 0.003348 -0.006048 -0.003545
# 2 -0.005801 0.023822 -0.000589 0.010944 0.000973 -0.002712
# 3 -0.000897 -0.000589 0.014010 0.004501 -0.004457 -0.001607
# 4 0.003348 0.010944 0.004501 0.041860 -0.004447 -0.010075
# 5 -0.006048 0.000973 -0.004457 -0.004447 0.030778 0.006602
# 6 -0.003545 -0.002712 -0.001607 -0.010075 0.006602 0.032042
#
#
# Mechanical properties :
#
#
# Convention : Reuss Voigt Hill
#
# Bulk Modulus (GPa) = 31.17034 65.48125 48.32579
# Shear Modulus (GPa) = 28.31257 38.13977 33.22617
#
# Velocity S-wave (km/s) = 3.50782 4.07134 3.80004
# Velocity P-wave (km/s) = 5.47296 7.11053 6.34480
#
# Compressibility (1/GPa) = 0.03208178
#
# Stress axis : x y z
#
# Youngs Moduli (GPa) = 113.35205 41.97819 71.37766
#
# Poissons Ratio (x) = 0.24350 0.06401
# Poissons Ratio (y) = 0.65751 0.04202
# Poissons Ratio (z) = 0.10165 0.02471
#
# Static dielectric constant tensor:
#      x y z
#    x 1.809050 0.000080 0.130120 
#    y 0.000080 1.911110 0.077660 
#    z 0.130120 0.077660 1.977080 
# 
# From -- ./inp_files/7412.got.cif
#   From: 2010.05.17/outbox.cif.g08.bks.cpg/sg2_4_cif.got.tgz:7412.got - 2010.06.03 11:33:40.
