data_PCOD9019727
_publ_section_title
;
Structure prediction by ZEFSAII (Michael W. Deem and Ramdas Pophale) SiO2 
 PCOD9019727
Probable space group: P -1
;
_chemical_formula_sum "Si O2"
_cell_formula_units_Z 16
_cell_length_a 15.950212
_cell_length_b 8.857742
_cell_length_c 11.626716
_cell_angle_alpha 62.310328
_cell_angle_beta 119.225810
_cell_angle_gamma 149.614484
_cell_volume 721.583178
_symmetry_space_group_name_H-M "P -1"
_symmetry_group_IT_number 2
_symmetry_cell_setting 'triclinic'
loop_
_space_group_symop_operation_xyz
x,y,z
-x,-y,-z
loop_
_atom_site_type_symbol
_atom_site_label
_atom_site_fract_x
_atom_site_fract_y
_atom_site_fract_z
Si Si1 0.321232 0.147364 0.034151
Si Si2 0.574261 0.888334 0.472913
Si Si3 0.811751 0.878111 0.814755
Si Si4 0.930890 0.384442 0.624046
Si Si5 0.500456 0.055575 0.176317
Si Si6 0.742307 0.429255 0.003834
Si Si7 0.557899 0.618019 0.350165
Si Si8 0.833411 0.170730 0.178628
O O1 0.244979 0.116163 0.107367
O O2 0.381018 0.039892 0.128665
O O3 0.500000 0.500000 0.000000
O O4 0.175071 0.930635 0.915108
O O5 0.622082 0.818753 0.431055
O O6 0.432239 0.571977 0.557570
O O7 0.734328 0.148473 0.569241
O O8 0.533848 0.996479 0.334186
O O9 0.639532 0.629928 0.712507
O O10 0.939871 0.196265 0.729368
O O11 0.855718 0.748098 0.919325
O O12 0.000000 0.500000 0.500000
O O13 0.024782 0.631382 0.697592
O O14 0.663526 0.351662 0.105106
O O15 0.407408 0.801553 0.109420
O O16 0.816049 0.347775 0.084638
O O17 0.663690 0.845142 0.235803
#
# Coordination Sequence:
#
# PCOD9019727 Si02
#       8
#     2   2   2   2   2   2   2   2
#     4  11  21  35  60  87 114 149 183 234 290 338
#     4  10  19  32  56  86 110 147 186 241 276 321
#     4  11  21  36  58  90 113 146 190 231 288 338
#     4  11  23  37  56  83 117 153 189 230 282 335
#     4  10  17  31  55  88 114 138 188 241 283 317
#     4  10  17  30  56  87 114 137 188 245 276 321
#     4  10  17  31  56  83 110 138 194 232 270 322
#     4  11  21  36  57  87 117 149 185 231 288 335
#
# _framework density 22.173468
#
# number of rings (size 3 to 8) (size 9 to 14) (size 15 to 20)
#    0.000    1.500    6.250    0.750    0.000    1.000 
#    0.000    2.500    0.000    0.750    3.250    0.000 
#    0.000    0.000    0.000    0.000    0.000    0.000 
#
# Total GULP energy -89273.220137 kJ/mol
# GULP energy per Si atom -5579.576259 kJ/mol
# Density = 2.212300 g / cm^3
# Si number density = 22.173468 Si / 1000 Ang^3
#
#
#
# Elastic Constant Matrix: (Units=GPa)
#
#
# Indices 1 2 3 4 5 6 
#
# 1 35.0906 2.3045 20.4624 -3.0695 -7.4251 -13.7263
# 2 2.3045 98.2573 56.1519 6.2918 4.3804 -4.4606
# 3 20.4624 56.1519 121.1402 -9.0828 5.1493 -15.8451
# 4 -3.0695 6.2918 -9.0828 62.5939 -5.7033 3.3020
# 5 -7.4251 4.3804 5.1493 -5.7033 21.9697 0.4079
# 6 -13.7263 -4.4606 -15.8451 3.3020 0.4079 15.7694
#
#
#
# Elastic Compliance Matrix: (Units=1/GPa)
#
#
# Indices 1 2 3 4 5 6 
#
# 1 0.050240 0.002850 -0.005443 0.000929 0.017215 0.038428
# 2 0.002850 0.014520 -0.007402 -0.002453 -0.000828 -0.000314
# 3 -0.005443 -0.007402 0.013755 0.001825 -0.003238 0.006691
# 4 0.000929 -0.002453 0.001825 0.017066 0.004838 -0.001750
# 5 0.017215 -0.000828 -0.003238 0.004838 0.053347 0.009104
# 6 0.038428 -0.000314 0.006691 -0.001750 0.009104 0.103629
#
#
# Mechanical properties :
#
#
# Convention : Reuss Voigt Hill
#
# Bulk Modulus (GPa) = 17.08651 45.81394 31.45022
# Shear Modulus (GPa) = 17.12006 31.77121 24.44563
#
# Velocity S-wave (km/s) = 2.78168 3.78940 3.32395
# Velocity P-wave (km/s) = 4.24730 6.31289 5.38015
#
# Compressibility (1/GPa) = 0.05852570
#
# Stress axis : x y z
#
# Youngs Moduli (GPa) = 19.90429 68.86995 72.70154
#
# Poissons Ratio (x) = -0.19627 0.39572
# Poissons Ratio (y) = -0.05673 0.53811
# Poissons Ratio (z) = 0.10834 0.50975
#
# Static dielectric constant tensor:
#      x y z
#    x 1.785000 0.039170 0.018850 
#    y 0.039170 1.897220 -0.019060 
#    z 0.018850 -0.019060 1.903700 
# 
# From -- ./inp_files/239541.got.cif
#   From: 2010.05.17/outbox.cif.g08.bks.cpg/sg2_120_cif.got.tgz:239541.got - 2010.06.03 11:33:40.
