data_PCOD9019641
_publ_section_title
;
Structure prediction by ZEFSAII (Michael W. Deem and Ramdas Pophale) SiO2 
 PCOD9019641
Probable space group: P -1
;
_chemical_formula_sum "Si O2"
_cell_formula_units_Z 14
_cell_length_a 20.863021
_cell_length_b 11.600837
_cell_length_c 13.451822
_cell_angle_alpha 30.298322
_cell_angle_beta 149.085882
_cell_angle_gamma 158.177010
_cell_volume 582.323692
_symmetry_space_group_name_H-M "P -1"
_symmetry_group_IT_number 2
_symmetry_cell_setting 'triclinic'
loop_
_space_group_symop_operation_xyz
x,y,z
-x,-y,-z
loop_
_atom_site_type_symbol
_atom_site_label
_atom_site_fract_x
_atom_site_fract_y
_atom_site_fract_z
Si Si1 0.833483 0.787077 0.360497
Si Si2 0.602798 0.224749 0.180593
Si Si3 0.509789 0.567923 0.709979
Si Si4 0.648744 0.900484 0.908749
Si Si5 0.188512 0.728457 0.363085
Si Si6 0.532149 0.326254 0.741793
Si Si7 0.878742 0.619159 0.109483
O O1 0.650684 0.525721 0.376143
O O2 0.828766 0.568053 0.440733
O O3 0.809042 0.994098 0.115905
O O4 0.000000 0.000000 0.500000
O O5 0.460315 0.050398 0.211964
O O6 0.810145 0.447889 0.255788
O O7 0.514381 0.948508 0.184071
O O8 0.605611 0.500233 0.953416
O O9 0.424531 0.290968 0.718738
O O10 0.667731 0.959024 0.602475
O O11 0.728510 0.094795 0.766182
O O12 0.500000 0.500000 0.000000
O O13 0.996005 0.582167 0.238952
O O14 0.500000 0.500000 0.500000
O O15 0.719601 0.499590 0.913628
O O16 0.000000 0.000000 0.000000
#
# Coordination Sequence:
#
# PCOD9019641 Si02
#       7
#     2   2   2   2   2   2   2
#     4  11  27  41  68 105 140 177 227 290 345 402
#     4  10  22  42  70  91 137 176 219 275 343 399
#     4  10  21  45  64  94 132 185 221 269 350 399
#     4  11  23  46  70 101 134 185 232 272 345 418
#     4  12  24  43  77  97 139 182 230 286 337 414
#     4  11  25  40  68  99 135 179 225 280 340 411
#     4  11  21  45  67  98 130 178 227 273 342 403
#
# _framework density 24.041611
#
# number of rings (size 3 to 8) (size 9 to 14) (size 15 to 20)
#    0.000    1.143    5.714    2.143    8.000    1.714 
#    0.000    0.714    0.000    0.000    0.000    0.000 
#    0.000    0.000    0.000    0.000    0.000    0.000 
#
# Total GULP energy -77953.266676 kJ/mol
# GULP energy per Si atom -5568.090477 kJ/mol
# Density = 2.398689 g / cm^3
# Si number density = 24.041611 Si / 1000 Ang^3
#
#
#
# Elastic Constant Matrix: (Units=GPa)
#
#
# Indices 1 2 3 4 5 6 
#
# 1 169.7049 25.8730 33.5776 -3.7351 35.9530 15.5168
# 2 25.8730 74.0584 23.7483 7.1751 15.3985 -4.7547
# 3 33.5776 23.7483 120.9156 9.9585 26.2346 5.7215
# 4 -3.7351 7.1751 9.9585 33.5212 0.4898 7.0663
# 5 35.9530 15.3985 26.2346 0.4898 51.2416 -4.4973
# 6 15.5168 -4.7547 5.7215 7.0663 -4.4973 48.3730
#
#
#
# Elastic Compliance Matrix: (Units=1/GPa)
#
#
# Indices 1 2 3 4 5 6 
#
# 1 0.007693 -0.001888 -0.000762 0.002260 -0.004755 -0.003335
# 2 -0.001888 0.015747 -0.001939 -0.003543 -0.002144 0.002701
# 3 -0.000762 -0.001939 0.009995 -0.002334 -0.004080 -0.001167
# 4 0.002260 -0.003543 -0.002334 0.032715 -0.000130 -0.005588
# 5 -0.004755 -0.002144 -0.004080 -0.000130 0.025957 0.004229
# 6 -0.003335 0.002701 -0.001167 -0.005588 0.004229 0.023356
#
#
# Mechanical properties :
#
#
# Convention : Reuss Voigt Hill
#
# Bulk Modulus (GPa) = 41.22652 59.00850 50.11751
# Shear Modulus (GPa) = 37.67120 45.39250 41.53185
#
# Velocity S-wave (km/s) = 3.96272 4.34992 4.16083
# Velocity P-wave (km/s) = 6.17437 7.05880 6.63134
#
# Compressibility (1/GPa) = 0.02425623
#
# Stress axis : x y z
#
# Youngs Moduli (GPa) = 129.98437 63.50565 100.04575
#
# Poissons Ratio (x) = 0.11988 0.07627
# Poissons Ratio (y) = 0.24538 0.19403
# Poissons Ratio (z) = 0.09909 0.12316
#
# Static dielectric constant tensor:
#      x y z
#    x 2.068450 -0.045280 -0.101850 
#    y -0.045280 2.082300 -0.047180 
#    z -0.101850 -0.047180 2.059080 
# 
# From -- ./inp_files/281406.got.cif
#   From: 2010.05.17/outbox.cif.g08.bks.cpg/sg2_141_cif.got.tgz:281406.got - 2010.06.03 11:33:40.
