data_PCOD9019013
_publ_section_title
;
Structure prediction by ZEFSAII (Michael W. Deem and Ramdas Pophale) SiO2 
 PCOD9019013
Probable space group: P -1
;
_chemical_formula_sum "Si O2"
_cell_formula_units_Z 16
_cell_length_a 7.646267
_cell_length_b 8.550241
_cell_length_c 18.478788
_cell_angle_alpha 52.036740
_cell_angle_beta 137.585147
_cell_angle_gamma 122.461403
_cell_volume 634.642123
_symmetry_space_group_name_H-M "P -1"
_symmetry_group_IT_number 2
_symmetry_cell_setting 'triclinic'
loop_
_space_group_symop_operation_xyz
x,y,z
-x,-y,-z
loop_
_atom_site_type_symbol
_atom_site_label
_atom_site_fract_x
_atom_site_fract_y
_atom_site_fract_z
Si Si1 0.701748 0.515550 0.731419
Si Si2 0.326701 0.916912 0.903467
Si Si3 0.267166 0.059038 0.109515
Si Si4 0.858578 0.707211 0.320910
Si Si5 0.980707 0.290191 0.463507
Si Si6 0.431790 0.745823 0.362855
Si Si7 0.238452 0.477541 0.976252
Si Si8 0.433728 0.064552 0.382407
O O1 0.450951 0.383291 0.731114
O O2 0.648109 0.468350 0.642655
O O3 0.711256 0.743239 0.698943
O O4 0.978138 0.451094 0.855081
O O5 0.502113 0.912270 0.886803
O O6 0.228059 0.683305 0.956656
O O7 0.146681 0.082972 0.781089
O O8 0.500000 0.000000 0.000000
O O9 0.334865 0.895140 0.231775
O O10 0.247555 0.272203 0.080660
O O11 0.000000 0.000000 0.000000
O O12 0.990734 0.725644 0.435621
O O13 0.959023 0.517046 0.369023
O O14 0.254488 0.234509 0.537731
O O15 0.703552 0.159590 0.396918
O O16 0.337892 0.850140 0.375891
O O17 0.500000 0.500000 0.000000
O O18 0.500000 0.000000 0.500000
#
# Coordination Sequence:
#
# PCOD9019013 Si02
#       8
#     2   2   2   2   2   2   2   2
#     4  10  21  44  67  94 135 179 231 275 334 420
#     4  11  23  39  64 101 136 170 219 289 345 392
#     4  11  21  44  67  89 132 182 231 268 334 426
#     4   9  18  39  69  93 134 181 225 279 333 415
#     4   9  19  40  69  96 128 180 233 270 333 414
#     4  11  22  44  74  93 131 190 228 278 340 409
#     4  10  23  39  62  98 136 173 224 283 342 400
#     4  11  26  40  65 106 138 170 226 289 351 402
#
# _framework density 25.211058999999999
#
# number of rings (size 3 to 8) (size 9 to 14) (size 15 to 20)
#    0.000    1.750    3.750    1.125    1.750    3.500 
#    0.000    4.375    0.000    0.000    0.000    0.000 
#    0.000    0.000    0.000    0.000    0.000    0.000 
#
# Total GULP energy -89364.199371 kJ/mol
# GULP energy per Si atom -5585.262461 kJ/mol
# Density = 2.515368 g / cm^3
# Si number density = 25.211059 Si / 1000 Ang^3
#
#
#
# Elastic Constant Matrix: (Units=GPa)
#
#
# Indices 1 2 3 4 5 6 
#
# 1 69.0800 24.8344 36.1282 -2.8200 28.6009 -30.0057
# 2 24.8344 181.7387 50.1133 -34.2116 9.4029 -21.5543
# 3 36.1282 50.1133 110.3888 -41.4140 33.9540 -13.4615
# 4 -2.8200 -34.2116 -41.4140 46.9152 -1.9068 6.0131
# 5 28.6009 9.4029 33.9540 -1.9068 51.7693 4.4995
# 6 -30.0057 -21.5543 -13.4615 6.0131 4.4995 43.7382
#
#
#
# Elastic Compliance Matrix: (Units=1/GPa)
#
#
# Indices 1 2 3 4 5 6 
#
# 1 0.036250 -0.000816 -0.005136 -0.007031 -0.019012 0.025808
# 2 -0.000816 0.006870 -0.001265 0.003595 -0.000004 0.001942
# 3 -0.005136 -0.001265 0.020699 0.016509 -0.009986 0.000981
# 4 -0.007031 0.003595 0.016509 0.038179 -0.005964 -0.002606
# 5 -0.019012 -0.000004 -0.009986 -0.005964 0.037818 -0.019189
# 6 0.025808 0.001942 0.000981 -0.002606 -0.019189 0.044160
#
#
# Mechanical properties :
#
#
# Convention : Reuss Voigt Hill
#
# Bulk Modulus (GPa) = 20.24928 64.81769 42.53349
# Shear Modulus (GPa) = 23.26974 45.15999 34.21486
#
# Velocity S-wave (km/s) = 3.04138 4.23694 3.68793
# Velocity P-wave (km/s) = 4.51472 7.04992 5.91963
#
# Compressibility (1/GPa) = 0.04938448
#
# Stress axis : x y z
#
# Youngs Moduli (GPa) = 27.58615 145.55926 48.31222
#
# Poissons Ratio (x) = 0.11882 0.24813
# Poissons Ratio (y) = 0.02252 0.06111
# Poissons Ratio (z) = 0.14168 0.18413
#
# Static dielectric constant tensor:
#      x y z
#    x 2.117970 -0.008910 0.006820 
#    y -0.008910 2.130350 0.009420 
#    z 0.006820 0.009420 1.957280 
# 
# From -- ./inp_files/587851.got.cif
#   From: 2010.05.17/outbox.cif.g08.bks.cpg/sg2_294_cif.got.tgz:587851.got - 2010.06.03 11:33:40.
