data_PCOD9019003
_publ_section_title
;
Structure prediction by ZEFSAII (Michael W. Deem and Ramdas Pophale) SiO2 
 PCOD9019003
Probable space group: P -1
;
_chemical_formula_sum "Si O2"
_cell_formula_units_Z 16
_cell_length_a 14.402012
_cell_length_b 14.494055
_cell_length_c 11.390925
_cell_angle_alpha 29.788240
_cell_angle_beta 132.065387
_cell_angle_gamma 139.485211
_cell_volume 767.024047
_symmetry_space_group_name_H-M "P -1"
_symmetry_group_IT_number 2
_symmetry_cell_setting 'triclinic'
loop_
_space_group_symop_operation_xyz
x,y,z
-x,-y,-z
loop_
_atom_site_type_symbol
_atom_site_label
_atom_site_fract_x
_atom_site_fract_y
_atom_site_fract_z
Si Si1 0.529843 0.163739 0.089531
Si Si2 0.546975 0.591436 0.593670
Si Si3 0.713084 0.044190 0.201681
Si Si4 0.746170 0.177625 0.434252
Si Si5 0.032448 0.692744 0.726709
Si Si6 0.282010 0.762340 0.397618
Si Si7 0.239282 0.557950 0.354222
Si Si8 0.443223 0.296973 0.257943
O O1 0.600630 0.056506 0.185405
O O2 0.615685 0.207578 0.237331
O O3 0.363067 0.003215 0.148850
O O4 0.558761 0.382098 0.813920
O O5 0.384857 0.546925 0.496557
O O6 0.595946 0.654221 0.701041
O O7 0.643050 0.803001 0.367240
O O8 0.860529 0.106573 0.326316
O O9 0.735628 0.226009 0.928280
O O10 0.872061 0.295562 0.317333
O O11 0.787883 0.252105 0.520213
O O12 0.683812 0.922602 0.657048
O O13 0.881559 0.639108 0.602426
O O14 0.000000 0.500000 0.000000
O O15 0.197854 0.592557 0.412879
O O16 0.420844 0.737678 0.570484
O O17 0.500000 0.500000 0.000000
#
# Coordination Sequence:
#
# PCOD9019003 Si02
#       8
#     2   2   2   2   2   2   2   2
#     4  10  19  33  57  88 114 139 190 237 280 331
#     4  11  19  32  59  86 110 147 184 239 287 317
#     4  10  19  39  57  82 111 148 194 233 277 331
#     4  10  18  34  55  83 115 146 187 234 271 335
#     4   9  19  37  61  75 109 160 185 224 284 334
#     4  10  19  32  51  83 119 140 182 239 276 332
#     4  10  21  35  56  79 116 154 183 228 289 331
#     4  10  17  30  54  87 112 144 182 231 286 327
#
# _framework density 20.859840999999999
#
# number of rings (size 3 to 8) (size 9 to 14) (size 15 to 20)
#    0.000    2.000    5.000    3.375    0.000    1.000 
#    0.000    0.000    5.500   13.500    0.000    0.000 
#    0.000    0.000    0.000    0.000    0.000    0.000 
#
# Total GULP energy -89240.471352 kJ/mol
# GULP energy per Si atom -5577.529459 kJ/mol
# Density = 2.081236 g / cm^3
# Si number density = 20.859841 Si / 1000 Ang^3
#
#
#
# Elastic Constant Matrix: (Units=GPa)
#
#
# Indices 1 2 3 4 5 6 
#
# 1 41.0177 19.2708 20.2447 -2.5292 -23.6549 -10.6142
# 2 19.2708 101.5882 24.6075 7.3854 3.0318 2.1521
# 3 20.2447 24.6075 96.5623 -18.0841 -0.4890 -4.0547
# 4 -2.5292 7.3854 -18.0841 24.5619 -5.4932 -8.4326
# 5 -23.6549 3.0318 -0.4890 -5.4932 28.8016 5.7576
# 6 -10.6142 2.1521 -4.0547 -8.4326 5.7576 29.4016
#
#
#
# Elastic Compliance Matrix: (Units=1/GPa)
#
#
# Indices 1 2 3 4 5 6 
#
# 1 0.097607 -0.023885 -0.004325 0.044106 0.084524 0.032487
# 2 -0.023885 0.017648 -0.003773 -0.019656 -0.022974 -0.011573
# 3 -0.004325 -0.003773 0.014838 0.012932 -0.001384 0.004741
# 4 0.044106 -0.019656 0.012932 0.082865 0.047603 0.033589
# 5 0.084524 -0.022974 -0.001384 0.047603 0.110825 0.023955
# 6 0.032487 -0.011573 0.004741 0.033589 0.023955 0.052183
#
#
# Mechanical properties :
#
#
# Convention : Reuss Voigt Hill
#
# Bulk Modulus (GPa) = 15.12234 40.82380 27.97307
# Shear Modulus (GPa) = 10.82309 28.22271 19.52290
#
# Velocity S-wave (km/s) = 2.28029 3.68226 3.06258
# Velocity P-wave (km/s) = 3.76805 6.13936 5.09362
#
# Compressibility (1/GPa) = 0.06612733
#
# Stress axis : x y z
#
# Youngs Moduli (GPa) = 10.24520 56.66261 67.39321
#
# Poissons Ratio (x) = 1.35340 0.29145
# Poissons Ratio (y) = 0.24471 0.25429
# Poissons Ratio (z) = 0.04431 0.21380
#
# Static dielectric constant tensor:
#      x y z
#    x 1.771180 -0.018370 -0.043910 
#    y -0.018370 1.810250 -0.007080 
#    z -0.043910 -0.007080 1.792580 
# 
# From -- ./inp_files/426297.got.cif
#   From: 2010.05.17/outbox.cif.g08.bks.cpg/sg2_214_cif.got.tgz:426297.got - 2010.06.03 11:33:40.
