data_PCOD9019876
_publ_section_title
;
Structure prediction by ZEFSAII (Michael W. Deem and Ramdas Pophale) SiO2 
 PCOD9019876
Probable space group: P -1
;
_chemical_formula_sum "Si O2"
_cell_formula_units_Z 16
_cell_length_a 20.081831
_cell_length_b 7.849973
_cell_length_c 5.069701
_cell_angle_alpha 115.275763
_cell_angle_beta 120.038880
_cell_angle_gamma 59.603953
_cell_volume 580.387914
_symmetry_space_group_name_H-M "P -1"
_symmetry_group_IT_number 2
_symmetry_cell_setting 'triclinic'
loop_
_space_group_symop_operation_xyz
x,y,z
-x,-y,-z
loop_
_atom_site_type_symbol
_atom_site_label
_atom_site_fract_x
_atom_site_fract_y
_atom_site_fract_z
Si Si1 0.596756 0.051652 0.479860
Si Si2 0.128246 0.219858 0.579551
Si Si3 0.742938 0.601384 0.873947
Si Si4 0.405607 0.642363 0.937740
Si Si5 0.030875 0.630075 0.351102
Si Si6 0.417821 0.300040 0.083216
Si Si7 0.804183 0.328734 0.323024
Si Si8 0.736296 0.116439 0.466526
O O1 0.604965 0.134049 0.839284
O O2 0.511729 0.229503 0.325193
O O3 0.680435 0.021992 0.468041
O O4 0.578539 0.851822 0.251045
O O5 0.084429 0.446130 0.526660
O O6 0.052546 0.207432 0.587272
O O7 0.171738 0.030618 0.346616
O O8 0.209163 0.244447 0.887258
O O9 0.647903 0.712592 0.842581
O O10 0.762169 0.522274 0.562638
O O11 0.780658 0.405972 0.024111
O O12 0.381429 0.524394 0.043195
O O13 0.500000 0.500000 0.000000
O O14 0.345018 0.671357 0.593102
O O15 0.098279 0.723321 0.467352
O O16 0.000000 0.500000 0.000000
O O17 0.773606 0.159610 0.277558
#
# Coordination Sequence:
#
# PCOD9019876 Si02
#       8
#     2   2   2   2   2   2   2   2
#     4  11  26  44  66 100 143 187 257 297 359 435
#     4  10  23  42  70  97 140 173 236 296 356 437
#     4  11  22  43  68 102 134 188 240 291 359 437
#     4  12  26  44  68 100 144 195 242 306 366 423
#     4  10  21  45  71 100 131 184 228 295 370 438
#     4  11  23  45  68 100 138 197 242 306 365 422
#     4  11  25  41  72 101 138 184 236 293 372 433
#     4  12  25  44  63 105 139 185 240 299 356 434
#
# _framework density 27.567768999999998
#
# number of rings (size 3 to 8) (size 9 to 14) (size 15 to 20)
#    0.000    1.000    5.000    1.125    1.750    3.000 
#    0.000    0.625    0.000    0.000    0.000    0.000 
#    0.000    0.000    0.000    0.000    0.000    0.000 
#
# Total GULP energy -89184.580046 kJ/mol
# GULP energy per Si atom -5574.036253 kJ/mol
# Density = 2.750502 g / cm^3
# Si number density = 27.567769 Si / 1000 Ang^3
#
#
#
# Elastic Constant Matrix: (Units=GPa)
#
#
# Indices 1 2 3 4 5 6 
#
# 1 173.0483 65.6870 30.3930 -10.3596 28.2073 -47.8305
# 2 65.6870 109.3876 19.7502 5.8858 1.7043 -23.4439
# 3 30.3930 19.7502 105.3826 10.2492 -3.7684 -17.1871
# 4 -10.3596 5.8858 10.2492 32.5475 -4.0725 9.3360
# 5 28.2073 1.7043 -3.7684 -4.0725 36.0087 -5.6433
# 6 -47.8305 -23.4439 -17.1871 9.3360 -5.6433 59.6537
#
#
#
# Elastic Compliance Matrix: (Units=1/GPa)
#
#
# Indices 1 2 3 4 5 6 
#
# 1 0.010760 -0.005080 -0.001847 0.002575 -0.007306 0.005004
# 2 -0.005080 0.012776 -0.000124 -0.004017 0.003196 0.001843
# 3 -0.001847 -0.000124 0.010986 -0.004449 0.002502 0.002569
# 4 0.002575 -0.004017 -0.004449 0.035569 0.000744 -0.006292
# 5 -0.007306 0.003196 0.002502 0.000744 0.033560 -0.000823
# 6 0.005004 0.001843 0.002569 -0.006292 -0.000823 0.023147
#
#
# Mechanical properties :
#
#
# Convention : Reuss Voigt Hill
#
# Bulk Modulus (GPa) = 48.96853 68.83098 58.89975
# Shear Modulus (GPa) = 33.85113 43.77455 38.81284
#
# Velocity S-wave (km/s) = 3.50798 3.98915 3.75628
# Velocity P-wave (km/s) = 5.84888 6.79999 6.34229
#
# Compressibility (1/GPa) = 0.02042128
#
# Stress axis : x y z
#
# Youngs Moduli (GPa) = 92.94063 78.27183 91.02425
#
# Poissons Ratio (x) = 0.39761 0.16808
# Poissons Ratio (y) = 0.47213 0.01126
# Poissons Ratio (z) = 0.17162 0.00968
#
# Static dielectric constant tensor:
#      x y z
#    x 2.210900 0.260830 0.151330 
#    y 0.260830 -0.093030 -1.078670 
#    z 0.151330 -1.078670 1.890850 
# 
# From -- ./inp_files/117489.got.cif
#   From: 2010.05.17/outbox.cif.g08.bks.cpg/sg2_59_cif.got.tgz:117489.got - 2010.06.03 11:33:40.
