data_PCOD9019716
_publ_section_title
;
Structure prediction by ZEFSAII (Michael W. Deem and Ramdas Pophale) SiO2 
 PCOD9019716
Probable space group: P -1
;
_chemical_formula_sum "Si O2"
_cell_formula_units_Z 16
_cell_length_a 11.629486
_cell_length_b 23.608201
_cell_length_c 5.264207
_cell_angle_alpha 80.871249
_cell_angle_beta 68.529588
_cell_angle_gamma 30.038242
_cell_volume 633.260708
_symmetry_space_group_name_H-M "P -1"
_symmetry_group_IT_number 2
_symmetry_cell_setting 'triclinic'
loop_
_space_group_symop_operation_xyz
x,y,z
-x,-y,-z
loop_
_atom_site_type_symbol
_atom_site_label
_atom_site_fract_x
_atom_site_fract_y
_atom_site_fract_z
Si Si1 0.427081 0.994122 0.310185
Si Si2 0.410712 0.463599 0.859904
Si Si3 0.024722 0.438974 0.722444
Si Si4 0.726803 0.782388 0.480839
Si Si5 0.124153 0.781527 0.617865
Si Si6 0.693949 0.119955 0.161812
Si Si7 0.544064 0.242023 0.694787
Si Si8 0.156567 0.677226 0.038529
O O1 0.119566 0.108068 0.446598
O O2 0.500000 0.000000 0.500000
O O3 0.599867 0.866017 0.280711
O O4 0.500000 0.000000 0.000000
O O5 0.651014 0.353069 0.564998
O O6 0.219713 0.595039 0.874736
O O7 0.563086 0.415840 0.028852
O O8 0.244020 0.474433 0.012574
O O9 0.136880 0.335082 0.572099
O O10 0.237447 0.370284 0.805124
O O11 0.000000 0.500000 0.500000
O O12 0.465057 0.873510 0.784091
O O13 0.965665 0.728727 0.374213
O O14 0.282173 0.775585 0.524832
O O15 0.031751 0.783975 0.936368
O O16 0.624596 0.160889 0.481968
O O17 0.600443 0.203588 0.966938
O O18 0.000000 0.000000 0.000000
#
# Coordination Sequence:
#
# PCOD9019716 Si02
#       8
#     2   2   2   2   2   2   2   2
#     4  12  27  47  73 108 150 195 242 303 375 450
#     4  10  23  42  70 102 144 192 248 304 375 434
#     4  10  23  47  74 105 150 199 254 309 377 445
#     4  10  23  46  72 106 147 193 246 310 372 447
#     4  12  25  41  74 102 151 182 256 300 379 438
#     4  11  25  50  75 107 148 194 252 307 374 441
#     4  11  27  45  75 110 143 195 250 308 375 445
#     4  10  21  45  67 105 142 193 246 305 372 448
#
# _framework density 25.266055000000001
#
# number of rings (size 3 to 8) (size 9 to 14) (size 15 to 20)
#    0.000    1.250    1.250    3.000    5.250    4.500 
#   15.750    0.000    0.000    0.000    0.000    0.000 
#    0.000    0.000    0.000    0.000    0.000    0.000 
#
# Total GULP energy -89341.186064 kJ/mol
# GULP energy per Si atom -5583.824129 kJ/mol
# Density = 2.520855 g / cm^3
# Si number density = 25.266055 Si / 1000 Ang^3
#
#
#
# Elastic Constant Matrix: (Units=GPa)
#
#
# Indices 1 2 3 4 5 6 
#
# 1 147.2264 46.6155 44.9967 -8.4486 -47.4076 -22.1658
# 2 46.6155 137.8964 40.7025 -15.0492 -25.4064 -24.7009
# 3 44.9967 40.7025 84.9863 -1.7024 -32.9794 -7.7924
# 4 -8.4486 -15.0492 -1.7024 53.1529 -1.7618 -17.7158
# 5 -47.4076 -25.4064 -32.9794 -1.7618 57.0874 7.8423
# 6 -22.1658 -24.7009 -7.7924 -17.7158 7.8423 46.3543
#
#
#
# Elastic Compliance Matrix: (Units=1/GPa)
#
#
# Indices 1 2 3 4 5 6 
#
# 1 0.010726 -0.000526 -0.002300 0.003222 0.006821 0.004540
# 2 -0.000526 0.010388 -0.003444 0.004906 0.001479 0.006330
# 3 -0.002300 -0.003444 0.017015 -0.001116 0.006574 -0.001613
# 4 0.003222 0.004906 -0.001116 0.025128 0.003200 0.013029
# 5 0.006821 0.001479 0.006574 0.003200 0.027499 0.001725
# 6 0.004540 0.006330 -0.001613 0.013029 0.001725 0.031533
#
#
# Mechanical properties :
#
#
# Convention : Reuss Voigt Hill
#
# Bulk Modulus (GPa) = 39.07903 70.52647 54.80275
# Shear Modulus (GPa) = 34.87787 47.17189 41.02488
#
# Velocity S-wave (km/s) = 3.71944 4.32557 4.03391
# Velocity P-wave (km/s) = 5.82634 7.27472 6.59044
#
# Compressibility (1/GPa) = 0.02558917
#
# Stress axis : x y z
#
# Youngs Moduli (GPa) = 93.22932 96.26638 58.77332
#
# Poissons Ratio (x) = 0.05061 0.13516
# Poissons Ratio (y) = 0.04902 0.20243
# Poissons Ratio (z) = 0.21440 0.33157
#
# Static dielectric constant tensor:
#      x y z
#    x 2.101250 0.050280 0.054490 
#    y 0.050280 2.063730 0.100040 
#    z 0.054490 0.100040 2.075260 
# 
# From -- ./inp_files/84279.got.cif
#   From: 2010.05.17/outbox.cif.g08.bks.cpg/sg2_43_cif.got.tgz:84279.got - 2010.06.03 11:33:40.
