data_PCOD9019883
_publ_section_title
;
Structure prediction by ZEFSAII (Michael W. Deem and Ramdas Pophale) SiO2 
 PCOD9019883
Probable space group: P -1
;
_chemical_formula_sum "Si O2"
_cell_formula_units_Z 14
_cell_length_a 13.370720
_cell_length_b 9.239807
_cell_length_c 10.792544
_cell_angle_alpha 48.346622
_cell_angle_beta 33.053620
_cell_angle_gamma 61.767084
_cell_volume 531.706761
_symmetry_space_group_name_H-M "P -1"
_symmetry_group_IT_number 2
_symmetry_cell_setting 'triclinic'
loop_
_space_group_symop_operation_xyz
x,y,z
-x,-y,-z
loop_
_atom_site_type_symbol
_atom_site_label
_atom_site_fract_x
_atom_site_fract_y
_atom_site_fract_z
Si Si1 0.804526 0.361056 0.819572
Si Si2 0.054480 0.063523 0.726369
Si Si3 0.533835 0.302211 0.510687
Si Si4 0.887911 0.510057 0.908789
Si Si5 0.779253 0.897913 0.743677
Si Si6 0.197495 0.292484 0.679095
Si Si7 0.406032 0.874505 0.021221
O O1 0.000000 0.500000 0.500000
O O2 0.867052 0.152234 0.879121
O O3 0.644700 0.310361 0.913871
O O4 0.773537 0.443211 0.937799
O O5 0.128640 0.063786 0.509849
O O6 0.198730 0.205750 0.587747
O O7 0.975658 0.856423 0.989767
O O8 0.500000 0.500000 0.500000
O O9 0.757432 0.365625 0.221619
O O10 0.389368 0.290412 0.551409
O O11 0.487469 0.086238 0.747429
O O12 0.862074 0.733656 0.825127
O O13 0.101231 0.484178 0.681904
O O14 0.766109 0.078059 0.746534
O O15 0.560663 0.822782 0.981955
#
# Coordination Sequence:
#
# PCOD9019883 Si02
#       7
#     2   2   2   2   2   2   2
#     4  11  23  44  70 104 136 179 240 290 346 420
#     4  10  21  45  71 104 137 183 242 285 357 421
#     4  12  25  48  70 105 147 185 238 287 351 429
#     4  11  25  44  73 109 138 187 240 287 360 413
#     4  11  24  46  70 105 141 187 232 292 362 416
#     4  10  24  44  73 106 140 187 236 296 346 423
#     4  11  26  46  70 101 146 185 235 294 350 425
#
# _framework density 26.330302
#
# number of rings (size 3 to 8) (size 9 to 14) (size 15 to 20)
#    0.000    1.143    4.286    0.857    2.000    4.571 
#    2.571    0.000    0.000    0.000    0.000    0.000 
#    0.000    0.000    0.000    0.000    0.000    0.000 
#
# Total GULP energy -78230.482987 kJ/mol
# GULP energy per Si atom -5587.891642 kJ/mol
# Density = 2.627037 g / cm^3
# Si number density = 26.330302 Si / 1000 Ang^3
#
#
#
# Elastic Constant Matrix: (Units=GPa)
#
#
# Indices 1 2 3 4 5 6 
#
# 1 66.3587 -16.4176 -13.1043 -1.7431 -15.3510 -5.5316
# 2 -16.4176 88.5847 20.9182 -1.9880 2.8094 -15.5015
# 3 -13.1043 20.9182 95.7873 -1.9819 18.5453 -6.0942
# 4 -1.7431 -1.9880 -1.9819 36.8395 -5.0854 -2.5351
# 5 -15.3510 2.8094 18.5453 -5.0854 36.7634 4.3631
# 6 -5.5316 -15.5015 -6.0942 -2.5351 4.3631 44.0764
#
#
#
# Elastic Compliance Matrix: (Units=1/GPa)
#
#
# Indices 1 2 3 4 5 6 
#
# 1 0.017969 0.003554 0.000589 0.002233 0.006883 0.003033
# 2 0.003554 0.013320 -0.002337 0.001262 0.001255 0.004756
# 3 0.000589 -0.002337 0.012282 -0.000157 -0.005975 0.001533
# 4 0.002233 0.001262 -0.000157 0.028070 0.004577 0.001864
# 5 0.006883 0.001255 -0.005975 0.004577 0.033937 -0.002617
# 6 0.003033 0.004756 0.001533 0.001864 -0.002617 0.025319
#
#
# Mechanical properties :
#
#
# Convention : Reuss Voigt Hill
#
# Bulk Modulus (GPa) = 21.19467 25.94703 23.57085
# Shear Modulus (GPa) = 34.96187 40.82481 37.89334
#
# Velocity S-wave (km/s) = 3.64788 3.94190 3.79773
# Velocity P-wave (km/s) = 5.08032 5.53117 5.31054
#
# Compressibility (1/GPa) = 0.04718167
#
# Stress axis : x y z
#
# Youngs Moduli (GPa) = 55.65144 75.07593 81.42204
#
# Poissons Ratio (x) = -0.26681 -0.04793
# Poissons Ratio (y) = -0.19778 0.19028
# Poissons Ratio (z) = -0.03276 0.17545
#
# Static dielectric constant tensor:
#      x y z
#    x 1.937650 0.287870 0.336470 
#    y 0.287870 1.711720 -0.453470 
#    z 0.336470 -0.453470 1.672500 
# 
# From -- ./inp_files/256193.got.cif
#   From: 2010.05.17/outbox.cif.g08.bks.cpg/sg2_129_cif.got.tgz:256193.got - 2010.06.03 11:33:40.
