data_PCOD9019207
_publ_section_title
;
Structure prediction by ZEFSAII (Michael W. Deem and Ramdas Pophale) SiO2 
 PCOD9019207
Probable space group: P -1
;
_chemical_formula_sum "Si O2"
_cell_formula_units_Z 12
_cell_length_a 11.199747
_cell_length_b 9.295365
_cell_length_c 9.087246
_cell_angle_alpha 90.025265
_cell_angle_beta 53.652594
_cell_angle_gamma 57.128014
_cell_volume 562.754654
_symmetry_space_group_name_H-M "P -1"
_symmetry_group_IT_number 2
_symmetry_cell_setting 'triclinic'
loop_
_space_group_symop_operation_xyz
x,y,z
-x,-y,-z
loop_
_atom_site_type_symbol
_atom_site_label
_atom_site_fract_x
_atom_site_fract_y
_atom_site_fract_z
Si Si1 0.190693 0.292648 0.784803
Si Si2 0.020167 0.353797 0.589720
Si Si3 0.926827 0.907497 0.957785
Si Si4 0.339466 0.497815 0.685538
Si Si5 0.589898 0.564428 0.033444
Si Si6 0.177258 0.982488 0.301049
O O1 0.142481 0.293466 0.650699
O O2 0.357085 0.311956 0.664077
O O3 0.204525 0.128261 0.857869
O O4 0.000000 0.500000 0.000000
O O5 0.122053 0.168821 0.413542
O O6 0.000000 0.500000 0.500000
O O7 0.792967 0.476302 0.806891
O O8 0.833696 0.013476 0.869121
O O9 0.129013 0.686578 0.771816
O O10 0.000000 0.000000 0.000000
O O11 0.500000 0.500000 0.500000
O O12 0.342459 0.529393 0.855823
O O13 0.402864 0.794823 0.184074
O O14 0.500000 0.500000 0.000000
O O15 0.000000 0.000000 0.500000
#
# Coordination Sequence:
#
# PCOD9019207 Si02
#       6
#     2   2   2   2   2   2
#     4  10  21  44  69  93 137 188 228 281 356 412
#     4  12  25  45  72 102 145 186 230 299 358 413
#     4  11  22  44  69  95 140 182 224 289 355 411
#     4  11  24  44  71  96 135 185 235 286 350 421
#     4  12  25  45  72 103 142 182 238 293 352 422
#     4  12  25  43  72 106 139 183 242 284 355 431
#
# _framework density 21.32368
#
# number of rings (size 3 to 8) (size 9 to 14) (size 15 to 20)
#    0.000    0.667    5.000    5.000    2.333    0.667 
#    0.000    1.667    0.000    0.000    0.000    0.000 
#    0.000    0.000    0.000    0.000    0.000    0.000 
#
# Total GULP energy -66963.627038 kJ/mol
# GULP energy per Si atom -5580.302253 kJ/mol
# Density = 2.127515 g / cm^3
# Si number density = 21.323680 Si / 1000 Ang^3
#
#
#
# Elastic Constant Matrix: (Units=GPa)
#
#
# Indices 1 2 3 4 5 6 
#
# 1 101.2214 16.3611 29.6341 -23.6905 10.9084 20.4674
# 2 16.3611 81.3813 30.7984 -8.8932 4.0648 18.1135
# 3 29.6341 30.7984 101.2646 -19.2434 -6.7059 14.7209
# 4 -23.6905 -8.8932 -19.2434 55.1417 2.6577 -1.5721
# 5 10.9084 4.0648 -6.7059 2.6577 45.8352 -2.0449
# 6 20.4674 18.1135 14.7209 -1.5721 -2.0449 51.9211
#
#
#
# Elastic Compliance Matrix: (Units=1/GPa)
#
#
# Indices 1 2 3 4 5 6 
#
# 1 0.013067 0.000049 -0.002541 0.004799 -0.003963 -0.004459
# 2 0.000049 0.014897 -0.003881 0.001054 -0.002148 -0.004169
# 3 -0.002541 -0.003881 0.012602 0.002525 0.002600 -0.001038
# 4 0.004799 0.001054 0.002525 0.021286 -0.002208 -0.002418
# 5 -0.003963 -0.002148 0.002600 -0.002208 0.023568 0.002436
# 6 -0.004459 -0.004169 -0.001038 -0.002418 0.002436 0.022789
#
#
# Mechanical properties :
#
#
# Convention : Reuss Voigt Hill
#
# Bulk Modulus (GPa) = 35.94480 48.60605 42.27542
# Shear Modulus (GPa) = 38.39392 44.38450 41.38921
#
# Velocity S-wave (km/s) = 4.24787 4.56726 4.41045
# Velocity P-wave (km/s) = 6.39942 7.11737 6.76792
#
# Compressibility (1/GPa) = 0.02782044
#
# Stress axis : x y z
#
# Youngs Moduli (GPa) = 76.52722 67.12742 79.35103
#
# Poissons Ratio (x) = -0.00332 0.20166
# Poissons Ratio (y) = -0.00379 0.30797
# Poissons Ratio (z) = 0.19448 0.26053
#
# Static dielectric constant tensor:
#      x y z
#    x 1.800670 0.039370 -0.045850 
#    y 0.039370 1.756500 0.002850 
#    z -0.045850 0.002850 1.751940 
# 
# From -- ./inp_files/149806.got.cif
#   From: 2010.05.17/outbox.cif.g08.bks.cpg/sg2_75_cif.got.tgz:149806.got - 2010.06.03 11:33:40.
