data_PCOD9019985
_publ_section_title
;
Structure prediction by ZEFSAII (Michael W. Deem and Ramdas Pophale) SiO2 
 PCOD9019985
Probable space group: P -1
;
_chemical_formula_sum "Si O2"
_cell_formula_units_Z 16
_cell_length_a 14.725661
_cell_length_b 9.650820
_cell_length_c 11.830139
_cell_angle_alpha 67.341396
_cell_angle_beta 59.699695
_cell_angle_gamma 118.107949
_cell_volume 736.538398
_symmetry_space_group_name_H-M "P -1"
_symmetry_group_IT_number 2
_symmetry_cell_setting 'triclinic'
loop_
_space_group_symop_operation_xyz
x,y,z
-x,-y,-z
loop_
_atom_site_type_symbol
_atom_site_label
_atom_site_fract_x
_atom_site_fract_y
_atom_site_fract_z
Si Si1 0.776651 0.278176 0.685965
Si Si2 0.557226 0.119039 0.550241
Si Si3 0.768291 0.235798 0.949873
Si Si4 0.219683 0.102153 0.012264
Si Si5 0.682922 0.608260 0.350975
Si Si6 0.419285 0.413326 0.205129
Si Si7 0.178843 0.335115 0.514348
Si Si8 0.796338 0.146813 0.500583
O O1 0.685752 0.182005 0.896024
O O2 0.761869 0.420334 0.589788
O O3 0.716991 0.078760 0.699534
O O4 0.000000 0.500000 0.500000
O O5 0.628095 0.374220 0.425412
O O6 0.717020 0.192715 0.466635
O O7 0.500000 0.000000 0.500000
O O8 0.376872 0.898663 0.817666
O O9 0.973563 0.561522 0.734870
O O10 0.789464 0.080317 0.970002
O O11 0.192328 0.172424 0.896756
O O12 0.412735 0.366544 0.876648
O O13 0.048943 0.929851 0.260486
O O14 0.500000 0.500000 0.500000
O O15 0.761185 0.685074 0.404920
O O16 0.277008 0.381838 0.328823
O O17 0.293637 0.114750 0.402324
O O18 0.500000 0.500000 0.000000
#
# Coordination Sequence:
#
# PCOD9019985 Si02
#       8
#     2   2   2   2   2   2   2   2
#     4  10  21  45  75 105 134 177 247 291 340 433
#     4  12  26  43  68 103 145 189 231 287 363 415
#     4  11  24  45  76 103 138 187 238 296 348 426
#     4  12  24  47  77 105 141 193 244 294 358 428
#     4  12  23  46  73 107 144 182 248 301 346 427
#     4  12  29  44  67 110 153 185 233 299 362 426
#     4  12  25  47  77 104 138 197 238 292 363 425
#     4  11  25  46  68 105 143 180 237 293 355 417
#
# _framework density 21.723240000000001
#
# number of rings (size 3 to 8) (size 9 to 14) (size 15 to 20)
#    0.000    0.500    6.250    1.875    3.500    3.500 
#    0.000    0.000    0.000    0.000    0.000    0.000 
#    0.000    0.000    0.000    0.000    0.000    0.000 
#
# Total GULP energy -89472.408779 kJ/mol
# GULP energy per Si atom -5592.025549 kJ/mol
# Density = 2.167380 g / cm^3
# Si number density = 21.723240 Si / 1000 Ang^3
#
#
#
# Elastic Constant Matrix: (Units=GPa)
#
#
# Indices 1 2 3 4 5 6 
#
# 1 74.6380 -0.2694 7.1318 -7.0877 7.9602 -1.9955
# 2 -0.2694 83.7563 23.0743 -3.6352 -4.0389 -3.4690
# 3 7.1318 23.0743 101.5062 3.9751 0.7660 3.1479
# 4 -7.0877 -3.6352 3.9751 49.9157 -0.8977 10.4465
# 5 7.9602 -4.0389 0.7660 -0.8977 35.7610 2.6585
# 6 -1.9955 -3.4690 3.1479 10.4465 2.6585 34.5807
#
#
#
# Elastic Compliance Matrix: (Units=1/GPa)
#
#
# Indices 1 2 3 4 5 6 
#
# 1 0.014032 0.000317 -0.001129 0.001925 -0.003060 0.000598
# 2 0.000317 0.012941 -0.003051 0.001008 0.001394 0.001183
# 3 -0.001129 -0.003051 0.010698 -0.001027 -0.000273 -0.001014
# 4 0.001925 0.001008 -0.001027 0.021801 0.000726 -0.006336
# 5 -0.003060 0.001394 -0.000273 0.000726 0.029009 -0.002461
# 6 0.000598 0.001183 -0.001014 -0.006336 -0.002461 0.031267
#
#
# Mechanical properties :
#
#
# Convention : Reuss Voigt Hill
#
# Bulk Modulus (GPa) = 33.39342 35.53042 34.46192
# Shear Modulus (GPa) = 36.37556 39.38240 37.87898
#
# Velocity S-wave (km/s) = 4.09650 4.26245 4.18030
# Velocity P-wave (km/s) = 6.14660 6.37308 6.26086
#
# Compressibility (1/GPa) = 0.02994602
#
# Stress axis : x y z
#
# Youngs Moduli (GPa) = 71.26505 77.27508 93.47444
#
# Poissons Ratio (x) = -0.02449 0.10551
# Poissons Ratio (y) = -0.02258 0.28515
# Poissons Ratio (z) = 0.08044 0.23574
#
# Static dielectric constant tensor:
#      x y z
#    x 1.850210 0.077150 -0.050130 
#    y 0.077150 1.804120 -0.034160 
#    z -0.050130 -0.034160 1.902170 
# 
# From -- ./inp_files/447128.got.cif
#   From: 2010.05.17/outbox.cif.g08.bks.cpg/sg2_224_cif.got.tgz:447128.got - 2010.06.03 11:33:40.
