data_PCOD9019153
_publ_section_title
;
Structure prediction by ZEFSAII (Michael W. Deem and Ramdas Pophale) SiO2 
 PCOD9019153
Probable space group: P -1
;
_chemical_formula_sum "Si O2"
_cell_formula_units_Z 16
_cell_length_a 11.244029
_cell_length_b 11.813246
_cell_length_c 9.268917
_cell_angle_alpha 58.200306
_cell_angle_beta 125.654561
_cell_angle_gamma 88.264090
_cell_volume 741.804328
_symmetry_space_group_name_H-M "P -1"
_symmetry_group_IT_number 2
_symmetry_cell_setting 'triclinic'
loop_
_space_group_symop_operation_xyz
x,y,z
-x,-y,-z
loop_
_atom_site_type_symbol
_atom_site_label
_atom_site_fract_x
_atom_site_fract_y
_atom_site_fract_z
Si Si1 0.348738 0.135148 0.390204
Si Si2 0.830075 0.120346 0.227588
Si Si3 0.490022 0.589706 0.079264
Si Si4 0.563241 0.618455 0.585466
Si Si5 0.329319 0.075394 0.741072
Si Si6 0.778224 0.310008 0.801168
Si Si7 0.798041 0.641267 0.366794
Si Si8 0.942606 0.700913 0.160456
O O1 0.390267 0.267945 0.377925
O O2 0.332037 0.062876 0.577968
O O3 0.500000 0.000000 0.500000
O O4 0.186814 0.218772 0.115537
O O5 0.762821 0.009562 0.199956
O O6 0.681620 0.248846 0.135355
O O7 0.868730 0.210575 0.071095
O O8 0.000000 0.000000 0.500000
O O9 0.476002 0.482983 0.262660
O O10 0.650674 0.613168 0.213016
O O11 0.500000 0.500000 0.000000
O O12 0.702950 0.489023 0.668262
O O13 0.384769 0.710789 0.318115
O O14 0.255707 0.252335 0.604023
O O15 0.500000 0.000000 0.000000
O O16 0.903779 0.266089 0.785038
O O17 0.842626 0.735307 0.216276
O O18 0.959440 0.483807 0.633592
#
# Coordination Sequence:
#
# PCOD9019153 Si02
#       8
#     2   2   2   2   2   2   2   2
#     4  12  27  43  66 103 143 182 225 288 349 410
#     4  11  25  42  68 102 139 181 232 284 350 411
#     4  11  23  43  72  97 139 179 230 291 347 418
#     4  10  22  41  71  95 128 174 224 274 348 403
#     4  12  24  44  71  98 145 188 230 278 350 425
#     4  10  21  44  68  99 129 176 227 279 336 411
#     4  11  24  44  73 103 134 186 233 287 352 417
#     4  11  24  44  70 102 140 173 239 286 341 416
#
# _framework density 21.569032
#
# number of rings (size 3 to 8) (size 9 to 14) (size 15 to 20)
#    0.000    1.000    2.500    3.750    3.500    6.000 
#    0.000    1.250    0.000    0.000    0.000    0.000 
#    0.000    0.000    0.000    0.000    0.000    0.000 
#
# Total GULP energy -89280.110145 kJ/mol
# GULP energy per Si atom -5580.006884 kJ/mol
# Density = 2.151994 g / cm^3
# Si number density = 21.569032 Si / 1000 Ang^3
#
#
#
# Elastic Constant Matrix: (Units=GPa)
#
#
# Indices 1 2 3 4 5 6 
#
# 1 95.6334 17.3461 29.6847 0.9964 -8.5535 1.6961
# 2 17.3461 85.5756 12.2931 -3.0316 8.6157 0.3049
# 3 29.6847 12.2931 137.9028 -13.8891 4.4251 -11.1875
# 4 0.9964 -3.0316 -13.8891 23.8504 -0.1845 -6.7980
# 5 -8.5535 8.6157 4.4251 -0.1845 38.7737 4.3293
# 6 1.6961 0.3049 -11.1875 -6.7980 4.3293 31.0740
#
#
#
# Elastic Compliance Matrix: (Units=1/GPa)
#
#
# Indices 1 2 3 4 5 6 
#
# 1 0.012355 -0.002565 -0.003169 -0.003547 0.003989 -0.003122
# 2 -0.002565 0.012643 -0.000219 0.001790 -0.003432 0.000807
# 3 -0.003169 -0.000219 0.009153 0.006928 -0.002254 0.005300
# 4 -0.003547 0.001790 0.006928 0.050344 -0.003311 0.014145
# 5 0.003989 -0.003432 -0.002254 -0.003311 0.028307 -0.005664
# 6 -0.003122 0.000807 0.005300 0.014145 -0.005664 0.038136
#
#
# Mechanical properties :
#
#
# Convention : Reuss Voigt Hill
#
# Bulk Modulus (GPa) = 44.95544 48.63996 46.79770
# Shear Modulus (GPa) = 29.36692 36.05881 32.71286
#
# Velocity S-wave (km/s) = 3.69390 4.09318 3.89866
# Velocity P-wave (km/s) = 6.25148 6.70363 6.48150
#
# Compressibility (1/GPa) = 0.02224425
#
# Stress axis : x y z
#
# Youngs Moduli (GPa) = 80.94092 79.09496 109.24996
#
# Poissons Ratio (x) = 0.20289 0.34624
# Poissons Ratio (y) = 0.20762 0.02393
# Poissons Ratio (z) = 0.25652 0.01732
#
# Static dielectric constant tensor:
#      x y z
#    x 1.679410 0.014130 -0.035760 
#    y 0.014130 1.757350 -0.005580 
#    z -0.035760 -0.005580 1.819810 
# 
# From -- ./inp_files/262146.got.cif
#   From: 2010.05.17/outbox.cif.g08.bks.cpg/sg2_132_cif.got.tgz:262146.got - 2010.06.03 11:33:40.
