data_PCOD9019336
_publ_section_title
;
Structure prediction by ZEFSAII (Michael W. Deem and Ramdas Pophale) SiO2 
 PCOD9019336
Probable space group: P -1
;
_chemical_formula_sum "Si O2"
_cell_formula_units_Z 12
_cell_length_a 8.508556
_cell_length_b 15.231564
_cell_length_c 8.311539
_cell_angle_alpha 57.679369
_cell_angle_beta 127.394852
_cell_angle_gamma 145.159134
_cell_volume 487.343782
_symmetry_space_group_name_H-M "P -1"
_symmetry_group_IT_number 2
_symmetry_cell_setting 'triclinic'
loop_
_space_group_symop_operation_xyz
x,y,z
-x,-y,-z
loop_
_atom_site_type_symbol
_atom_site_label
_atom_site_fract_x
_atom_site_fract_y
_atom_site_fract_z
Si Si1 0.748087 0.795966 0.876947
Si Si2 0.720771 0.681289 0.308178
Si Si3 0.756975 0.967229 0.261354
Si Si4 0.830575 0.530814 0.287097
Si Si5 0.231734 0.621424 0.162427
Si Si6 0.702462 0.010729 0.507216
O O1 0.498650 0.628558 0.807079
O O2 0.692197 0.893486 0.698383
O O3 0.732673 0.770295 0.081240
O O4 0.055735 0.895343 0.883369
O O5 0.803325 0.611647 0.321579
O O6 0.416446 0.581639 0.313743
O O7 0.981114 0.812351 0.461118
O O8 0.522698 0.806515 0.179990
O O9 0.594839 0.965900 0.301782
O O10 0.000000 0.000000 0.500000
O O11 0.000000 0.500000 0.500000
O O12 0.017416 0.603330 0.167897
O O13 0.000000 0.500000 0.000000
O O14 0.500000 0.000000 0.500000
#
# Coordination Sequence:
#
# PCOD9019336 Si02
#       6
#     2   2   2   2   2   2
#     4  11  23  44  71 100 144 186 231 297 352 412
#     4  12  25  47  72 104 147 187 234 298 359 417
#     4  10  21  44  70  99 142 183 235 292 346 416
#     4  12  27  47  70 105 146 185 241 295 356 428
#     4  12  25  45  73 106 145 186 238 290 359 430
#     4  11  23  45  74 104 140 188 241 289 353 425
#
# _framework density 24.623273000000001
#
# number of rings (size 3 to 8) (size 9 to 14) (size 15 to 20)
#    0.000    0.667    5.000    5.000    0.000    0.667 
#    6.000    1.667    0.000    0.000    0.000    0.000 
#    0.000    0.000    0.000    0.000    0.000    0.000 
#
# Total GULP energy -66853.494746 kJ/mol
# GULP energy per Si atom -5571.124562 kJ/mol
# Density = 2.456723 g / cm^3
# Si number density = 24.623273 Si / 1000 Ang^3
#
#
#
# Elastic Constant Matrix: (Units=GPa)
#
#
# Indices 1 2 3 4 5 6 
#
# 1 206.2162 69.9643 38.6458 -7.1756 -12.3743 -25.3969
# 2 69.9643 165.7712 35.7127 39.6773 -12.2767 -7.2019
# 3 38.6458 35.7127 50.1868 14.1501 -17.0615 -5.3212
# 4 -7.1756 39.6773 14.1501 32.7225 -4.7537 -2.2101
# 5 -12.3743 -12.2767 -17.0615 -4.7537 42.2557 10.4231
# 6 -25.3969 -7.2019 -5.3212 -2.2101 10.4231 45.5684
#
#
#
# Elastic Compliance Matrix: (Units=1/GPa)
#
#
# Indices 1 2 3 4 5 6 
#
# 1 0.008242 -0.004489 -0.005915 0.009909 -0.001134 0.003933
# 2 -0.004489 0.011562 -0.000590 -0.014778 0.000534 -0.001582
# 3 -0.005915 -0.000590 0.031719 -0.013009 0.010087 -0.002624
# 4 0.009909 -0.014778 -0.013009 0.056384 -0.001470 0.004739
# 5 -0.001134 0.000534 0.010087 -0.001470 0.028888 -0.006049
# 6 0.003933 -0.001582 -0.002624 0.004739 -0.006049 0.025194
#
#
# Mechanical properties :
#
#
# Convention : Reuss Voigt Hill
#
# Bulk Modulus (GPa) = 33.85809 78.97997 56.41903
# Shear Modulus (GPa) = 25.79680 42.63273 34.21476
#
# Velocity S-wave (km/s) = 3.24027 4.16552 3.73168
# Velocity P-wave (km/s) = 5.27062 7.43508 6.44437
#
# Compressibility (1/GPa) = 0.02953504
#
# Stress axis : x y z
#
# Youngs Moduli (GPa) = 121.33052 86.48868 31.52682
#
# Poissons Ratio (x) = 0.38827 0.18647
# Poissons Ratio (y) = 0.54468 0.01861
# Poissons Ratio (z) = 0.71761 0.05105
#
# Static dielectric constant tensor:
#      x y z
#    x 1.905540 0.032900 0.335760 
#    y 0.032900 1.993310 -0.030760 
#    z 0.335760 -0.030760 1.644060 
# 
# From -- ./inp_files/153652.got.cif
#   From: 2010.05.17/outbox.cif.g08.bks.cpg/sg2_77_cif.got.tgz:153652.got - 2010.06.03 11:33:40.
