data_PCOD9019191
_publ_section_title
;
Structure prediction by ZEFSAII (Michael W. Deem and Ramdas Pophale) SiO2 
 PCOD9019191
Probable space group: P -1
;
_chemical_formula_sum "Si O2"
_cell_formula_units_Z 16
_cell_length_a 11.955591
_cell_length_b 5.400496
_cell_length_c 14.815138
_cell_angle_alpha 61.016508
_cell_angle_beta 122.664786
_cell_angle_gamma 102.877064
_cell_volume 703.445430
_symmetry_space_group_name_H-M "P -1"
_symmetry_group_IT_number 2
_symmetry_cell_setting 'triclinic'
loop_
_space_group_symop_operation_xyz
x,y,z
-x,-y,-z
loop_
_atom_site_type_symbol
_atom_site_label
_atom_site_fract_x
_atom_site_fract_y
_atom_site_fract_z
Si Si1 0.360292 0.249237 0.220434
Si Si2 0.007056 0.201818 0.703246
Si Si3 0.556308 0.794459 0.447239
Si Si4 0.855514 0.208896 0.314466
Si Si5 0.949403 0.831598 0.919865
Si Si6 0.549494 0.657150 0.266764
Si Si7 0.227737 0.836315 0.519965
Si Si8 0.451487 0.759495 0.872690
O O1 0.210481 0.181622 0.150942
O O2 0.400299 0.549735 0.225393
O O3 0.442760 0.249879 0.162381
O O4 0.435156 0.026638 0.359807
O O5 0.865104 0.268256 0.580844
O O6 0.069436 0.497481 0.703865
O O7 0.993574 0.002076 0.820034
O O8 0.089070 0.020447 0.694036
O O9 0.500000 0.500000 0.500000
O O10 0.587456 0.783835 0.356570
O O11 0.692163 0.899882 0.527556
O O12 0.855318 0.095098 0.437650
O O13 0.701748 0.280428 0.210143
O O14 0.000000 0.500000 0.000000
O O15 0.000000 0.000000 0.000000
O O16 0.658580 0.397279 0.356417
O O17 0.551534 0.913241 0.152170
O O18 0.500000 0.500000 0.000000
#
# Coordination Sequence:
#
# PCOD9019191 Si02
#       8
#     2   2   2   2   2   2   2   2
#     4  10  25  46  71 105 140 192 242 312 375 419
#     4  12  30  45  80 106 151 210 244 300 385 454
#     4  10  23  38  73 106 150 185 247 304 372 445
#     4  12  25  50  70 116 151 193 255 307 372 452
#     4  12  31  54  75 106 152 196 259 312 368 451
#     4  10  21  44  69 108 146 185 242 314 368 434
#     4  11  24  45  70 112 152 195 244 309 376 452
#     4  11  25  43  75 103 142 189 249 306 371 432
#
# _framework density 22.745189
#
# number of rings (size 3 to 8) (size 9 to 14) (size 15 to 20)
#    0.000    1.000    3.750    2.250   12.250    1.500 
#    0.000    0.000    0.000    0.000    0.000    0.000 
#    0.000    0.000    0.000    0.000    0.000    0.000 
#
# Total GULP energy -89356.221510 kJ/mol
# GULP energy per Si atom -5584.763844 kJ/mol
# Density = 2.269342 g / cm^3
# Si number density = 22.745189 Si / 1000 Ang^3
#
#
#
# Elastic Constant Matrix: (Units=GPa)
#
#
# Indices 1 2 3 4 5 6 
#
# 1 87.4543 26.2421 19.2584 3.1593 -4.1799 11.3945
# 2 26.2421 157.1690 36.5937 -5.6810 12.9245 33.6837
# 3 19.2584 36.5937 82.2883 -13.0683 -2.9320 23.7226
# 4 3.1593 -5.6810 -13.0683 45.9096 12.8759 -1.5325
# 5 -4.1799 12.9245 -2.9320 12.8759 37.0656 8.2066
# 6 11.3945 33.6837 23.7226 -1.5325 8.2066 48.5587
#
#
#
# Elastic Compliance Matrix: (Units=1/GPa)
#
#
# Indices 1 2 3 4 5 6 
#
# 1 0.012841 -0.001692 -0.002158 -0.002619 0.003085 -0.001389
# 2 -0.001692 0.008211 -0.002077 0.001201 -0.002800 -0.003773
# 3 -0.002158 -0.002077 0.015981 0.003738 0.001784 -0.006044
# 4 -0.002619 0.001201 0.003738 0.025846 -0.009479 0.000373
# 5 0.003085 -0.002800 0.001784 -0.009479 0.032960 -0.005523
# 6 -0.001389 -0.003773 -0.006044 0.000373 -0.005523 0.027434
#
#
# Mechanical properties :
#
#
# Convention : Reuss Voigt Hill
#
# Bulk Modulus (GPa) = 39.71762 54.56667 47.14214
# Shear Modulus (GPa) = 34.83850 42.62793 38.73321
#
# Velocity S-wave (km/s) = 3.91792 4.33384 4.13112
# Velocity P-wave (km/s) = 6.16171 7.00610 6.59743
#
# Compressibility (1/GPa) = 0.02517775
#
# Stress axis : x y z
#
# Youngs Moduli (GPa) = 77.87822 121.78970 62.57584
#
# Poissons Ratio (x) = 0.20608 0.13506
# Poissons Ratio (y) = 0.13178 0.12996
# Poissons Ratio (z) = 0.16808 0.25293
#
# Static dielectric constant tensor:
#      x y z
#    x 1.899670 -0.054880 -0.009360 
#    y -0.054880 1.974310 -0.046120 
#    z -0.009360 -0.046120 1.870900 
# 
# From -- ./inp_files/564375.got.cif
#   From: 2010.05.17/outbox.cif.g08.bks.cpg/sg2_283_cif.got.tgz:564375.got - 2010.06.03 11:33:40.
