data_PCOD9019565
_publ_section_title
;
Structure prediction by ZEFSAII (Michael W. Deem and Ramdas Pophale) SiO2 
 PCOD9019565
Probable space group: P -1
;
_chemical_formula_sum "Si O2"
_cell_formula_units_Z 14
_cell_length_a 5.561670
_cell_length_b 23.294690
_cell_length_c 5.290948
_cell_angle_alpha 105.056083
_cell_angle_beta 93.079369
_cell_angle_gamma 57.084805
_cell_volume 552.449405
_symmetry_space_group_name_H-M "P -1"
_symmetry_group_IT_number 2
_symmetry_cell_setting 'triclinic'
loop_
_space_group_symop_operation_xyz
x,y,z
-x,-y,-z
loop_
_atom_site_type_symbol
_atom_site_label
_atom_site_fract_x
_atom_site_fract_y
_atom_site_fract_z
Si Si1 0.240661 0.042259 0.229751
Si Si2 0.525042 0.094693 0.691212
Si Si3 0.685180 0.178571 0.411733
Si Si4 0.162781 0.715591 0.349866
Si Si5 0.188486 0.232926 0.102550
Si Si6 0.854735 0.454813 0.458654
Si Si7 0.240031 0.582321 0.092292
O O1 0.339317 0.073009 0.495041
O O2 0.951023 0.112656 0.202894
O O3 0.212580 0.979345 0.266353
O O4 0.500000 0.000000 0.000000
O O5 0.601505 0.137588 0.554623
O O6 0.332622 0.148851 0.964735
O O7 0.745030 0.229867 0.632015
O O8 0.450030 0.230159 0.252259
O O9 0.360370 0.631573 0.214582
O O10 0.052899 0.732444 0.652548
O O11 0.922004 0.734565 0.143154
O O12 0.500000 0.500000 0.500000
O O13 0.949370 0.410560 0.670695
O O14 0.000000 0.500000 0.500000
O O15 0.926550 0.405805 0.163400
O O16 0.500000 0.500000 0.000000
#
# Coordination Sequence:
#
# PCOD9019565 Si02
#       7
#     2   2   2   2   2   2   2
#     4  11  24  45  73 106 149 191 247 319 370 441
#     4  11  24  44  70 110 141 193 255 299 380 438
#     4  12  25  46  75 103 152 196 251 302 381 447
#     4  12  27  50  74 106 157 193 250 315 371 459
#     4  12  26  49  69 111 145 199 249 298 376 449
#     4  10  21  44  74 111 152 195 245 315 387 464
#     4  10  23  48  75 111 148 194 253 312 392 455
#
# _framework density 25.341688000000001
#
# number of rings (size 3 to 8) (size 9 to 14) (size 15 to 20)
#    0.000    0.857    2.857    3.429    2.000    4.571 
#   15.429    0.000    0.000    0.000    0.000    0.000 
#    0.000    0.000    0.000    0.000    0.000    0.000 
#
# Total GULP energy -78220.090218 kJ/mol
# GULP energy per Si atom -5587.149301 kJ/mol
# Density = 2.528401 g / cm^3
# Si number density = 25.341688 Si / 1000 Ang^3
#
#
#
# Elastic Constant Matrix: (Units=GPa)
#
#
# Indices 1 2 3 4 5 6 
#
# 1 69.5859 20.0320 32.9949 13.5527 5.2979 13.7498
# 2 20.0320 77.2476 38.7096 34.9932 -0.6575 12.4553
# 3 32.9949 38.7096 183.2754 10.2864 5.1198 24.3977
# 4 13.5527 34.9932 10.2864 61.9831 17.0546 7.8380
# 5 5.2979 -0.6575 5.1198 17.0546 29.8045 -2.3305
# 6 13.7498 12.4553 24.3977 7.8380 -2.3305 30.9123
#
#
#
# Elastic Compliance Matrix: (Units=1/GPa)
#
#
# Indices 1 2 3 4 5 6 
#
# 1 0.017326 -0.002491 -0.001762 -0.000611 -0.002903 -0.005376
# 2 -0.002491 0.021708 -0.003539 -0.013577 0.009244 -0.000706
# 3 -0.001762 -0.003539 0.007011 0.002495 -0.002722 -0.004162
# 4 -0.000611 -0.013577 0.002495 0.028976 -0.017583 -0.004899
# 5 -0.002903 0.009244 -0.002722 -0.017583 0.045395 0.007596
# 6 -0.005376 -0.000706 -0.004162 -0.004899 0.007596 0.040125
#
#
# Mechanical properties :
#
#
# Convention : Reuss Voigt Hill
#
# Bulk Modulus (GPa) = 32.82893 57.06467 44.94680
# Shear Modulus (GPa) = 26.84186 40.43147 33.63666
#
# Velocity S-wave (km/s) = 3.25806 3.99865 3.64720
# Velocity P-wave (km/s) = 5.20922 6.62464 5.95910
#
# Compressibility (1/GPa) = 0.03046093
#
# Stress axis : x y z
#
# Youngs Moduli (GPa) = 57.71822 46.06645 142.63539
#
# Poissons Ratio (x) = 0.11476 0.25131
# Poissons Ratio (y) = 0.14378 0.50473
# Poissons Ratio (z) = 0.10170 0.16301
#
# Static dielectric constant tensor:
#      x y z
#    x 2.050660 -0.034030 -0.016130 
#    y -0.034030 2.115720 -0.040610 
#    z -0.016130 -0.040610 2.064020 
# 
# From -- ./inp_files/13726.got.cif
#   From: 2010.05.17/outbox.cif.g08.bks.cpg/sg2_7_cif.got.tgz:13726.got - 2010.06.03 11:33:40.
