data_PCOD9019694
_publ_section_title
;
Structure prediction by ZEFSAII (Michael W. Deem and Ramdas Pophale) SiO2 
 PCOD9019694
Probable space group: P -1
;
_chemical_formula_sum "Si O2"
_cell_formula_units_Z 16
_cell_length_a 9.520552
_cell_length_b 14.356143
_cell_length_c 12.703885
_cell_angle_alpha 31.686842
_cell_angle_beta 86.483499
_cell_angle_gamma 107.510393
_cell_volume 672.971812
_symmetry_space_group_name_H-M "P -1"
_symmetry_group_IT_number 2
_symmetry_cell_setting 'triclinic'
loop_
_space_group_symop_operation_xyz
x,y,z
-x,-y,-z
loop_
_atom_site_type_symbol
_atom_site_label
_atom_site_fract_x
_atom_site_fract_y
_atom_site_fract_z
Si Si1 0.989771 0.080335 0.252889
Si Si2 0.182395 0.571234 0.540919
Si Si3 0.775755 0.014215 0.777455
Si Si4 0.631743 0.411387 0.267824
Si Si5 0.461980 0.890741 0.776604
Si Si6 0.645599 0.574865 0.828878
Si Si7 0.785676 0.124915 0.040534
Si Si8 0.477373 0.274937 0.734006
O O1 0.863282 0.102486 0.166105
O O2 0.076875 0.010571 0.235255
O O3 0.846307 0.849012 0.556736
O O4 0.174263 0.348668 0.026776
O O5 0.290368 0.572853 0.634667
O O6 0.325315 0.665014 0.347717
O O7 0.140246 0.733883 0.423395
O O8 0.975902 0.316767 0.780704
O O9 0.661875 0.968882 0.721007
O O10 0.626793 0.834859 0.045630
O O11 0.474648 0.434519 0.252777
O O12 0.528406 0.142490 0.488507
O O13 0.345808 0.833562 0.943935
O O14 0.344999 0.631132 0.977899
O O15 0.500000 0.500000 0.000000
O O16 0.654152 0.903186 0.183351
O O17 0.500000 0.500000 0.500000
#
# Coordination Sequence:
#
# PCOD9019694 Si02
#       8
#     2   2   2   2   2   2   2   2
#     4  11  23  44  73  96 136 181 226 272 349 406
#     4  10  22  41  63  92 132 180 231 274 329 389
#     4  11  23  40  68  95 132 185 221 277 333 394
#     4  10  21  45  66  97 138 175 217 278 339 397
#     4  11  23  45  73  94 139 183 221 278 349 396
#     4  12  26  45  74 107 133 170 226 283 343 419
#     4  11  23  42  67  94 134 184 223 273 329 399
#     4  12  24  38  60  97 139 177 231 278 320 379
#
# _framework density 23.77514
#
# number of rings (size 3 to 8) (size 9 to 14) (size 15 to 20)
#    0.000    1.000    5.000    2.625    1.750    3.500 
#    0.000    0.625    0.000    0.000    0.000    0.000 
#    0.000    0.000    0.000    0.000    0.000    0.000 
#
# Total GULP energy -89358.519190 kJ/mol
# GULP energy per Si atom -5584.907449 kJ/mol
# Density = 2.372103 g / cm^3
# Si number density = 23.775140 Si / 1000 Ang^3
#
#
#
# Elastic Constant Matrix: (Units=GPa)
#
#
# Indices 1 2 3 4 5 6 
#
# 1 70.0086 8.6857 15.1977 -16.7258 -6.5757 -0.3191
# 2 8.6857 53.2699 34.5723 -12.7957 -0.9161 -11.8434
# 3 15.1977 34.5723 172.1802 -19.7280 -30.9858 2.8400
# 4 -16.7258 -12.7957 -19.7280 40.0043 -2.3739 6.5037
# 5 -6.5757 -0.9161 -30.9858 -2.3739 36.2956 -1.6396
# 6 -0.3191 -11.8434 2.8400 6.5037 -1.6396 22.1045
#
#
#
# Elastic Compliance Matrix: (Units=1/GPa)
#
#
# Indices 1 2 3 4 5 6 
#
# 1 0.016452 -0.001746 0.000418 0.007163 0.003645 -0.002589
# 2 -0.001746 0.026408 -0.005791 0.002378 -0.003811 0.013886
# 3 0.000418 -0.005791 0.008806 0.003893 0.007484 -0.004818
# 4 0.007163 0.002378 0.003893 0.032383 0.006430 -0.008174
# 5 0.003645 -0.003811 0.007484 0.006430 0.034823 -0.002259
# 6 -0.002589 0.013886 -0.004818 -0.008174 -0.002259 0.055498
#
#
# Mechanical properties :
#
#
# Convention : Reuss Voigt Hill
#
# Bulk Modulus (GPa) = 26.71789 45.81890 36.26839
# Shear Modulus (GPa) = 24.86520 35.48111 30.17315
#
# Velocity S-wave (km/s) = 3.23747 3.86730 3.56631
# Velocity P-wave (km/s) = 5.02365 6.26538 5.67856
#
# Compressibility (1/GPa) = 0.03742810
#
# Stress axis : x y z
#
# Youngs Moduli (GPa) = 60.78365 37.86738 113.55774
#
# Poissons Ratio (x) = 0.06611 -0.04744
# Poissons Ratio (y) = 0.10612 0.65759
# Poissons Ratio (z) = -0.02539 0.21928
#
# Static dielectric constant tensor:
#      x y z
#    x 1.877090 0.073140 0.027430 
#    y 0.073140 1.865640 0.053740 
#    z 0.027430 0.053740 1.929610 
# 
# From -- ./inp_files/504964.got.cif
#   From: 2010.05.17/outbox.cif.g08.bks.cpg/sg2_253_cif.got.tgz:504964.got - 2010.06.03 11:33:40.
