data_PCOD9019749
_publ_section_title
;
Structure prediction by ZEFSAII (Michael W. Deem and Ramdas Pophale) SiO2 
 PCOD9019749
Probable space group: P -1
;
_chemical_formula_sum "Si O2"
_cell_formula_units_Z 16
_cell_length_a 12.205254
_cell_length_b 15.242659
_cell_length_c 15.473455
_cell_angle_alpha 139.804931
_cell_angle_beta 152.343195
_cell_angle_gamma 59.521791
_cell_volume 711.333124
_symmetry_space_group_name_H-M "P -1"
_symmetry_group_IT_number 2
_symmetry_cell_setting 'triclinic'
loop_
_space_group_symop_operation_xyz
x,y,z
-x,-y,-z
loop_
_atom_site_type_symbol
_atom_site_label
_atom_site_fract_x
_atom_site_fract_y
_atom_site_fract_z
Si Si1 0.470127 0.321205 0.431265
Si Si2 0.088579 0.463508 0.233335
Si Si3 0.461688 0.144634 0.595399
Si Si4 0.360260 0.809411 0.064235
Si Si5 0.231605 0.259189 0.398903
Si Si6 0.107223 0.765067 0.538613
Si Si7 0.401437 0.003108 0.074097
Si Si8 0.465669 0.551960 0.918598
O O1 0.275035 0.390224 0.328482
O O2 0.783820 0.448292 0.704235
O O3 0.445140 0.299031 0.499825
O O4 0.354099 0.145166 0.173657
O O5 0.146049 0.613232 0.447836
O O6 0.756115 0.317111 0.902574
O O7 0.216086 0.122891 0.346498
O O8 0.500000 0.000000 0.500000
O O9 0.423001 0.144499 0.670748
O O10 0.289946 0.633407 0.855779
O O11 0.076047 0.791593 0.886810
O O12 0.460724 0.934279 0.149239
O O13 0.341354 0.408613 0.654397
O O14 0.328682 0.903466 0.731077
O O15 0.792141 0.690914 0.227750
O O16 0.161119 0.846757 0.732132
O O17 0.500000 0.500000 0.000000
#
# Coordination Sequence:
#
# PCOD9019749 Si02
#       8
#     2   2   2   2   2   2   2   2
#     4  10  23  41  71 102 135 184 225 279 350 409
#     4  10  21  45  68 100 138 175 233 278 341 411
#     4  12  26  43  68 101 139 179 226 287 341 417
#     4  12  26  43  67  99 139 180 235 282 353 403
#     4  12  25  44  70 102 139 181 228 288 343 414
#     4  10  22  46  71  99 140 180 236 282 338 412
#     4  10  24  43  70 103 139 184 226 287 343 409
#     4  12  24  44  70 101 133 182 235 288 340 413
#
# _framework density 22.492977
#
# number of rings (size 3 to 8) (size 9 to 14) (size 15 to 20)
#    0.000    1.000    3.750    1.875    3.500    2.000 
#    2.250    0.000    0.000    0.000    0.000    0.000 
#    0.000    0.000    0.000    0.000    0.000    0.000 
#
# Total GULP energy -89428.774429 kJ/mol
# GULP energy per Si atom -5589.298402 kJ/mol
# Density = 2.244178 g / cm^3
# Si number density = 22.492977 Si / 1000 Ang^3
#
#
#
# Elastic Constant Matrix: (Units=GPa)
#
#
# Indices 1 2 3 4 5 6 
#
# 1 120.2365 40.9034 29.0017 12.5363 -15.4144 12.3470
# 2 40.9034 133.6191 21.8137 8.6455 -10.9373 -6.8664
# 3 29.0017 21.8137 51.6163 11.2614 3.7138 4.3886
# 4 12.5363 8.6455 11.2614 34.8296 -4.4152 -2.2880
# 5 -15.4144 -10.9373 3.7138 -4.4152 36.5412 9.0269
# 6 12.3470 -6.8664 4.3886 -2.2880 9.0269 40.1434
#
#
#
# Elastic Compliance Matrix: (Units=1/GPa)
#
#
# Indices 1 2 3 4 5 6 
#
# 1 0.011824 -0.002432 -0.005288 -0.001525 0.005816 -0.004870
# 2 -0.002432 0.008895 -0.002645 -0.000161 0.001330 0.002250
# 3 -0.005288 -0.002645 0.025372 -0.006472 -0.006243 -0.000565
# 4 -0.001525 -0.000161 -0.006472 0.031955 0.003275 0.002234
# 5 0.005816 0.001330 -0.006243 0.003275 0.033267 -0.008173
# 6 -0.004870 0.002250 -0.000565 0.002234 -0.008173 0.028820
#
#
# Mechanical properties :
#
#
# Convention : Reuss Voigt Hill
#
# Bulk Modulus (GPa) = 39.42800 54.32327 46.87564
# Shear Modulus (GPa) = 29.53059 36.55305 33.04182
#
# Velocity S-wave (km/s) = 3.62730 4.03561 3.83689
# Velocity P-wave (km/s) = 5.92538 6.77632 6.36509
#
# Compressibility (1/GPa) = 0.02536269
#
# Stress axis : x y z
#
# Youngs Moduli (GPa) = 84.57102 112.42159 39.41405
#
# Poissons Ratio (x) = 0.27340 0.20841
# Poissons Ratio (y) = 0.20567 0.10424
# Poissons Ratio (z) = 0.44719 0.29731
#
# Static dielectric constant tensor:
#      x y z
#    x 1.906270 -0.041510 -0.025780 
#    y -0.041510 1.871320 0.034220 
#    z -0.025780 0.034220 1.871430 
# 
# From -- ./inp_files/455777.got.cif
#   From: 2010.05.17/outbox.cif.g08.bks.cpg/sg2_228_cif.got.tgz:455777.got - 2010.06.03 11:33:40.
