data_PCOD9019676
_publ_section_title
;
Structure prediction by ZEFSAII (Michael W. Deem and Ramdas Pophale) SiO2 
 PCOD9019676
Probable space group: P -1
;
_chemical_formula_sum "Si O2"
_cell_formula_units_Z 16
_cell_length_a 17.511854
_cell_length_b 9.433302
_cell_length_c 11.714177
_cell_angle_alpha 110.243297
_cell_angle_beta 30.380344
_cell_angle_gamma 107.127925
_cell_volume 918.180152
_symmetry_space_group_name_H-M "P -1"
_symmetry_group_IT_number 2
_symmetry_cell_setting 'triclinic'
loop_
_space_group_symop_operation_xyz
x,y,z
-x,-y,-z
loop_
_atom_site_type_symbol
_atom_site_label
_atom_site_fract_x
_atom_site_fract_y
_atom_site_fract_z
Si Si1 0.454031 0.674739 0.095051
Si Si2 0.449780 0.285294 0.272870
Si Si3 0.290845 0.607156 0.609557
Si Si4 0.540697 0.832348 0.254029
Si Si5 0.802227 0.732179 0.039829
Si Si6 0.346250 0.569089 0.774099
Si Si7 0.854690 0.246148 0.369867
Si Si8 0.302712 0.064527 0.563095
O O1 0.539183 0.770224 0.109363
O O2 0.277831 0.694016 0.359558
O O3 0.500000 0.500000 0.000000
O O4 0.494399 0.727718 0.931530
O O5 0.347348 0.437841 0.459831
O O6 0.591188 0.310236 0.183413
O O7 0.355726 0.145546 0.402381
O O8 0.431762 0.717105 0.431032
O O9 0.255057 0.620768 0.793658
O O10 0.164033 0.662109 0.699613
O O11 0.702251 0.821125 0.100505
O O12 0.451748 0.990841 0.409806
O O13 0.740967 0.562329 0.084141
O O14 0.768493 0.813234 0.226575
O O15 0.979332 0.737416 0.791235
O O16 0.500000 0.500000 0.500000
O O17 0.809822 0.073270 0.352613
#
# Coordination Sequence:
#
# PCOD9019676 Si02
#       8
#     2   2   2   2   2   2   2   2
#     4  10  18  37  59  78 108 145 190 221 256 329
#     4  11  17  34  64  78 105 139 191 228 257 311
#     4   9  16  35  53  80 106 135 183 221 263 321
#     4  10  20  33  56  81 104 147 187 221 260 325
#     4  12  19  36  56  81 118 139 176 235 276 320
#     4  10  17  30  56  85 102 139 181 227 266 311
#     4  10  24  34  54  84 112 148 176 220 284 324
#     4  10  21  35  56  82 105 146 183 222 275 326
#
# _framework density 17.425775000000002
#
# number of rings (size 3 to 8) (size 9 to 14) (size 15 to 20)
#    0.000    2.000    7.500    0.750    0.000    3.500 
#    0.000    2.500    0.000    1.500    0.000    0.000 
#    0.000    0.000    0.000    0.000    0.000    0.000 
#
# Total GULP energy -89219.750974 kJ/mol
# GULP energy per Si atom -5576.234436 kJ/mol
# Density = 1.738611 g / cm^3
# Si number density = 17.425775 Si / 1000 Ang^3
#
#
#
# Elastic Constant Matrix: (Units=GPa)
#
#
# Indices 1 2 3 4 5 6 
#
# 1 54.3678 2.5248 35.0518 -17.6669 0.2800 -9.0168
# 2 2.5248 57.7087 2.0621 -8.4235 -6.7681 -12.2240
# 3 35.0518 2.0621 53.5653 -9.5474 -5.6071 -0.2189
# 4 -17.6669 -8.4235 -9.5474 16.8312 0.5542 3.1654
# 5 0.2800 -6.7681 -5.6071 0.5542 39.4112 -5.5563
# 6 -9.0168 -12.2240 -0.2189 3.1654 -5.5563 26.1696
#
#
#
# Elastic Compliance Matrix: (Units=1/GPa)
#
#
# Indices 1 2 3 4 5 6 
#
# 1 0.050119 0.007566 -0.026264 0.038584 -0.001126 0.015677
# 2 0.007566 0.022511 -0.002520 0.015301 0.004973 0.012306
# 3 -0.026264 -0.002520 0.034953 -0.007574 0.003672 -0.008238
# 4 0.038584 0.015301 -0.007574 0.101681 0.001015 0.008294
# 5 -0.001126 0.004973 0.003672 0.001015 0.027837 0.007753
# 6 0.015677 0.012306 -0.008238 0.008294 0.007753 0.049936
#
#
# Mechanical properties :
#
#
# Convention : Reuss Voigt Hill
#
# Bulk Modulus (GPa) = 15.34984 27.21327 21.28156
# Shear Modulus (GPa) = 14.23739 24.88262 19.56000
#
# Velocity S-wave (km/s) = 2.86148 3.78288 3.35397
# Velocity P-wave (km/s) = 4.44356 5.89329 5.21901
#
# Compressibility (1/GPa) = 0.06514724
#
# Stress axis : x y z
#
# Youngs Moduli (GPa) = 19.95260 44.42332 28.60967
#
# Poissons Ratio (x) = -0.33613 0.75141
# Poissons Ratio (y) = -0.15097 0.07209
# Poissons Ratio (z) = 0.52404 0.11194
#
# Static dielectric constant tensor:
#      x y z
#    x 1.634800 -0.012110 -0.006260 
#    y -0.012110 1.604360 0.016250 
#    z -0.006260 0.016250 1.582510 
# 
# From -- ./inp_files/189302.got.cif
#   From: 2010.05.17/outbox.cif.g08.bks.cpg/sg2_95_cif.got.tgz:189302.got - 2010.06.03 11:33:40.
