data_PCOD9019224
_publ_section_title
;
Structure prediction by ZEFSAII (Michael W. Deem and Ramdas Pophale) SiO2 
 PCOD9019224
Probable space group: P -1
;
_chemical_formula_sum "Si O2"
_cell_formula_units_Z 14
_cell_length_a 9.480773
_cell_length_b 10.657901
_cell_length_c 9.721828
_cell_angle_alpha 80.310174
_cell_angle_beta 136.086230
_cell_angle_gamma 113.029831
_cell_volume 617.033952
_symmetry_space_group_name_H-M "P -1"
_symmetry_group_IT_number 2
_symmetry_cell_setting 'triclinic'
loop_
_space_group_symop_operation_xyz
x,y,z
-x,-y,-z
loop_
_atom_site_type_symbol
_atom_site_label
_atom_site_fract_x
_atom_site_fract_y
_atom_site_fract_z
Si Si1 0.584383 0.162834 0.537503
Si Si2 0.489455 0.323034 0.206044
Si Si3 0.294452 0.727931 0.910272
Si Si4 0.890781 0.583378 0.498019
Si Si5 0.359184 0.173533 0.653997
Si Si6 0.068207 0.223882 0.760456
Si Si7 0.115893 0.949272 0.746288
O O1 0.457573 0.218095 0.327577
O O2 0.525719 0.190610 0.643721
O O3 0.840761 0.218013 0.665348
O O4 0.500000 0.000000 0.500000
O O5 0.609636 0.272686 0.176043
O O6 0.639909 0.473060 0.346284
O O7 0.269091 0.318530 0.979640
O O8 0.264825 0.867401 0.911987
O O9 0.041872 0.619013 0.734293
O O10 0.482890 0.719549 0.143129
O O11 0.914970 0.712431 0.392283
O O12 0.000000 0.500000 0.500000
O O13 0.132523 0.167138 0.425922
O O14 0.242273 0.027056 0.681538
O O15 0.089199 0.074518 0.789730
#
# Coordination Sequence:
#
# PCOD9019224 Si02
#       7
#     2   2   2   2   2   2   2
#     4  12  25  42  61 102 144 170 213 274 331 397
#     4  11  25  43  70  97 133 179 224 271 324 390
#     4  11  22  39  68  98 125 174 223 272 322 382
#     4  10  21  44  69  97 126 171 238 274 307 396
#     4  11  23  38  63  94 136 170 211 272 327 383
#     4  12  23  42  71 100 129 178 221 271 333 388
#     4  11  23  39  66  99 133 169 225 266 324 399
#
# _framework density 22.689188000000001
#
# number of rings (size 3 to 8) (size 9 to 14) (size 15 to 20)
#    0.000    0.857    5.714    3.429    2.000    1.714 
#    0.000    0.714    0.000    4.286    0.000    0.000 
#    0.000    0.000    0.000    0.000    0.000    0.000 
#
# Total GULP energy -78043.845612 kJ/mol
# GULP energy per Si atom -5574.560401 kJ/mol
# Density = 2.263755 g / cm^3
# Si number density = 22.689188 Si / 1000 Ang^3
#
#
#
# Elastic Constant Matrix: (Units=GPa)
#
#
# Indices 1 2 3 4 5 6 
#
# 1 78.6905 8.2672 28.1710 0.8303 -5.0778 4.6028
# 2 8.2672 56.3209 28.6895 9.6676 4.9139 2.1371
# 3 28.1710 28.6895 126.3576 37.9106 14.3159 14.1025
# 4 0.8303 9.6676 37.9106 36.8490 2.2705 10.3632
# 5 -5.0778 4.9139 14.3159 2.2705 44.1341 -1.4656
# 6 4.6028 2.1371 14.1025 10.3632 -1.4656 29.3110
#
#
#
# Elastic Compliance Matrix: (Units=1/GPa)
#
#
# Indices 1 2 3 4 5 6 
#
# 1 0.014742 -0.000797 -0.004791 0.005067 0.003025 -0.001592
# 2 -0.000797 0.020190 -0.003995 -0.001399 -0.000938 0.001023
# 3 -0.004791 -0.003995 0.014434 -0.013013 -0.004169 -0.001509
# 4 0.005067 -0.001399 -0.013013 0.043340 0.002410 -0.009635
# 5 0.003025 -0.000938 -0.004169 0.002410 0.024404 0.001967
# 6 -0.001592 0.001023 -0.001509 -0.009635 0.001967 0.038523
#
#
# Mechanical properties :
#
#
# Convention : Reuss Voigt Hill
#
# Bulk Modulus (GPa) = 33.11122 43.51382 38.31252
# Shear Modulus (GPa) = 27.04662 35.14156 31.09409
#
# Velocity S-wave (km/s) = 3.45635 3.93978 3.70596
# Velocity P-wave (km/s) = 5.52753 6.31789 5.93588
#
# Compressibility (1/GPa) = 0.03020125
#
# Stress axis : x y z
#
# Youngs Moduli (GPa) = 67.83427 49.52842 69.28023
#
# Poissons Ratio (x) = 0.03946 0.33193
# Poissons Ratio (y) = 0.05404 0.27675
# Poissons Ratio (z) = 0.32500 0.19785
#
# Static dielectric constant tensor:
#      x y z
#    x 1.827600 -0.035860 0.136000 
#    y -0.035860 1.944190 0.036730 
#    z 0.136000 0.036730 1.737400 
# 
# From -- ./inp_files/178454.got.cif
#   From: 2010.05.17/outbox.cif.g08.bks.cpg/sg2_90_cif.got.tgz:178454.got - 2010.06.03 11:33:40.
