data_PCOD9019131
_publ_section_title
;
Structure prediction by ZEFSAII (Michael W. Deem and Ramdas Pophale) SiO2 
 PCOD9019131
Probable space group: P -1
;
_chemical_formula_sum "Si O2"
_cell_formula_units_Z 16
_cell_length_a 8.442204
_cell_length_b 8.387939
_cell_length_c 17.233560
_cell_angle_alpha 102.121764
_cell_angle_beta 130.739976
_cell_angle_gamma 50.532286
_cell_volume 668.597635
_symmetry_space_group_name_H-M "P -1"
_symmetry_group_IT_number 2
_symmetry_cell_setting 'triclinic'
loop_
_space_group_symop_operation_xyz
x,y,z
-x,-y,-z
loop_
_atom_site_type_symbol
_atom_site_label
_atom_site_fract_x
_atom_site_fract_y
_atom_site_fract_z
Si Si1 0.899408 0.922601 0.023580
Si Si2 0.416568 0.976724 0.555760
Si Si3 0.190277 0.361378 0.622044
Si Si4 0.291049 0.742962 0.882474
Si Si5 0.249883 0.527477 0.386460
Si Si6 0.181779 0.743656 0.677699
Si Si7 0.211563 0.567578 0.210798
Si Si8 0.070205 0.620786 0.925514
O O1 0.136055 0.741363 0.141143
O O2 0.684822 0.119747 0.034520
O O3 0.842793 0.802565 0.935283
O O4 0.000000 0.000000 0.000000
O O5 0.423696 0.117355 0.636144
O O6 0.091336 0.091917 0.447659
O O7 0.500000 0.000000 0.500000
O O8 0.620999 0.720083 0.613381
O O9 0.239618 0.517850 0.685075
O O10 0.000000 0.500000 0.500000
O O11 0.009249 0.358880 0.626811
O O12 0.157188 0.833406 0.764405
O O13 0.107341 0.706389 0.867755
O O14 0.617051 0.521207 0.952042
O O15 0.500000 0.500000 0.500000
O O16 0.169506 0.650480 0.292601
O O17 0.465086 0.656922 0.718709
O O18 0.004400 0.524942 0.128720
#
# Coordination Sequence:
#
# PCOD9019131 Si02
#       8
#     2   2   2   2   2   2   2   2
#     4  10  23  45  70  98 133 185 230 283 351 424
#     4  11  24  45  74  95 139 192 236 283 338 422
#     4  10  21  44  68  97 133 185 235 281 342 413
#     4  10  22  42  73  99 132 184 231 278 354 429
#     4  12  26  45  69 106 145 180 232 302 346 403
#     4  11  23  41  72 101 135 187 239 279 350 419
#     4  12  26  44  70 103 146 182 228 300 354 401
#     4  10  22  46  67  98 144 172 226 299 348 407
#
# _framework density 23.930686000000001
#
# number of rings (size 3 to 8) (size 9 to 14) (size 15 to 20)
#    0.000    1.250    3.750    2.625    1.750    2.500 
#    2.250    0.000    0.000    0.000    0.000    0.000 
#    0.000    0.000    0.000    0.000    0.000    0.000 
#
# Total GULP energy -89410.452644 kJ/mol
# GULP energy per Si atom -5588.153290 kJ/mol
# Density = 2.387622 g / cm^3
# Si number density = 23.930686 Si / 1000 Ang^3
#
#
#
# Elastic Constant Matrix: (Units=GPa)
#
#
# Indices 1 2 3 4 5 6 
#
# 1 101.0000 22.3742 47.3507 3.4538 -19.8936 -22.5685
# 2 22.3742 104.2661 14.0565 19.9896 -9.0247 -16.9937
# 3 47.3507 14.0565 77.5802 14.0812 -17.4809 5.2238
# 4 3.4538 19.9896 14.0812 37.1401 -7.6484 -6.6143
# 5 -19.8936 -9.0247 -17.4809 -7.6484 44.6550 5.2267
# 6 -22.5685 -16.9937 5.2238 -6.6143 5.2267 24.3693
#
#
#
# Elastic Compliance Matrix: (Units=1/GPa)
#
#
# Indices 1 2 3 4 5 6 
#
# 1 0.025821 0.000187 -0.019296 0.010727 0.002241 0.030610
# 2 0.000187 0.011906 -0.002000 -0.004276 0.000070 0.007729
# 3 -0.019296 -0.002000 0.030403 -0.013183 0.004185 -0.030258
# 4 0.010727 -0.004276 -0.013183 0.037252 0.002879 0.019272
# 5 0.002241 0.000070 0.004185 0.002879 0.025954 -0.003558
# 6 0.030610 0.007729 -0.030258 0.019272 -0.003558 0.087253
#
#
# Mechanical properties :
#
#
# Convention : Reuss Voigt Hill
#
# Bulk Modulus (GPa) = 38.59423 50.04546 44.31985
# Shear Modulus (GPa) = 18.55675 34.50388 26.53032
#
# Velocity S-wave (km/s) = 2.78769 3.80126 3.33322
# Velocity P-wave (km/s) = 5.15016 6.34225 5.77704
#
# Compressibility (1/GPa) = 0.02591061
#
# Stress axis : x y z
#
# Youngs Moduli (GPa) = 38.72884 83.99222 32.89177
#
# Poissons Ratio (x) = -0.01571 0.63469
# Poissons Ratio (y) = -0.00724 0.06578
# Poissons Ratio (z) = 0.74733 0.16798
#
# Static dielectric constant tensor:
#      x y z
#    x 1.913310 0.003430 0.033540 
#    y 0.003430 2.008580 0.022540 
#    z 0.033540 0.022540 1.888040 
# 
# From -- ./inp_files/557392.got.cif
#   From: 2010.05.17/outbox.cif.g08.bks.cpg/sg2_279_cif.got.tgz:557392.got - 2010.06.03 11:33:40.
