data_PCOD9019254
_publ_section_title
;
Structure prediction by ZEFSAII (Michael W. Deem and Ramdas Pophale) SiO2 
 PCOD9019254
Probable space group: P -1
;
_chemical_formula_sum "Si O2"
_cell_formula_units_Z 12
_cell_length_a 7.146472
_cell_length_b 5.219558
_cell_length_c 20.340815
_cell_angle_alpha 121.306427
_cell_angle_beta 107.998533
_cell_angle_gamma 44.356969
_cell_volume 450.731925
_symmetry_space_group_name_H-M "P -1"
_symmetry_group_IT_number 2
_symmetry_cell_setting 'triclinic'
loop_
_space_group_symop_operation_xyz
x,y,z
-x,-y,-z
loop_
_atom_site_type_symbol
_atom_site_label
_atom_site_fract_x
_atom_site_fract_y
_atom_site_fract_z
Si Si1 0.749661 0.534696 0.480688
Si Si2 0.693663 0.318562 0.158074
Si Si3 0.053923 0.367032 0.278361
Si Si4 0.463936 0.850866 0.621748
Si Si5 0.248708 0.953666 0.008884
Si Si6 0.342121 0.233787 0.177372
O O1 0.682552 0.513853 0.545823
O O2 0.693359 0.298683 0.399513
O O3 0.000000 0.500000 0.500000
O O4 0.500000 0.000000 0.500000
O O5 0.734265 0.031844 0.065825
O O6 0.523275 0.331448 0.196948
O O7 0.963557 0.169584 0.200196
O O8 0.530529 0.767057 0.165824
O O9 0.332603 0.150579 0.315874
O O10 0.103679 0.538316 0.244001
O O11 0.809919 0.667043 0.343319
O O12 0.500000 0.500000 0.000000
O O13 0.231998 0.244097 0.096080
O O14 0.000000 0.000000 0.000000
#
# Coordination Sequence:
#
# PCOD9019254 Si02
#       6
#     2   2   2   2   2   2
#     4  11  24  47  76 104 136 183 230 287 347 430
#     4  11  25  47  71 105 146 197 249 305 364 427
#     4  12  24  46  66 106 146 192 232 300 364 438
#     4  11  26  46  70 107 140 180 236 285 358 434
#     4  10  21  44  70 101 139 193 254 308 354 423
#     4  11  25  47  71 105 146 197 249 305 364 427
#
# _framework density 26.623363999999999
#
# number of rings (size 3 to 8) (size 9 to 14) (size 15 to 20)
#    0.000    1.000    3.333    2.500    0.000    8.000 
#    6.000    3.333    0.000    0.000    0.000    0.000 
#    0.000    0.000    0.000    0.000    0.000    0.000 
#
# Total GULP energy -66893.863367 kJ/mol
# GULP energy per Si atom -5574.488614 kJ/mol
# Density = 2.656277 g / cm^3
# Si number density = 26.623364 Si / 1000 Ang^3
#
#
#
# Elastic Constant Matrix: (Units=GPa)
#
#
# Indices 1 2 3 4 5 6 
#
# 1 233.8364 48.7040 48.2367 -17.9964 17.4938 -42.4791
# 2 48.7040 90.7425 14.9384 -8.2043 26.1044 -25.8615
# 3 48.2367 14.9384 67.4073 4.2333 22.5723 -19.4294
# 4 -17.9964 -8.2043 4.2333 28.1361 -17.9206 11.2987
# 5 17.4938 26.1044 22.5723 -17.9206 54.9469 -7.3146
# 6 -42.4791 -25.8615 -19.4294 11.2987 -7.3146 59.1238
#
#
#
# Elastic Compliance Matrix: (Units=1/GPa)
#
#
# Indices 1 2 3 4 5 6 
#
# 1 0.006253 -0.002699 -0.005097 0.005754 0.003390 0.000957
# 2 -0.002699 0.015750 0.003736 -0.006127 -0.009332 0.006194
# 3 -0.005097 0.003736 0.027056 -0.020410 -0.016767 0.008689
# 4 0.005754 -0.006127 -0.020410 0.064337 0.028581 -0.014012
# 5 0.003390 -0.009332 -0.016767 0.028581 0.036687 -0.008079
# 6 0.000957 0.006194 0.008689 -0.014012 -0.008079 0.024844
#
#
# Mechanical properties :
#
#
# Convention : Reuss Voigt Hill
#
# Bulk Modulus (GPa) = 24.42722 68.41604 46.42163
# Shear Modulus (GPa) = 25.42017 47.11515 36.26766
#
# Velocity S-wave (km/s) = 3.09335 4.21133 3.69487
# Velocity P-wave (km/s) = 4.68545 7.02856 5.97303
#
# Compressibility (1/GPa) = 0.04093794
#
# Stress axis : x y z
#
# Youngs Moduli (GPa) = 159.91574 63.49319 36.96077
#
# Poissons Ratio (x) = 0.17139 0.18840
# Poissons Ratio (y) = 0.43167 -0.13810
# Poissons Ratio (z) = 0.81514 -0.23723
#
# Static dielectric constant tensor:
#      x y z
#    x 1.977030 -0.034030 -0.057630 
#    y -0.034030 2.127370 0.018310 
#    z -0.057630 0.018310 2.236010 
# 
# From -- ./inp_files/9205.got.cif
#   From: 2010.05.17/outbox.cif.g08.bks.cpg/sg2_5_cif.got.tgz:9205.got - 2010.06.03 11:33:40.
