data_PCOD9019338
_publ_section_title
;
Structure prediction by ZEFSAII (Michael W. Deem and Ramdas Pophale) SiO2 
 PCOD9019338
Probable space group: P -1
;
_chemical_formula_sum "Si O2"
_cell_formula_units_Z 16
_cell_length_a 11.202340
_cell_length_b 13.182524
_cell_length_c 11.863879
_cell_angle_alpha 112.263215
_cell_angle_beta 34.222328
_cell_angle_gamma 89.404096
_cell_volume 714.118476
_symmetry_space_group_name_H-M "P -1"
_symmetry_group_IT_number 2
_symmetry_cell_setting 'triclinic'
loop_
_space_group_symop_operation_xyz
x,y,z
-x,-y,-z
loop_
_atom_site_type_symbol
_atom_site_label
_atom_site_fract_x
_atom_site_fract_y
_atom_site_fract_z
Si Si1 0.972166 0.497043 0.386852
Si Si2 0.322265 0.351435 0.849027
Si Si3 0.739562 0.807402 0.654981
Si Si4 0.952150 0.276249 0.042656
Si Si5 0.417626 0.568903 0.794218
Si Si6 0.915266 0.122589 0.203469
Si Si7 0.923716 0.869723 0.337883
Si Si8 0.128320 0.035370 0.243841
O O1 0.872755 0.646523 0.481026
O O2 0.725025 0.494292 0.552745
O O3 0.000000 0.500000 0.500000
O O4 0.239192 0.379019 0.057800
O O5 0.096125 0.347106 0.966886
O O6 0.329044 0.474833 0.854389
O O7 0.612203 0.210446 0.527267
O O8 0.720616 0.868228 0.572734
O O9 0.912893 0.837606 0.606281
O O10 0.434217 0.900497 0.978369
O O11 0.110847 0.147840 0.774383
O O12 0.662173 0.379473 0.250980
O O13 0.935788 0.224138 0.153304
O O14 0.215579 0.720043 0.076464
O O15 0.100207 0.063807 0.144664
O O16 0.000000 0.000000 0.000000
O O17 0.936308 0.994193 0.403864
#
# Coordination Sequence:
#
# PCOD9019338 Si02
#       8
#     2   2   2   2   2   2   2   2
#     4  12  27  47  72 106 145 185 241 300 354 414
#     4  12  27  44  72 108 141 191 233 294 359 424
#     4  11  24  45  75  98 136 190 241 289 351 421
#     4  10  24  44  74 105 142 187 231 291 356 426
#     4  10  23  45  70 103 143 183 234 290 355 418
#     4  12  27  47  71 104 150 185 232 296 353 424
#     4  10  21  44  71 100 137 182 237 287 344 422
#     4  11  25  46  68 103 139 190 237 291 349 415
#
# _framework density 22.405246000000002
#
# number of rings (size 3 to 8) (size 9 to 14) (size 15 to 20)
#    0.750    0.250    3.750    1.500    5.250    6.000 
#    2.250    0.000    0.000    0.000    0.000    0.000 
#    0.000    0.000    0.000    0.000    0.000    0.000 
#
# Total GULP energy -89363.829231 kJ/mol
# GULP energy per Si atom -5585.239327 kJ/mol
# Density = 2.235425 g / cm^3
# Si number density = 22.405246 Si / 1000 Ang^3
#
#
#
# Elastic Constant Matrix: (Units=GPa)
#
#
# Indices 1 2 3 4 5 6 
#
# 1 87.2547 60.1153 19.3520 8.0061 3.7936 11.9319
# 2 60.1153 56.3306 42.1107 -34.6573 -11.1647 -3.8450
# 3 19.3520 42.1107 82.8809 4.1543 9.6134 11.9529
# 4 8.0061 -34.6573 4.1543 22.2995 4.2156 -1.5701
# 5 3.7936 -11.1647 9.6134 4.2156 26.9142 -1.7062
# 6 11.9319 -3.8450 11.9529 -1.5701 -1.7062 28.5110
#
#
#
# Elastic Compliance Matrix: (Units=1/GPa)
#
#
# Indices 1 2 3 4 5 6 
#
# 1 0.005091 0.009009 -0.007304 0.013037 0.003782 0.003091
# 2 0.009009 -0.010230 0.005993 -0.019922 -0.005108 -0.009065
# 3 -0.007304 0.005993 0.010427 0.010336 -0.001831 -0.000047
# 4 0.013037 -0.019922 0.010336 0.009406 -0.016086 -0.012921
# 5 0.003782 -0.005108 -0.001831 -0.016086 0.037668 -0.000136
# 6 0.003091 -0.009065 -0.000047 -0.012921 -0.000136 0.031858
#
#
# Mechanical properties :
#
#
# Convention : Reuss Voigt Hill
#
# Bulk Modulus (GPa) = 48.34864 52.18025 50.26444
# Shear Modulus (GPa) = 66.03324 22.53748 44.28536
#
# Velocity S-wave (km/s) = 5.43472 3.17504 4.45068
# Velocity P-wave (km/s) = 7.81074 6.06473 6.99245
#
# Compressibility (1/GPa) = 0.02068311
#
# Stress axis : x y z
#
# Youngs Moduli (GPa) = 196.43927 -97.75217 95.90344
#
# Poissons Ratio (x) = 0.88062 0.70045
# Poissons Ratio (y) = -1.76966 -0.57472
# Poissons Ratio (z) = 1.43473 0.58579
#
# Static dielectric constant tensor:
#      x y z
#    x 1.814340 0.001480 0.024720 
#    y 0.001480 1.816130 0.009920 
#    z 0.024720 0.009920 1.888420 
# 
# From -- ./inp_files/431561.got.cif
#   From: 2010.05.17/outbox.cif.g08.bks.cpg/sg2_216_cif.got.tgz:431561.got - 2010.06.03 11:33:40.
