data_PCOD9019945
_publ_section_title
;
Structure prediction by ZEFSAII (Michael W. Deem and Ramdas Pophale) SiO2 
 PCOD9019945
Probable space group: P -1
;
_chemical_formula_sum "Si O2"
_cell_formula_units_Z 14
_cell_length_a 11.765580
_cell_length_b 11.305150
_cell_length_c 13.981622
_cell_angle_alpha 19.624425
_cell_angle_beta 123.445197
_cell_angle_gamma 123.605970
_cell_volume 517.237712
_symmetry_space_group_name_H-M "P -1"
_symmetry_group_IT_number 2
_symmetry_cell_setting 'triclinic'
loop_
_space_group_symop_operation_xyz
x,y,z
-x,-y,-z
loop_
_atom_site_type_symbol
_atom_site_label
_atom_site_fract_x
_atom_site_fract_y
_atom_site_fract_z
Si Si1 0.643069 0.033600 0.335197
Si Si2 0.835338 0.264903 0.026683
Si Si3 0.885755 0.488142 0.596685
Si Si4 0.122245 0.433128 0.971413
Si Si5 0.524670 0.379762 0.271528
Si Si6 0.649693 0.445789 0.651097
Si Si7 0.164624 0.618222 0.569993
O O1 0.550351 0.723662 0.584494
O O2 0.693931 0.839376 0.414041
O O3 0.777237 0.259739 0.269978
O O4 0.547576 0.325717 0.039500
O O5 0.839882 0.483284 0.961494
O O6 0.692158 0.224202 0.931922
O O7 0.960776 0.473691 0.861410
O O8 0.890216 0.886328 0.335237
O O9 0.748787 0.309837 0.720599
O O10 0.860304 0.473629 0.482976
O O11 0.042575 0.403408 0.739756
O O12 0.158590 0.042359 0.258487
O O13 0.685630 0.481872 0.266388
O O14 0.500000 0.000000 0.500000
O O15 0.500000 0.500000 0.500000
#
# Coordination Sequence:
#
# PCOD9019945 Si02
#       7
#     2   2   2   2   2   2   2
#     4  12  26  46  72 109 146 193 247 306 370 434
#     4  10  23  45  71 105 143 191 245 304 371 437
#     4  10  23  47  69 102 139 195 246 300 372 437
#     4  10  21  45  73 106 143 188 246 307 367 440
#     4  12  26  45  71 107 150 194 239 303 377 441
#     4  12  27  44  72 106 144 190 250 306 372 442
#     4  10  23  45  71 100 147 188 247 300 368 446
#
# _framework density 27.066859000000001
#
# number of rings (size 3 to 8) (size 9 to 14) (size 15 to 20)
#    0.000    1.143    2.857    2.143    2.000    2.286 
#    2.571    3.571    0.000    0.000    0.000    0.000 
#    0.000    0.000    0.000    0.000    0.000    0.000 
#
# Total GULP energy -78284.148366 kJ/mol
# GULP energy per Si atom -5591.724883 kJ/mol
# Density = 2.700525 g / cm^3
# Si number density = 27.066859 Si / 1000 Ang^3
#
#
#
# Elastic Constant Matrix: (Units=GPa)
#
#
# Indices 1 2 3 4 5 6 
#
# 1 182.1405 57.2902 20.1754 4.3925 12.9694 -1.6127
# 2 57.2902 87.0661 14.3440 4.4638 11.6058 6.0177
# 3 20.1754 14.3440 84.8125 0.8069 11.8856 -0.3507
# 4 4.3925 4.4638 0.8069 44.8669 -2.9103 12.6085
# 5 12.9694 11.6058 11.8856 -2.9103 25.5768 3.7176
# 6 -1.6127 6.0177 -0.3507 12.6085 3.7176 62.3535
#
#
#
# Elastic Compliance Matrix: (Units=1/GPa)
#
#
# Indices 1 2 3 4 5 6 
#
# 1 0.007067 -0.004364 -0.000732 -0.000563 -0.001444 0.000800
# 2 -0.004364 0.015202 -0.000939 -0.001024 -0.004202 -0.001128
# 3 -0.000732 -0.000939 0.012880 -0.000575 -0.005337 0.000579
# 4 -0.000563 -0.001024 -0.000575 0.024174 0.004506 -0.005076
# 5 -0.001444 -0.004202 -0.005337 0.004506 0.045205 -0.003268
# 6 0.000800 -0.001128 0.000579 -0.005076 -0.003268 0.017392
#
#
# Mechanical properties :
#
#
# Convention : Reuss Voigt Hill
#
# Bulk Modulus (GPa) = 43.32954 59.73761 51.53358
# Shear Modulus (GPa) = 35.29012 44.04005 39.66508
#
# Velocity S-wave (km/s) = 3.61475 4.03809 3.83227
# Velocity P-wave (km/s) = 5.78489 6.62268 6.21791
#
# Compressibility (1/GPa) = 0.02307894
#
# Stress axis : x y z
#
# Youngs Moduli (GPa) = 141.49489 65.78017 77.64234
#
# Poissons Ratio (x) = 0.28705 0.05685
# Poissons Ratio (y) = 0.61745 0.07292
# Poissons Ratio (z) = 0.10360 0.06178
#
# Static dielectric constant tensor:
#      x y z
#    x 2.767460 -0.125040 -0.425990 
#    y -0.125040 2.182540 0.102370 
#    z -0.425990 0.102370 2.278620 
# 
# From -- ./inp_files/468135.got.cif
#   From: 2010.05.17/outbox.cif.g08.bks.cpg/sg2_235_cif.got.tgz:468135.got - 2010.06.03 11:33:40.
