data_PCOD9019119
_publ_section_title
;
Structure prediction by ZEFSAII (Michael W. Deem and Ramdas Pophale) SiO2 
 PCOD9019119
Probable space group: P -1
;
_chemical_formula_sum "Si O2"
_cell_formula_units_Z 14
_cell_length_a 7.249126
_cell_length_b 6.987214
_cell_length_c 15.289012
_cell_angle_alpha 120.609279
_cell_angle_beta 72.268313
_cell_angle_gamma 123.207919
_cell_volume 557.298391
_symmetry_space_group_name_H-M "P -1"
_symmetry_group_IT_number 2
_symmetry_cell_setting 'triclinic'
loop_
_space_group_symop_operation_xyz
x,y,z
-x,-y,-z
loop_
_atom_site_type_symbol
_atom_site_label
_atom_site_fract_x
_atom_site_fract_y
_atom_site_fract_z
Si Si1 0.757963 0.403094 0.189363
Si Si2 0.234484 0.890169 0.505305
Si Si3 0.906650 0.615765 0.648993
Si Si4 0.446775 0.139887 0.941628
Si Si5 0.574021 0.550042 0.401447
Si Si6 0.867604 0.878626 0.163360
Si Si7 0.842501 0.617988 0.942147
O O1 0.672519 0.399020 0.298210
O O2 0.788596 0.654985 0.194152
O O3 0.989827 0.401910 0.151743
O O4 0.599705 0.143025 0.100069
O O5 0.128087 0.668825 0.396302
O O6 0.099239 0.748421 0.578595
O O7 0.500000 0.000000 0.500000
O O8 0.237887 0.156085 0.558240
O O9 0.659364 0.532999 0.632123
O O10 0.973114 0.848029 0.758537
O O11 0.340949 0.119669 0.853837
O O12 0.696349 0.346186 0.942800
O O13 0.322053 0.276034 0.040173
O O14 0.500000 0.500000 0.500000
O O15 0.967740 0.801365 0.048038
#
# Coordination Sequence:
#
# PCOD9019119 Si02
#       7
#     2   2   2   2   2   2   2
#     4  12  23  43  72 100 136 182 233 274 343 407
#     4   9  20  42  69  88 128 173 226 278 335 401
#     4  10  21  44  68  96 132 173 232 280 343 402
#     4   9  23  44  67 100 143 176 220 278 342 409
#     4  11  26  45  63  99 139 178 233 281 339 408
#     4  10  22  44  68 104 135 172 227 282 335 417
#     4   9  22  48  66 101 144 172 227 279 337 417
#
# _framework density 25.121193000000002
#
# number of rings (size 3 to 8) (size 9 to 14) (size 15 to 20)
#    0.857    1.143    1.429    0.857    2.000    4.571 
#    7.714    1.429    0.000    0.000    0.000    0.000 
#    0.000    0.000    0.000    0.000    0.000    0.000 
#
# Total GULP energy -78137.122403 kJ/mol
# GULP energy per Si atom -5581.223029 kJ/mol
# Density = 2.506402 g / cm^3
# Si number density = 25.121193 Si / 1000 Ang^3
#
#
#
# Elastic Constant Matrix: (Units=GPa)
#
#
# Indices 1 2 3 4 5 6 
#
# 1 75.4384 19.1964 42.5374 5.3057 -15.5758 11.2572
# 2 19.1964 155.0867 47.6924 28.2034 -16.4527 19.1310
# 3 42.5374 47.6924 143.0738 16.0234 -31.2773 18.9919
# 4 5.3057 28.2034 16.0234 60.0107 12.4570 0.4519
# 5 -15.5758 -16.4527 -31.2773 12.4570 38.1997 -1.5834
# 6 11.2572 19.1310 18.9919 0.4519 -1.5834 40.6835
#
#
#
# Elastic Compliance Matrix: (Units=1/GPa)
#
#
# Indices 1 2 3 4 5 6 
#
# 1 0.016615 0.000086 -0.003488 -0.001452 0.004312 -0.002826
# 2 0.000086 0.008419 -0.000956 -0.004562 0.004229 -0.003321
# 3 -0.003488 -0.000956 0.011056 -0.003903 0.008351 -0.003378
# 4 -0.001452 -0.004562 -0.003903 0.022647 -0.012988 0.003612
# 5 0.004312 0.004229 0.008351 -0.012988 0.040609 -0.005356
# 6 -0.002826 -0.003321 -0.003378 0.003612 -0.005356 0.028252
#
#
# Mechanical properties :
#
#
# Convention : Reuss Voigt Hill
#
# Bulk Modulus (GPa) = 36.53007 65.82792 51.17899
# Shear Modulus (GPa) = 34.37859 45.39027 39.88443
#
# Velocity S-wave (km/s) = 3.70335 4.25532 3.98889
# Velocity P-wave (km/s) = 5.73232 7.09963 6.45229
#
# Compressibility (1/GPa) = 0.02737471
#
# Stress axis : x y z
#
# Youngs Moduli (GPa) = 60.18704 118.77544 90.44617
#
# Poissons Ratio (x) = -0.01023 0.31549
# Poissons Ratio (y) = -0.00519 0.08645
# Poissons Ratio (z) = 0.20994 0.11353
#
# Static dielectric constant tensor:
#      x y z
#    x 2.207070 -0.114020 0.019570 
#    y -0.114020 2.008840 -0.009140 
#    z 0.019570 -0.009140 2.026340 
# 
# From -- ./inp_files/556668.got.cif
#   From: 2010.05.17/outbox.cif.g08.bks.cpg/sg2_279_cif.got.tgz:556668.got - 2010.06.03 11:33:40.
