data_PCOD9019635
_publ_section_title
;
Structure prediction by ZEFSAII (Michael W. Deem and Ramdas Pophale) SiO2 
 PCOD9019635
Probable space group: P -1
;
_chemical_formula_sum "Si O2"
_cell_formula_units_Z 16
_cell_length_a 13.828325
_cell_length_b 12.384748
_cell_length_c 8.290314
_cell_angle_alpha 113.948720
_cell_angle_beta 118.628944
_cell_angle_gamma 31.672989
_cell_volume 654.347189
_symmetry_space_group_name_H-M "P -1"
_symmetry_group_IT_number 2
_symmetry_cell_setting 'triclinic'
loop_
_space_group_symop_operation_xyz
x,y,z
-x,-y,-z
loop_
_atom_site_type_symbol
_atom_site_label
_atom_site_fract_x
_atom_site_fract_y
_atom_site_fract_z
Si Si1 0.813848 0.485207 0.927955
Si Si2 0.836405 0.777144 0.725798
Si Si3 0.457744 0.353175 0.953238
Si Si4 0.032048 0.215112 0.657957
Si Si5 0.293302 0.167938 0.010566
Si Si6 0.699361 0.634463 0.474052
Si Si7 0.312139 0.897852 0.444470
Si Si8 0.771419 0.203841 0.951363
O O1 0.914428 0.299765 0.782096
O O2 0.604062 0.640143 0.919202
O O3 0.799805 0.622040 0.908265
O O4 0.951041 0.390590 0.134010
O O5 0.781994 0.694492 0.568826
O O6 0.791589 0.914120 0.640267
O O7 0.711114 0.895622 0.861907
O O8 0.396136 0.318987 0.741856
O O9 0.674488 0.206080 0.011803
O O10 0.317904 0.589801 0.966440
O O11 0.870183 0.396870 0.513104
O O12 0.164349 0.210529 0.807295
O O13 0.182097 0.997449 0.559429
O O14 0.500000 0.000000 0.000000
O O15 0.526738 0.762327 0.542388
O O16 0.312831 0.776711 0.269793
O O17 0.000000 0.000000 0.000000
#
# Coordination Sequence:
#
# PCOD9019635 Si02
#       8
#     2   2   2   2   2   2   2   2
#     4  11  22  41  59  91 131 171 204 245 311 374
#     4  11  21  39  57  95 130 171 202 243 305 373
#     4  10  24  39  69  91 118 162 206 264 310 363
#     4  11  22  40  58  90 133 170 199 254 305 368
#     4  11  23  37  59  87 137 173 208 244 301 375
#     4  11  21  39  60  94 129 158 208 254 307 367
#     4  11  25  37  66  94 124 163 213 259 306 366
#     4  10  21  45  64  91 118 154 214 264 311 360
#
# _framework density 24.451851999999999
#
# number of rings (size 3 to 8) (size 9 to 14) (size 15 to 20)
#    0.000    1.250    2.500    4.125    5.250    1.000 
#    0.000    0.625    0.000   12.000    0.000    0.000 
#    0.000    0.000    0.000    0.000    0.000    0.000 
#
# Total GULP energy -89514.334300 kJ/mol
# GULP energy per Si atom -5594.645894 kJ/mol
# Density = 2.439620 g / cm^3
# Si number density = 24.451852 Si / 1000 Ang^3
#
#
#
# Elastic Constant Matrix: (Units=GPa)
#
#
# Indices 1 2 3 4 5 6 
#
# 1 84.6987 29.1517 21.9499 2.3777 -8.9527 -30.6416
# 2 29.1517 105.2886 20.8264 -3.1742 -4.1293 -38.0779
# 3 21.9499 20.8264 70.8418 6.3565 -0.2928 -3.0983
# 4 2.3777 -3.1742 6.3565 40.6957 -9.2022 -5.7456
# 5 -8.9527 -4.1293 -0.2928 -9.2022 24.2036 15.5275
# 6 -30.6416 -38.0779 -3.0983 -5.7456 15.5275 51.2728
#
#
#
# Elastic Compliance Matrix: (Units=1/GPa)
#
#
# Indices 1 2 3 4 5 6 
#
# 1 0.016539 -0.000148 -0.004771 0.001198 0.000395 0.009500
# 2 -0.000148 0.014619 -0.003961 0.002474 -0.004469 0.012160
# 3 -0.004771 -0.003961 0.016845 -0.003443 -0.000292 -0.005072
# 4 0.001198 0.002474 -0.003443 0.027800 0.009793 0.002495
# 5 0.000395 -0.004469 -0.000292 0.009793 0.056725 -0.019182
# 6 0.009500 0.012160 -0.005072 0.002495 -0.019182 0.039994
#
#
# Mechanical properties :
#
#
# Convention : Reuss Voigt Hill
#
# Bulk Modulus (GPa) = 33.06564 44.96499 39.01532
# Shear Modulus (GPa) = 24.95479 35.82785 30.39132
#
# Velocity S-wave (km/s) = 3.19810 3.83200 3.52931
# Velocity P-wave (km/s) = 5.21433 6.16507 5.70952
#
# Compressibility (1/GPa) = 0.03024288
#
# Stress axis : x y z
#
# Youngs Moduli (GPa) = 60.46267 68.40428 59.36624
#
# Poissons Ratio (x) = 0.01012 0.28326
# Poissons Ratio (y) = 0.00895 0.23512
# Poissons Ratio (z) = 0.28849 0.27092
#
# Static dielectric constant tensor:
#      x y z
#    x 1.993200 -0.019250 -0.046520 
#    y -0.019250 1.977020 0.035200 
#    z -0.046520 0.035200 1.968240 
# 
# From -- ./inp_files/315988.got.cif
#   From: 2010.05.17/outbox.cif.g08.bks.cpg/sg2_158_cif.got.tgz:315988.got - 2010.06.03 11:33:40.
