data_PCOD9019871
_publ_section_title
;
Structure prediction by ZEFSAII (Michael W. Deem and Ramdas Pophale) SiO2 
 PCOD9019871
Probable space group: P -1
;
_chemical_formula_sum "Si O2"
_cell_formula_units_Z 16
_cell_length_a 22.214383
_cell_length_b 8.958695
_cell_length_c 7.196723
_cell_angle_alpha 114.577753
_cell_angle_beta 138.689199
_cell_angle_gamma 53.019358
_cell_volume 753.531682
_symmetry_space_group_name_H-M "P -1"
_symmetry_group_IT_number 2
_symmetry_cell_setting 'triclinic'
loop_
_space_group_symop_operation_xyz
x,y,z
-x,-y,-z
loop_
_atom_site_type_symbol
_atom_site_label
_atom_site_fract_x
_atom_site_fract_y
_atom_site_fract_z
Si Si1 0.272425 0.773012 0.282282
Si Si2 0.314535 0.573580 0.909107
Si Si3 0.561068 0.836979 0.205238
Si Si4 0.586183 0.284758 0.068011
Si Si5 0.112808 0.559620 0.317089
Si Si6 0.233176 0.160441 0.224944
Si Si7 0.936946 0.203258 0.042343
Si Si8 0.040875 0.322575 0.637305
O O1 0.347232 0.766108 0.616401
O O2 0.234091 0.973063 0.198953
O O3 0.326693 0.608695 0.170966
O O4 0.176866 0.755207 0.137216
O O5 0.384510 0.362601 0.883543
O O6 0.343116 0.714161 0.935816
O O7 0.196762 0.618722 0.617596
O O8 0.651444 0.863445 0.527561
O O9 0.477231 0.829068 0.146155
O O10 0.500000 0.000000 0.000000
O O11 0.500000 0.500000 0.000000
O O12 0.173618 0.334910 0.319462
O O13 0.019888 0.625186 0.281195
O O14 0.076117 0.650656 0.075580
O O15 0.163162 0.228079 0.912484
O O16 0.003174 0.198753 0.371863
O O17 0.000000 0.000000 0.000000
O O18 0.000000 0.500000 0.500000
#
# Coordination Sequence:
#
# PCOD9019871 Si02
#       8
#     2   2   2   2   2   2   2   2
#     4  12  24  44  69 105 135 179 233 286 338 415
#     4  10  23  42  72  99 135 178 231 277 346 411
#     4  10  21  45  70  98 135 182 225 289 344 400
#     4  10  22  42  72  93 135 178 226 284 350 393
#     4  11  23  47  66 100 138 184 226 284 342 416
#     4  11  25  42  70  97 143 180 232 280 344 411
#     4  12  27  43  72 101 140 183 228 283 345 408
#     4  12  26  44  70 101 138 184 230 279 346 413
#
# _framework density 21.233347999999999
#
# number of rings (size 3 to 8) (size 9 to 14) (size 15 to 20)
#    0.000    1.000    5.000    1.125    3.500    3.000 
#    0.000    1.875    0.000    0.000    0.000    0.000 
#    0.000    0.000    0.000    0.000    0.000    0.000 
#
# Total GULP energy -89425.845042 kJ/mol
# GULP energy per Si atom -5589.115315 kJ/mol
# Density = 2.118502 g / cm^3
# Si number density = 21.233348 Si / 1000 Ang^3
#
#
#
# Elastic Constant Matrix: (Units=GPa)
#
#
# Indices 1 2 3 4 5 6 
#
# 1 120.5804 21.8189 54.3737 6.6598 13.9229 26.5140
# 2 21.8189 63.3585 16.2901 -7.7289 -1.0813 15.9302
# 3 54.3737 16.2901 134.3137 -10.6738 24.1251 8.7971
# 4 6.6598 -7.7289 -10.6738 35.9973 3.1857 -4.8392
# 5 13.9229 -1.0813 24.1251 3.1857 36.2542 4.4581
# 6 26.5140 15.9302 8.7971 -4.8392 4.4581 28.0181
#
#
#
# Elastic Compliance Matrix: (Units=1/GPa)
#
#
# Indices 1 2 3 4 5 6 
#
# 1 0.013711 -0.001174 -0.005120 -0.005889 0.000066 -0.011727
# 2 -0.001174 0.019315 -0.001611 0.002346 0.003054 -0.009446
# 3 -0.005120 -0.001611 0.010973 0.004978 -0.006336 0.004183
# 4 -0.005889 0.002346 0.004978 0.032508 -0.004954 0.009079
# 5 0.000066 0.003054 -0.006336 -0.004954 0.033028 -0.005921
# 6 -0.011727 -0.009446 0.004183 0.009079 -0.005921 0.053356
#
#
# Mechanical properties :
#
#
# Convention : Reuss Voigt Hill
#
# Bulk Modulus (GPa) = 35.47436 55.91310 45.69373
# Shear Modulus (GPa) = 26.58213 35.10526 30.84370
#
# Velocity S-wave (km/s) = 3.54207 4.07050 3.81544
# Velocity P-wave (km/s) = 5.78545 6.96289 6.40130
#
# Compressibility (1/GPa) = 0.02818938
#
# Stress axis : x y z
#
# Youngs Moduli (GPa) = 72.93605 51.77337 91.13418
#
# Poissons Ratio (x) = 0.06077 0.46659
# Poissons Ratio (y) = 0.08562 0.14680
# Poissons Ratio (z) = 0.37342 0.08340
#
# Static dielectric constant tensor:
#      x y z
#    x 1.990450 0.372480 0.333800 
#    y 0.372480 2.320000 0.531370 
#    z 0.333800 0.531370 2.209200 
# 
# From -- ./inp_files/117209.got.cif
#   From: 2010.05.17/outbox.cif.g08.bks.cpg/sg2_59_cif.got.tgz:117209.got - 2010.06.03 11:33:40.
