data_PCOD9019957
_publ_section_title
;
Structure prediction by ZEFSAII (Michael W. Deem and Ramdas Pophale) SiO2 
 PCOD9019957
Probable space group: P -1
;
_chemical_formula_sum "Si O2"
_cell_formula_units_Z 16
_cell_length_a 9.217670
_cell_length_b 5.417369
_cell_length_c 19.781279
_cell_angle_alpha 62.111366
_cell_angle_beta 54.028668
_cell_angle_gamma 80.594340
_cell_volume 697.971564
_symmetry_space_group_name_H-M "P -1"
_symmetry_group_IT_number 2
_symmetry_cell_setting 'triclinic'
loop_
_space_group_symop_operation_xyz
x,y,z
-x,-y,-z
loop_
_atom_site_type_symbol
_atom_site_label
_atom_site_fract_x
_atom_site_fract_y
_atom_site_fract_z
Si Si1 0.849717 0.178896 0.795980
Si Si2 0.809653 0.985299 0.202891
Si Si3 0.706049 0.624600 0.941384
Si Si4 0.456918 0.277879 0.885666
Si Si5 0.593390 0.401214 0.275309
Si Si6 0.780447 0.780217 0.521737
Si Si7 0.162521 0.826213 0.969404
Si Si8 0.063785 0.595826 0.576769
O O1 0.659309 0.270528 0.858617
O O2 0.004059 0.114600 0.813064
O O3 0.943765 0.392803 0.688037
O O4 0.774286 0.855605 0.837007
O O5 0.691407 0.695388 0.244174
O O6 0.714254 0.150486 0.265386
O O7 0.840547 0.216761 0.104391
O O8 0.500000 0.500000 0.000000
O O9 0.678483 0.723077 0.014046
O O10 0.850631 0.418730 0.940791
O O11 0.464105 0.517478 0.795684
O O12 0.362674 0.998176 0.908092
O O13 0.416113 0.293013 0.381608
O O14 0.805068 0.590680 0.473702
O O15 0.926068 0.692175 0.546932
O O16 0.833172 0.117712 0.454356
O O17 0.000000 0.000000 0.000000
#
# Coordination Sequence:
#
# PCOD9019957 Si02
#       8
#     2   2   2   2   2   2   2   2
#     4  12  26  45  66 106 143 182 233 304 345 422
#     4  11  27  43  70 104 146 184 236 285 360 414
#     4  12  26  42  70 102 138 188 237 289 347 415
#     4  11  24  45  66  99 139 182 239 282 350 413
#     4  11  23  48  73 104 135 191 234 292 345 431
#     4  10  21  45  74 100 138 181 238 290 351 422
#     4  11  25  45  66  98 141 192 235 283 342 426
#     4  10  23  42  70 109 133 183 234 293 353 413
#
# _framework density 22.923572
#
# number of rings (size 3 to 8) (size 9 to 14) (size 15 to 20)
#    0.000    1.000    3.750    1.875    5.250    3.000 
#    2.250    3.750    0.000    0.000    0.000    0.000 
#    0.000    0.000    0.000    0.000    0.000    0.000 
#
# Total GULP energy -89309.041323 kJ/mol
# GULP energy per Si atom -5581.815083 kJ/mol
# Density = 2.287140 g / cm^3
# Si number density = 22.923572 Si / 1000 Ang^3
#
#
#
# Elastic Constant Matrix: (Units=GPa)
#
#
# Indices 1 2 3 4 5 6 
#
# 1 81.2723 41.9715 10.8254 -7.9397 -21.4195 -14.3056
# 2 41.9715 130.1819 55.9331 -1.6745 -10.4277 -20.7564
# 3 10.8254 55.9331 125.0605 -15.3618 -14.7445 -16.7971
# 4 -7.9397 -1.6745 -15.3618 45.7876 -10.1436 -6.3624
# 5 -21.4195 -10.4277 -14.7445 -10.1436 29.0906 0.0187
# 6 -14.3056 -20.7564 -16.7971 -6.3624 0.0187 34.8831
#
#
#
# Elastic Compliance Matrix: (Units=1/GPa)
#
#
# Indices 1 2 3 4 5 6 
#
# 1 0.024607 -0.007003 0.007004 0.013253 0.023772 0.011702
# 2 -0.007003 0.012094 -0.005723 -0.003675 -0.005004 0.000901
# 3 0.007004 -0.005723 0.013788 0.009710 0.013475 0.007870
# 4 0.013253 -0.003675 0.009710 0.034899 0.025522 0.014275
# 5 0.023772 -0.005004 0.013475 0.025522 0.065803 0.017880
# 6 0.011702 0.000901 0.007870 0.014275 0.017880 0.040386
#
#
# Mechanical properties :
#
#
# Convention : Reuss Voigt Hill
#
# Bulk Modulus (GPa) = 25.61071 61.55274 43.58173
# Shear Modulus (GPa) = 23.14438 37.13792 30.14115
#
# Velocity S-wave (km/s) = 3.18092 4.02938 3.63003
# Velocity P-wave (km/s) = 4.96865 6.96832 6.05165
#
# Compressibility (1/GPa) = 0.03904616
#
# Stress axis : x y z
#
# Youngs Moduli (GPa) = 40.63809 82.68736 72.52725
#
# Poissons Ratio (x) = 0.57902 -0.50800
# Poissons Ratio (y) = 0.28457 0.41509
# Poissons Ratio (z) = -0.28464 0.47324
#
# Static dielectric constant tensor:
#      x y z
#    x 1.857180 0.043390 0.008980 
#    y 0.043390 2.021590 -0.036010 
#    z 0.008980 -0.036010 1.828280 
# 
# From -- ./inp_files/574854.got.cif
#   From: 2010.05.17/outbox.cif.g08.bks.cpg/sg2_288_cif.got.tgz:574854.got - 2010.06.03 11:33:40.
