data_PCOD9019077
_publ_section_title
;
Structure prediction by ZEFSAII (Michael W. Deem and Ramdas Pophale) SiO2 
 PCOD9019077
Probable space group: P -1
;
_chemical_formula_sum "Si O2"
_cell_formula_units_Z 16
_cell_length_a 11.480012
_cell_length_b 8.473480
_cell_length_c 17.343872
_cell_angle_alpha 50.979808
_cell_angle_beta 139.566376
_cell_angle_gamma 100.679552
_cell_volume 690.536279
_symmetry_space_group_name_H-M "P -1"
_symmetry_group_IT_number 2
_symmetry_cell_setting 'triclinic'
loop_
_space_group_symop_operation_xyz
x,y,z
-x,-y,-z
loop_
_atom_site_type_symbol
_atom_site_label
_atom_site_fract_x
_atom_site_fract_y
_atom_site_fract_z
Si Si1 0.672093 0.732131 0.828689
Si Si2 0.975107 0.886152 0.445015
Si Si3 0.914749 0.579014 0.279041
Si Si4 0.650792 0.720531 0.514274
Si Si5 0.947524 0.225876 0.034376
Si Si6 0.395160 0.623150 0.293216
Si Si7 0.131910 0.826661 0.380933
Si Si8 0.475859 0.274462 0.072125
O O1 0.757439 0.487800 0.897066
O O2 0.601880 0.708324 0.885092
O O3 0.468537 0.993242 0.609551
O O4 0.884916 0.738615 0.936487
O O5 0.069675 0.931486 0.403261
O O6 0.094932 0.595162 0.610255
O O7 0.716305 0.019441 0.261918
O O8 0.000000 0.000000 0.500000
O O9 0.969445 0.751166 0.296444
O O10 0.122773 0.399025 0.381678
O O11 0.696606 0.711220 0.077480
O O12 0.475605 0.731806 0.363336
O O13 0.678688 0.535135 0.651849
O O14 0.809802 0.171081 0.925265
O O15 0.087965 0.024752 0.233377
O O16 0.619662 0.420041 0.423703
O O17 0.500000 0.500000 0.000000
#
# Coordination Sequence:
#
# PCOD9019077 Si02
#       8
#     2   2   2   2   2   2   2   2
#     4  11  24  43  66 101 139 176 233 275 340 408
#     4  12  26  45  69  99 137 184 232 285 337 407
#     4  11  25  44  72 101 138 180 227 291 337 410
#     4  10  21  44  68 104 135 178 227 270 346 412
#     4  11  25  43  67 103 138 180 221 290 341 410
#     4  10  23  42  70  98 142 179 214 283 343 407
#     4  11  26  45  68 105 139 177 233 282 351 407
#     4  12  25  44  70 101 135 183 230 278 340 407
#
# _framework density 23.170399
#
# number of rings (size 3 to 8) (size 9 to 14) (size 15 to 20)
#    0.000    1.000    3.750    1.875    3.500    2.500 
#    0.000    0.000    0.000    0.000    0.000    0.000 
#    0.000    0.000    0.000    0.000    0.000    0.000 
#
# Total GULP energy -89629.790740 kJ/mol
# GULP energy per Si atom -5601.861921 kJ/mol
# Density = 2.311766 g / cm^3
# Si number density = 23.170399 Si / 1000 Ang^3
#
#
#
# Elastic Constant Matrix: (Units=GPa)
#
#
# Indices 1 2 3 4 5 6 
#
# 1 112.9461 7.0058 7.7208 6.8899 -15.9119 -2.7410
# 2 7.0058 53.2751 6.6195 4.4991 6.2166 4.5755
# 3 7.7208 6.6195 58.4021 15.1447 5.0126 -0.0853
# 4 6.8899 4.4991 15.1447 34.3991 2.9039 6.3634
# 5 -15.9119 6.2166 5.0126 2.9039 19.4536 -7.5195
# 6 -2.7410 4.5755 -0.0853 6.3634 -7.5195 32.2438
#
#
#
# Elastic Compliance Matrix: (Units=1/GPa)
#
#
# Indices 1 2 3 4 5 6 
#
# 1 0.011289 -0.002983 -0.001411 -0.003282 0.012995 0.005058
# 2 -0.002983 0.021095 -0.001142 0.000391 -0.011245 -0.005949
# 3 -0.001411 -0.001142 0.019918 -0.008080 -0.004465 0.000648
# 4 -0.003282 0.000391 -0.008080 0.035865 -0.009842 -0.009729
# 5 0.012995 -0.011245 -0.004465 -0.009842 0.076976 0.022582
# 6 0.005058 -0.005949 0.000648 -0.009729 0.022582 0.039476
#
#
# Mechanical properties :
#
#
# Convention : Reuss Voigt Hill
#
# Bulk Modulus (GPa) = 24.25368 29.70172 26.97770
# Shear Modulus (GPa) = 21.79284 30.77111 26.28197
#
# Velocity S-wave (km/s) = 3.07016 3.64818 3.37158
# Velocity P-wave (km/s) = 4.80188 5.53102 5.17930
#
# Compressibility (1/GPa) = 0.04123086
#
# Stress axis : x y z
#
# Youngs Moduli (GPa) = 88.58149 47.40533 50.20549
#
# Poissons Ratio (x) = 0.14140 0.07085
# Poissons Ratio (y) = 0.26422 0.05731
# Poissons Ratio (z) = 0.12500 0.05412
#
# Static dielectric constant tensor:
#      x y z
#    x 1.845890 0.001870 -0.023580 
#    y 0.001870 1.912560 -0.020690 
#    z -0.023580 -0.020690 1.846540 
# 
# From -- ./inp_files/81401.got.cif
#   From: 2010.05.17/outbox.cif.g08.bks.cpg/sg2_41_cif.got.tgz:81401.got - 2010.06.03 11:33:40.
