data_PCOD9019978
_publ_section_title
;
Structure prediction by ZEFSAII (Michael W. Deem and Ramdas Pophale) SiO2 
 PCOD9019978
Probable space group: P -1
;
_chemical_formula_sum "Si O2"
_cell_formula_units_Z 16
_cell_length_a 16.913703
_cell_length_b 6.973164
_cell_length_c 13.917947
_cell_angle_alpha 121.285768
_cell_angle_beta 150.250339
_cell_angle_gamma 59.912675
_cell_volume 691.147876
_symmetry_space_group_name_H-M "P -1"
_symmetry_group_IT_number 2
_symmetry_cell_setting 'triclinic'
loop_
_space_group_symop_operation_xyz
x,y,z
-x,-y,-z
loop_
_atom_site_type_symbol
_atom_site_label
_atom_site_fract_x
_atom_site_fract_y
_atom_site_fract_z
Si Si1 0.417405 0.841564 0.739904
Si Si2 0.080409 0.245437 0.037221
Si Si3 0.430795 0.672800 0.387925
Si Si4 0.913388 0.026345 0.312998
Si Si5 0.864705 0.951067 0.617310
Si Si6 0.691364 0.814106 0.562531
Si Si7 0.746709 0.683442 0.942285
Si Si8 0.433366 0.725695 0.936132
O O1 0.259369 0.857105 0.514060
O O2 0.574447 0.771112 0.825745
O O3 0.414647 0.696776 0.795111
O O4 0.439381 0.094061 0.866039
O O5 0.962932 0.070269 0.832549
O O6 0.157239 0.221440 0.215678
O O7 0.226786 0.212491 0.106652
O O8 0.000000 0.500000 0.000000
O O9 0.500000 0.500000 0.500000
O O10 0.557568 0.679060 0.435996
O O11 0.267365 0.581080 0.153839
O O12 0.387033 0.924309 0.446443
O O13 0.739525 0.168162 0.178839
O O14 0.000000 0.000000 0.500000
O O15 0.016947 0.131391 0.366656
O O16 0.878978 0.778666 0.173198
O O17 0.759751 0.782526 0.518497
O O18 0.500000 0.500000 0.000000
#
# Coordination Sequence:
#
# PCOD9019978 Si02
#       8
#     2   2   2   2   2   2   2   2
#     4  10  22  41  68  97 135 170 228 285 338 405
#     4  11  24  44  65  97 145 185 224 280 350 409
#     4  11  22  43  70  99 140 177 237 286 341 408
#     4  10  21  45  74  98 140 183 226 289 358 414
#     4  11  23  41  70 100 137 180 230 283 345 415
#     4  11  25  41  69 102 139 185 230 288 340 415
#     4  10  22  40  71  99 130 189 227 280 347 407
#     4  10  22  45  69  95 131 179 226 284 344 405
#
# _framework density 23.149895000000001
#
# number of rings (size 3 to 8) (size 9 to 14) (size 15 to 20)
#    0.000    1.500    2.500    1.875    3.500    1.000 
#    6.750    1.875    0.000    0.000    0.000    0.000 
#    0.000    0.000    0.000    0.000    0.000    0.000 
#
# Total GULP energy -89474.375724 kJ/mol
# GULP energy per Si atom -5592.148483 kJ/mol
# Density = 2.309720 g / cm^3
# Si number density = 23.149895 Si / 1000 Ang^3
#
#
#
# Elastic Constant Matrix: (Units=GPa)
#
#
# Indices 1 2 3 4 5 6 
#
# 1 169.9707 33.0572 38.6885 -5.1470 10.3385 35.3323
# 2 33.0572 100.1198 33.6270 -7.4733 -3.0791 28.1587
# 3 38.6885 33.6270 93.6669 -0.7248 -1.1720 24.2621
# 4 -5.1470 -7.4733 -0.7248 37.1254 3.2037 -0.0142
# 5 10.3385 -3.0791 -1.1720 3.2037 39.4045 -1.1150
# 6 35.3323 28.1587 24.2621 -0.0142 -1.1150 34.3223
#
#
#
# Elastic Compliance Matrix: (Units=1/GPa)
#
#
# Indices 1 2 3 4 5 6 
#
# 1 0.007888 -0.000116 -0.001393 0.001249 -0.002423 -0.007118
# 2 -0.000116 0.013690 -0.002407 0.002642 0.000548 -0.009392
# 3 -0.001393 -0.002407 0.013749 -0.000450 0.000445 -0.006295
# 4 0.001249 0.002642 -0.000450 0.027846 -0.002489 -0.003205
# 5 -0.002423 0.000548 0.000445 -0.002489 0.026345 0.002585
# 6 -0.007118 -0.009392 -0.006295 -0.003205 0.002585 0.048702
#
#
# Mechanical properties :
#
#
# Convention : Reuss Voigt Hill
#
# Bulk Modulus (GPa) = 36.37038 63.83366 50.10202
# Shear Modulus (GPa) = 32.21309 39.39608 35.80459
#
# Velocity S-wave (km/s) = 3.73433 4.12974 3.93700
# Velocity P-wave (km/s) = 5.85991 7.09744 6.50815
#
# Compressibility (1/GPa) = 0.02749490
#
# Stress axis : x y z
#
# Youngs Moduli (GPa) = 126.77547 73.04433 72.73517
#
# Poissons Ratio (x) = 0.00845 0.10135
# Poissons Ratio (y) = 0.01466 0.17507
# Poissons Ratio (z) = 0.17664 0.17582
#
# Static dielectric constant tensor:
#      x y z
#    x 1.915390 -0.030010 -0.004740 
#    y -0.030010 1.867020 0.071040 
#    z -0.004740 0.071040 1.904700 
# 
# From -- ./inp_files/536424.got.cif
#   From: 2010.05.17/outbox.cif.g08.bks.cpg/sg2_269_cif.got.tgz:536424.got - 2010.06.03 11:33:40.
