data_PCOD9019828
_publ_section_title
;
Structure prediction by ZEFSAII (Michael W. Deem and Ramdas Pophale) SiO2 
 PCOD9019828
Probable space group: P -1
;
_chemical_formula_sum "Si O2"
_cell_formula_units_Z 14
_cell_length_a 13.939845
_cell_length_b 17.063765
_cell_length_c 5.043576
_cell_angle_alpha 123.034886
_cell_angle_beta 110.889250
_cell_angle_gamma 31.612855
_cell_volume 511.115966
_symmetry_space_group_name_H-M "P -1"
_symmetry_group_IT_number 2
_symmetry_cell_setting 'triclinic'
loop_
_space_group_symop_operation_xyz
x,y,z
-x,-y,-z
loop_
_atom_site_type_symbol
_atom_site_label
_atom_site_fract_x
_atom_site_fract_y
_atom_site_fract_z
Si Si1 0.838316 0.865111 0.881236
Si Si2 0.843683 0.735849 0.143306
Si Si3 0.253081 0.350130 0.757893
Si Si4 0.510127 0.222684 0.379085
Si Si5 0.126034 0.774406 0.326726
Si Si6 0.595296 0.569015 0.717392
Si Si7 0.775090 0.140297 0.829432
O O1 0.897789 0.769086 0.490939
O O2 0.777439 0.839243 0.005974
O O3 0.005018 0.797479 0.058579
O O4 0.651916 0.069423 0.022019
O O5 0.714376 0.762663 0.228995
O O6 0.029722 0.537339 0.866457
O O7 0.359475 0.266416 0.429424
O O8 0.331985 0.386104 0.021760
O O9 0.405434 0.400685 0.534370
O O10 0.664678 0.137667 0.584464
O O11 0.274370 0.605246 0.337127
O O12 0.208093 0.789186 0.235892
O O13 0.983396 0.937627 0.688474
O O14 0.375527 0.716262 0.832771
#
# Coordination Sequence:
#
# PCOD9019828 Si02
#       7
#     2   2   2   2   2   2   2
#     4  11  26  46  71 105 140 189 237 293 350 426
#     4  11  26  45  71 103 140 187 241 288 358 414
#     4  10  25  43  67 100 142 180 237 290 352 423
#     4  10  25  43  68 102 144 178 239 292 356 418
#     4  10  21  45  69  97 142 185 235 288 362 413
#     4  11  22  41  67 102 137 184 229 297 347 423
#     4   9  22  44  65 102 139 180 240 288 351 432
#
# _framework density 27.391041000000001
#
# number of rings (size 3 to 8) (size 9 to 14) (size 15 to 20)
#    0.000    1.714    1.429    0.429   10.000    2.857 
#    2.571    2.143    0.000    2.571    0.000    0.000 
#    0.000    0.000    0.000    0.000    0.000    0.000 
#
# Total GULP energy -78394.208246 kJ/mol
# GULP energy per Si atom -5599.586303 kJ/mol
# Density = 2.732870 g / cm^3
# Si number density = 27.391041 Si / 1000 Ang^3
#
#
#
# Elastic Constant Matrix: (Units=GPa)
#
#
# Indices 1 2 3 4 5 6 
#
# 1 180.9492 79.0729 27.9883 19.7331 -14.8043 9.9692
# 2 79.0729 160.9249 23.1895 25.9528 -21.6296 35.0006
# 3 27.9883 23.1895 104.0888 -11.2120 -4.9879 -0.2018
# 4 19.7331 25.9528 -11.2120 26.6135 -3.4728 -0.6699
# 5 -14.8043 -21.6296 -4.9879 -3.4728 43.0347 -2.6520
# 6 9.9692 35.0006 -0.2018 -0.6699 -2.6520 46.6310
#
#
#
# Elastic Compliance Matrix: (Units=1/GPa)
#
#
# Indices 1 2 3 4 5 6 
#
# 1 0.007442 -0.002930 -0.001667 -0.003261 0.000668 0.000592
# 2 -0.002930 0.012050 -0.002892 -0.010572 0.003343 -0.008392
# 3 -0.001667 -0.002892 0.011694 0.009080 0.000229 0.002721
# 4 -0.003261 -0.010572 0.009080 0.054310 -0.000419 0.009428
# 5 0.000668 0.003343 0.000229 -0.000419 0.025064 -0.001232
# 6 0.000592 -0.008392 0.002721 0.009428 -0.001232 0.027695
#
#
# Mechanical properties :
#
#
# Convention : Reuss Voigt Hill
#
# Bulk Modulus (GPa) = 61.68942 78.49604 70.09273
# Shear Modulus (GPa) = 31.51910 44.30331 37.91121
#
# Velocity S-wave (km/s) = 3.39589 4.02610 3.72435
# Velocity P-wave (km/s) = 6.16009 7.09454 6.64376
#
# Compressibility (1/GPa) = 0.01621023
#
# Stress axis : x y z
#
# Youngs Moduli (GPa) = 134.37089 82.98850 85.51493
#
# Poissons Ratio (x) = 0.24313 0.14251
# Poissons Ratio (y) = 0.39366 0.24727
# Poissons Ratio (z) = 0.22394 0.23997
#
# Static dielectric constant tensor:
#      x y z
#    x 2.148370 0.069440 -0.045230 
#    y 0.069440 2.210160 -0.068600 
#    z -0.045230 -0.068600 2.280920 
# 
# From -- ./inp_files/99994.got.cif
#   From: 2010.05.17/outbox.cif.g08.bks.cpg/sg2_50_cif.got.tgz:99994.got - 2010.06.03 11:33:40.
