data_PCOD9019507
_publ_section_title
;
Structure prediction by ZEFSAII (Michael W. Deem and Ramdas Pophale) SiO2 
 PCOD9019507
Probable space group: P -1
;
_chemical_formula_sum "Si O2"
_cell_formula_units_Z 16
_cell_length_a 8.822102
_cell_length_b 9.281789
_cell_length_c 14.356067
_cell_angle_alpha 79.041458
_cell_angle_beta 73.595135
_cell_angle_gamma 129.275142
_cell_volume 757.638134
_symmetry_space_group_name_H-M "P -1"
_symmetry_group_IT_number 2
_symmetry_cell_setting 'triclinic'
loop_
_space_group_symop_operation_xyz
x,y,z
-x,-y,-z
loop_
_atom_site_type_symbol
_atom_site_label
_atom_site_fract_x
_atom_site_fract_y
_atom_site_fract_z
Si Si1 0.053723 0.158466 0.550994
Si Si2 0.362393 0.948464 0.621904
Si Si3 0.647756 0.651529 0.868658
Si Si4 0.848383 0.527653 0.742102
Si Si5 0.559814 0.361090 0.643122
Si Si6 0.281336 0.861702 0.124266
Si Si7 0.066820 0.115495 0.776275
Si Si8 0.422236 0.093246 0.261409
O O1 0.284033 0.403842 0.455847
O O2 0.087579 0.142476 0.656403
O O3 0.000000 0.000000 0.500000
O O4 0.809735 0.076834 0.614545
O O5 0.386061 0.840448 0.711492
O O6 0.095226 0.770555 0.662886
O O7 0.500000 0.000000 0.500000
O O8 0.465641 0.170733 0.614967
O O9 0.681181 0.536464 0.811273
O O10 0.566457 0.735733 0.808543
O O11 0.894892 0.862359 0.845082
O O12 0.500000 0.500000 0.000000
O O13 0.742661 0.414167 0.675417
O O14 0.842781 0.378849 0.823150
O O15 0.328119 0.267734 0.743480
O O16 0.080067 0.850711 0.156183
O O17 0.395834 0.974650 0.190263
O O18 0.500000 0.000000 0.000000
#
# Coordination Sequence:
#
# PCOD9019507 Si02
#       8
#     2   2   2   2   2   2   2   2
#     4  10  22  39  70  98 137 184 228 283 355 419
#     4  12  28  42  69 104 146 191 233 287 357 424
#     4  10  21  44  73 101 133 178 234 298 353 419
#     4  12  24  43  69  98 141 180 237 294 350 417
#     4  12  24  44  67 101 144 182 238 287 347 432
#     4  10  22  44  70  98 134 179 231 299 357 407
#     4  10  23  42  64 101 140 175 231 285 353 424
#     4  10  23  44  65 102 145 177 238 288 350 424
#
# _framework density 21.118262000000001
#
# number of rings (size 3 to 8) (size 9 to 14) (size 15 to 20)
#    0.000    1.500    2.500    4.125    5.250    3.000 
#    0.000    7.500    0.000    0.000    0.000    0.000 
#    0.000    0.000    0.000    0.000    0.000    0.000 
#
# Total GULP energy -89187.149045 kJ/mol
# GULP energy per Si atom -5574.196815 kJ/mol
# Density = 2.107020 g / cm^3
# Si number density = 21.118262 Si / 1000 Ang^3
#
#
#
# Elastic Constant Matrix: (Units=GPa)
#
#
# Indices 1 2 3 4 5 6 
#
# 1 65.7403 40.3101 28.7738 12.0578 -16.8744 5.9186
# 2 40.3101 136.2548 56.8582 -3.3581 -23.5432 -11.5520
# 3 28.7738 56.8582 130.3035 -5.7859 -32.8667 -5.4391
# 4 12.0578 -3.3581 -5.7859 31.2058 1.5989 -5.8287
# 5 -16.8744 -23.5432 -32.8667 1.5989 18.1649 -4.7329
# 6 5.9186 -11.5520 -5.4391 -5.8287 -4.7329 39.0596
#
#
#
# Elastic Compliance Matrix: (Units=1/GPa)
#
#
# Indices 1 2 3 4 5 6 
#
# 1 0.025477 -0.005500 0.000197 -0.012235 0.016598 -0.005274
# 2 -0.005500 0.011581 -0.001180 0.003767 0.008929 0.005738
# 3 0.000197 -0.001180 0.015544 0.002274 0.028016 0.005520
# 4 -0.012235 0.003767 0.002274 0.039414 -0.003562 0.008735
# 5 0.016598 0.008929 0.028016 -0.003562 0.138325 0.020257
# 6 -0.005274 0.005738 0.005520 0.008735 0.020257 0.032625
#
#
# Mechanical properties :
#
#
# Convention : Reuss Voigt Hill
#
# Bulk Modulus (GPa) = 25.22969 64.90919 45.06944
# Shear Modulus (GPa) = 17.29249 31.44316 24.36782
#
# Velocity S-wave (km/s) = 2.86464 3.86282 3.40056
# Velocity P-wave (km/s) = 4.78690 7.12025 6.06681
#
# Compressibility (1/GPa) = 0.03963585
#
# Stress axis : x y z
#
# Youngs Moduli (GPa) = 39.25113 86.34856 64.33550
#
# Poissons Ratio (x) = 0.47495 -0.01269
# Poissons Ratio (y) = 0.21590 0.07590
# Poissons Ratio (z) = -0.00774 0.10187
#
# Static dielectric constant tensor:
#      x y z
#    x 1.871620 -0.000900 0.032270 
#    y -0.000900 1.768600 -0.028520 
#    z 0.032270 -0.028520 1.781710 
# 
# From -- ./inp_files/494873.got.cif
#   From: 2010.05.17/outbox.cif.g08.bks.cpg/sg2_248_cif.got.tgz:494873.got - 2010.06.03 11:33:40.
