data_PCOD9019639
_publ_section_title
;
Structure prediction by ZEFSAII (Michael W. Deem and Ramdas Pophale) SiO2 
 PCOD9019639
Probable space group: P -1
;
_chemical_formula_sum "Si O2"
_cell_formula_units_Z 16
_cell_length_a 13.817852
_cell_length_b 11.499448
_cell_length_c 9.042027
_cell_angle_alpha 63.701482
_cell_angle_beta 114.071715
_cell_angle_gamma 147.157985
_cell_volume 696.661003
_symmetry_space_group_name_H-M "P -1"
_symmetry_group_IT_number 2
_symmetry_cell_setting 'triclinic'
loop_
_space_group_symop_operation_xyz
x,y,z
-x,-y,-z
loop_
_atom_site_type_symbol
_atom_site_label
_atom_site_fract_x
_atom_site_fract_y
_atom_site_fract_z
Si Si1 0.447464 0.133976 0.415053
Si Si2 0.311204 0.277321 0.577372
Si Si3 0.104126 0.867836 0.486146
Si Si4 0.885070 0.672497 0.715565
Si Si5 0.522681 0.538165 0.820320
Si Si6 0.787560 0.321284 0.985904
Si Si7 0.496350 0.983667 0.766555
Si Si8 0.942859 0.929066 0.834785
O O1 0.493990 0.328920 0.313011
O O2 0.507656 0.121320 0.311590
O O3 0.232783 0.912055 0.436126
O O4 0.526546 0.147878 0.603992
O O5 0.500000 0.500000 0.500000
O O6 0.193364 0.284410 0.451461
O O7 0.367714 0.313112 0.761461
O O8 0.233335 0.076738 0.559400
O O9 0.975946 0.679596 0.634394
O O10 0.014820 0.891022 0.316286
O O11 0.769750 0.456478 0.857206
O O12 0.000980 0.865203 0.803790
O O13 0.726592 0.700691 0.821640
O O14 0.500000 0.500000 0.000000
O O15 0.662559 0.123744 0.900672
O O16 0.686067 0.196606 0.148822
O O17 0.000000 0.500000 0.000000
O O18 0.000000 0.000000 0.000000
#
# Coordination Sequence:
#
# PCOD9019639 Si02
#       8
#     2   2   2   2   2   2   2   2
#     4  10  21  45  64  94 125 174 218 263 332 384
#     4  11  19  39  60  93 128 169 218 249 315 404
#     4  10  22  39  64  89 132 173 211 262 319 400
#     4  11  23  40  65  91 128 178 214 268 327 386
#     4  11  24  35  60  94 128 160 207 264 317 386
#     4  11  25  45  66 101 124 167 230 271 330 384
#     4  10  24  45  72  88 132 171 219 280 322 382
#     4  10  22  38  54  91 133 163 208 257 324 386
#
# _framework density 22.966695000000001
#
# number of rings (size 3 to 8) (size 9 to 14) (size 15 to 20)
#    0.000    1.500    3.750    3.000    5.250    2.000 
#    2.250    6.875    0.000    0.000    0.000    0.000 
#    0.000    0.000    0.000    0.000    0.000    0.000 
#
# Total GULP energy -89266.074254 kJ/mol
# GULP energy per Si atom -5579.129641 kJ/mol
# Density = 2.291442 g / cm^3
# Si number density = 22.966695 Si / 1000 Ang^3
#
#
#
# Elastic Constant Matrix: (Units=GPa)
#
#
# Indices 1 2 3 4 5 6 
#
# 1 81.9466 19.8710 42.7106 2.6018 -21.1124 15.4035
# 2 19.8710 71.6286 42.7711 9.2280 -2.5760 21.3705
# 3 42.7106 42.7711 167.1491 13.1500 -40.9478 3.9914
# 4 2.6018 9.2280 13.1500 37.3644 1.4162 -6.7721
# 5 -21.1124 -2.5760 -40.9478 1.4162 32.8520 -9.7196
# 6 15.4035 21.3705 3.9914 -6.7721 -9.7196 22.4085
#
#
#
# Elastic Compliance Matrix: (Units=1/GPa)
#
#
# Indices 1 2 3 4 5 6 
#
# 1 0.016711 0.000936 -0.003132 -0.002413 0.003786 -0.010909
# 2 0.000936 0.038975 -0.015443 -0.012537 -0.030453 -0.052060
# 3 -0.003132 -0.015443 0.015796 0.002106 0.023776 0.025016
# 4 -0.002413 -0.012537 0.002106 0.033798 0.006393 0.026228
# 5 0.003786 -0.030453 0.023776 0.006393 0.076847 0.057470
# 6 -0.010909 -0.052060 0.025016 0.026228 0.057470 0.130171
#
#
# Mechanical properties :
#
#
# Convention : Reuss Voigt Hill
#
# Bulk Modulus (GPa) = 27.62130 59.04776 43.33453
# Shear Modulus (GPa) = 13.90264 32.88309 23.39287
#
# Velocity S-wave (km/s) = 2.46303 3.78798 3.19494
# Velocity P-wave (km/s) = 4.48793 6.70058 5.70260
#
# Compressibility (1/GPa) = 0.03620394
#
# Stress axis : x y z
#
# Youngs Moduli (GPa) = 59.84113 25.65747 63.30661
#
# Poissons Ratio (x) = -0.02402 0.19827
# Poissons Ratio (y) = -0.05601 0.97766
# Poissons Ratio (z) = 0.18741 0.39623
#
# Static dielectric constant tensor:
#      x y z
#    x 1.998410 0.082550 -0.023640 
#    y 0.082550 1.900150 -0.028960 
#    z -0.023640 -0.028960 1.906720 
# 
# From -- ./inp_files/307121.got.cif
#   From: 2010.05.17/outbox.cif.g08.bks.cpg/sg2_154_cif.got.tgz:307121.got - 2010.06.03 11:33:40.
