data_PCOD9019386
_publ_section_title
;
Structure prediction by ZEFSAII (Michael W. Deem and Ramdas Pophale) SiO2 
 PCOD9019386
Probable space group: P -1
;
_chemical_formula_sum "Si O2"
_cell_formula_units_Z 16
_cell_length_a 9.652254
_cell_length_b 14.190600
_cell_length_c 11.440954
_cell_angle_alpha 92.866185
_cell_angle_beta 99.509472
_cell_angle_gamma 150.319340
_cell_volume 702.639148
_symmetry_space_group_name_H-M "P -1"
_symmetry_group_IT_number 2
_symmetry_cell_setting 'triclinic'
loop_
_space_group_symop_operation_xyz
x,y,z
-x,-y,-z
loop_
_atom_site_type_symbol
_atom_site_label
_atom_site_fract_x
_atom_site_fract_y
_atom_site_fract_z
Si Si1 0.975979 0.226456 0.152941
Si Si2 0.261750 0.815283 0.086635
Si Si3 0.226064 0.764389 0.481691
Si Si4 0.156495 0.332438 0.435513
Si Si5 0.118333 0.096230 0.153288
Si Si6 0.453099 0.824009 0.759267
Si Si7 0.858738 0.418272 0.762951
Si Si8 0.826658 0.938813 0.357328
O O1 0.095230 0.336666 0.299332
O O2 0.143184 0.225285 0.160700
O O3 0.602908 0.989006 0.097827
O O4 0.994105 0.305557 0.049959
O O5 0.148989 0.660381 0.137052
O O6 0.331739 0.955697 0.173558
O O7 0.325695 0.764790 0.608545
O O8 0.159282 0.657189 0.359545
O O9 0.930865 0.647950 0.474476
O O10 0.500000 0.000000 0.500000
O O11 0.500000 0.500000 0.500000
O O12 0.917102 0.102908 0.391580
O O13 0.393019 0.186062 0.211937
O O14 0.936788 0.972557 0.245024
O O15 0.000000 0.000000 0.000000
O O16 0.186625 0.664501 0.810015
O O17 0.541493 0.287092 0.707523
O O18 0.000000 0.000000 0.500000
#
# Coordination Sequence:
#
# PCOD9019386 Si02
#       8
#     2   2   2   2   2   2   2   2
#     4  10  21  44  71  93 139 187 223 287 356 411
#     4  11  21  46  73  94 138 187 226 285 349 419
#     4  12  22  44  68  98 139 184 233 283 354 415
#     4  11  24  41  69  99 131 184 236 282 355 425
#     4  11  23  43  69 103 137 184 233 293 358 419
#     4  12  25  41  72 105 135 186 237 287 353 420
#     4  12  25  43  69 107 137 182 241 291 345 431
#     4  11  24  43  64  97 145 180 230 299 354 412
#
# _framework density 22.77129
#
# number of rings (size 3 to 8) (size 9 to 14) (size 15 to 20)
#    0.000    0.750    7.500    1.125    5.250    0.000 
#    0.000    7.500    2.750    0.000    0.000    0.000 
#    0.000    0.000    0.000    0.000    0.000    0.000 
#
# Total GULP energy -89416.884732 kJ/mol
# GULP energy per Si atom -5588.555296 kJ/mol
# Density = 2.271946 g / cm^3
# Si number density = 22.771290 Si / 1000 Ang^3
#
#
#
# Elastic Constant Matrix: (Units=GPa)
#
#
# Indices 1 2 3 4 5 6 
#
# 1 130.1211 38.2581 36.3834 -9.5666 22.8922 26.5966
# 2 38.2581 95.5406 46.5964 -12.7734 24.2792 1.4615
# 3 36.3834 46.5964 127.6499 -28.6178 20.3604 7.2432
# 4 -9.5666 -12.7734 -28.6178 32.5362 -8.8829 5.9430
# 5 22.8922 24.2792 20.3604 -8.8829 60.4765 -3.6850
# 6 26.5966 1.4615 7.2432 5.9430 -3.6850 43.3907
#
#
#
# Elastic Compliance Matrix: (Units=1/GPa)
#
#
# Indices 1 2 3 4 5 6 
#
# 1 0.010782 -0.002874 -0.000770 0.001853 -0.002816 -0.006877
# 2 -0.002874 0.014368 -0.003980 0.000113 -0.003223 0.001653
# 3 -0.000770 -0.003980 0.011779 0.008797 -0.000946 -0.002646
# 4 0.001853 0.000113 0.008797 0.041035 0.001827 -0.008073
# 5 -0.002816 -0.003223 -0.000946 0.001827 0.019690 0.003414
# 6 -0.006877 0.001653 -0.002646 -0.008073 0.003414 0.029043
#
#
# Mechanical properties :
#
#
# Convention : Reuss Voigt Hill
#
# Bulk Modulus (GPa) = 46.12024 66.19859 56.15942
# Shear Modulus (GPa) = 33.51848 42.75226 38.13537
#
# Velocity S-wave (km/s) = 3.84078 4.33767 4.09677
# Velocity P-wave (km/s) = 6.32190 7.36352 6.86250
#
# Compressibility (1/GPa) = 0.02168245
#
# Stress axis : x y z
#
# Youngs Moduli (GPa) = 92.74309 69.60151 84.89563
#
# Poissons Ratio (x) = 0.20004 0.06533
# Poissons Ratio (y) = 0.26655 0.33787
# Poissons Ratio (z) = 0.07137 0.27700
#
# Static dielectric constant tensor:
#      x y z
#    x 1.905960 -0.030710 0.004620 
#    y -0.030710 1.913810 0.006280 
#    z 0.004620 0.006280 1.899100 
# 
# From -- ./inp_files/399127.got.cif
#   From: 2010.05.17/outbox.cif.g08.bks.cpg/sg2_200_cif.got.tgz:399127.got - 2010.06.03 11:33:40.
