data_PCOD9019253
_publ_section_title
;
Structure prediction by ZEFSAII (Michael W. Deem and Ramdas Pophale) SiO2 
 PCOD9019253
Probable space group: P -1
;
_chemical_formula_sum "Si O2"
_cell_formula_units_Z 12
_cell_length_a 5.359171
_cell_length_b 21.252405
_cell_length_c 19.732662
_cell_angle_alpha 166.772219
_cell_angle_beta 59.350006
_cell_angle_gamma 119.175682
_cell_volume 441.984873
_symmetry_space_group_name_H-M "P -1"
_symmetry_group_IT_number 2
_symmetry_cell_setting 'triclinic'
loop_
_space_group_symop_operation_xyz
x,y,z
-x,-y,-z
loop_
_atom_site_type_symbol
_atom_site_label
_atom_site_fract_x
_atom_site_fract_y
_atom_site_fract_z
Si Si1 0.732215 0.817890 0.824993
Si Si2 0.925489 0.762971 0.534006
Si Si3 0.826465 0.332669 0.201398
Si Si4 0.542451 0.089169 0.445569
Si Si5 0.318598 0.560453 0.874877
Si Si6 0.207442 0.345208 0.864128
O O1 0.841726 0.539265 0.479105
O O2 0.523268 0.711186 0.801993
O O3 0.500000 0.000000 0.000000
O O4 0.000000 0.000000 0.000000
O O5 0.986533 0.494651 0.290034
O O6 0.655197 0.642217 0.405076
O O7 0.115963 0.873123 0.560578
O O8 0.930218 0.015229 0.849659
O O9 0.448178 0.375597 0.723541
O O10 0.344955 0.069374 0.519258
O O11 0.471459 0.844376 0.149305
O O12 0.987123 0.655854 0.042671
O O13 0.500000 0.500000 0.000000
O O14 0.000000 0.500000 0.000000
#
# Coordination Sequence:
#
# PCOD9019253 Si02
#       6
#     2   2   2   2   2   2
#     4  11  26  54  81 111 145 190 242 294 355 435
#     4  12  24  46  66 108 146 188 236 298 366 436
#     4  11  26  46  74 113 142 192 236 297 358 438
#     4  11  24  43  67 101 141 194 245 303 360 425
#     4  11  24  43  67 101 141 194 245 303 360 425
#     4  10  21  44  70 101 139 193 254 308 354 423
#
# _framework density 27.150251999999998
#
# number of rings (size 3 to 8) (size 9 to 14) (size 15 to 20)
#    0.000    1.000    3.333    2.500    0.000    6.667 
#    6.000    3.333    0.000    0.000    0.000    0.000 
#    0.000    0.000    0.000    0.000    0.000    0.000 
#
# Total GULP energy -66942.121659 kJ/mol
# GULP energy per Si atom -5578.510138 kJ/mol
# Density = 2.708846 g / cm^3
# Si number density = 27.150252 Si / 1000 Ang^3
#
#
#
# Elastic Constant Matrix: (Units=GPa)
#
#
# Indices 1 2 3 4 5 6 
#
# 1 101.1973 29.2886 47.4035 13.4420 17.3359 23.0363
# 2 29.2886 117.3007 38.2583 22.7801 -1.4600 18.7566
# 3 47.4035 38.2583 188.7174 20.2028 27.8052 16.6148
# 4 13.4420 22.7801 20.2028 35.3973 4.8561 6.4900
# 5 17.3359 -1.4600 27.8052 4.8561 41.8769 16.0338
# 6 23.0363 18.7566 16.6148 6.4900 16.0338 33.7238
#
#
#
# Elastic Compliance Matrix: (Units=1/GPa)
#
#
# Indices 1 2 3 4 5 6 
#
# 1 0.013120 -0.001320 -0.002087 -0.001601 -0.001550 -0.006156
# 2 -0.001320 0.011471 -0.001602 -0.005550 0.004939 -0.005969
# 3 -0.002087 -0.001602 0.006814 -0.001738 -0.003967 0.001179
# 4 -0.001601 -0.005550 -0.001738 0.033797 -0.002120 -0.000460
# 5 -0.001550 0.004939 -0.003967 -0.002120 0.033394 -0.015203
# 6 -0.006156 -0.005969 0.001179 -0.000460 -0.015203 0.043913
#
#
# Mechanical properties :
#
#
# Convention : Reuss Voigt Hill
#
# Bulk Modulus (GPa) = 46.75181 70.79069 58.77125
# Shear Modulus (GPa) = 31.31732 41.68393 36.50063
#
# Velocity S-wave (km/s) = 3.39998 3.92255 3.67058
# Velocity P-wave (km/s) = 5.71578 6.82975 6.29745
#
# Compressibility (1/GPa) = 0.02138955
#
# Stress axis : x y z
#
# Youngs Moduli (GPa) = 76.21756 87.17738 146.74599
#
# Poissons Ratio (x) = 0.11503 0.30619
# Poissons Ratio (y) = 0.10057 0.23509
# Poissons Ratio (z) = 0.15903 0.13966
#
# Static dielectric constant tensor:
#      x y z
#    x 2.191930 -0.005850 -0.016260 
#    y -0.005850 2.310610 -0.162630 
#    z -0.016260 -0.162630 2.153030 
# 
# From -- ./inp_files/6943.got.cif
#   From: 2010.05.17/outbox.cif.g08.bks.cpg/sg2_4_cif.got.tgz:6943.got - 2010.06.03 11:33:40.
