data_PCOD9019459
_publ_section_title
;
Structure prediction by ZEFSAII (Michael W. Deem and Ramdas Pophale) SiO2 
 PCOD9019459
Probable space group: P -1
;
_chemical_formula_sum "Si O2"
_cell_formula_units_Z 16
_cell_length_a 8.345707
_cell_length_b 17.782622
_cell_length_c 11.893308
_cell_angle_alpha 51.038030
_cell_angle_beta 120.198923
_cell_angle_gamma 146.328245
_cell_volume 760.090437
_symmetry_space_group_name_H-M "P -1"
_symmetry_group_IT_number 2
_symmetry_cell_setting 'triclinic'
loop_
_space_group_symop_operation_xyz
x,y,z
-x,-y,-z
loop_
_atom_site_type_symbol
_atom_site_label
_atom_site_fract_x
_atom_site_fract_y
_atom_site_fract_z
Si Si1 0.913372 0.920251 0.163076
Si Si2 0.584791 0.099580 0.543545
Si Si3 0.420985 0.368365 0.156777
Si Si4 0.804733 0.194579 0.185392
Si Si5 0.590271 0.147014 0.908342
Si Si6 0.474018 0.190400 0.240416
Si Si7 0.906121 0.552358 0.337486
Si Si8 0.763072 0.644049 0.384463
O O1 0.696294 0.905946 0.158098
O O2 0.757048 0.755028 0.250536
O O3 0.203059 0.031194 0.233603
O O4 0.000000 0.000000 0.000000
O O5 0.484717 0.161834 0.401098
O O6 0.923708 0.242466 0.552848
O O7 0.500000 0.000000 0.500000
O O8 0.410798 0.980924 0.695050
O O9 0.414906 0.281113 0.142046
O O10 0.674117 0.438140 0.266112
O O11 0.120915 0.273561 0.205147
O O12 0.500000 0.500000 0.000000
O O13 0.745994 0.253797 0.205647
O O14 0.710296 0.202824 0.025671
O O15 0.822089 0.285763 0.776211
O O16 0.500000 0.000000 0.000000
O O17 0.763434 0.577552 0.339007
O O18 0.000000 0.500000 0.500000
O O19 0.500000 0.500000 0.500000
#
# Coordination Sequence:
#
# PCOD9019459 Si02
#       8
#     2   2   2   2   2   2   2   2
#     4  12  23  42  72 110 139 196 257 298 374 446
#     4  10  21  44  72 106 144 185 249 301 368 449
#     4  12  28  47  72 110 147 197 253 306 382 442
#     4  11  23  46  74 102 146 196 245 307 367 446
#     4  12  24  43  72 103 148 193 246 310 375 445
#     4  11  25  45  76 104 148 192 255 306 363 458
#     4  12  28  49  69 108 156 189 247 313 383 450
#     4  12  26  45  75 108 148 187 243 315 376 447
#
# _framework density 21.050127
#
# number of rings (size 3 to 8) (size 9 to 14) (size 15 to 20)
#    0.000    0.500    5.000    3.750    5.250    2.000 
#    0.000    0.000    0.000    0.000    0.000    0.000 
#    0.000    0.000    0.000    0.000    0.000    0.000 
#
# Total GULP energy -89333.427911 kJ/mol
# GULP energy per Si atom -5583.339244 kJ/mol
# Density = 2.100222 g / cm^3
# Si number density = 21.050127 Si / 1000 Ang^3
#
#
#
# Elastic Constant Matrix: (Units=GPa)
#
#
# Indices 1 2 3 4 5 6 
#
# 1 126.4041 24.4985 41.7762 -35.2546 -2.4865 0.6655
# 2 24.4985 82.9955 35.1670 -22.0231 -7.6592 7.4788
# 3 41.7762 35.1670 157.8852 -29.9431 -2.5413 8.0894
# 4 -35.2546 -22.0231 -29.9431 43.8573 2.6469 2.6967
# 5 -2.4865 -7.6592 -2.5413 2.6469 44.9993 -12.2818
# 6 0.6655 7.4788 8.0894 2.6967 -12.2818 49.2474
#
#
#
# Elastic Compliance Matrix: (Units=1/GPa)
#
#
# Indices 1 2 3 4 5 6 
#
# 1 0.010471 -0.000618 -0.001240 0.007283 -0.000098 -0.000267
# 2 -0.000618 0.014871 -0.001956 0.005655 0.001548 -0.001852
# 3 -0.001240 -0.001956 0.007812 0.003465 -0.000516 -0.001288
# 4 0.007283 0.005655 0.003465 0.034182 -0.001478 -0.003767
# 5 -0.000098 0.001548 -0.000516 -0.001478 0.024165 0.005958
# 6 -0.000267 -0.001852 -0.001288 -0.003767 0.005958 0.022494
#
#
# Mechanical properties :
#
#
# Convention : Reuss Voigt Hill
#
# Bulk Modulus (GPa) = 39.17546 63.35201 51.26374
# Shear Modulus (GPa) = 38.42241 45.34368 41.88304
#
# Velocity S-wave (km/s) = 4.27697 4.64624 4.46542
# Velocity P-wave (km/s) = 6.56056 7.67754 7.14092
#
# Compressibility (1/GPa) = 0.02552618
#
# Stress axis : x y z
#
# Youngs Moduli (GPa) = 95.49851 67.24641 128.00245
#
# Poissons Ratio (x) = 0.04156 0.15869
# Poissons Ratio (y) = 0.05902 0.25042
# Poissons Ratio (z) = 0.11839 0.13156
#
# Static dielectric constant tensor:
#      x y z
#    x 1.765020 -0.023900 0.059890 
#    y -0.023900 1.728190 0.010910 
#    z 0.059890 0.010910 1.735150 
# 
# From -- ./inp_files/403040.got.cif
#   From: 2010.05.17/outbox.cif.g08.bks.cpg/sg2_202_cif.got.tgz:403040.got - 2010.06.03 11:33:40.
