data_PCOD9019081
_publ_section_title
;
Structure prediction by ZEFSAII (Michael W. Deem and Ramdas Pophale) SiO2 
 PCOD9019081
Probable space group: P -1
;
_chemical_formula_sum "Si O2"
_cell_formula_units_Z 14
_cell_length_a 12.672990
_cell_length_b 7.051448
_cell_length_c 9.360931
_cell_angle_alpha 51.383690
_cell_angle_beta 62.973761
_cell_angle_gamma 84.523168
_cell_volume 560.557771
_symmetry_space_group_name_H-M "P -1"
_symmetry_group_IT_number 2
_symmetry_cell_setting 'triclinic'
loop_
_space_group_symop_operation_xyz
x,y,z
-x,-y,-z
loop_
_atom_site_type_symbol
_atom_site_label
_atom_site_fract_x
_atom_site_fract_y
_atom_site_fract_z
Si Si1 0.706878 0.075980 0.891144
Si Si2 0.411780 0.236918 0.314220
Si Si3 0.536032 0.324345 0.693026
Si Si4 0.313904 0.557041 0.033838
Si Si5 0.692068 0.323933 0.332969
Si Si6 0.017739 0.777641 0.429589
Si Si7 0.051822 0.731637 0.750829
O O1 0.624636 0.162394 0.780839
O O2 0.743382 0.280040 0.901557
O O3 0.838473 0.071310 0.751604
O O4 0.605371 0.837385 0.130384
O O5 0.434494 0.442649 0.326824
O O6 0.317062 0.299581 0.230161
O O7 0.368489 0.965383 0.535495
O O8 0.541531 0.283057 0.133028
O O9 0.594588 0.388021 0.470583
O O10 0.013677 0.280070 0.356708
O O11 0.815258 0.312050 0.341889
O O12 0.723881 0.467309 0.095954
O O13 0.000000 0.500000 0.500000
O O14 0.947450 0.987540 0.323402
O O15 0.000000 0.500000 0.000000
#
# Coordination Sequence:
#
# PCOD9019081 Si02
#       7
#     2   2   2   2   2   2   2
#     4  10  21  44  68 105 143 181 236 298 359 438
#     4  10  23  42  68 102 144 190 228 286 369 438
#     4  10  22  41  70 107 143 177 235 294 370 430
#     4  10  23  40  65 104 140 182 229 284 362 428
#     4  12  24  45  69 101 149 179 239 301 359 434
#     4  11  27  52  80 101 144 202 250 299 366 431
#     4  11  29  50  72 110 143 192 252 307 360 431
#
# _framework density 24.975123
#
# number of rings (size 3 to 8) (size 9 to 14) (size 15 to 20)
#    0.000    1.429    2.857    0.429    8.000    3.429 
#    2.571    0.000    0.000    0.000    0.000    0.000 
#    0.000    0.000    0.000    0.000    0.000    0.000 
#
# Total GULP energy -78307.592813 kJ/mol
# GULP energy per Si atom -5593.399487 kJ/mol
# Density = 2.491828 g / cm^3
# Si number density = 24.975123 Si / 1000 Ang^3
#
#
#
# Elastic Constant Matrix: (Units=GPa)
#
#
# Indices 1 2 3 4 5 6 
#
# 1 96.4973 22.5242 40.7337 0.4129 32.6557 0.5793
# 2 22.5242 130.9902 58.5897 -3.2464 17.2447 2.0024
# 3 40.7337 58.5897 148.3142 7.6977 15.7391 -13.1618
# 4 0.4129 -3.2464 7.6977 46.9011 -4.9519 -0.5693
# 5 32.6557 17.2447 15.7391 -4.9519 51.6054 3.4026
# 6 0.5793 2.0024 -13.1618 -0.5693 3.4026 27.8171
#
#
#
# Elastic Compliance Matrix: (Units=1/GPa)
#
#
# Indices 1 2 3 4 5 6 
#
# 1 0.014472 -0.000001 -0.003151 -0.000485 -0.008190 -0.000800
# 2 -0.000001 0.009672 -0.003891 0.001091 -0.001789 -0.002296
# 3 -0.003151 -0.003891 0.009691 -0.001789 -0.000157 0.004914
# 4 -0.000485 0.001091 -0.001789 0.021965 0.002647 -0.000789
# 5 -0.008190 -0.001789 -0.000157 0.002647 0.025649 -0.002858
# 6 -0.000800 -0.002296 0.004914 -0.000789 -0.002858 0.038789
#
#
# Mechanical properties :
#
#
# Convention : Reuss Voigt Hill
#
# Bulk Modulus (GPa) = 50.63621 68.83301 59.73461
# Shear Modulus (GPa) = 35.48439 42.19497 38.83968
#
# Velocity S-wave (km/s) = 3.77343 4.11479 3.94780
# Velocity P-wave (km/s) = 6.26926 7.08490 6.68952
#
# Compressibility (1/GPa) = 0.01974871
#
# Stress axis : x y z
#
# Youngs Moduli (GPa) = 69.09985 103.38595 103.19197
#
# Poissons Ratio (x) = 0.00006 0.32517
# Poissons Ratio (y) = 0.00004 0.40157
# Poissons Ratio (z) = 0.21774 0.40232
#
# Static dielectric constant tensor:
#      x y z
#    x 2.036570 -0.057020 0.007660 
#    y -0.057020 1.997400 -0.009890 
#    z 0.007660 -0.009890 1.974870 
# 
# From -- ./inp_files/463459.got.cif
#   From: 2010.05.17/outbox.cif.g08.bks.cpg/sg2_232_cif.got.tgz:463459.got - 2010.06.03 11:33:40.
