data_PCOD9019673
_publ_section_title
;
Structure prediction by ZEFSAII (Michael W. Deem and Ramdas Pophale) SiO2 
 PCOD9019673
Probable space group: P -1
;
_chemical_formula_sum "Si O2"
_cell_formula_units_Z 16
_cell_length_a 8.879830
_cell_length_b 6.693440
_cell_length_c 13.953469
_cell_angle_alpha 103.023636
_cell_angle_beta 73.134573
_cell_angle_gamma 74.742397
_cell_volume 723.663921
_symmetry_space_group_name_H-M "P -1"
_symmetry_group_IT_number 2
_symmetry_cell_setting 'triclinic'
loop_
_space_group_symop_operation_xyz
x,y,z
-x,-y,-z
loop_
_atom_site_type_symbol
_atom_site_label
_atom_site_fract_x
_atom_site_fract_y
_atom_site_fract_z
Si Si1 0.371034 0.648690 0.747539
Si Si2 0.629784 0.871750 0.650544
Si Si3 0.986813 0.587515 0.620636
Si Si4 0.099722 0.059464 0.899698
Si Si5 0.642550 0.805718 0.005925
Si Si6 0.895830 0.395892 0.807569
Si Si7 0.653764 0.570642 0.445031
Si Si8 0.565777 0.314505 0.814601
O O1 0.495238 0.763192 0.694993
O O2 0.188032 0.828737 0.806218
O O3 0.365192 0.441239 0.665828
O O4 0.456624 0.551169 0.819984
O O5 0.802179 0.769264 0.668741
O O6 0.658171 0.784700 0.524660
O O7 0.567650 0.122149 0.720171
O O8 0.986202 0.435644 0.697315
O O9 0.000000 0.500000 0.500000
O O10 0.165291 0.621673 0.593723
O O11 0.250089 0.116611 0.927845
O O12 0.003796 0.246546 0.859336
O O13 0.000000 0.000000 0.000000
O O14 0.529374 0.699517 0.073438
O O15 0.782850 0.634508 0.895447
O O16 0.500000 0.000000 0.000000
O O17 0.757336 0.292711 0.791477
O O18 0.500000 0.500000 0.500000
#
# Coordination Sequence:
#
# PCOD9019673 Si02
#       8
#     2   2   2   2   2   2   2   2
#     4  11  23  44  69 101 143 185 238 297 365 421
#     4  10  21  45  66 103 139 186 241 297 355 424
#     4  10  22  44  71 103 143 185 238 298 357 428
#     4  12  27  45  67 107 150 187 241 304 361 429
#     4  12  25  46  73 103 146 192 241 297 362 437
#     4  12  26  43  72 108 143 192 244 295 367 428
#     4   9  22  40  70  98 139 187 231 293 361 420
#     4  12  24  43  73 102 141 189 243 290 360 444
#
# _framework density 22.109711000000001
#
# number of rings (size 3 to 8) (size 9 to 14) (size 15 to 20)
#    0.000    1.000    2.500    3.750    5.250    0.500 
#    0.000    8.750    0.000    0.000    0.000    0.000 
#    0.000    0.000    0.000    0.000    0.000    0.000 
#
# Total GULP energy -89128.135624 kJ/mol
# GULP energy per Si atom -5570.508476 kJ/mol
# Density = 2.205939 g / cm^3
# Si number density = 22.109711 Si / 1000 Ang^3
#
#
#
# Elastic Constant Matrix: (Units=GPa)
#
#
# Indices 1 2 3 4 5 6 
#
# 1 122.5248 41.7428 34.3832 -23.0234 -1.0051 -18.6883
# 2 41.7428 86.5961 57.7684 -7.9171 12.0590 -31.6602
# 3 34.3832 57.7684 125.4664 -6.2664 0.4915 -11.4029
# 4 -23.0234 -7.9171 -6.2664 14.1625 2.7158 8.4920
# 5 -1.0051 12.0590 0.4915 2.7158 43.1600 1.9917
# 6 -18.6883 -31.6602 -11.4029 8.4920 1.9917 46.8063
#
#
#
# Elastic Compliance Matrix: (Units=1/GPa)
#
#
# Indices 1 2 3 4 5 6 
#
# 1 0.013499 -0.005068 -0.000540 0.019838 0.000571 -0.001794
# 2 -0.005068 0.026463 -0.009677 -0.005098 -0.007763 0.014774
# 3 -0.000540 -0.009677 0.012245 0.001068 0.002673 -0.004085
# 4 0.019838 -0.005098 0.001068 0.110378 -0.004374 -0.015107
# 5 0.000571 -0.007763 0.002673 -0.004374 0.025812 -0.004676
# 6 -0.001794 0.014774 -0.004085 -0.015107 -0.004676 0.032586
#
#
# Mechanical properties :
#
#
# Convention : Reuss Voigt Hill
#
# Bulk Modulus (GPa) = 46.21821 66.93067 56.57444
# Shear Modulus (GPa) = 19.32252 34.20531 26.76392
#
# Velocity S-wave (km/s) = 2.95945 3.93755 3.48301
# Velocity P-wave (km/s) = 5.71202 7.14214 6.46674
#
# Compressibility (1/GPa) = 0.02163649
#
# Stress axis : x y z
#
# Youngs Moduli (GPa) = 74.08137 37.78915 81.66396
#
# Poissons Ratio (x) = 0.19152 0.04411
# Poissons Ratio (y) = 0.37546 0.79024
# Poissons Ratio (z) = 0.04001 0.36568
#
# Static dielectric constant tensor:
#      x y z
#    x 1.990360 -0.051020 0.081850 
#    y -0.051020 1.816970 0.016110 
#    z 0.081850 0.016110 1.917270 
# 
# From -- ./inp_files/488523.got.cif
#   From: 2010.05.17/outbox.cif.g08.bks.cpg/sg2_245_cif.got.tgz:488523.got - 2010.06.03 11:33:40.
