data_PCOD9019832
_publ_section_title
;
Structure prediction by ZEFSAII (Michael W. Deem and Ramdas Pophale) SiO2 
 PCOD9019832
Probable space group: P -1
;
_chemical_formula_sum "Si O2"
_cell_formula_units_Z 14
_cell_length_a 22.378818
_cell_length_b 9.308834
_cell_length_c 7.162118
_cell_angle_alpha 54.662710
_cell_angle_beta 137.043192
_cell_angle_gamma 144.102322
_cell_volume 595.758161
_symmetry_space_group_name_H-M "P -1"
_symmetry_group_IT_number 2
_symmetry_cell_setting 'triclinic'
loop_
_space_group_symop_operation_xyz
x,y,z
-x,-y,-z
loop_
_atom_site_type_symbol
_atom_site_label
_atom_site_fract_x
_atom_site_fract_y
_atom_site_fract_z
Si Si1 0.584605 0.970263 0.489614
Si Si2 0.456191 0.323055 0.711531
Si Si3 0.919437 0.187392 0.854259
Si Si4 0.838717 0.432642 0.641630
Si Si5 0.776422 0.841073 0.482366
Si Si6 0.855331 0.840088 0.273498
Si Si7 0.427261 0.662550 0.688039
O O1 0.728596 0.188091 0.683284
O O2 0.539473 0.102280 0.331355
O O3 0.565715 0.886695 0.297153
O O4 0.517598 0.757814 0.649850
O O5 0.500000 0.500000 0.500000
O O6 0.331500 0.199158 0.631352
O O7 0.553012 0.433934 0.015924
O O8 0.880878 0.338252 0.666370
O O9 0.898851 0.068831 0.697663
O O10 0.052484 0.372766 0.112205
O O11 0.837603 0.940010 0.980279
O O12 0.799668 0.564186 0.358964
O O13 0.812706 0.897541 0.307102
O O14 0.708604 0.554686 0.542970
O O15 0.000000 0.000000 0.500000
#
# Coordination Sequence:
#
# PCOD9019832 Si02
#       7
#     2   2   2   2   2   2   2
#     4  11  23  46  66  98 140 178 226 283 338 412
#     4  12  26  42  69 100 138 180 229 282 344 407
#     4  10  24  44  71  98 137 177 224 289 340 403
#     4  10  21  45  69  98 136 177 226 281 340 406
#     4  12  24  41  71 102 130 182 227 273 353 404
#     4  10  24  45  67  98 138 177 228 282 333 407
#     4  11  26  43  67 100 136 181 228 279 345 406
#
# _framework density 23.499468
#
# number of rings (size 3 to 8) (size 9 to 14) (size 15 to 20)
#    0.000    1.143    4.286    0.857    4.000    2.286 
#    5.143    9.286    0.000    0.000    0.000    0.000 
#    0.000    0.000    0.000    0.000    0.000    0.000 
#
# Total GULP energy -78005.038494 kJ/mol
# GULP energy per Si atom -5571.788464 kJ/mol
# Density = 2.344598 g / cm^3
# Si number density = 23.499468 Si / 1000 Ang^3
#
#
#
# Elastic Constant Matrix: (Units=GPa)
#
#
# Indices 1 2 3 4 5 6 
#
# 1 103.0655 1.8787 26.0900 -0.8574 -18.9714 -15.1377
# 2 1.8787 73.7335 28.5578 15.1574 2.0251 -8.1379
# 3 26.0900 28.5578 73.9673 4.7037 -11.5176 -18.5175
# 4 -0.8574 15.1574 4.7037 32.5909 -10.5066 1.2096
# 5 -18.9714 2.0251 -11.5176 -10.5066 22.2402 1.1214
# 6 -15.1377 -8.1379 -18.5175 1.2096 1.1214 47.2334
#
#
#
# Elastic Compliance Matrix: (Units=1/GPa)
#
#
# Indices 1 2 3 4 5 6 
#
# 1 0.012906 -0.000499 -0.002072 0.004644 0.012033 0.002833
# 2 -0.000499 0.019690 -0.008446 -0.011920 -0.012250 0.000517
# 3 -0.002072 -0.008446 0.020373 0.004388 0.011348 0.005486
# 4 0.004644 -0.011920 0.004388 0.044959 0.028593 -0.000675
# 5 0.012033 -0.012250 0.011348 0.028593 0.075543 0.003669
# 6 0.002833 0.000517 0.005486 -0.000675 0.003669 0.024249
#
#
# Mechanical properties :
#
#
# Convention : Reuss Voigt Hill
#
# Bulk Modulus (GPa) = 32.32598 40.42437 36.37518
# Shear Modulus (GPa) = 21.73294 33.36223 27.54758
#
# Velocity S-wave (km/s) = 3.04440 3.77198 3.42755
# Velocity P-wave (km/s) = 5.11309 6.01748 5.58363
#
# Compressibility (1/GPa) = 0.03093487
#
# Stress axis : x y z
#
# Youngs Moduli (GPa) = 77.48454 50.78655 49.08538
#
# Poissons Ratio (x) = 0.02533 0.10171
# Poissons Ratio (y) = 0.03865 0.41458
# Poissons Ratio (z) = 0.16055 0.42895
#
# Static dielectric constant tensor:
#      x y z
#    x 1.959260 -0.022720 0.058010 
#    y -0.022720 2.025160 -0.045780 
#    z 0.058010 -0.045780 1.904570 
# 
# From -- ./inp_files/116860.got.cif
#   From: 2010.05.17/outbox.cif.g08.bks.cpg/sg2_59_cif.got.tgz:116860.got - 2010.06.03 11:33:40.
