data_PCOD9019269
_publ_section_title
;
Structure prediction by ZEFSAII (Michael W. Deem and Ramdas Pophale) SiO2 
 PCOD9019269
Probable space group: P -1
;
_chemical_formula_sum "Si O2"
_cell_formula_units_Z 16
_cell_length_a 8.727204
_cell_length_b 9.011114
_cell_length_c 12.310125
_cell_angle_alpha 53.871845
_cell_angle_beta 109.546690
_cell_angle_gamma 120.937707
_cell_volume 669.987896
_symmetry_space_group_name_H-M "P -1"
_symmetry_group_IT_number 2
_symmetry_cell_setting 'triclinic'
loop_
_space_group_symop_operation_xyz
x,y,z
-x,-y,-z
loop_
_atom_site_type_symbol
_atom_site_label
_atom_site_fract_x
_atom_site_fract_y
_atom_site_fract_z
Si Si1 0.067667 0.002327 0.393778
Si Si2 0.727724 0.932850 0.233014
Si Si3 0.184223 0.982397 0.023806
Si Si4 0.463150 0.194625 0.382323
Si Si5 0.271838 0.480749 0.556163
Si Si6 0.030013 0.571286 0.624856
Si Si7 0.453406 0.777215 0.858384
Si Si8 0.929809 0.525925 0.089157
O O1 0.261970 0.163397 0.350882
O O2 0.000000 0.000000 0.500000
O O3 0.937779 0.039561 0.263539
O O4 0.079687 0.785738 0.483324
O O5 0.688743 0.714045 0.367371
O O6 0.625613 0.057184 0.203904
O O7 0.715414 0.918967 0.106923
O O8 0.085555 0.740770 0.077414
O O9 0.342684 0.106826 0.094357
O O10 0.000000 0.000000 0.000000
O O11 0.553964 0.341883 0.438125
O O12 0.531807 0.255915 0.251205
O O13 0.500000 0.000000 0.500000
O O14 0.179008 0.534688 0.408776
O O15 0.137234 0.460056 0.636727
O O16 0.070045 0.602767 0.747275
O O17 0.288888 0.559276 0.946868
O O18 0.000000 0.500000 0.000000
#
# Coordination Sequence:
#
# PCOD9019269 Si02
#       8
#     2   2   2   2   2   2   2   2
#     4  11  23  43  71 103 145 183 240 309 368 442
#     4  11  24  48  67 104 147 190 244 305 368 439
#     4  12  28  48  76 106 148 195 248 305 375 438
#     4  12  23  43  74 108 141 193 247 304 379 437
#     4  10  22  41  75 103 145 188 240 310 368 433
#     4  10  21  44  70 103 148 185 240 304 367 436
#     4  12  27  51  73 108 150 194 252 309 364 458
#     4  12  25  46  76 109 147 204 244 300 372 438
#
# _framework density 23.881029000000002
#
# number of rings (size 3 to 8) (size 9 to 14) (size 15 to 20)
#    0.000    0.750    3.750    3.375    1.750    0.500 
#    6.750    1.875    0.000    0.000    0.000    0.000 
#    0.000    0.000    0.000    0.000    0.000    0.000 
#
# Total GULP energy -89199.050739 kJ/mol
# GULP energy per Si atom -5574.940671 kJ/mol
# Density = 2.382668 g / cm^3
# Si number density = 23.881029 Si / 1000 Ang^3
#
#
#
# Elastic Constant Matrix: (Units=GPa)
#
#
# Indices 1 2 3 4 5 6 
#
# 1 104.9495 33.2452 17.0137 7.6364 -1.8684 22.6369
# 2 33.2452 115.6830 16.7172 24.4063 15.9691 23.7648
# 3 17.0137 16.7172 56.5504 20.1865 -3.5687 4.4624
# 4 7.6364 24.4063 20.1865 29.5036 1.7276 10.3929
# 5 -1.8684 15.9691 -3.5687 1.7276 37.7850 9.6594
# 6 22.6369 23.7648 4.4624 10.3929 9.6594 47.9259
#
#
#
# Elastic Compliance Matrix: (Units=1/GPa)
#
#
# Indices 1 2 3 4 5 6 
#
# 1 0.011911 -0.002956 -0.003302 0.003261 0.002681 -0.005100
# 2 -0.002956 0.012291 0.000196 -0.008586 -0.004428 -0.001962
# 3 -0.003302 0.000196 0.024710 -0.017205 0.002251 0.002439
# 4 0.003261 -0.008586 -0.017205 0.054595 0.001678 -0.007858
# 5 0.002681 -0.004428 0.002251 0.001678 0.030063 -0.005703
# 6 -0.005100 -0.001962 0.002439 -0.007858 -0.005703 0.026874
#
#
# Mechanical properties :
#
#
# Convention : Reuss Voigt Hill
#
# Bulk Modulus (GPa) = 27.18268 45.68167 36.43217
# Shear Modulus (GPa) = 27.05177 37.05669 32.05423
#
# Velocity S-wave (km/s) = 3.36932 3.94346 3.66764
# Velocity P-wave (km/s) = 5.15206 6.31703 5.76405
#
# Compressibility (1/GPa) = 0.03678813
#
# Stress axis : x y z
#
# Youngs Moduli (GPa) = 83.95871 81.35755 40.46936
#
# Poissons Ratio (x) = 0.24051 0.13363
# Poissons Ratio (y) = 0.24820 -0.00795
# Poissons Ratio (z) = 0.27724 -0.01597
#
# Static dielectric constant tensor:
#      x y z
#    x 1.931480 0.079560 0.046800 
#    y 0.079560 2.026530 -0.053680 
#    z 0.046800 -0.053680 1.895130 
# 
# From -- ./inp_files/381421.got.cif
#   From: 2010.05.17/outbox.cif.g08.bks.cpg/sg2_191_cif.got.tgz:381421.got - 2010.06.03 11:33:40.
