data_PCOD9019109
_publ_section_title
;
Structure prediction by ZEFSAII (Michael W. Deem and Ramdas Pophale) SiO2 
 PCOD9019109
Probable space group: P -1
;
_chemical_formula_sum "Si O2"
_cell_formula_units_Z 10
_cell_length_a 8.554830
_cell_length_b 7.616581
_cell_length_c 9.709673
_cell_angle_alpha 123.863149
_cell_angle_beta 43.623482
_cell_angle_gamma 116.911825
_cell_volume 361.104674
_symmetry_space_group_name_H-M "P -1"
_symmetry_group_IT_number 2
_symmetry_cell_setting 'triclinic'
loop_
_space_group_symop_operation_xyz
x,y,z
-x,-y,-z
loop_
_atom_site_type_symbol
_atom_site_label
_atom_site_fract_x
_atom_site_fract_y
_atom_site_fract_z
Si Si1 0.208009 0.093778 0.704371
Si Si2 0.466864 0.252728 0.335327
Si Si3 0.223864 0.638682 0.588427
Si Si4 0.820449 0.083885 0.764132
Si Si5 0.740391 0.549856 0.942119
O O1 0.321188 0.218213 0.555356
O O2 0.707704 0.141120 0.435812
O O3 0.943659 0.041012 0.809132
O O4 0.245389 0.244639 0.878415
O O5 0.365121 0.435137 0.388512
O O6 0.712815 0.313038 0.269307
O O7 0.411643 0.038692 0.195109
O O8 0.957220 0.581883 0.716511
O O9 0.792301 0.332575 0.889662
O O10 0.000000 0.000000 0.500000
O O11 0.500000 0.500000 0.000000
#
# Coordination Sequence:
#
# PCOD9019109 Si02
#       5
#     2   2   2   2   2
#     4  11  23  43  71  98 134 176 219 276 339 384
#     4  10  23  46  69  98 137 171 226 276 324 400
#     4  11  23  43  70  98 133 179 224 268 332 401
#     4  10  21  44  68  94 138 171 217 276 324 394
#     4  12  25  45  67 100 140 173 221 280 330 392
#
# _framework density 27.692802
#
# number of rings (size 3 to 8) (size 9 to 14) (size 15 to 20)
#    0.000    1.200    4.000    3.000    0.000    2.400 
#    7.200    2.000    0.000    0.000    0.000    0.000 
#    0.000    0.000    0.000    0.000    0.000    0.000 
#
# Total GULP energy -56000.622479 kJ/mol
# GULP energy per Si atom -5600.062248 kJ/mol
# Density = 2.762977 g / cm^3
# Si number density = 27.692802 Si / 1000 Ang^3
#
#
#
# Elastic Constant Matrix: (Units=GPa)
#
#
# Indices 1 2 3 4 5 6 
#
# 1 141.7614 41.4851 13.7624 -5.5124 -23.4426 12.5160
# 2 41.4851 135.6858 -3.7452 11.4900 -11.0367 -5.8961
# 3 13.7624 -3.7452 104.7986 -2.3023 8.3755 -1.7258
# 4 -5.5124 11.4900 -2.3023 27.5469 9.7868 -18.3066
# 5 -23.4426 -11.0367 8.3755 9.7868 45.4923 11.7203
# 6 12.5160 -5.8961 -1.7258 -18.3066 11.7203 80.8341
#
#
#
# Elastic Compliance Matrix: (Units=1/GPa)
#
#
# Indices 1 2 3 4 5 6 
#
# 1 0.008982 -0.002404 -0.001745 -0.000906 0.005222 -0.002566
# 2 -0.002404 0.008689 0.000347 -0.005072 0.002006 -0.000426
# 3 -0.001745 0.000347 0.010171 0.002800 -0.003724 0.001687
# 4 -0.000906 -0.005072 0.002800 0.054597 -0.017764 0.014770
# 5 0.005222 0.002006 -0.003724 -0.017764 0.032093 -0.009418
# 6 -0.002566 -0.000426 0.001687 0.014770 -0.009418 0.017484
#
#
# Mechanical properties :
#
#
# Convention : Reuss Voigt Hill
#
# Bulk Modulus (GPa) = 49.41244 53.91669 51.66457
# Shear Modulus (GPa) = 34.16114 52.82422 43.49268
#
# Velocity S-wave (km/s) = 3.51604 4.37224 3.96730
# Velocity P-wave (km/s) = 5.86218 6.70824 6.29943
#
# Compressibility (1/GPa) = 0.02023782
#
# Stress axis : x y z
#
# Youngs Moduli (GPa) = 111.33342 115.09032 98.32225
#
# Poissons Ratio (x) = 0.27672 0.17157
# Poissons Ratio (y) = 0.26768 -0.03417
# Poissons Ratio (z) = 0.19428 -0.03999
#
# Static dielectric constant tensor:
#      x y z
#    x 2.158810 0.059160 -0.035610 
#    y 0.059160 2.196710 -0.120570 
#    z -0.035610 -0.120570 2.211570 
# 
# From -- ./inp_files/150513.got.cif
#   From: 2010.05.17/outbox.cif.g08.bks.cpg/sg2_76_cif.got.tgz:150513.got - 2010.06.03 11:33:40.
