data_PCOD9019401
_publ_section_title
;
Structure prediction by ZEFSAII (Michael W. Deem and Ramdas Pophale) SiO2 
 PCOD9019401
Probable space group: P -1
;
_chemical_formula_sum "Si O2"
_cell_formula_units_Z 16
_cell_length_a 14.558654
_cell_length_b 9.515367
_cell_length_c 10.718645
_cell_angle_alpha 107.897537
_cell_angle_beta 30.130256
_cell_angle_gamma 113.416117
_cell_volume 681.829945
_symmetry_space_group_name_H-M "P -1"
_symmetry_group_IT_number 2
_symmetry_cell_setting 'triclinic'
loop_
_space_group_symop_operation_xyz
x,y,z
-x,-y,-z
loop_
_atom_site_type_symbol
_atom_site_label
_atom_site_fract_x
_atom_site_fract_y
_atom_site_fract_z
Si Si1 0.220218 0.401470 0.377688
Si Si2 0.539182 0.363882 0.327368
Si Si3 0.773355 0.943660 0.732090
Si Si4 0.287554 0.019482 0.453926
Si Si5 0.070765 0.948275 0.030852
Si Si6 0.619027 0.576890 0.054965
Si Si7 0.051469 0.633368 0.077188
Si Si8 0.579641 0.907258 0.210789
O O1 0.266761 0.238367 0.292137
O O2 0.410768 0.530225 0.223528
O O3 0.059151 0.402132 0.669574
O O4 0.212504 0.418079 0.240943
O O5 0.500000 0.500000 0.500000
O O6 0.385768 0.197602 0.433730
O O7 0.603206 0.453728 0.147567
O O8 0.724317 0.325325 0.152878
O O9 0.685131 0.003268 0.731368
O O10 0.683644 0.972920 0.975958
O O11 0.000000 0.000000 0.500000
O O12 0.057740 0.977054 0.709824
O O13 0.369251 0.914002 0.423540
O O14 0.000882 0.772482 0.104641
O O15 0.000000 0.000000 0.000000
O O16 0.295706 0.993902 0.799773
O O17 0.622902 0.745627 0.142536
O O18 0.000000 0.500000 0.000000
#
# Coordination Sequence:
#
# PCOD9019401 Si02
#       8
#     2   2   2   2   2   2   2   2
#     4  10  21  44  71  97 140 182 228 298 348 424
#     4  12  26  45  74 101 141 195 242 290 359 430
#     4  11  20  42  74  99 139 181 233 288 356 426
#     4  12  24  46  74 102 140 188 237 296 355 431
#     4  12  27  46  68 103 145 181 236 299 355 423
#     4  10  23  44  69 103 141 180 237 289 353 426
#     4  12  25  46  73  99 140 188 245 291 360 434
#     4  11  25  44  69 105 138 183 233 291 364 420
#
# _framework density 23.466263000000001
#
# number of rings (size 3 to 8) (size 9 to 14) (size 15 to 20)
#    0.000    0.750    5.000    1.875    3.500    3.000 
#    0.000    0.000    0.000    0.000    0.000    0.000 
#    0.000    0.000    0.000    0.000    0.000    0.000 
#
# Total GULP energy -89207.127973 kJ/mol
# GULP energy per Si atom -5575.445498 kJ/mol
# Density = 2.341285 g / cm^3
# Si number density = 23.466263 Si / 1000 Ang^3
#
#
#
# Elastic Constant Matrix: (Units=GPa)
#
#
# Indices 1 2 3 4 5 6 
#
# 1 83.0813 -2.9774 19.0788 7.0425 -8.2366 -6.6674
# 2 -2.9774 42.8657 4.6029 -3.9882 -2.1389 2.0951
# 3 19.0788 4.6029 79.5528 10.0439 -3.7433 -7.0595
# 4 7.0425 -3.9882 10.0439 22.1117 0.5603 -3.2148
# 5 -8.2366 -2.1389 -3.7433 0.5603 47.2722 -0.3087
# 6 -6.6674 2.0951 -7.0595 -3.2148 -0.3087 30.5145
#
#
#
# Elastic Compliance Matrix: (Units=1/GPa)
#
#
# Indices 1 2 3 4 5 6 
#
# 1 0.013273 0.000973 -0.002630 -0.002626 0.002192 0.001970
# 2 0.000973 0.024223 -0.002333 0.004880 0.001013 -0.001466
# 3 -0.002630 -0.002333 0.014297 -0.005761 0.000652 0.002293
# 4 -0.002626 0.004880 -0.005761 0.050029 -0.001266 0.003016
# 5 0.002192 0.001013 0.000652 -0.001266 0.021653 0.000646
# 6 0.001970 -0.001466 0.002293 0.003016 0.000646 0.034157
#
#
# Mechanical properties :
#
#
# Convention : Reuss Voigt Hill
#
# Bulk Modulus (GPa) = 22.82418 27.43429 25.12924
# Shear Modulus (GPa) = 27.74416 32.29937 30.02176
#
# Velocity S-wave (km/s) = 3.44219 3.71403 3.58069
# Velocity P-wave (km/s) = 5.05428 5.48711 5.27514
#
# Compressibility (1/GPa) = 0.04381318
#
# Stress axis : x y z
#
# Youngs Moduli (GPa) = 75.33896 41.28292 69.94248
#
# Poissons Ratio (x) = -0.04017 0.18395
# Poissons Ratio (y) = -0.07331 0.16321
# Poissons Ratio (z) = 0.19814 0.09633
#
# Static dielectric constant tensor:
#      x y z
#    x 1.959600 0.088110 0.086420 
#    y 0.088110 0.561100 -0.245420 
#    z 0.086420 -0.245420 1.966610 
# 
# From -- ./inp_files/447749.got.cif
#   From: 2010.05.17/outbox.cif.g08.bks.cpg/sg2_224_cif.got.tgz:447749.got - 2010.06.03 11:33:40.
