data_PCOD9019733
_publ_section_title
;
Structure prediction by ZEFSAII (Michael W. Deem and Ramdas Pophale) SiO2 
 PCOD9019733
Probable space group: P -1
;
_chemical_formula_sum "Si O2"
_cell_formula_units_Z 16
_cell_length_a 6.110605
_cell_length_b 7.517824
_cell_length_c 22.362237
_cell_angle_alpha 60.097279
_cell_angle_beta 117.140902
_cell_angle_gamma 128.988257
_cell_volume 676.522016
_symmetry_space_group_name_H-M "P -1"
_symmetry_group_IT_number 2
_symmetry_cell_setting 'triclinic'
loop_
_space_group_symop_operation_xyz
x,y,z
-x,-y,-z
loop_
_atom_site_type_symbol
_atom_site_label
_atom_site_fract_x
_atom_site_fract_y
_atom_site_fract_z
Si Si1 0.820848 0.556362 0.829845
Si Si2 0.811730 0.233076 0.783152
Si Si3 0.578608 0.304468 0.524340
Si Si4 0.348211 0.614458 0.734309
Si Si5 0.355354 0.067841 0.652991
Si Si6 0.230672 0.474088 0.606630
Si Si7 0.492712 0.786381 0.903833
Si Si8 0.661608 0.389325 0.963100
O O1 0.753725 0.410168 0.785179
O O2 0.674478 0.716131 0.779268
O O3 0.662139 0.366813 0.895777
O O4 0.162797 0.699794 0.859834
O O5 0.651967 0.184505 0.708041
O O6 0.147209 0.374239 0.786623
O O7 0.700459 0.008665 0.850811
O O8 0.500000 0.500000 0.500000
O O9 0.391673 0.085979 0.582581
O O10 0.567601 0.308084 0.450661
O O11 0.906913 0.407602 0.566320
O O12 0.322756 0.553295 0.671948
O O13 0.226070 0.790707 0.699482
O O14 0.228497 0.230585 0.630210
O O15 0.563650 0.580778 0.931706
O O16 0.511033 0.813931 0.973970
O O17 0.000000 0.500000 0.000000
#
# Coordination Sequence:
#
# PCOD9019733 Si02
#       8
#     2   2   2   2   2   2   2   2
#     4  11  23  42  66  98 132 175 225 276 337 401
#     4  12  24  41  63 101 137 174 224 276 330 407
#     4   9  20  41  70  94 133 173 226 282 329 393
#     4  12  26  42  69 102 137 178 229 270 339 407
#     4  11  23  42  66  98 135 178 221 280 330 397
#     4  10  21  45  67  96 134 177 223 278 336 395
#     4  10  23  44  68  94 134 175 225 280 334 398
#     4   9  20  43  68  94 127 177 227 278 332 399
#
# _framework density 23.650373999999999
#
# number of rings (size 3 to 8) (size 9 to 14) (size 15 to 20)
#    0.000    1.500    2.500    2.250    0.000    6.000 
#    2.250   14.375    0.000    0.000    0.000    0.000 
#    0.000    0.000    0.000    0.000    0.000    0.000 
#
# Total GULP energy -89325.701400 kJ/mol
# GULP energy per Si atom -5582.856337 kJ/mol
# Density = 2.359654 g / cm^3
# Si number density = 23.650374 Si / 1000 Ang^3
#
#
#
# Elastic Constant Matrix: (Units=GPa)
#
#
# Indices 1 2 3 4 5 6 
#
# 1 110.3254 31.9906 70.3885 -3.5475 10.4750 2.7322
# 2 31.9906 42.7538 43.6421 -16.9029 -2.5574 0.1206
# 3 70.3885 43.6421 139.3016 -19.5857 -7.4596 5.7428
# 4 -3.5475 -16.9029 -19.5857 35.7593 -1.4287 -7.8587
# 5 10.4750 -2.5574 -7.4596 -1.4287 61.0050 5.8398
# 6 2.7322 0.1206 5.7428 -7.8587 5.8398 24.5997
#
#
#
# Elastic Compliance Matrix: (Units=1/GPa)
#
#
# Indices 1 2 3 4 5 6 
#
# 1 0.015640 -0.007688 -0.006502 -0.006062 -0.003829 -0.001209
# 2 -0.007688 0.043979 -0.007630 0.017590 0.001917 0.007584
# 3 -0.006502 -0.007630 0.013477 0.002766 0.002715 -0.002147
# 4 -0.006062 0.017590 0.002766 0.039963 0.001879 0.012262
# 5 -0.003829 0.001917 0.002715 0.001879 0.017876 -0.003861
# 6 -0.001209 0.007584 -0.002147 0.012262 -0.003861 0.046083
#
#
# Mechanical properties :
#
#
# Convention : Reuss Voigt Hill
#
# Bulk Modulus (GPa) = 33.94953 64.93592 49.44272
# Shear Modulus (GPa) = 21.69413 34.03012 27.86213
#
# Velocity S-wave (km/s) = 3.03196 3.79738 3.43605
# Velocity P-wave (km/s) = 5.16168 6.83688 6.05747
#
# Compressibility (1/GPa) = 0.02945549
#
# Stress axis : x y z
#
# Youngs Moduli (GPa) = 63.93765 22.73827 74.19861
#
# Poissons Ratio (x) = 0.17482 0.48242
# Poissons Ratio (y) = 0.49158 0.56615
# Poissons Ratio (z) = 0.41571 0.17350
#
# Static dielectric constant tensor:
#      x y z
#    x 1.895330 -0.007660 -0.036670 
#    y -0.007660 1.877900 -0.019120 
#    z -0.036670 -0.019120 1.914480 
# 
# From -- ./inp_files/14720.got.cif
#   From: 2010.05.17/outbox.cif.g08.bks.cpg/sg2_8_cif.got.tgz:14720.got - 2010.06.03 11:33:40.
