data_PCOD9019777
_publ_section_title
;
Structure prediction by ZEFSAII (Michael W. Deem and Ramdas Pophale) SiO2 
 PCOD9019777
Probable space group: P -1
;
_chemical_formula_sum "Si O2"
_cell_formula_units_Z 14
_cell_length_a 18.608929
_cell_length_b 7.734791
_cell_length_c 5.109938
_cell_angle_alpha 75.957865
_cell_angle_beta 85.600846
_cell_angle_gamma 49.222057
_cell_volume 536.957826
_symmetry_space_group_name_H-M "P -1"
_symmetry_group_IT_number 2
_symmetry_cell_setting 'triclinic'
loop_
_space_group_symop_operation_xyz
x,y,z
-x,-y,-z
loop_
_atom_site_type_symbol
_atom_site_label
_atom_site_fract_x
_atom_site_fract_y
_atom_site_fract_z
Si Si1 0.917920 0.155603 0.191363
Si Si2 0.388847 0.230008 0.449501
Si Si3 0.991193 0.679889 0.640614
Si Si4 0.542350 0.587055 0.280666
Si Si5 0.264511 0.760009 0.885124
Si Si6 0.206286 0.055403 0.280064
Si Si7 0.650558 0.890956 0.994762
O O1 0.806770 0.291744 0.123348
O O2 0.924510 0.348468 0.226872
O O3 0.946040 0.937028 0.438328
O O4 0.000000 0.000000 0.000000
O O5 0.391768 0.406414 0.542347
O O6 0.358025 0.260236 0.149563
O O7 0.500000 0.000000 0.500000
O O8 0.336182 0.182185 0.681333
O O9 0.000000 0.500000 0.500000
O O10 0.906104 0.745271 0.821175
O O11 0.500000 0.500000 0.500000
O O12 0.620607 0.407768 0.111180
O O13 0.452725 0.842684 0.099830
O O14 0.228114 0.967143 0.606091
O O15 0.239241 0.846860 0.155963
O O16 0.268500 0.119151 0.146257
#
# Coordination Sequence:
#
# PCOD9019777 Si02
#       7
#     2   2   2   2   2   2   2
#     4  10  21  45  68  95 143 175 217 295 344 396
#     4  10  23  42  60  89 130 176 215 273 331 380
#     4  10  23  43  71 102 133 179 231 277 348 417
#     4  11  23  42  66  98 126 178 228 266 325 408
#     4  11  24  41  67  99 134 175 224 273 341 398
#     4  11  23  42  66  99 133 176 217 278 338 399
#     4  11  23  43  64  89 138 172 215 275 332 388
#
# _framework density 26.072807999999998
#
# number of rings (size 3 to 8) (size 9 to 14) (size 15 to 20)
#    0.000    1.429    2.857    2.571    2.000    5.714 
#    2.571    0.000    0.000    0.000    0.000    0.000 
#    0.000    0.000    0.000    0.000    0.000    0.000 
#
# Total GULP energy -78183.410066 kJ/mol
# GULP energy per Si atom -5584.529290 kJ/mol
# Density = 2.601347 g / cm^3
# Si number density = 26.072808 Si / 1000 Ang^3
#
#
#
# Elastic Constant Matrix: (Units=GPa)
#
#
# Indices 1 2 3 4 5 6 
#
# 1 186.3983 39.7188 20.6757 7.1891 -24.5410 6.3799
# 2 39.7188 79.9343 19.6965 8.1909 2.7156 -8.5513
# 3 20.6757 19.6965 78.8563 3.3487 -9.5089 0.9188
# 4 7.1891 8.1909 3.3487 43.9687 2.8658 -3.8048
# 5 -24.5410 2.7156 -9.5089 2.8658 42.2343 13.9725
# 6 6.3799 -8.5513 0.9188 -3.8048 13.9725 47.0872
#
#
#
# Elastic Compliance Matrix: (Units=1/GPa)
#
#
# Indices 1 2 3 4 5 6 
#
# 1 0.007110 -0.003947 -0.000122 -0.001076 0.005560 -0.003414
# 2 -0.003947 0.016275 -0.003737 -0.001275 -0.005810 0.005184
# 3 -0.000122 -0.003737 0.014211 -0.000832 0.004167 -0.002243
# 4 -0.001076 -0.001275 -0.000832 0.023677 -0.003268 0.002813
# 5 0.005560 -0.005810 0.004167 -0.003268 0.032328 -0.011747
# 6 -0.003414 0.005184 -0.002243 0.002813 -0.011747 0.026398
#
#
# Mechanical properties :
#
#
# Convention : Reuss Voigt Hill
#
# Bulk Modulus (GPa) = 45.48959 56.15234 50.82096
# Shear Modulus (GPa) = 34.98025 44.33123 39.65574
#
# Velocity S-wave (km/s) = 3.66681 4.12793 3.90418
# Velocity P-wave (km/s) = 5.95083 6.65606 6.31330
#
# Compressibility (1/GPa) = 0.02198305
#
# Stress axis : x y z
#
# Youngs Moduli (GPa) = 140.65136 61.44500 70.36898
#
# Poissons Ratio (x) = 0.24250 0.00862
# Poissons Ratio (y) = 0.55509 0.26298
# Poissons Ratio (z) = 0.01722 0.22963
#
# Static dielectric constant tensor:
#      x y z
#    x 2.116480 0.043170 0.034840 
#    y 0.043170 2.305410 0.095570 
#    z 0.034840 0.095570 2.360270 
# 
# From -- ./inp_files/104947.got.cif
#   From: 2010.05.17/outbox.cif.g08.bks.cpg/sg2_53_cif.got.tgz:104947.got - 2010.06.03 11:33:40.
