data_PCOD9019511
_publ_section_title
;
Structure prediction by ZEFSAII (Michael W. Deem and Ramdas Pophale) SiO2 
 PCOD9019511
Probable space group: P -1
;
_chemical_formula_sum "Si O2"
_cell_formula_units_Z 12
_cell_length_a 5.405829
_cell_length_b 16.173394
_cell_length_c 5.652817
_cell_angle_alpha 98.902906
_cell_angle_beta 80.100021
_cell_angle_gamma 107.359309
_cell_volume 461.872125
_symmetry_space_group_name_H-M "P -1"
_symmetry_group_IT_number 2
_symmetry_cell_setting 'triclinic'
loop_
_space_group_symop_operation_xyz
x,y,z
-x,-y,-z
loop_
_atom_site_type_symbol
_atom_site_label
_atom_site_fract_x
_atom_site_fract_y
_atom_site_fract_z
Si Si1 0.031574 0.074223 0.222727
Si Si2 0.582733 0.708720 0.348383
Si Si3 0.557711 0.131868 0.356285
Si Si4 0.197692 0.391631 0.364291
Si Si5 0.024986 0.772813 0.980293
Si Si6 0.197349 0.553651 0.186415
O O1 0.263655 0.073968 0.358750
O O2 0.760132 0.080229 0.380841
O O3 0.123132 0.168217 0.116968
O O4 0.000000 0.000000 0.000000
O O5 0.444857 0.783188 0.457619
O O6 0.605801 0.649760 0.543637
O O7 0.881854 0.754996 0.244850
O O8 0.427467 0.642146 0.143575
O O9 0.681305 0.169360 0.094029
O O10 0.322515 0.482696 0.253683
O O11 0.990698 0.413726 0.588125
O O12 0.032874 0.320034 0.177685
O O13 0.000000 0.500000 0.000000
#
# Coordination Sequence:
#
# PCOD9019511 Si02
#       6
#     2   2   2   2   2   2
#     4  10  21  44  73 102 144 183 225 292 357 416
#     4  12  23  45  70  98 141 188 238 285 357 420
#     4  10  22  45  68 103 141 185 229 290 350 422
#     4  11  23  44  63  99 140 185 234 297 348 414
#     4  10  24  40  71 101 133 191 227 297 345 425
#     4  11  25  41  67 100 138 185 238 297 349 411
#
# _framework density 25.981214999999999
#
# number of rings (size 3 to 8) (size 9 to 14) (size 15 to 20)
#    1.000    0.333    3.333    2.000    0.000    8.000 
#    0.000    1.667    0.000    0.000    0.000    0.000 
#    0.000    0.000    0.000    0.000    0.000    0.000 
#
# Total GULP energy -67121.414805 kJ/mol
# GULP energy per Si atom -5593.451234 kJ/mol
# Density = 2.592208 g / cm^3
# Si number density = 25.981215 Si / 1000 Ang^3
#
#
#
# Elastic Constant Matrix: (Units=GPa)
#
#
# Indices 1 2 3 4 5 6 
#
# 1 180.3797 49.5181 39.7868 20.5113 -5.5684 -11.4792
# 2 49.5181 125.8445 39.6789 20.8574 -2.6243 -26.9752
# 3 39.7868 39.6789 65.0257 16.8154 -17.8954 -18.2304
# 4 20.5113 20.8574 16.8154 43.3758 -5.8322 -3.1342
# 5 -5.5684 -2.6243 -17.8954 -5.8322 35.2292 6.4675
# 6 -11.4792 -26.9752 -18.2304 -3.1342 6.4675 29.7792
#
#
#
# Elastic Compliance Matrix: (Units=1/GPa)
#
#
# Indices 1 2 3 4 5 6 
#
# 1 0.006781 -0.001609 -0.003266 -0.001331 -0.000778 -0.000814
# 2 -0.001609 0.012158 -0.004254 -0.003322 -0.003568 0.008213
# 3 -0.003266 -0.004254 0.026313 -0.004635 0.010245 0.008283
# 4 -0.001331 -0.003322 -0.004635 0.027111 0.002416 -0.004031
# 5 -0.000778 -0.003568 0.010245 0.002416 0.034424 -0.004481
# 6 -0.000814 0.008213 0.008283 -0.004031 -0.004481 0.046327
#
#
# Mechanical properties :
#
#
# Convention : Reuss Voigt Hill
#
# Bulk Modulus (GPa) = 37.04466 69.91305 53.47885
# Shear Modulus (GPa) = 27.72100 37.82793 32.77446
#
# Velocity S-wave (km/s) = 3.26998 3.81986 3.55557
# Velocity P-wave (km/s) = 5.34287 6.81341 6.12245
#
# Compressibility (1/GPa) = 0.02699445
#
# Stress axis : x y z
#
# Youngs Moduli (GPa) = 147.46387 82.25374 38.00433
#
# Poissons Ratio (x) = 0.13233 0.12411
# Poissons Ratio (y) = 0.23724 0.16168
# Poissons Ratio (z) = 0.48156 0.34992
#
# Static dielectric constant tensor:
#      x y z
#    x 2.070700 0.014730 0.001640 
#    y 0.014730 1.988970 -0.055420 
#    z 0.001640 -0.055420 2.062450 
# 
# From -- ./inp_files/7030.got.cif
#   From: 2010.05.17/outbox.cif.g08.bks.cpg/sg2_4_cif.got.tgz:7030.got - 2010.06.03 11:33:40.
