data_PCOD9019076
_publ_section_title
;
Structure prediction by ZEFSAII (Michael W. Deem and Ramdas Pophale) SiO2 
 PCOD9019076
Probable space group: P -1
;
_chemical_formula_sum "Si O2"
_cell_formula_units_Z 14
_cell_length_a 18.791343
_cell_length_b 4.986138
_cell_length_c 9.347874
_cell_angle_alpha 74.449633
_cell_angle_beta 37.279831
_cell_angle_gamma 72.262186
_cell_volume 504.795183
_symmetry_space_group_name_H-M "P -1"
_symmetry_group_IT_number 2
_symmetry_cell_setting 'triclinic'
loop_
_space_group_symop_operation_xyz
x,y,z
-x,-y,-z
loop_
_atom_site_type_symbol
_atom_site_label
_atom_site_fract_x
_atom_site_fract_y
_atom_site_fract_z
Si Si1 0.693352 0.952667 0.124039
Si Si2 0.074183 0.722677 0.780587
Si Si3 0.417624 0.459691 0.801952
Si Si4 0.076588 0.252861 0.323959
Si Si5 0.137766 0.770853 0.970503
Si Si6 0.394140 0.875004 0.267280
Si Si7 0.275971 0.462485 0.318787
O O1 0.585595 0.208253 0.243533
O O2 0.634478 0.672146 0.236372
O O3 0.770364 0.071005 0.110743
O O4 0.790673 0.924591 0.842787
O O5 0.141276 0.601149 0.548819
O O6 0.882671 0.537669 0.896884
O O7 0.165429 0.746509 0.761359
O O8 0.987763 0.014187 0.849855
O O9 0.541735 0.280495 0.676004
O O10 0.322458 0.442436 0.086084
O O11 0.000000 0.500000 0.500000
O O12 0.000000 0.000000 0.500000
O O13 0.000000 0.500000 0.000000
O O14 0.296812 0.152136 0.397656
O O15 0.354436 0.650519 0.254892
O O16 0.500000 0.000000 0.000000
#
# Coordination Sequence:
#
# PCOD9019076 Si02
#       7
#     2   2   2   2   2   2   2
#     4  12  23  40  64 102 140 186 218 296 365 430
#     4  11  28  47  76 101 145 206 246 294 337 444
#     4  11  22  39  72 105 140 179 230 298 381 422
#     4  12  24  42  65  99 143 187 234 298 356 427
#     4  11  26  48  67 103 149 192 246 294 354 421
#     4  10  21  44  68 103 143 178 233 312 358 429
#     4  11  24  44  71 104 142 186 243 291 365 425
#
# _framework density 27.734022
#
# number of rings (size 3 to 8) (size 9 to 14) (size 15 to 20)
#    0.000    0.857    2.857    5.143    6.000    2.286 
#    2.571    0.000    0.000    5.143    0.000    0.000 
#    0.000    0.000    0.000    0.000    0.000    0.000 
#
# Total GULP energy -78287.522246 kJ/mol
# GULP energy per Si atom -5591.965875 kJ/mol
# Density = 2.767090 g / cm^3
# Si number density = 27.734022 Si / 1000 Ang^3
#
#
#
# Elastic Constant Matrix: (Units=GPa)
#
#
# Indices 1 2 3 4 5 6 
#
# 1 118.1514 57.6298 18.1860 5.0216 8.2627 15.3319
# 2 57.6298 245.6089 31.6154 8.8082 8.9597 0.1921
# 3 18.1860 31.6154 123.4636 14.8835 19.9088 -14.8996
# 4 5.0216 8.8082 14.8835 49.4001 -10.2714 -6.8352
# 5 8.2627 8.9597 19.9088 -10.2714 22.1629 5.2723
# 6 15.3319 0.1921 -14.8996 -6.8352 5.2723 59.6140
#
#
#
# Elastic Compliance Matrix: (Units=1/GPa)
#
#
# Indices 1 2 3 4 5 6 
#
# 1 0.010204 -0.002168 -0.000788 -0.001240 -0.002137 -0.002767
# 2 -0.002168 0.004713 -0.000629 -0.000560 -0.000886 0.000399
# 3 -0.000788 -0.000629 0.011650 -0.005593 -0.013380 0.003658
# 4 -0.001240 -0.000560 -0.005593 0.025863 0.017621 0.000330
# 5 -0.002137 -0.000886 -0.013380 0.017621 0.068077 -0.006792
# 6 -0.002767 0.000399 0.003658 0.000330 -0.006792 0.019038
#
#
# Mechanical properties :
#
#
# Convention : Reuss Voigt Hill
#
# Bulk Modulus (GPa) = 51.55363 78.00959 64.78161
# Shear Modulus (GPa) = 32.64124 51.55491 42.09808
#
# Velocity S-wave (km/s) = 3.43438 4.31618 3.90028
# Velocity P-wave (km/s) = 5.86136 7.28203 6.60998
#
# Compressibility (1/GPa) = 0.01939728
#
# Stress axis : x y z
#
# Youngs Moduli (GPa) = 98.00272 212.16463 85.83753
#
# Poissons Ratio (x) = 0.46002 0.06761
# Poissons Ratio (y) = 0.21249 0.05399
# Poissons Ratio (z) = 0.07719 0.13344
#
# Static dielectric constant tensor:
#      x y z
#    x 2.316470 -0.042110 -0.026620 
#    y -0.042110 1.883120 -0.089930 
#    z -0.026620 -0.089930 2.170730 
# 
# From -- ./inp_files/458668.got.cif
#   From: 2010.05.17/outbox.cif.g08.bks.cpg/sg2_230_cif.got.tgz:458668.got - 2010.06.03 11:33:40.
