data_PCOD9019246
_publ_section_title
;
Structure prediction by ZEFSAII (Michael W. Deem and Ramdas Pophale) SiO2 
 PCOD9019246
Probable space group: P -1
;
_chemical_formula_sum "Si O2"
_cell_formula_units_Z 14
_cell_length_a 13.604004
_cell_length_b 5.269746
_cell_length_c 9.417735
_cell_angle_alpha 74.052370
_cell_angle_beta 80.780684
_cell_angle_gamma 69.547104
_cell_volume 606.699259
_symmetry_space_group_name_H-M "P -1"
_symmetry_group_IT_number 2
_symmetry_cell_setting 'triclinic'
loop_
_space_group_symop_operation_xyz
x,y,z
-x,-y,-z
loop_
_atom_site_type_symbol
_atom_site_label
_atom_site_fract_x
_atom_site_fract_y
_atom_site_fract_z
Si Si1 0.351855 0.741844 0.271590
Si Si2 0.690962 0.892497 0.063244
Si Si3 0.158854 0.169618 0.731817
Si Si4 0.254733 0.245706 0.410054
Si Si5 0.936389 0.557650 0.772371
Si Si6 0.079632 0.752108 0.926347
Si Si7 0.565889 0.453267 0.137117
O O1 0.289382 0.518744 0.334172
O O2 0.474561 0.560023 0.258141
O O3 0.333619 0.962924 0.369662
O O4 0.313921 0.934046 0.108164
O O5 0.631119 0.127659 0.158224
O O6 0.803671 0.756919 0.134083
O O7 0.633538 0.663473 0.090799
O O8 0.229302 0.223013 0.583633
O O9 0.035656 0.334552 0.707774
O O10 0.160438 0.855447 0.802293
O O11 0.146070 0.275109 0.347537
O O12 0.999140 0.695272 0.842042
O O13 0.871268 0.444007 0.921070
O O14 0.000000 0.000000 0.000000
O O15 0.500000 0.500000 0.000000
#
# Coordination Sequence:
#
# PCOD9019246 Si02
#       7
#     2   2   2   2   2   2   2
#     4  11  24  44  67  97 129 166 223 267 326 389
#     4  11  23  41  75  96 127 169 219 273 324 378
#     4  11  26  41  62  98 135 172 218 262 324 391
#     4  12  27  41  65  97 137 179 210 263 328 390
#     4  10  23  41  66  90 134 175 222 265 318 376
#     4   9  21  40  64  92 126 164 231 269 312 365
#     4  10  21  44  70 101 124 163 219 280 324 378
#
# _framework density 23.075685
#
# number of rings (size 3 to 8) (size 9 to 14) (size 15 to 20)
#    0.000    1.429    0.000    5.571   14.000    0.571 
#    0.000    4.286    0.000    0.000    0.000    0.000 
#    0.000    0.000    0.000    0.000    0.000    0.000 
#
# Total GULP energy -78150.046750 kJ/mol
# GULP energy per Si atom -5582.146196 kJ/mol
# Density = 2.302316 g / cm^3
# Si number density = 23.075685 Si / 1000 Ang^3
#
#
#
# Elastic Constant Matrix: (Units=GPa)
#
#
# Indices 1 2 3 4 5 6 
#
# 1 71.9424 17.9099 10.5585 -19.7845 -14.4492 13.5830
# 2 17.9099 104.3185 22.8405 5.0230 -15.9797 13.1158
# 3 10.5585 22.8405 104.0775 -1.6895 -25.0445 5.5239
# 4 -19.7845 5.0230 -1.6895 22.3977 -4.0606 -11.1104
# 5 -14.4492 -15.9797 -25.0445 -4.0606 29.5042 -0.4893
# 6 13.5830 13.1158 5.5239 -11.1104 -0.4893 42.3567
#
#
#
# Elastic Compliance Matrix: (Units=1/GPa)
#
#
# Indices 1 2 3 4 5 6 
#
# 1 0.024643 -0.003558 0.002503 0.025484 0.015769 -0.000261
# 2 -0.003558 0.011784 -0.001603 -0.007637 0.002157 -0.004277
# 3 0.002503 -0.001603 0.012670 0.005487 0.011861 -0.000382
# 4 0.025484 -0.007637 0.005487 0.081179 0.024424 0.015053
# 5 0.015769 0.002157 0.011861 0.024424 0.056210 -0.000216
# 6 -0.000261 -0.004277 -0.000382 0.015053 -0.000216 0.029013
#
#
# Mechanical properties :
#
#
# Convention : Reuss Voigt Hill
#
# Bulk Modulus (GPa) = 22.84107 42.55068 32.69588
# Shear Modulus (GPa) = 21.23974 34.12035 27.68005
#
# Velocity S-wave (km/s) = 3.03716 3.84946 3.46718
# Velocity P-wave (km/s) = 4.71370 6.18365 5.49802
#
# Compressibility (1/GPa) = 0.04378079
#
# Stress axis : x y z
#
# Youngs Moduli (GPa) = 40.57969 84.86300 78.92931
#
# Poissons Ratio (x) = 0.30191 -0.19755
# Poissons Ratio (y) = 0.14436 0.12652
# Poissons Ratio (z) = -0.10156 0.13603
#
# Static dielectric constant tensor:
#      x y z
#    x 1.916320 -0.036600 -0.035420 
#    y -0.036600 2.063300 0.011680 
#    z -0.035420 0.011680 1.851780 
# 
# From -- ./inp_files/229545.got.cif
#   From: 2010.05.17/outbox.cif.g08.bks.cpg/sg2_115_cif.got.tgz:229545.got - 2010.06.03 11:33:40.
