data_PCOD9019074
_publ_section_title
;
Structure prediction by ZEFSAII (Michael W. Deem and Ramdas Pophale) SiO2 
 PCOD9019074
Probable space group: P -1
;
_chemical_formula_sum "Si O2"
_cell_formula_units_Z 16
_cell_length_a 21.588608
_cell_length_b 14.293907
_cell_length_c 8.663322
_cell_angle_alpha 39.576155
_cell_angle_beta 31.471052
_cell_angle_gamma 24.556132
_cell_volume 579.871302
_symmetry_space_group_name_H-M "P -1"
_symmetry_group_IT_number 2
_symmetry_cell_setting 'triclinic'
loop_
_space_group_symop_operation_xyz
x,y,z
-x,-y,-z
loop_
_atom_site_type_symbol
_atom_site_label
_atom_site_fract_x
_atom_site_fract_y
_atom_site_fract_z
Si Si1 0.985994 0.233075 0.139966
Si Si2 0.365052 0.615983 0.878484
Si Si3 0.882150 0.806480 0.590589
Si Si4 0.674885 0.907431 0.377468
Si Si5 0.182549 0.507367 0.550524
Si Si6 0.779254 0.416239 0.057087
Si Si7 0.566953 0.115005 0.648841
Si Si8 0.730727 0.122005 0.774482
O O1 0.833807 0.458933 0.276091
O O2 0.891280 0.248014 0.177799
O O3 0.128977 0.225823 0.799279
O O4 0.344733 0.809206 0.686484
O O5 0.240522 0.617806 0.234916
O O6 0.103192 0.022843 0.274580
O O7 0.322870 0.600864 0.814998
O O8 0.571287 0.389097 0.778309
O O9 0.981769 0.650217 0.730679
O O10 0.058555 0.665886 0.286023
O O11 0.717786 0.903707 0.711674
O O12 0.792152 0.029901 0.587090
O O13 0.305610 0.268030 0.517929
O O14 0.546789 0.044436 0.622918
O O15 0.643442 0.056628 0.120649
O O16 0.619521 0.670756 0.138147
#
# Coordination Sequence:
#
# PCOD9019074 Si02
#       8
#     2   2   2   2   2   2   2   2
#     4   9  21  43  66 106 139 181 230 293 345 412
#     4  11  25  45  69 106 142 185 237 286 346 423
#     4  10  21  44  68 103 137 182 232 283 349 410
#     4  10  23  46  70 102 143 185 229 295 352 409
#     4  10  23  44  74 101 138 190 236 284 352 422
#     4  11  23  44  70 103 140 187 227 286 353 413
#     4  12  25  46  70 104 149 181 230 297 347 414
#     4   9  21  43  69 100 143 183 227 292 350 408
#
# _framework density 27.59233
#
# number of rings (size 3 to 8) (size 9 to 14) (size 15 to 20)
#    0.750    1.000    2.500    0.750    1.750    3.500 
#    2.250    3.750    0.000    0.000    0.000    0.000 
#    0.000    0.000    0.000    0.000    0.000    0.000 
#
# Total GULP energy -89485.677578 kJ/mol
# GULP energy per Si atom -5592.854849 kJ/mol
# Density = 2.752953 g / cm^3
# Si number density = 27.592330 Si / 1000 Ang^3
#
#
#
# Elastic Constant Matrix: (Units=GPa)
#
#
# Indices 1 2 3 4 5 6 
#
# 1 112.3345 47.6688 49.6638 8.0179 11.4343 0.0567
# 2 47.6688 83.0907 32.2070 -2.7381 -11.0043 8.1785
# 3 49.6638 32.2070 145.5722 13.6657 5.7782 3.4319
# 4 8.0179 -2.7381 13.6657 34.1390 0.6744 -4.9621
# 5 11.4343 -11.0043 5.7782 0.6744 47.5832 8.6721
# 6 0.0567 8.1785 3.4319 -4.9621 8.6721 44.8007
#
#
#
# Elastic Compliance Matrix: (Units=1/GPa)
#
#
# Indices 1 2 3 4 5 6 
#
# 1 0.014293 -0.008206 -0.002670 -0.002482 -0.005421 0.002459
# 2 -0.008206 0.019000 -0.001916 0.003441 0.007343 -0.004352
# 3 -0.002670 -0.001916 0.008525 -0.002997 -0.000704 -0.000496
# 4 -0.002482 0.003441 -0.002997 0.031768 0.000763 0.002975
# 5 -0.005421 0.007343 -0.000704 0.000763 0.025198 -0.006073
# 6 0.002459 -0.004352 -0.000496 0.002975 -0.006073 0.024655
#
#
# Mechanical properties :
#
#
# Convention : Reuss Voigt Hill
#
# Bulk Modulus (GPa) = 61.60361 66.67517 64.13939
# Shear Modulus (GPa) = 32.37616 39.40179 35.88897
#
# Velocity S-wave (km/s) = 3.42917 3.78299 3.61042
# Velocity P-wave (km/s) = 6.16878 6.58013 6.37777
#
# Compressibility (1/GPa) = 0.01623282
#
# Stress axis : x y z
#
# Youngs Moduli (GPa) = 69.96648 52.63237 117.29796
#
# Poissons Ratio (x) = 0.43192 0.31322
# Poissons Ratio (y) = 0.57417 0.22471
# Poissons Ratio (z) = 0.18683 0.10083
#
# Static dielectric constant tensor:
#      x y z
#    x 2.056770 -0.000610 -0.019720 
#    y -0.000610 2.199980 -0.041340 
#    z -0.019720 -0.041340 2.208520 
# 
# From -- ./inp_files/347212.got.cif
#   From: 2010.05.17/outbox.cif.g08.bks.cpg/sg2_174_cif.got.tgz:347212.got - 2010.06.03 11:33:40.
