data_PCOD9019936
_publ_section_title
;
Structure prediction by ZEFSAII (Michael W. Deem and Ramdas Pophale) SiO2 
 PCOD9019936
Probable space group: P -1
;
_chemical_formula_sum "Si O2"
_cell_formula_units_Z 14
_cell_length_a 25.441576
_cell_length_b 9.062596
_cell_length_c 18.795165
_cell_angle_alpha 151.564861
_cell_angle_beta 163.682237
_cell_angle_gamma 36.533668
_cell_volume 552.658549
_symmetry_space_group_name_H-M "P -1"
_symmetry_group_IT_number 2
_symmetry_cell_setting 'triclinic'
loop_
_space_group_symop_operation_xyz
x,y,z
-x,-y,-z
loop_
_atom_site_type_symbol
_atom_site_label
_atom_site_fract_x
_atom_site_fract_y
_atom_site_fract_z
Si Si1 0.447264 0.761992 0.492770
Si Si2 0.204448 0.297132 0.161975
Si Si3 0.935850 0.630764 0.546576
Si Si4 0.159435 0.341208 0.832355
Si Si5 0.332227 0.880463 0.789972
Si Si6 0.294442 0.275677 0.585331
Si Si7 0.017683 0.375970 0.086155
O O1 0.500000 0.500000 0.500000
O O2 0.623724 0.840529 0.698465
O O3 0.432311 0.065646 0.647328
O O4 0.250547 0.583212 0.117796
O O5 0.201659 0.389307 0.279311
O O6 0.158986 0.557769 0.161079
O O7 0.003436 0.007291 0.775105
O O8 0.738595 0.607170 0.327611
O O9 0.000000 0.500000 0.500000
O O10 0.066737 0.514402 0.725689
O O11 0.329518 0.205671 0.965178
O O12 0.000000 0.000000 0.500000
O O13 0.349642 0.600020 0.747284
O O14 0.117677 0.686757 0.396480
O O15 0.500000 0.000000 0.000000
O O16 0.082094 0.996051 0.176402
#
# Coordination Sequence:
#
# PCOD9019936 Si02
#       7
#     2   2   2   2   2   2   2
#     4  12  27  46  75 112 151 197 259 319 374 455
#     4  10  23  42  72 102 145 198 261 304 369 452
#     4  11  26  47  77 110 149 201 259 314 384 458
#     4  12  27  49  76 108 156 202 248 318 390 450
#     4  12  26  44  72 113 156 190 251 325 388 447
#     4  11  25  46  77 108 146 205 255 310 384 462
#     4  10  21  45  73 101 145 206 256 303 372 461
#
# _framework density 25.332097999999998
#
# number of rings (size 3 to 8) (size 9 to 14) (size 15 to 20)
#    0.000    0.857    2.857    3.000    8.000    0.571 
#    2.571    1.429    0.000    0.000    0.000    0.000 
#    0.000    0.000    0.000    0.000    0.000    0.000 
#
# Total GULP energy -78077.140213 kJ/mol
# GULP energy per Si atom -5576.938587 kJ/mol
# Density = 2.527444 g / cm^3
# Si number density = 25.332098 Si / 1000 Ang^3
#
#
#
# Elastic Constant Matrix: (Units=GPa)
#
#
# Indices 1 2 3 4 5 6 
#
# 1 160.4456 66.5978 55.4407 3.7572 10.4320 -39.3206
# 2 66.5978 147.9192 21.7678 11.2896 -2.0181 -20.5561
# 3 55.4407 21.7678 113.9321 11.5794 -4.4825 -5.0389
# 4 3.7572 11.2896 11.5794 33.6424 -9.1003 -1.1114
# 5 10.4320 -2.0181 -4.4825 -9.1003 55.0783 -3.4420
# 6 -39.3206 -20.5561 -5.0389 -1.1114 -3.4420 65.3941
#
#
#
# Elastic Compliance Matrix: (Units=1/GPa)
#
#
# Indices 1 2 3 4 5 6 
#
# 1 0.010496 -0.003527 -0.004418 0.001152 -0.001988 0.004777
# 2 -0.003527 0.008569 0.000376 -0.002416 0.000651 0.000595
# 3 -0.004418 0.000376 0.011153 -0.003224 0.001121 -0.001674
# 4 0.001152 -0.002416 -0.003224 0.032855 0.004891 0.000501
# 5 -0.001988 0.000651 0.001121 0.004891 0.019468 0.000203
# 6 0.004777 0.000595 -0.001674 0.000501 0.000203 0.018242
#
#
# Mechanical properties :
#
#
# Convention : Reuss Voigt Hill
#
# Bulk Modulus (GPa) = 66.30639 78.87882 72.59260
# Shear Modulus (GPa) = 41.34084 49.38903 45.36493
#
# Velocity S-wave (km/s) = 4.04413 4.42029 4.23639
# Velocity P-wave (km/s) = 6.93097 7.56686 7.25588
#
# Compressibility (1/GPa) = 0.01508150
#
# Stress axis : x y z
#
# Youngs Moduli (GPa) = 95.27454 116.70209 89.66507
#
# Poissons Ratio (x) = 0.41157 0.39611
# Poissons Ratio (y) = 0.33600 -0.03375
# Poissons Ratio (z) = 0.42089 -0.04393
#
# Static dielectric constant tensor:
#      x y z
#    x 2.251680 -0.134490 -0.037080 
#    y -0.134490 2.047700 -0.028280 
#    z -0.037080 -0.028280 2.079110 
# 
# From -- ./inp_files/579080.got.cif
#   From: 2010.05.17/outbox.cif.g08.bks.cpg/sg2_290_cif.got.tgz:579080.got - 2010.06.03 11:33:40.
