data_PCOD9019177
_publ_section_title
;
Structure prediction by ZEFSAII (Michael W. Deem and Ramdas Pophale) SiO2 
 PCOD9019177
Probable space group: P -1
;
_chemical_formula_sum "Si O2"
_cell_formula_units_Z 16
_cell_length_a 19.650508
_cell_length_b 8.245770
_cell_length_c 10.088841
_cell_angle_alpha 70.545151
_cell_angle_beta 152.606051
_cell_angle_gamma 103.374933
_cell_volume 701.349340
_symmetry_space_group_name_H-M "P -1"
_symmetry_group_IT_number 2
_symmetry_cell_setting 'triclinic'
loop_
_space_group_symop_operation_xyz
x,y,z
-x,-y,-z
loop_
_atom_site_type_symbol
_atom_site_label
_atom_site_fract_x
_atom_site_fract_y
_atom_site_fract_z
Si Si1 0.811453 0.413430 0.810758
Si Si2 0.219744 0.215193 0.326133
Si Si3 0.911801 0.058194 0.662317
Si Si4 0.670427 0.048603 0.024189
Si Si5 0.117544 0.934580 0.836238
Si Si6 0.419433 0.254311 0.915136
Si Si7 0.447901 0.379482 0.555891
Si Si8 0.259780 0.627580 0.590285
O O1 0.878433 0.593716 0.877710
O O2 0.636149 0.481577 0.523002
O O3 0.810180 0.335527 0.685628
O O4 0.878811 0.269614 0.070025
O O5 0.346311 0.203618 0.664434
O O6 0.316047 0.254494 0.351566
O O7 0.126840 0.062942 0.247710
O O8 0.806110 0.005083 0.374881
O O9 0.853433 0.258926 0.538183
O O10 0.070418 0.028164 0.868867
O O11 0.727591 0.043260 0.973662
O O12 0.566904 0.905256 0.917180
O O13 0.591980 0.241118 0.871574
O O14 0.000000 0.000000 0.500000
O O15 0.308226 0.419174 0.737862
O O16 0.581591 0.301709 0.152371
O O17 0.500000 0.500000 0.500000
#
# Coordination Sequence:
#
# PCOD9019177 Si02
#       8
#     2   2   2   2   2   2   2   2
#     4   9  20  35  51  80 110 135 172 217 268 312
#     4   8  17  32  52  84 104 133 176 219 258 298
#     4  10  20  32  57  80 105 142 179 215 251 313
#     4  10  18  34  56  79 109 134 181 219 257 304
#     4  10  21  37  55  77 101 144 186 218 254 304
#     4   9  18  32  54  80 112 137 167 217 267 316
#     4  10  17  30  55  79 103 137 166 224 266 301
#     4  10  19  33  51  83 110 138 169 210 274 320
#
# _framework density 22.813165999999999
#
# number of rings (size 3 to 8) (size 9 to 14) (size 15 to 20)
#    0.750    1.750    1.250    1.500    1.750    3.000 
#    0.000    1.250    0.000    0.000    0.000    0.000 
#    0.000    0.000    0.000    0.000    0.000    0.000 
#
# Total GULP energy -89081.563157 kJ/mol
# GULP energy per Si atom -5567.597697 kJ/mol
# Density = 2.276124 g / cm^3
# Si number density = 22.813166 Si / 1000 Ang^3
#
#
#
# Elastic Constant Matrix: (Units=GPa)
#
#
# Indices 1 2 3 4 5 6 
#
# 1 143.0701 39.7933 25.7311 -12.9006 20.8006 8.9620
# 2 39.7933 77.7079 34.7840 -12.5039 -3.8353 23.5298
# 3 25.7311 34.7840 58.2820 -22.5120 -1.2350 19.3136
# 4 -12.9006 -12.5039 -22.5120 44.2853 2.1172 0.3772
# 5 20.8006 -3.8353 -1.2350 2.1172 31.4586 -15.4322
# 6 8.9620 23.5298 19.3136 0.3772 -15.4322 29.3569
#
#
#
# Elastic Compliance Matrix: (Units=1/GPa)
#
#
# Indices 1 2 3 4 5 6 
#
# 1 0.009972 -0.003659 0.000491 0.002649 -0.010010 -0.005731
# 2 -0.003659 0.021784 -0.006224 0.002119 -0.001797 -0.013220
# 3 0.000491 -0.006224 0.035735 0.017425 -0.013640 -0.026065
# 4 0.002649 0.002119 0.017425 0.033646 -0.013662 -0.021585
# 5 -0.010010 -0.001797 -0.013640 -0.013662 0.060994 0.045708
# 6 -0.005731 -0.013220 -0.026065 -0.021585 0.045708 0.087861
#
#
# Mechanical properties :
#
#
# Convention : Reuss Voigt Hill
#
# Bulk Modulus (GPa) = 20.53109 53.29742 36.91426
# Shear Modulus (GPa) = 17.54315 32.93696 25.24005
#
# Velocity S-wave (km/s) = 2.77608 3.80382 3.32984
# Velocity P-wave (km/s) = 4.39257 6.53493 5.56777
#
# Compressibility (1/GPa) = 0.04870661
#
# Stress axis : x y z
#
# Youngs Moduli (GPa) = 100.27979 45.90549 27.98386
#
# Poissons Ratio (x) = 0.16797 -0.01375
# Poissons Ratio (y) = 0.36693 0.17418
# Poissons Ratio (z) = -0.04927 0.28573
#
# Static dielectric constant tensor:
#      x y z
#    x 1.914080 0.016320 0.034580 
#    y 0.016320 1.888480 0.030280 
#    z 0.034580 0.030280 1.928640 
# 
# From -- ./inp_files/468869.got.cif
#   From: 2010.05.17/outbox.cif.g08.bks.cpg/sg2_235_cif.got.tgz:468869.got - 2010.06.03 11:33:40.
