data_PCOD9019190
_publ_section_title
;
Structure prediction by ZEFSAII (Michael W. Deem and Ramdas Pophale) SiO2 
 PCOD9019190
Probable space group: P -1
;
_chemical_formula_sum "Si O2"
_cell_formula_units_Z 13
_cell_length_a 14.741971
_cell_length_b 10.792183
_cell_length_c 20.681923
_cell_angle_alpha 155.489961
_cell_angle_beta 157.530192
_cell_angle_gamma 35.791743
_cell_volume 512.507486
_symmetry_space_group_name_H-M "P -1"
_symmetry_group_IT_number 2
_symmetry_cell_setting 'triclinic'
loop_
_space_group_symop_operation_xyz
x,y,z
-x,-y,-z
loop_
_atom_site_type_symbol
_atom_site_label
_atom_site_fract_x
_atom_site_fract_y
_atom_site_fract_z
Si Si1 0.242838 0.432745 0.365943
Si Si2 0.029571 0.151252 0.856828
Si Si3 0.563288 0.234455 0.228928
Si Si4 0.429336 0.249893 0.620416
Si Si5 0.803749 0.680023 0.157138
Si Si6 0.153077 0.940804 0.975558
Si Si7 0.500000 0.500000 0.000000
O O1 0.438167 0.606290 0.626051
O O2 0.309828 0.203229 0.248048
O O3 0.083706 0.652341 0.330576
O O4 0.058266 0.226755 0.196510
O O5 0.280551 0.105042 0.968822
O O6 0.794207 0.924995 0.567828
O O7 0.000000 0.500000 0.000000
O O8 0.040938 0.070668 0.901462
O O9 0.642891 0.484742 0.345330
O O10 0.735015 0.990682 0.233827
O O11 0.652899 0.406203 0.885368
O O12 0.500000 0.000000 0.500000
O O13 0.700916 0.620603 0.133049
O O14 0.320932 0.715137 0.955111
#
# Coordination Sequence:
#
# PCOD9019190 Si02
#       7
#     2   2   2   2   2   2   1
#     4  10  23  42  79 100 146 193 244 299 369 433
#     4  12  25  43  71 107 147 189 248 294 367 441
#     4  12  25  46  72 109 145 192 248 300 368 439
#     4  12  26  48  75 100 149 196 243 304 359 442
#     4  11  25  47  73 109 146 195 242 306 371 433
#     4  10  21  44  69 107 141 193 242 301 363 434
#     4  10  22  42  70 102 152 172 244 310 354 422
#
# _framework density 25.365483000000001
#
# number of rings (size 3 to 8) (size 9 to 14) (size 15 to 20)
#    0.000    0.923    4.615    1.846    4.308    1.231 
#    2.769    1.538    0.000    0.000    0.000    0.000 
#    0.000    0.000    0.000    0.000    0.000    0.000 
#
# Total GULP energy -72632.468488 kJ/mol
# GULP energy per Si atom -5587.112961 kJ/mol
# Density = 2.530775 g / cm^3
# Si number density = 25.365483 Si / 1000 Ang^3
#
#
#
# Elastic Constant Matrix: (Units=GPa)
#
#
# Indices 1 2 3 4 5 6 
#
# 1 34.0060 18.6143 5.6472 6.5573 7.9712 14.0187
# 2 18.6143 161.5148 4.8759 11.3125 16.0920 22.0465
# 3 5.6472 4.8759 90.6203 -4.8730 -1.9028 -1.4640
# 4 6.5573 11.3125 -4.8730 31.4572 5.3407 8.2176
# 5 7.9712 16.0920 -1.9028 5.3407 32.5122 -2.4941
# 6 14.0187 22.0465 -1.4640 8.2176 -2.4941 22.2882
#
#
#
# Elastic Compliance Matrix: (Units=1/GPa)
#
#
# Indices 1 2 3 4 5 6 
#
# 1 0.045914 0.000480 -0.003675 0.000259 -0.014151 -0.031274
# 2 0.000480 0.007793 -0.000685 0.000030 -0.004679 -0.008590
# 3 -0.003675 -0.000685 0.011481 0.001586 0.001910 0.003372
# 4 0.000259 0.000030 0.001586 0.036983 -0.007175 -0.014527
# 5 -0.014151 -0.004679 0.001910 -0.007175 0.039422 0.020711
# 6 -0.031274 -0.008590 0.003372 -0.014527 0.020711 0.080930
#
#
# Mechanical properties :
#
#
# Convention : Reuss Voigt Hill
#
# Bulk Modulus (GPa) = 17.41318 38.26843 27.84081
# Shear Modulus (GPa) = 20.04604 34.38510 27.21557
#
# Velocity S-wave (km/s) = 2.81426 3.68582 3.27913
# Velocity P-wave (km/s) = 4.17611 5.76483 5.03355
#
# Compressibility (1/GPa) = 0.05742776
#
# Stress axis : x y z
#
# Youngs Moduli (GPa) = 21.77997 128.31394 87.10201
#
# Poissons Ratio (x) = -0.06160 0.32014
# Poissons Ratio (y) = -0.01046 0.05964
# Poissons Ratio (z) = 0.08005 0.08785
#
# Static dielectric constant tensor:
#      x y z
#    x 1.989120 0.006230 -0.004670 
#    y 0.006230 1.929830 0.030510 
#    z -0.004670 0.030510 2.095310 
# 
# From -- ./inp_files/280164.got.cif
#   From: 2010.05.17/outbox.cif.g08.bks.cpg/sg2_141_cif.got.tgz:280164.got - 2010.06.03 11:33:40.
