data_PCOD9019293
_publ_section_title
;
Structure prediction by ZEFSAII (Michael W. Deem and Ramdas Pophale) SiO2 
 PCOD9019293
Probable space group: P -1
;
_chemical_formula_sum "Si O2"
_cell_formula_units_Z 16
_cell_length_a 9.363519
_cell_length_b 8.766224
_cell_length_c 12.918123
_cell_angle_alpha 76.594088
_cell_angle_beta 89.481746
_cell_angle_gamma 45.372627
_cell_volume 715.730897
_symmetry_space_group_name_H-M "P -1"
_symmetry_group_IT_number 2
_symmetry_cell_setting 'triclinic'
loop_
_space_group_symop_operation_xyz
x,y,z
-x,-y,-z
loop_
_atom_site_type_symbol
_atom_site_label
_atom_site_fract_x
_atom_site_fract_y
_atom_site_fract_z
Si Si1 0.910019 0.459152 0.598179
Si Si2 0.612409 0.770102 0.722150
Si Si3 0.018407 0.966268 0.381206
Si Si4 0.497353 0.788683 0.075769
Si Si5 0.785060 0.744746 0.929733
Si Si6 0.703574 0.734624 0.297201
Si Si7 0.578528 0.401306 0.216429
Si Si8 0.541908 0.344803 0.613799
O O1 0.696207 0.670269 0.622209
O O2 0.000000 0.500000 0.500000
O O3 0.938998 0.251911 0.608177
O O4 0.067533 0.388465 0.698566
O O5 0.755823 0.749771 0.806064
O O6 0.540319 0.665059 0.791478
O O7 0.410132 0.035397 0.679771
O O8 0.225172 0.899323 0.361193
O O9 0.815397 0.181901 0.285618
O O10 0.000000 0.000000 0.500000
O O11 0.613475 0.760311 0.182632
O O12 0.540470 0.569250 0.107982
O O13 0.267807 0.038772 0.059773
O O14 0.603937 0.786280 0.978481
O O15 0.000000 0.500000 0.000000
O O16 0.642411 0.634191 0.383863
O O17 0.469935 0.557248 0.293977
O O18 0.500000 0.500000 0.500000
#
# Coordination Sequence:
#
# PCOD9019293 Si02
#       8
#     2   2   2   2   2   2   2   2
#     4  12  26  39  61  94 129 171 225 263 315 376
#     4  11  24  42  64  93 129 168 208 273 326 378
#     4  12  25  40  62  91 127 180 220 260 317 379
#     4   9  22  41  67  95 126 164 210 263 330 382
#     4  10  21  44  70  95 124 162 216 263 329 398
#     4  10  23  40  63  91 127 169 211 264 321 381
#     4  11  23  41  62  92 135 165 214 268 321 381
#     4  11  22  39  60  87 127 170 218 264 313 373
#
# _framework density 22.354769999999998
#
# number of rings (size 3 to 8) (size 9 to 14) (size 15 to 20)
#    0.000    1.250    3.750    1.500    3.500    4.000 
#    0.000    0.625    0.000    0.000    0.000    0.000 
#    0.000    0.000    0.000    0.000    0.000    0.000 
#
# Total GULP energy -89269.115309 kJ/mol
# GULP energy per Si atom -5579.319707 kJ/mol
# Density = 2.230389 g / cm^3
# Si number density = 22.354770 Si / 1000 Ang^3
#
#
#
# Elastic Constant Matrix: (Units=GPa)
#
#
# Indices 1 2 3 4 5 6 
#
# 1 69.3953 12.1230 -2.7094 0.0124 -8.9274 16.2919
# 2 12.1230 105.0389 17.1068 6.2944 -2.1391 4.6315
# 3 -2.7094 17.1068 55.6854 5.4402 -19.6548 10.4475
# 4 0.0124 6.2944 5.4402 38.8972 3.1026 -1.0562
# 5 -8.9274 -2.1391 -19.6548 3.1026 29.9322 -14.1575
# 6 16.2919 4.6315 10.4475 -1.0562 -14.1575 36.7254
#
#
#
# Elastic Compliance Matrix: (Units=1/GPa)
#
#
# Indices 1 2 3 4 5 6 
#
# 1 0.017216 -0.002289 0.004623 -0.000855 0.004875 -0.006809
# 2 -0.002289 0.010466 -0.004137 -0.000909 -0.002638 -0.000171
# 3 0.004623 -0.004137 0.026680 -0.004561 0.017978 -0.002319
# 4 -0.000855 -0.000909 -0.004561 0.026979 -0.005989 0.000259
# 5 0.004875 -0.002638 0.017978 -0.005989 0.053487 0.013503
# 6 -0.006809 -0.000171 -0.002319 0.000259 0.013503 0.036144
#
#
# Mechanical properties :
#
#
# Convention : Reuss Voigt Hill
#
# Bulk Modulus (GPa) = 19.70216 31.46227 25.58221
# Shear Modulus (GPa) = 26.10999 34.68423 30.39711
#
# Velocity S-wave (km/s) = 3.42128 3.94323 3.69149
# Velocity P-wave (km/s) = 4.94363 5.90226 5.44409
#
# Compressibility (1/GPa) = 0.05075586
#
# Stress axis : x y z
#
# Youngs Moduli (GPa) = 58.08412 95.54314 37.48119
#
# Poissons Ratio (x) = 0.21871 -0.17326
# Poissons Ratio (y) = 0.13296 0.15506
# Poissons Ratio (z) = -0.26849 0.39526
#
# Static dielectric constant tensor:
#      x y z
#    x 2.034750 -0.034690 -0.198480 
#    y -0.034690 1.894830 -0.195170 
#    z -0.198480 -0.195170 2.834960 
# 
# From -- ./inp_files/90499.got.cif
#   From: 2010.05.17/outbox.cif.g08.bks.cpg/sg2_46_cif.got.tgz:90499.got - 2010.06.03 11:33:40.
