data_PCOD9019263
_publ_section_title
;
Structure prediction by ZEFSAII (Michael W. Deem and Ramdas Pophale) SiO2 
 PCOD9019263
Probable space group: P -1
;
_chemical_formula_sum "Si O2"
_cell_formula_units_Z 16
_cell_length_a 11.587095
_cell_length_b 8.312233
_cell_length_c 9.245739
_cell_angle_alpha 72.294210
_cell_angle_beta 116.425580
_cell_angle_gamma 127.285481
_cell_volume 633.730625
_symmetry_space_group_name_H-M "P -1"
_symmetry_group_IT_number 2
_symmetry_cell_setting 'triclinic'
loop_
_space_group_symop_operation_xyz
x,y,z
-x,-y,-z
loop_
_atom_site_type_symbol
_atom_site_label
_atom_site_fract_x
_atom_site_fract_y
_atom_site_fract_z
Si Si1 0.837957 0.369767 0.607958
Si Si2 0.168003 0.583027 0.846140
Si Si3 0.185469 0.353133 0.683862
Si Si4 0.586038 0.923234 0.958950
Si Si5 0.066733 0.960745 0.900089
Si Si6 0.224504 0.474461 0.204125
Si Si7 0.648339 0.061381 0.348948
Si Si8 0.542659 0.644744 0.265048
O O1 0.894610 0.555904 0.475796
O O2 0.744592 0.397966 0.671172
O O3 0.735826 0.164661 0.518018
O O4 0.988403 0.416480 0.764360
O O5 0.245037 0.487434 0.824886
O O6 0.225700 0.794817 0.744567
O O7 0.212440 0.597553 0.031583
O O8 0.090901 0.124623 0.748363
O O9 0.326732 0.398928 0.652054
O O10 0.494374 0.912569 0.766472
O O11 0.767756 0.017024 0.999075
O O12 0.546891 0.727820 0.083371
O O13 0.500000 0.000000 0.000000
O O14 0.064080 0.259987 0.171404
O O15 0.000000 0.000000 0.000000
O O16 0.371254 0.464163 0.256535
O O17 0.594600 0.834236 0.348233
#
# Coordination Sequence:
#
# PCOD9019263 Si02
#       8
#     2   2   2   2   2   2   2   2
#     4  11  27  44  69 108 144 186 237 299 364 421
#     4  11  23  45  72 102 137 184 241 298 348 430
#     4  10  23  48  71  98 142 191 233 286 368 430
#     4   9  20  39  71 101 136 188 239 285 353 437
#     4  11  24  44  72 114 141 187 244 303 364 427
#     4  12  26  44  72 107 145 180 243 303 354 420
#     4  10  21  44  70 103 137 188 245 283 355 436
#     4  10  23  43  76 103 138 193 237 290 362 431
#
# _framework density 25.247320999999999
#
# number of rings (size 3 to 8) (size 9 to 14) (size 15 to 20)
#    0.000    1.500    2.500    1.875    5.250    6.000 
#    2.250    0.000    0.000    0.000    0.000    0.000 
#    0.000    0.000    0.000    0.000    0.000    0.000 
#
# Total GULP energy -89443.868159 kJ/mol
# GULP energy per Si atom -5590.241760 kJ/mol
# Density = 2.518986 g / cm^3
# Si number density = 25.247321 Si / 1000 Ang^3
#
#
#
# Elastic Constant Matrix: (Units=GPa)
#
#
# Indices 1 2 3 4 5 6 
#
# 1 170.9959 46.9705 44.4810 12.2712 18.2276 16.2317
# 2 46.9705 53.3277 29.1091 5.6538 14.4670 11.9567
# 3 44.4810 29.1091 103.7300 12.5010 -5.9190 -2.1300
# 4 12.2712 5.6538 12.5010 25.8865 4.6597 7.6174
# 5 18.2276 14.4670 -5.9190 4.6597 43.9093 2.4812
# 6 16.2317 11.9567 -2.1300 7.6174 2.4812 39.0345
#
#
#
# Elastic Compliance Matrix: (Units=1/GPa)
#
#
# Indices 1 2 3 4 5 6 
#
# 1 0.008225 -0.005125 -0.002113 -0.000942 -0.001817 -0.001667
# 2 -0.005125 0.031381 -0.007689 0.003277 -0.009147 -0.007959
# 3 -0.002113 -0.007689 0.013914 -0.006506 0.005700 0.004901
# 4 -0.000942 0.003277 -0.006506 0.045333 -0.005843 -0.009442
# 5 -0.001817 -0.009147 0.005700 -0.005843 0.027747 0.003245
# 6 -0.001667 -0.007959 0.004901 -0.009442 0.003245 0.030653
#
#
# Mechanical properties :
#
#
# Convention : Reuss Voigt Hill
#
# Bulk Modulus (GPa) = 42.25369 63.24167 52.74768
# Shear Modulus (GPa) = 25.64152 35.59894 30.62023
#
# Velocity S-wave (km/s) = 3.19033 3.75908 3.48632
# Velocity P-wave (km/s) = 5.50846 6.62904 6.09456
#
# Compressibility (1/GPa) = 0.02366657
#
# Stress axis : x y z
#
# Youngs Moduli (GPa) = 121.58217 31.86626 71.86829
#
# Poissons Ratio (x) = 0.16330 0.15188
# Poissons Ratio (y) = 0.62305 0.55260
# Poissons Ratio (z) = 0.25694 0.24502
#
# Static dielectric constant tensor:
#      x y z
#    x 2.077690 0.031600 -0.003450 
#    y 0.031600 2.062850 0.009690 
#    z -0.003450 0.009690 2.039270 
# 
# From -- ./inp_files/243646.got.cif
#   From: 2010.05.17/outbox.cif.g08.bks.cpg/sg2_122_cif.got.tgz:243646.got - 2010.06.03 11:33:40.
