data_PCOD9019730
_publ_section_title
;
Structure prediction by ZEFSAII (Michael W. Deem and Ramdas Pophale) SiO2 
 PCOD9019730
Probable space group: P -1
;
_chemical_formula_sum "Si O2"
_cell_formula_units_Z 14
_cell_length_a 18.546829
_cell_length_b 7.211480
_cell_length_c 8.939525
_cell_angle_alpha 50.605826
_cell_angle_beta 126.795174
_cell_angle_gamma 141.325113
_cell_volume 563.999561
_symmetry_space_group_name_H-M "P -1"
_symmetry_group_IT_number 2
_symmetry_cell_setting 'triclinic'
loop_
_space_group_symop_operation_xyz
x,y,z
-x,-y,-z
loop_
_atom_site_type_symbol
_atom_site_label
_atom_site_fract_x
_atom_site_fract_y
_atom_site_fract_z
Si Si1 0.233745 0.461919 0.877134
Si Si2 0.474549 0.902946 0.845872
Si Si3 0.071097 0.575983 0.899716
Si Si4 0.578779 0.327425 0.521870
Si Si5 0.675859 0.922139 0.137429
Si Si6 0.822818 0.752223 0.772189
Si Si7 0.992741 0.789824 0.465695
O O1 0.341778 0.579611 0.842560
O O2 0.119123 0.327287 0.709885
O O3 0.275303 0.785131 0.839460
O O4 0.215274 0.249019 0.104186
O O5 0.496067 0.187340 0.638250
O O6 0.571765 0.871021 0.940199
O O7 0.500000 0.000000 0.000000
O O8 0.995233 0.546015 0.683770
O O9 0.201664 0.923857 0.876008
O O10 0.095142 0.336060 0.048998
O O11 0.000000 0.500000 0.000000
O O12 0.613542 0.609436 0.317401
O O13 0.705449 0.476151 0.675933
O O14 0.500000 0.000000 0.500000
O O15 0.896262 0.028775 0.601741
O O16 0.000000 0.000000 0.500000
#
# Coordination Sequence:
#
# PCOD9019730 Si02
#       7
#     2   2   2   2   2   2   2
#     4  10  24  46  69  99 141 185 230 282 345 417
#     4  10  21  45  67  95 140 173 236 278 337 416
#     4  11  22  41  68  97 141 175 227 284 345 407
#     4  12  25  42  71 100 138 181 231 285 342 403
#     4  10  23  45  69  97 137 185 228 278 347 410
#     4  11  23  47  65 100 141 184 227 284 348 415
#     4  12  25  43  71 101 141 176 235 288 345 405
#
# _framework density 24.822717999999998
#
# number of rings (size 3 to 8) (size 9 to 14) (size 15 to 20)
#    0.000    1.143    7.143    0.429    2.000    5.143 
#    5.143    0.000    0.000    0.000    0.000    0.000 
#    0.000    0.000    0.000    0.000    0.000    0.000 
#
# Total GULP energy -78194.920430 kJ/mol
# GULP energy per Si atom -5585.351459 kJ/mol
# Density = 2.476622 g / cm^3
# Si number density = 24.822718 Si / 1000 Ang^3
#
#
#
# Elastic Constant Matrix: (Units=GPa)
#
#
# Indices 1 2 3 4 5 6 
#
# 1 67.4138 41.1260 26.6070 -4.9981 -18.2356 35.0944
# 2 41.1260 143.6229 61.9710 9.9844 -27.1182 30.4938
# 3 26.6070 61.9710 173.4175 -14.2257 -24.7709 22.9171
# 4 -4.9981 9.9844 -14.2257 66.2385 18.0440 -7.2242
# 5 -18.2356 -27.1182 -24.7709 18.0440 37.5737 -6.6098
# 6 35.0944 30.4938 22.9171 -7.2242 -6.6098 53.9195
#
#
#
# Elastic Compliance Matrix: (Units=1/GPa)
#
#
# Indices 1 2 3 4 5 6 
#
# 1 0.026538 -0.002558 -0.000009 -0.001761 0.009248 -0.014925
# 2 -0.002558 0.011085 -0.002550 -0.004599 0.006703 -0.003314
# 3 -0.000009 -0.002550 0.007243 0.001228 0.002128 -0.001205
# 4 -0.001761 -0.004599 0.001228 0.019680 -0.012044 0.004385
# 5 0.009248 0.006703 0.002128 -0.012044 0.041861 -0.007196
# 6 -0.014925 -0.003314 -0.001205 0.004385 -0.007196 0.030352
#
#
# Mechanical properties :
#
#
# Convention : Reuss Voigt Hill
#
# Bulk Modulus (GPa) = 28.87533 71.54024 50.20779
# Shear Modulus (GPa) = 31.53816 48.52970 40.03393
#
# Velocity S-wave (km/s) = 3.56833 4.42639 4.02032
# Velocity P-wave (km/s) = 5.35118 7.41667 6.46692
#
# Compressibility (1/GPa) = 0.03463163
#
# Stress axis : x y z
#
# Youngs Moduli (GPa) = 37.68131 90.21472 138.06068
#
# Poissons Ratio (x) = 0.23077 0.00121
# Poissons Ratio (y) = 0.09639 0.35212
# Poissons Ratio (z) = 0.00033 0.23009
#
# Static dielectric constant tensor:
#      x y z
#    x 2.151140 0.015890 -0.054980 
#    y 0.015890 2.095970 -0.057150 
#    z -0.054980 -0.057150 2.021940 
# 
# From -- ./inp_files/187925.got.cif
#   From: 2010.05.17/outbox.cif.g08.bks.cpg/sg2_94_cif.got.tgz:187925.got - 2010.06.03 11:33:40.
