data_PCOD9019892
_publ_section_title
;
Structure prediction by ZEFSAII (Michael W. Deem and Ramdas Pophale) SiO2 
 PCOD9019892
Probable space group: P -1
;
_chemical_formula_sum "Si O2"
_cell_formula_units_Z 16
_cell_length_a 9.205830
_cell_length_b 21.071632
_cell_length_c 11.590240
_cell_angle_alpha 141.925330
_cell_angle_beta 40.495601
_cell_angle_gamma 110.797523
_cell_volume 714.698034
_symmetry_space_group_name_H-M "P -1"
_symmetry_group_IT_number 2
_symmetry_cell_setting 'triclinic'
loop_
_space_group_symop_operation_xyz
x,y,z
-x,-y,-z
loop_
_atom_site_type_symbol
_atom_site_label
_atom_site_fract_x
_atom_site_fract_y
_atom_site_fract_z
Si Si1 0.182628 0.254337 0.771855
Si Si2 0.864322 0.116211 0.342985
Si Si3 0.354902 0.629787 0.848862
Si Si4 0.320143 0.142531 0.757679
Si Si5 0.086388 0.481321 0.552990
Si Si6 0.642886 0.063250 0.053950
Si Si7 0.114192 0.246141 0.271385
Si Si8 0.683025 0.133347 0.890697
O O1 0.170925 0.173532 0.768013
O O2 0.484407 0.153420 0.389006
O O3 0.973779 0.304725 0.859649
O O4 0.087203 0.383790 0.080038
O O5 0.547785 0.169554 0.636552
O O6 0.918793 0.217019 0.410479
O O7 0.000000 0.000000 0.000000
O O8 0.042068 0.050469 0.258826
O O9 0.500000 0.500000 0.500000
O O10 0.580244 0.582634 0.745154
O O11 0.340662 0.744428 0.962222
O O12 0.500000 0.000000 0.500000
O O13 0.111698 0.224790 0.105406
O O14 0.049339 0.385726 0.510507
O O15 0.000000 0.500000 0.500000
O O16 0.619664 0.147443 0.084041
O O17 0.500000 0.000000 0.000000
O O18 0.431845 0.144703 0.988333
O O19 0.000000 0.000000 0.500000
#
# Coordination Sequence:
#
# PCOD9019892 Si02
#       8
#     2   2   2   2   2   2   2   2
#     4  11  23  43  68 101 134 180 236 279 343 416
#     4  12  24  41  64 103 141 175 230 284 353 416
#     4   9  22  41  66  97 132 177 234 274 337 420
#     4  12  24  39  69 100 139 178 226 287 350 409
#     4  10  21  45  71  96 135 186 234 284 338 422
#     4  12  24  42  66  99 142 174 217 291 348 409
#     4  11  23  44  67 100 137 182 230 286 349 416
#     4  11  23  40  69  99 134 178 231 276 355 416
#
# _framework density 22.387076
#
# number of rings (size 3 to 8) (size 9 to 14) (size 15 to 20)
#    0.000    1.000    5.000    1.500    3.500    1.000 
#    0.000    6.250    2.750    0.000    0.000    0.000 
#    0.000    0.000    0.000    0.000    0.000    0.000 
#
# Total GULP energy -89294.366532 kJ/mol
# GULP energy per Si atom -5580.897908 kJ/mol
# Density = 2.233612 g / cm^3
# Si number density = 22.387076 Si / 1000 Ang^3
#
#
#
# Elastic Constant Matrix: (Units=GPa)
#
#
# Indices 1 2 3 4 5 6 
#
# 1 124.3429 25.5377 27.6444 3.7889 -26.4632 -18.7328
# 2 25.5377 79.5824 39.0234 13.5460 0.3082 3.8110
# 3 27.6444 39.0234 72.0434 16.7139 -8.4532 -3.7105
# 4 3.7889 13.5460 16.7139 38.3311 0.8553 2.1425
# 5 -26.4632 0.3082 -8.4532 0.8553 46.0509 -0.9339
# 6 -18.7328 3.8110 -3.7105 2.1425 -0.9339 40.5081
#
#
#
# Elastic Compliance Matrix: (Units=1/GPa)
#
#
# Indices 1 2 3 4 5 6 
#
# 1 0.011193 -0.003109 -0.001660 0.000272 0.006254 0.005446
# 2 -0.003109 0.018525 -0.009003 -0.002011 -0.003607 -0.003982
# 3 -0.001660 -0.009003 0.021322 -0.006158 0.003184 0.002432
# 4 0.000272 -0.002011 -0.006158 0.029595 -0.001548 -0.001850
# 5 0.006254 -0.003607 0.003184 -0.001548 0.026031 0.004205
# 6 0.005446 -0.003982 0.002432 -0.001850 0.004205 0.027997
#
#
# Mechanical properties :
#
#
# Convention : Reuss Voigt Hill
#
# Bulk Modulus (GPa) = 42.56138 51.15329 46.85734
# Shear Modulus (GPa) = 29.40496 37.22890 33.31693
#
# Velocity S-wave (km/s) = 3.62813 4.08237 3.86193
# Velocity P-wave (km/s) = 6.05012 6.71715 6.39234
#
# Compressibility (1/GPa) = 0.02349548
#
# Stress axis : x y z
#
# Youngs Moduli (GPa) = 89.34142 53.98131 46.90093
#
# Poissons Ratio (x) = 0.16785 0.07784
# Poissons Ratio (y) = 0.27780 0.42225
# Poissons Ratio (z) = 0.14827 0.48600
#
# Static dielectric constant tensor:
#      x y z
#    x 1.976530 0.045590 -0.038060 
#    y 0.045590 1.838390 -0.000070 
#    z -0.038060 -0.000070 1.862790 
# 
# From -- ./inp_files/405546.got.cif
#   From: 2010.05.17/outbox.cif.g08.bks.cpg/sg2_203_cif.got.tgz:405546.got - 2010.06.03 11:33:40.
