data_PCOD9019163
_publ_section_title
;
Structure prediction by ZEFSAII (Michael W. Deem and Ramdas Pophale) SiO2 
 PCOD9019163
Probable space group: P -1
;
_chemical_formula_sum "Si O2"
_cell_formula_units_Z 16
_cell_length_a 8.433545
_cell_length_b 18.328113
_cell_length_c 11.704621
_cell_angle_alpha 133.959479
_cell_angle_beta 99.128923
_cell_angle_gamma 44.869761
_cell_volume 693.217608
_symmetry_space_group_name_H-M "P -1"
_symmetry_group_IT_number 2
_symmetry_cell_setting 'triclinic'
loop_
_space_group_symop_operation_xyz
x,y,z
-x,-y,-z
loop_
_atom_site_type_symbol
_atom_site_label
_atom_site_fract_x
_atom_site_fract_y
_atom_site_fract_z
Si Si1 0.673504 0.516241 0.181787
Si Si2 0.938158 0.900593 0.244852
Si Si3 0.324076 0.972003 0.082357
Si Si4 0.772398 0.487574 0.601948
Si Si5 0.576598 0.840573 0.722779
Si Si6 0.320112 0.702618 0.582830
Si Si7 0.618596 0.192598 0.715534
Si Si8 0.236656 0.352618 0.043021
O O1 0.486299 0.622958 0.393800
O O2 0.455823 0.669075 0.220889
O O3 0.863628 0.309081 0.967023
O O4 0.914389 0.477685 0.160675
O O5 0.158400 0.880155 0.242986
O O6 0.678385 0.041270 0.272700
O O7 0.765712 0.023077 0.475994
O O8 0.340433 0.084696 0.193690
O O9 0.015750 0.081370 0.199382
O O10 0.548392 0.830965 0.056607
O O11 0.438680 0.882559 0.872808
O O12 0.538974 0.624748 0.622055
O O13 0.746200 0.381496 0.500140
O O14 0.084208 0.377442 0.487209
O O15 0.714368 0.564715 0.803582
O O16 0.334060 0.303402 0.870171
#
# Coordination Sequence:
#
# PCOD9019163 Si02
#       8
#     2   2   2   2   2   2   2   2
#     4  12  25  47  73  99 140 190 231 290 352 410
#     4  11  25  46  74 100 139 188 232 293 347 411
#     4  10  23  40  71 102 139 174 224 282 350 423
#     4  10  23  42  69 103 144 175 226 291 347 425
#     4  10  21  44  69 101 136 181 222 280 351 418
#     4  10  24  42  69 104 137 185 226 280 359 418
#     4  11  28  46  68 105 139 182 246 293 336 408
#     4  12  25  45  68 104 136 182 234 290 349 412
#
# _framework density 23.080776
#
# number of rings (size 3 to 8) (size 9 to 14) (size 15 to 20)
#    0.000    1.250    1.250    3.000   10.500    4.000 
#    2.250    0.000    0.000    0.000    0.000    0.000 
#    0.000    0.000    0.000    0.000    0.000    0.000 
#
# Total GULP energy -89217.412839 kJ/mol
# GULP energy per Si atom -5576.088302 kJ/mol
# Density = 2.302824 g / cm^3
# Si number density = 23.080776 Si / 1000 Ang^3
#
#
#
# Elastic Constant Matrix: (Units=GPa)
#
#
# Indices 1 2 3 4 5 6 
#
# 1 105.4428 31.5273 56.4735 -9.1036 -37.0164 0.4021
# 2 31.5273 183.3447 5.4252 3.0758 5.4641 -70.0189
# 3 56.4735 5.4252 128.1989 -14.3167 -48.7308 19.0359
# 4 -9.1036 3.0758 -14.3167 27.3572 3.7757 -6.4167
# 5 -37.0164 5.4641 -48.7308 3.7757 75.9275 -23.9735
# 6 0.4021 -70.0189 19.0359 -6.4167 -23.9735 83.0821
#
#
#
# Elastic Compliance Matrix: (Units=1/GPa)
#
#
# Indices 1 2 3 4 5 6 
#
# 1 0.014208 -0.002340 -0.004322 0.002219 0.004327 0.000369
# 2 -0.002340 0.008745 -0.000327 -0.000218 0.000417 0.007560
# 3 -0.004322 -0.000327 0.012350 0.004043 0.005244 -0.001259
# 4 0.002219 -0.000218 0.004043 0.039708 0.002566 0.002687
# 5 0.004327 0.000417 0.005244 0.002566 0.020108 0.005130
# 6 0.000369 0.007560 -0.001259 0.002687 0.005130 0.020382
#
#
# Mechanical properties :
#
#
# Convention : Reuss Voigt Hill
#
# Bulk Modulus (GPa) = 46.89725 67.09315 56.99520
# Shear Modulus (GPa) = 36.60704 58.84405 47.72554
#
# Velocity S-wave (km/s) = 3.98683 5.05472 4.55220
# Velocity P-wave (km/s) = 6.44639 7.94977 7.23722
#
# Compressibility (1/GPa) = 0.02132321
#
# Stress axis : x y z
#
# Youngs Moduli (GPa) = 70.38519 114.35733 80.97268
#
# Poissons Ratio (x) = 0.26765 0.34994
# Poissons Ratio (y) = 0.16473 0.02650
# Poissons Ratio (z) = 0.30418 0.03742
#
# Static dielectric constant tensor:
#      x y z
#    x 1.824200 0.017550 0.061570 
#    y 0.017550 0.015420 -3.216140 
#    z 0.061570 -3.216140 -3.832290 
# 
# From -- ./inp_files/405600.got.cif
#   From: 2010.05.17/outbox.cif.g08.bks.cpg/sg2_203_cif.got.tgz:405600.got - 2010.06.03 11:33:40.
