data_PCOD9019239
_publ_section_title
;
Structure prediction by ZEFSAII (Michael W. Deem and Ramdas Pophale) SiO2 
 PCOD9019239
Probable space group: P -1
;
_chemical_formula_sum "Si O2"
_cell_formula_units_Z 14
_cell_length_a 16.612655
_cell_length_b 8.911569
_cell_length_c 10.522032
_cell_angle_alpha 53.812987
_cell_angle_beta 142.440638
_cell_angle_gamma 99.974355
_cell_volume 613.533175
_symmetry_space_group_name_H-M "P -1"
_symmetry_group_IT_number 2
_symmetry_cell_setting 'triclinic'
loop_
_space_group_symop_operation_xyz
x,y,z
-x,-y,-z
loop_
_atom_site_type_symbol
_atom_site_label
_atom_site_fract_x
_atom_site_fract_y
_atom_site_fract_z
Si Si1 0.787366 0.194404 0.781192
Si Si2 0.032188 0.704595 0.336946
Si Si3 0.560632 0.240061 0.684309
Si Si4 0.635103 0.526216 0.197379
Si Si5 0.582586 0.963188 0.260873
Si Si6 0.956267 0.749553 0.783251
Si Si7 0.891674 0.766986 0.412355
O O1 0.645629 0.194520 0.675335
O O2 0.697809 0.417669 0.469189
O O3 0.920700 0.202913 0.024195
O O4 0.900780 0.942555 0.980988
O O5 0.209624 0.641360 0.613111
O O6 0.085295 0.477231 0.437964
O O7 0.960491 0.742327 0.369119
O O8 0.500000 0.500000 0.500000
O O9 0.414111 0.226510 0.553695
O O10 0.715773 0.021252 0.065003
O O11 0.500000 0.500000 0.000000
O O12 0.548538 0.796941 0.950310
O O13 0.759529 0.914134 0.489060
O O14 0.500000 0.000000 0.000000
O O15 0.975973 0.759801 0.650863
O O16 0.000000 0.500000 0.000000
#
# Coordination Sequence:
#
# PCOD9019239 Si02
#       7
#     2   2   2   2   2   2   2
#     4  11  26  44  70 104 141 184 239 292 349 424
#     4  10  21  44  69  99 141 184 230 282 345 428
#     4  11  22  42  68 104 142 178 230 296 351 402
#     4  12  25  46  71 101 139 186 235 291 358 419
#     4  12  23  44  72 102 143 185 230 292 351 409
#     4  12  24  43  70 107 138 189 238 286 350 419
#     4  10  22  41  73  98 140 186 230 286 349 413
#
# _framework density 22.818652
#
# number of rings (size 3 to 8) (size 9 to 14) (size 15 to 20)
#    0.000    0.857    2.857    4.714    0.000    3.429 
#    7.714    0.714    0.000    0.000    0.000    0.000 
#    0.000    0.000    0.000    0.000    0.000    0.000 
#
# Total GULP energy -78013.192100 kJ/mol
# GULP energy per Si atom -5572.370864 kJ/mol
# Density = 2.276672 g / cm^3
# Si number density = 22.818652 Si / 1000 Ang^3
#
#
#
# Elastic Constant Matrix: (Units=GPa)
#
#
# Indices 1 2 3 4 5 6 
#
# 1 83.5870 13.8101 4.9859 0.2718 4.3994 13.2547
# 2 13.8101 86.2674 32.9341 -11.5081 -5.0411 10.6925
# 3 4.9859 32.9341 74.7839 -7.9029 6.7951 -12.8331
# 4 0.2718 -11.5081 -7.9029 49.7425 0.9837 -0.4346
# 5 4.3994 -5.0411 6.7951 0.9837 38.9550 -6.5997
# 6 13.2547 10.6925 -12.8331 -0.4346 -6.5997 29.8746
#
#
#
# Elastic Compliance Matrix: (Units=1/GPa)
#
#
# Indices 1 2 3 4 5 6 
#
# 1 0.013424 -0.000966 -0.001465 -0.000539 -0.002525 -0.006805
# 2 -0.000966 0.016588 -0.008692 0.002342 0.002236 -0.008714
# 3 -0.001465 -0.008692 0.019659 0.001271 -0.002441 0.011685
# 4 -0.000539 0.002342 0.001271 0.020859 -0.000355 0.000172
# 5 -0.002525 0.002236 -0.002441 -0.000355 0.027588 0.005361
# 6 -0.006805 -0.008714 0.011685 0.000172 0.005361 0.045818
#
#
# Mechanical properties :
#
#
# Convention : Reuss Voigt Hill
#
# Bulk Modulus (GPa) = 36.46241 38.67761 37.57001
# Shear Modulus (GPa) = 28.51883 36.57497 32.54690
#
# Velocity S-wave (km/s) = 3.53909 4.00791 3.78077
# Velocity P-wave (km/s) = 5.71963 6.19714 5.96317
#
# Compressibility (1/GPa) = 0.02742550
#
# Stress axis : x y z
#
# Youngs Moduli (GPa) = 74.49161 60.28490 50.86824
#
# Poissons Ratio (x) = 0.05821 0.07453
# Poissons Ratio (y) = 0.07193 0.44214
# Poissons Ratio (z) = 0.10914 0.52399
#
# Static dielectric constant tensor:
#      x y z
#    x 1.985980 0.164030 0.001900 
#    y 0.164030 1.675300 0.134970 
#    z 0.001900 0.134970 1.774420 
# 
# From -- ./inp_files/185209.got.cif
#   From: 2010.05.17/outbox.cif.g08.bks.cpg/sg2_93_cif.got.tgz:185209.got - 2010.06.03 11:33:40.
