data_PCOD9019160
_publ_section_title
;
Structure prediction by ZEFSAII (Michael W. Deem and Ramdas Pophale) SiO2 
 PCOD9019160
Probable space group: P -1
;
_chemical_formula_sum "Si O2"
_cell_formula_units_Z 16
_cell_length_a 9.789313
_cell_length_b 12.770752
_cell_length_c 12.234860
_cell_angle_alpha 135.067352
_cell_angle_beta 133.396102
_cell_angle_gamma 38.139105
_cell_volume 636.725906
_symmetry_space_group_name_H-M "P -1"
_symmetry_group_IT_number 2
_symmetry_cell_setting 'triclinic'
loop_
_space_group_symop_operation_xyz
x,y,z
-x,-y,-z
loop_
_atom_site_type_symbol
_atom_site_label
_atom_site_fract_x
_atom_site_fract_y
_atom_site_fract_z
Si Si1 0.541907 0.150184 0.677742
Si Si2 0.747515 0.396000 0.501410
Si Si3 0.140114 0.564358 0.057098
Si Si4 0.445490 0.978019 0.190272
Si Si5 0.311501 0.756215 0.854398
Si Si6 0.064419 0.136036 0.666310
Si Si7 0.233642 0.683615 0.991299
Si Si8 0.237018 0.348479 0.461620
O O1 0.448759 0.176280 0.769629
O O2 0.761817 0.154494 0.828933
O O3 0.420210 0.292476 0.617595
O O4 0.500000 0.000000 0.500000
O O5 0.500000 0.500000 0.500000
O O6 0.780061 0.260772 0.323060
O O7 0.739310 0.554941 0.554684
O O8 0.953141 0.284330 0.617384
O O9 0.412686 0.410518 0.113857
O O10 0.105905 0.620828 0.951210
O O11 0.061099 0.749810 0.211094
O O12 0.000000 0.500000 0.000000
O O13 0.661411 0.965060 0.249470
O O14 0.280718 0.165896 0.302803
O O15 0.310914 0.933195 0.001876
O O16 0.189869 0.736318 0.877936
O O17 0.000000 0.000000 0.500000
O O18 0.500000 0.500000 0.000000
O O19 0.000000 0.500000 0.500000
#
# Coordination Sequence:
#
# PCOD9019160 Si02
#       8
#     2   2   2   2   2   2   2   2
#     4   9  19  35  66  97 133 174 227 280 340 413
#     4  12  25  45  71 102 146 187 234 295 362 422
#     4  11  21  40  68 105 141 185 241 292 348 429
#     4  10  22  43  72 104 141 187 237 290 348 430
#     4  10  21  44  69 100 143 186 231 294 357 418
#     4  12  26  43  70 105 138 189 247 288 356 431
#     4   9  19  35  64  98 132 183 228 284 347 411
#     4  11  23  43  69 103 140 184 233 294 359 418
#
# _framework density 25.128551000000002
#
# number of rings (size 3 to 8) (size 9 to 14) (size 15 to 20)
#    0.000    1.500    2.500    3.000    3.500    0.000 
#    4.500    4.375    0.000    0.000    0.000    0.000 
#    0.000    0.000    0.000    0.000    0.000    0.000 
#
# Total GULP energy -89419.957578 kJ/mol
# GULP energy per Si atom -5588.747349 kJ/mol
# Density = 2.507136 g / cm^3
# Si number density = 25.128551 Si / 1000 Ang^3
#
#
#
# Elastic Constant Matrix: (Units=GPa)
#
#
# Indices 1 2 3 4 5 6 
#
# 1 168.1843 38.0386 36.6599 3.0274 -1.2207 12.2647
# 2 38.0386 65.4437 22.9265 8.6641 -3.5143 -0.4082
# 3 36.6599 22.9265 144.7018 22.4623 -12.4778 -10.6429
# 4 3.0274 8.6641 22.4623 44.9286 4.6546 -1.5296
# 5 -1.2207 -3.5143 -12.4778 4.6546 38.0437 1.6182
# 6 12.2647 -0.4082 -10.6429 -1.5296 1.6182 40.4323
#
#
#
# Elastic Compliance Matrix: (Units=1/GPa)
#
#
# Indices 1 2 3 4 5 6 
#
# 1 0.007357 -0.003887 -0.001668 0.001069 -0.000688 -0.002642
# 2 -0.003887 0.018451 -0.001323 -0.002755 0.001446 0.000855
# 3 -0.001668 -0.001323 0.008640 -0.004185 0.003064 0.002486
# 4 0.001069 -0.002755 -0.004185 0.025283 -0.004673 -0.000310
# 5 -0.000688 0.001446 0.003064 -0.004673 0.027985 -0.000267
# 6 -0.002642 0.000855 0.002486 -0.000310 -0.000267 0.026196
#
#
# Mechanical properties :
#
#
# Convention : Reuss Voigt Hill
#
# Bulk Modulus (GPa) = 48.32846 63.73109 56.02978
# Shear Modulus (GPa) = 37.15708 43.39456 40.27582
#
# Velocity S-wave (km/s) = 3.84953 4.16011 4.00783
# Velocity P-wave (km/s) = 6.24762 6.96365 6.61533
#
# Compressibility (1/GPa) = 0.02069174
#
# Stress axis : x y z
#
# Youngs Moduli (GPa) = 135.92719 54.19789 115.74670
#
# Poissons Ratio (x) = 0.21066 0.19302
# Poissons Ratio (y) = 0.52833 0.15317
# Poissons Ratio (z) = 0.22667 0.07172
#
# Static dielectric constant tensor:
#      x y z
#    x 1.961530 0.003480 0.056960 
#    y 0.003480 2.029670 0.008480 
#    z 0.056960 0.008480 1.937030 
# 
# From -- ./inp_files/393182.got.cif
#   From: 2010.05.17/outbox.cif.g08.bks.cpg/sg2_197_cif.got.tgz:393182.got - 2010.06.03 11:33:40.
