data_PCOD9019771
_publ_section_title
;
Structure prediction by ZEFSAII (Michael W. Deem and Ramdas Pophale) SiO2 
 PCOD9019771
Probable space group: P -1
;
_chemical_formula_sum "Si O2"
_cell_formula_units_Z 12
_cell_length_a 13.378885
_cell_length_b 10.483907
_cell_length_c 13.057624
_cell_angle_alpha 32.268077
_cell_angle_beta 30.368052
_cell_angle_gamma 31.696152
_cell_volume 441.596123
_symmetry_space_group_name_H-M "P -1"
_symmetry_group_IT_number 2
_symmetry_cell_setting 'triclinic'
loop_
_space_group_symop_operation_xyz
x,y,z
-x,-y,-z
loop_
_atom_site_type_symbol
_atom_site_label
_atom_site_fract_x
_atom_site_fract_y
_atom_site_fract_z
Si Si1 0.906544 0.187679 0.179133
Si Si2 0.120471 0.190469 0.696195
Si Si3 0.279592 0.408023 0.087921
Si Si4 0.479821 0.853424 0.751571
Si Si5 0.296688 0.860007 0.396781
Si Si6 0.716096 0.624927 0.309775
O O1 0.840646 0.139767 0.381050
O O2 0.978919 0.916880 0.233681
O O3 0.708084 0.410245 0.137178
O O4 0.086064 0.302301 0.940849
O O5 0.301054 0.260345 0.433895
O O6 0.946927 0.422819 0.762419
O O7 0.265805 0.934937 0.814604
O O8 0.467428 0.308546 0.078306
O O9 0.267549 0.158241 0.211866
O O10 0.430783 0.151199 0.630744
O O11 0.558253 0.698034 0.300326
O O12 0.233719 0.677329 0.500604
#
# Coordination Sequence:
#
# PCOD9019771 Si02
#       6
#     2   2   2   2   2   2
#     4  12  23  41  69 100 129 173 219 274 326 389
#     4  11  22  43  66  96 140 165 219 275 322 395
#     4  11  23  41  69 100 127 179 219 259 342 390
#     4  10  22  42  66  96 133 178 208 273 334 379
#     4  10  24  46  66  94 138 169 219 280 316 394
#     4  10  21  45  68  92 136 172 216 277 327 375
#
# _framework density 27.174151999999999
#
# number of rings (size 3 to 8) (size 9 to 14) (size 15 to 20)
#    0.000    1.333    5.000    1.500    0.000    1.333 
#    3.000   10.833    0.000    0.000    0.000    0.000 
#    0.000    0.000    0.000    0.000    0.000    0.000 
#
# Total GULP energy -67142.153234 kJ/mol
# GULP energy per Si atom -5595.179436 kJ/mol
# Density = 2.711230 g / cm^3
# Si number density = 27.174152 Si / 1000 Ang^3
#
#
#
# Elastic Constant Matrix: (Units=GPa)
#
#
# Indices 1 2 3 4 5 6 
#
# 1 75.8785 17.2976 -1.7709 1.6514 -16.8664 -10.3589
# 2 17.2976 95.8517 16.7354 -18.9170 -2.3036 11.3329
# 3 -1.7709 16.7354 74.8297 -1.4483 -2.6535 -7.9729
# 4 1.6514 -18.9170 -1.4483 39.5141 0.6432 -2.2170
# 5 -16.8664 -2.3036 -2.6535 0.6432 54.0505 -3.1840
# 6 -10.3589 11.3329 -7.9729 -2.2170 -3.1840 51.3603
#
#
#
# Elastic Compliance Matrix: (Units=1/GPa)
#
#
# Indices 1 2 3 4 5 6 
#
# 1 0.016014 -0.004127 0.001937 -0.002397 0.005219 0.004661
# 2 -0.004127 0.013488 -0.003477 0.006289 -0.001203 -0.004151
# 3 0.001937 -0.003477 0.014585 -0.001039 0.001389 0.003463
# 4 -0.002397 0.006289 -0.001039 0.028347 -0.000919 -0.000866
# 5 0.005219 -0.001203 0.001389 -0.000919 0.020320 0.002754
# 6 0.004661 -0.004151 0.003463 -0.000866 0.002754 0.021997
#
#
# Mechanical properties :
#
#
# Convention : Reuss Voigt Hill
#
# Bulk Modulus (GPa) = 30.53190 34.56493 32.54841
# Shear Modulus (GPa) = 36.49563 43.27150 39.88357
#
# Velocity S-wave (km/s) = 3.66871 3.99479 3.83522
# Velocity P-wave (km/s) = 5.40425 5.83311 5.62277
#
# Compressibility (1/GPa) = 0.03275262
#
# Stress axis : x y z
#
# Youngs Moduli (GPa) = 62.44658 74.14123 68.56177
#
# Poissons Ratio (x) = 0.30598 -0.13282
# Poissons Ratio (y) = 0.25771 0.23842
# Poissons Ratio (z) = -0.12098 0.25782
#
# Static dielectric constant tensor:
#      x y z
#    x 2.249020 -0.018300 -0.056250 
#    y -0.018300 2.212290 -0.044260 
#    z -0.056250 -0.044260 2.102110 
# 
# From -- ./inp_files/315846.got.cif
#   From: 2010.05.17/outbox.cif.g08.bks.cpg/sg2_158_cif.got.tgz:315846.got - 2010.06.03 11:33:40.
