data_PCOD9019383
_publ_section_title
;
Structure prediction by ZEFSAII (Michael W. Deem and Ramdas Pophale) SiO2 
 PCOD9019383
Probable space group: P -1
;
_chemical_formula_sum "Si O2"
_cell_formula_units_Z 14
_cell_length_a 15.256818
_cell_length_b 9.242468
_cell_length_c 5.513105
_cell_angle_alpha 72.878742
_cell_angle_beta 110.120374
_cell_angle_gamma 131.730860
_cell_volume 542.377254
_symmetry_space_group_name_H-M "P -1"
_symmetry_group_IT_number 2
_symmetry_cell_setting 'triclinic'
loop_
_space_group_symop_operation_xyz
x,y,z
-x,-y,-z
loop_
_atom_site_type_symbol
_atom_site_label
_atom_site_fract_x
_atom_site_fract_y
_atom_site_fract_z
Si Si1 0.859204 0.627021 0.395251
Si Si2 0.271068 0.053609 0.455774
Si Si3 0.592846 0.014131 0.754567
Si Si4 0.077429 0.706833 0.780185
Si Si5 0.146185 0.063169 0.935527
Si Si6 0.223214 0.571113 0.087119
Si Si7 0.583804 0.697923 0.132508
O O1 0.910820 0.843728 0.268511
O O2 0.789998 0.545572 0.626832
O O3 0.966548 0.616758 0.538341
O O4 0.781841 0.509044 0.141628
O O5 0.388220 0.257369 0.575725
O O6 0.310697 0.974358 0.329094
O O7 0.197563 0.879639 0.662502
O O8 0.180096 0.081930 0.239588
O O9 0.658945 0.208398 0.875786
O O10 0.500000 0.000000 0.500000
O O11 0.543489 0.825822 0.957978
O O12 0.071370 0.838801 0.902418
O O13 0.112439 0.579432 0.980180
O O14 0.280091 0.198363 0.878817
O O15 0.500000 0.500000 0.000000
#
# Coordination Sequence:
#
# PCOD9019383 Si02
#       7
#     2   2   2   2   2   2   2
#     4  12  29  41  74 108 143 188 241 290 342 423
#     4  10  21  44  71  92 143 177 237 287 357 413
#     4  11  25  43  69 100 133 188 228 294 357 419
#     4  11  23  47  71  97 141 194 230 287 361 412
#     4  10  24  43  68 100 140 180 238 295 342 421
#     4  12  26  47  66 108 146 183 236 295 348 422
#     4  10  23  42  68  97 131 182 234 292 355 412
#
# _framework density 25.812289
#
# number of rings (size 3 to 8) (size 9 to 14) (size 15 to 20)
#    0.000    1.143    4.286    2.143    8.000    4.571 
#    0.000    0.000    0.000    0.000    0.000    0.000 
#    0.000    0.000    0.000    0.000    0.000    0.000 
#
# Total GULP energy -78320.505581 kJ/mol
# GULP energy per Si atom -5594.321827 kJ/mol
# Density = 2.575354 g / cm^3
# Si number density = 25.812289 Si / 1000 Ang^3
#
#
#
# Elastic Constant Matrix: (Units=GPa)
#
#
# Indices 1 2 3 4 5 6 
#
# 1 51.9341 8.0138 15.9909 -0.6487 8.7832 -6.7751
# 2 8.0138 147.5495 72.5832 18.8473 -8.2568 -14.5707
# 3 15.9909 72.5832 192.4496 -0.3161 4.1609 -22.6958
# 4 -0.6487 18.8473 -0.3161 54.8180 -16.8240 10.4967
# 5 8.7832 -8.2568 4.1609 -16.8240 32.3550 2.4792
# 6 -6.7751 -14.5707 -22.6958 10.4967 2.4792 23.8431
#
#
#
# Elastic Compliance Matrix: (Units=1/GPa)
#
#
# Indices 1 2 3 4 5 6 
#
# 1 0.021930 -0.000031 -0.000666 -0.003925 -0.008545 0.008195
# 2 -0.000031 0.009196 -0.002949 -0.003936 0.000343 0.004501
# 3 -0.000666 -0.002949 0.007023 -0.000623 -0.002197 0.005196
# 4 -0.003925 -0.003936 -0.000623 0.027934 0.016052 -0.018080
# 5 -0.008545 0.000343 -0.002197 0.016052 0.043159 -0.015864
# 6 0.008195 0.004501 0.005196 -0.018080 -0.015864 0.061576
#
#
# Mechanical properties :
#
#
# Convention : Reuss Voigt Hill
#
# Bulk Modulus (GPa) = 32.40649 65.01211 48.70930
# Shear Modulus (GPa) = 26.54002 41.89290 34.21646
#
# Velocity S-wave (km/s) = 3.21002 4.03300 3.64481
# Velocity P-wave (km/s) = 5.13039 6.85040 6.05181
#
# Compressibility (1/GPa) = 0.03085801
#
# Stress axis : x y z
#
# Youngs Moduli (GPa) = 45.59931 108.74203 142.39040
#
# Poissons Ratio (x) = 0.00338 0.09479
# Poissons Ratio (y) = 0.00142 0.41988
# Poissons Ratio (z) = 0.03036 0.32066
#
# Static dielectric constant tensor:
#      x y z
#    x 2.095900 -0.001670 -0.053440 
#    y -0.001670 2.060270 0.003390 
#    z -0.053440 0.003390 2.114950 
# 
# From -- ./inp_files/28469.got.cif
#   From: 2010.05.17/outbox.cif.g08.bks.cpg/sg2_15_cif.got.tgz:28469.got - 2010.06.03 11:33:40.
