data_PCOD9019570
_publ_section_title
;
Structure prediction by ZEFSAII (Michael W. Deem and Ramdas Pophale) SiO2 
 PCOD9019570
Probable space group: P -1
;
_chemical_formula_sum "Si O2"
_cell_formula_units_Z 16
_cell_length_a 6.896052
_cell_length_b 22.170156
_cell_length_c 12.989109
_cell_angle_alpha 34.014734
_cell_angle_beta 93.291969
_cell_angle_gamma 119.430572
_cell_volume 673.354061
_symmetry_space_group_name_H-M "P -1"
_symmetry_group_IT_number 2
_symmetry_cell_setting 'triclinic'
loop_
_space_group_symop_operation_xyz
x,y,z
-x,-y,-z
loop_
_atom_site_type_symbol
_atom_site_label
_atom_site_fract_x
_atom_site_fract_y
_atom_site_fract_z
Si Si1 0.413642 0.183462 0.958272
Si Si2 0.743827 0.697753 0.694625
Si Si3 0.369704 0.822975 0.237198
Si Si4 0.662640 0.102125 0.182947
Si Si5 0.940272 0.842390 0.712761
Si Si6 0.315852 0.429770 0.344415
Si Si7 0.306472 0.493035 0.574316
Si Si8 0.333389 0.103936 0.650092
O O1 0.478504 0.148364 0.905000
O O2 0.670426 0.389663 0.657926
O O3 0.460138 0.123032 0.139934
O O4 0.054707 0.071751 0.109968
O O5 0.963514 0.805278 0.650382
O O6 0.825877 0.693424 0.587428
O O7 0.593997 0.751138 0.607492
O O8 0.500000 0.500000 0.000000
O O9 0.522529 0.826372 0.331452
O O10 0.986713 0.656866 0.478849
O O11 0.500000 0.000000 0.000000
O O12 0.798241 0.105658 0.284313
O O13 0.540858 0.947306 0.330752
O O14 0.973351 0.290116 0.870955
O O15 0.586415 0.641681 0.025648
O O16 0.000000 0.000000 0.500000
O O17 0.504087 0.424849 0.427160
O O18 0.500000 0.500000 0.500000
#
# Coordination Sequence:
#
# PCOD9019570 Si02
#       8
#     2   2   2   2   2   2   2   2
#     4  12  24  41  67 101 143 188 224 282 346 422
#     4  10  22  44  70  95 134 179 232 296 351 398
#     4  12  23  41  66 103 143 183 234 273 346 425
#     4  11  23  40  66 102 133 181 235 274 351 420
#     4  10  21  44  74  99 137 181 233 302 355 406
#     4  10  23  41  70 104 138 183 237 282 346 422
#     4  11  21  41  65  99 146 181 221 278 346 418
#     4  12  23  41  68  96 142 180 234 285 341 413
#
# _framework density 23.761645000000001
#
# number of rings (size 3 to 8) (size 9 to 14) (size 15 to 20)
#    0.000    1.000    3.750    3.750    0.000    0.000 
#    0.000    4.375    2.750    0.000    0.000    0.000 
#    0.000    0.000    0.000    0.000    0.000    0.000 
#
# Total GULP energy -89298.549511 kJ/mol
# GULP energy per Si atom -5581.159344 kJ/mol
# Density = 2.370756 g / cm^3
# Si number density = 23.761645 Si / 1000 Ang^3
#
#
#
# Elastic Constant Matrix: (Units=GPa)
#
#
# Indices 1 2 3 4 5 6 
#
# 1 56.7777 9.5900 30.9780 -6.6018 24.8529 6.5909
# 2 9.5900 125.7274 14.6462 -3.6797 27.8177 10.1179
# 3 30.9780 14.6462 155.3848 1.7431 22.6721 5.9129
# 4 -6.6018 -3.6797 1.7431 28.2332 5.5256 11.5659
# 5 24.8529 27.8177 22.6721 5.5256 57.2837 -0.8117
# 6 6.5909 10.1179 5.9129 11.5659 -0.8117 47.6710
#
#
#
# Elastic Compliance Matrix: (Units=1/GPa)
#
#
# Indices 1 2 3 4 5 6 
#
# 1 0.026890 0.002032 -0.003606 0.012016 -0.012482 -0.006830
# 2 0.002032 0.009528 -0.000373 0.004269 -0.005821 -0.003392
# 3 -0.003606 -0.000373 0.007360 -0.001103 -0.001062 -0.000086
# 4 0.012016 0.004269 -0.001103 0.046850 -0.011567 -0.013994
# 5 -0.012482 -0.005821 -0.001062 -0.011567 0.027325 0.006364
# 6 -0.006830 -0.003392 -0.000086 -0.013994 0.006364 0.026155
#
#
# Mechanical properties :
#
#
# Convention : Reuss Voigt Hill
#
# Bulk Modulus (GPa) = 25.07225 49.81314 37.44269
# Shear Modulus (GPa) = 30.99854 45.48263 38.24059
#
# Velocity S-wave (km/s) = 3.61579 4.37981 4.01601
# Velocity P-wave (km/s) = 5.29211 6.82541 6.10707
#
# Compressibility (1/GPa) = 0.03988474
#
# Stress axis : x y z
#
# Youngs Moduli (GPa) = 37.18799 104.95525 135.86303
#
# Poissons Ratio (x) = -0.21326 0.48995
# Poissons Ratio (y) = -0.07556 0.05063
# Poissons Ratio (z) = 0.13411 0.03912
#
# Static dielectric constant tensor:
#      x y z
#    x 11.159240 -1.743890 7.250140 
#    y -1.743890 2.488830 -1.505310 
#    z 7.250140 -1.505310 7.678350 
# 
# From -- ./inp_files/485964.got.cif
#   From: 2010.05.17/outbox.cif.g08.bks.cpg/sg2_243_cif.got.tgz:485964.got - 2010.06.03 11:33:40.
