data_PCOD9019354
_publ_section_title
;
Structure prediction by ZEFSAII (Michael W. Deem and Ramdas Pophale) SiO2 
 PCOD9019354
Probable space group: P -1
;
_chemical_formula_sum "Si O2"
_cell_formula_units_Z 14
_cell_length_a 15.554066
_cell_length_b 8.856032
_cell_length_c 9.032120
_cell_angle_alpha 103.577641
_cell_angle_beta 55.531889
_cell_angle_gamma 144.683874
_cell_volume 521.358684
_symmetry_space_group_name_H-M "P -1"
_symmetry_group_IT_number 2
_symmetry_cell_setting 'triclinic'
loop_
_space_group_symop_operation_xyz
x,y,z
-x,-y,-z
loop_
_atom_site_type_symbol
_atom_site_label
_atom_site_fract_x
_atom_site_fract_y
_atom_site_fract_z
Si Si1 0.681202 0.229100 0.193511
Si Si2 0.126948 0.745555 0.188375
Si Si3 0.161178 0.084008 0.680898
Si Si4 0.464693 0.746037 0.916249
Si Si5 0.334657 0.569254 0.479166
Si Si6 0.121344 0.410064 0.389186
Si Si7 0.802805 0.880411 0.014075
O O1 0.563862 0.204577 0.201179
O O2 0.735934 0.390569 0.324464
O O3 0.537074 0.902059 0.297245
O O4 0.863730 0.390468 0.960259
O O5 0.937347 0.523974 0.429194
O O6 0.319827 0.977172 0.158733
O O7 0.166447 0.947264 0.096067
O O8 0.343396 0.417083 0.517886
O O9 0.200116 0.066919 0.800960
O O10 0.068210 0.859938 0.592409
O O11 0.986946 0.992928 0.849491
O O12 0.385108 0.469133 0.917065
O O13 0.311495 0.642984 0.150572
O O14 0.183484 0.360898 0.440792
#
# Coordination Sequence:
#
# PCOD9019354 Si02
#       7
#     2   2   2   2   2   2   2
#     4  11  26  46  71  97 147 189 219 282 357 411
#     4  12  25  43  69 111 133 184 233 280 349 409
#     4  10  21  44  71 103 136 183 232 288 347 400
#     4  11  24  48  69 100 146 182 229 287 341 415
#     4  11  22  46  72  97 136 191 227 274 349 418
#     4  11  25  42  74 103 138 179 233 289 343 398
#     4  10  22  42  72 100 140 182 231 290 342 398
#
# _framework density 26.852913999999998
#
# number of rings (size 3 to 8) (size 9 to 14) (size 15 to 20)
#    0.000    1.143    4.286    1.286    2.000    2.286 
#    5.143    1.429    0.000    0.000    0.000    0.000 
#    0.000    0.000    0.000    0.000    0.000    0.000 
#
# Total GULP energy -78465.275235 kJ/mol
# GULP energy per Si atom -5604.662517 kJ/mol
# Density = 2.679180 g / cm^3
# Si number density = 26.852914 Si / 1000 Ang^3
#
#
#
# Elastic Constant Matrix: (Units=GPa)
#
#
# Indices 1 2 3 4 5 6 
#
# 1 120.2461 28.1623 40.9767 8.8543 32.8866 2.2381
# 2 28.1623 88.4928 33.6621 6.8843 12.0586 15.7907
# 3 40.9767 33.6621 156.1549 21.8973 -0.8592 12.1302
# 4 8.8543 6.8843 21.8973 34.2739 4.9205 11.0444
# 5 32.8866 12.0586 -0.8592 4.9205 54.2386 -1.3336
# 6 2.2381 15.7907 12.1302 11.0444 -1.3336 29.0924
#
#
#
# Elastic Compliance Matrix: (Units=1/GPa)
#
#
# Indices 1 2 3 4 5 6 
#
# 1 0.011457 -0.001912 -0.002675 -0.000280 -0.006512 0.001079
# 2 -0.001912 0.014289 -0.002267 0.001823 -0.002402 -0.007466
# 3 -0.002675 -0.002267 0.008247 -0.004441 0.002655 -0.000195
# 4 -0.000280 0.001823 -0.004441 0.036528 -0.003943 -0.013164
# 5 -0.006512 -0.002402 0.002655 -0.003943 0.023400 0.003268
# 6 0.001079 -0.007466 -0.000195 -0.013164 0.003268 0.043571
#
#
# Mechanical properties :
#
#
# Convention : Reuss Voigt Hill
#
# Bulk Modulus (GPa) = 49.29854 63.38846 56.34350
# Shear Modulus (GPa) = 31.65304 40.99380 36.32342
#
# Velocity S-wave (km/s) = 3.43703 3.91142 3.68187
# Velocity P-wave (km/s) = 5.84375 6.63747 6.25322
#
# Compressibility (1/GPa) = 0.02028458
#
# Stress axis : x y z
#
# Youngs Moduli (GPa) = 87.28176 69.98342 121.25575
#
# Poissons Ratio (x) = 0.13382 0.32432
# Poissons Ratio (y) = 0.16690 0.27494
# Poissons Ratio (z) = 0.23345 0.15868
#
# Static dielectric constant tensor:
#      x y z
#    x 2.063610 -0.017670 -0.033140 
#    y -0.017670 2.092550 -0.034580 
#    z -0.033140 -0.034580 2.125950 
# 
# From -- ./inp_files/298745.got.cif
#   From: 2010.05.17/outbox.cif.g08.bks.cpg/sg2_150_cif.got.tgz:298745.got - 2010.06.03 11:33:40.
