data_PCOD9019270
_publ_section_title
;
Structure prediction by ZEFSAII (Michael W. Deem and Ramdas Pophale) SiO2 
 PCOD9019270
Probable space group: P -1
;
_chemical_formula_sum "Si O2"
_cell_formula_units_Z 16
_cell_length_a 14.989289
_cell_length_b 7.581573
_cell_length_c 13.553169
_cell_angle_alpha 45.768145
_cell_angle_beta 34.619985
_cell_angle_gamma 55.389426
_cell_volume 626.919191
_symmetry_space_group_name_H-M "P -1"
_symmetry_group_IT_number 2
_symmetry_cell_setting 'triclinic'
loop_
_space_group_symop_operation_xyz
x,y,z
-x,-y,-z
loop_
_atom_site_type_symbol
_atom_site_label
_atom_site_fract_x
_atom_site_fract_y
_atom_site_fract_z
Si Si1 0.458579 0.383734 0.938343
Si Si2 0.735302 0.842169 0.320070
Si Si3 0.197469 0.625736 0.448976
Si Si4 0.814266 0.279498 0.952975
Si Si5 0.406704 0.747877 0.565574
Si Si6 0.694057 0.993891 0.631199
Si Si7 0.031034 0.854586 0.332161
Si Si8 0.231902 0.338367 0.994889
O O1 0.629421 0.353920 0.079878
O O2 0.378883 0.257913 0.961736
O O3 0.406379 0.220722 0.141774
O O4 0.641542 0.406585 0.746790
O O5 0.829005 0.633590 0.371695
O O6 0.582565 0.717643 0.456917
O O7 0.826682 0.008272 0.092615
O O8 0.669145 0.039547 0.380858
O O9 0.233396 0.831609 0.418083
O O10 0.071802 0.729088 0.447587
O O11 0.697551 0.494222 0.221726
O O12 0.857847 0.483796 0.915893
O O13 0.400429 0.842924 0.423428
O O14 0.894148 0.286957 0.772065
O O15 0.845488 0.883790 0.481615
O O16 0.121055 0.117869 0.149478
#
# Coordination Sequence:
#
# PCOD9019270 Si02
#       8
#     2   2   2   2   2   2   2   2
#     4  10  22  45  68 100 135 180 229 290 344 384
#     4  10  21  44  70 105 132 177 228 294 346 395
#     4  12  24  42  72 103 135 179 231 292 340 401
#     4   9  23  45  71 100 138 180 228 283 343 408
#     4  10  22  44  69  99 142 174 230 288 345 405
#     4  12  28  43  66 106 141 185 227 280 344 419
#     4  12  27  46  69 102 143 189 227 273 351 417
#     4   9  21  46  69  95 141 175 228 289 334 403
#
# _framework density 25.521632
#
# number of rings (size 3 to 8) (size 9 to 14) (size 15 to 20)
#    0.750    0.750    2.500    1.500    5.250    2.000 
#    2.250    1.250    0.000    0.000    0.000    0.000 
#    0.000    0.000    0.000    0.000    0.000    0.000 
#
# Total GULP energy -89765.104572 kJ/mol
# GULP energy per Si atom -5610.319036 kJ/mol
# Density = 2.546354 g / cm^3
# Si number density = 25.521632 Si / 1000 Ang^3
#
#
#
# Elastic Constant Matrix: (Units=GPa)
#
#
# Indices 1 2 3 4 5 6 
#
# 1 94.6154 20.6474 45.1353 -8.7921 14.9780 -7.9105
# 2 20.6474 88.4026 34.6807 -2.1502 -3.0421 0.4755
# 3 45.1353 34.6807 101.2992 -34.1106 20.9757 13.3137
# 4 -8.7921 -2.1502 -34.1106 49.6620 -4.2890 1.8503
# 5 14.9780 -3.0421 20.9757 -4.2890 47.7510 -1.7627
# 6 -7.9105 0.4755 13.3137 1.8503 -1.7627 34.6773
#
#
#
# Elastic Compliance Matrix: (Units=1/GPa)
#
#
# Indices 1 2 3 4 5 6 
#
# 1 0.015100 -0.000375 -0.008440 -0.003491 -0.001114 0.006820
# 2 -0.000375 0.014323 -0.007408 -0.004300 0.004009 0.002995
# 3 -0.008440 -0.007408 0.024318 0.014687 -0.007643 -0.012332
# 4 -0.003491 -0.004300 0.014687 0.029438 -0.003286 -0.008114
# 5 -0.001114 0.004009 -0.007643 -0.003286 0.024759 0.004059
# 6 0.006820 0.002995 -0.012332 -0.008114 0.004059 0.035726
#
#
# Mechanical properties :
#
#
# Convention : Reuss Voigt Hill
#
# Bulk Modulus (GPa) = 46.96437 53.91601 50.44019
# Shear Modulus (GPa) = 27.29138 38.67500 32.98319
#
# Velocity S-wave (km/s) = 3.27363 3.89701 3.59884
# Velocity P-wave (km/s) = 5.72107 6.43587 6.08897
#
# Compressibility (1/GPa) = 0.02129274
#
# Stress axis : x y z
#
# Youngs Moduli (GPa) = 66.22697 69.81770 41.12262
#
# Poissons Ratio (x) = 0.02621 0.34708
# Poissons Ratio (y) = 0.02487 0.30464
# Poissons Ratio (z) = 0.55897 0.51721
#
# Static dielectric constant tensor:
#      x y z
#    x 1.971350 0.027750 -0.014920 
#    y 0.027750 2.003070 -0.006270 
#    z -0.014920 -0.006270 1.968710 
# 
# From -- ./inp_files/444013.got.cif
#   From: 2010.05.17/outbox.cif.g08.bks.cpg/sg2_223_cif.got.tgz:444013.got - 2010.06.03 11:33:40.
