data_PCOD9019301
_publ_section_title
;
Structure prediction by ZEFSAII (Michael W. Deem and Ramdas Pophale) SiO2 
 PCOD9019301
Probable space group: P -1
;
_chemical_formula_sum "Si O2"
_cell_formula_units_Z 14
_cell_length_a 16.865271
_cell_length_b 5.487359
_cell_length_c 17.497338
_cell_angle_alpha 51.568494
_cell_angle_beta 152.049100
_cell_angle_gamma 130.568251
_cell_volume 571.490024
_symmetry_space_group_name_H-M "P -1"
_symmetry_group_IT_number 2
_symmetry_cell_setting 'triclinic'
loop_
_space_group_symop_operation_xyz
x,y,z
-x,-y,-z
loop_
_atom_site_type_symbol
_atom_site_label
_atom_site_fract_x
_atom_site_fract_y
_atom_site_fract_z
Si Si1 0.335887 0.622665 0.010226
Si Si2 0.634685 0.281382 0.147289
Si Si3 0.253554 0.049809 0.554921
Si Si4 0.946352 0.925510 0.880588
Si Si5 0.988507 0.609537 0.775717
Si Si6 0.547781 0.233904 0.348438
Si Si7 0.244578 0.652378 0.223114
O O1 0.259990 0.601470 0.863966
O O2 0.197959 0.682419 0.942858
O O3 0.412380 0.331460 0.155369
O O4 0.505682 0.924934 0.095114
O O5 0.742480 0.213164 0.325094
O O6 0.500000 0.500000 0.000000
O O7 0.064721 0.109122 0.368316
O O8 0.365550 0.426432 0.599248
O O9 0.325845 0.913831 0.567630
O O10 0.757308 0.665736 0.765049
O O11 0.944755 0.248120 0.772624
O O12 0.114698 0.795855 0.031353
O O13 0.000000 0.000000 0.000000
O O14 0.865007 0.525354 0.761814
O O15 0.418814 0.921324 0.341283
#
# Coordination Sequence:
#
# PCOD9019301 Si02
#       7
#     2   2   2   2   2   2   2
#     4  10  22  42  72  94 127 173 229 274 338 402
#     4  10  21  44  70  96 123 174 224 280 333 413
#     4  11  27  43  67  99 141 171 227 280 343 387
#     4   9  20  37  60  94 128 169 223 276 310 387
#     4  11  24  41  62 102 135 177 216 285 333 395
#     4  11  24  44  68  96 134 189 222 271 328 409
#     4  10  22  38  67  92 137 180 229 263 326 396
#
# _framework density 24.497364000000001
#
# number of rings (size 3 to 8) (size 9 to 14) (size 15 to 20)
#    0.000    1.714    2.857    0.000    6.000    6.286 
#    0.000    0.714    0.000    0.000    0.000    0.000 
#    0.000    0.000    0.000    0.000    0.000    0.000 
#
# Total GULP energy -77953.315064 kJ/mol
# GULP energy per Si atom -5568.093933 kJ/mol
# Density = 2.444161 g / cm^3
# Si number density = 24.497364 Si / 1000 Ang^3
#
#
#
# Elastic Constant Matrix: (Units=GPa)
#
#
# Indices 1 2 3 4 5 6 
#
# 1 86.4589 3.9697 15.0532 -1.5709 -0.6837 -1.4451
# 2 3.9697 64.1516 2.2299 0.7027 -1.5091 -6.5887
# 3 15.0532 2.2299 95.8724 -41.6835 6.7094 -11.0494
# 4 -1.5709 0.7027 -41.6835 36.3839 -5.4409 -4.1580
# 5 -0.6837 -1.5091 6.7094 -5.4409 24.1824 -4.2554
# 6 -1.4451 -6.5887 -11.0494 -4.1580 -4.2554 20.2105
#
#
#
# Elastic Compliance Matrix: (Units=1/GPa)
#
#
# Indices 1 2 3 4 5 6 
#
# 1 0.012204 -0.000830 -0.004169 -0.004537 -0.000031 -0.002617
# 2 -0.000830 0.016348 0.001518 0.002563 0.002408 0.007135
# 3 -0.004169 0.001518 0.030158 0.037944 0.004628 0.025466
# 4 -0.004537 0.002563 0.037944 0.077385 0.013975 0.040119
# 5 -0.000031 0.002408 0.004628 0.013975 0.046161 0.015907
# 6 -0.002617 0.007135 0.025466 0.040119 0.015907 0.077144
#
#
# Mechanical properties :
#
#
# Convention : Reuss Voigt Hill
#
# Bulk Modulus (GPa) = 19.32415 32.10983 25.71699
# Shear Modulus (GPa) = 17.62984 31.17069 24.40026
#
# Velocity S-wave (km/s) = 2.68556 3.57096 3.15943
# Velocity P-wave (km/s) = 4.18589 5.48983 4.88159
#
# Compressibility (1/GPa) = 0.05174871
#
# Stress axis : x y z
#
# Youngs Moduli (GPa) = 81.94228 61.16961 33.15858
#
# Poissons Ratio (x) = 0.05078 0.13823
# Poissons Ratio (y) = 0.06802 -0.05035
# Poissons Ratio (z) = 0.34160 -0.09288
#
# Static dielectric constant tensor:
#      x y z
#    x 2.255650 -0.335560 0.043850 
#    y -0.335560 2.484660 -0.128980 
#    z 0.043850 -0.128980 2.073220 
# 
# From -- ./inp_files/142186.got.cif
#   From: 2010.05.17/outbox.cif.g08.bks.cpg/sg2_72_cif.got.tgz:142186.got - 2010.06.03 11:33:40.
