data_PCOD9019776
_publ_section_title
;
Structure prediction by ZEFSAII (Michael W. Deem and Ramdas Pophale) SiO2 
 PCOD9019776
Probable space group: P -1
;
_chemical_formula_sum "Si O2"
_cell_formula_units_Z 16
_cell_length_a 17.957954
_cell_length_b 5.465155
_cell_length_c 10.180117
_cell_angle_alpha 94.685285
_cell_angle_beta 123.284749
_cell_angle_gamma 60.660967
_cell_volume 703.642514
_symmetry_space_group_name_H-M "P -1"
_symmetry_group_IT_number 2
_symmetry_cell_setting 'triclinic'
loop_
_space_group_symop_operation_xyz
x,y,z
-x,-y,-z
loop_
_atom_site_type_symbol
_atom_site_label
_atom_site_fract_x
_atom_site_fract_y
_atom_site_fract_z
Si Si1 0.872716 0.205143 0.733587
Si Si2 0.573362 0.294709 0.948269
Si Si3 0.075504 0.075414 0.494530
Si Si4 0.318878 0.293911 0.305529
Si Si5 0.076927 0.185548 0.998875
Si Si6 0.507905 0.299959 0.613021
Si Si7 0.690961 0.598300 0.999551
Si Si8 0.119012 0.356907 0.775630
O O1 0.790259 0.532715 0.715690
O O2 0.995010 0.103366 0.859887
O O3 0.857506 0.152155 0.565512
O O4 0.858904 0.020375 0.825990
O O5 0.658688 0.385877 0.018268
O O6 0.618166 0.947112 0.981690
O O7 0.500000 0.500000 0.000000
O O8 0.499621 0.413933 0.753908
O O9 0.138173 0.140303 0.665804
O O10 0.999913 0.374438 0.353105
O O11 0.000000 0.000000 0.500000
O O12 0.412009 0.256619 0.488494
O O13 0.371284 0.966498 0.294793
O O14 0.310360 0.436594 0.161416
O O15 0.132341 0.218201 0.926476
O O16 0.000000 0.500000 0.000000
O O17 0.500000 0.500000 0.500000
O O18 0.805482 0.520418 0.150385
#
# Coordination Sequence:
#
# PCOD9019776 Si02
#       8
#     2   2   2   2   2   2   2   2
#     4  11  24  39  67 102 132 180 238 290 342 423
#     4  11  25  46  72 104 138 181 229 292 360 425
#     4  11  24  45  63  90 145 187 222 292 358 413
#     4  10  23  40  68 104 131 178 235 289 352 415
#     4  11  22  40  65  97 137 173 230 294 339 404
#     4  10  21  45  68  94 141 176 221 294 357 411
#     4  11  25  44  74 102 135 182 238 288 353 429
#     4  11  25  42  66  95 135 188 233 283 355 422
#
# _framework density 22.738817999999998
#
# number of rings (size 3 to 8) (size 9 to 14) (size 15 to 20)
#    0.000    1.250    3.750    1.125    5.250    2.000 
#    0.000    0.000    0.000    0.000    0.000    0.000 
#    0.000    0.000    0.000    0.000    0.000    0.000 
#
# Total GULP energy -89331.890101 kJ/mol
# GULP energy per Si atom -5583.243131 kJ/mol
# Density = 2.268706 g / cm^3
# Si number density = 22.738818 Si / 1000 Ang^3
#
#
#
# Elastic Constant Matrix: (Units=GPa)
#
#
# Indices 1 2 3 4 5 6 
#
# 1 74.7752 24.2517 41.2959 16.2522 -4.4592 -6.0422
# 2 24.2517 71.4498 32.2440 20.6318 -18.5069 -13.6731
# 3 41.2959 32.2440 122.5398 30.0560 -13.3364 -10.9503
# 4 16.2522 20.6318 30.0560 42.9187 -3.7390 -6.2075
# 5 -4.4592 -18.5069 -13.3364 -3.7390 39.3246 11.8065
# 6 -6.0422 -13.6731 -10.9503 -6.2075 11.8065 39.5271
#
#
#
# Elastic Compliance Matrix: (Units=1/GPa)
#
#
# Indices 1 2 3 4 5 6 
#
# 1 0.017424 -0.003691 -0.004636 -0.001670 -0.001586 0.000314
# 2 -0.003691 0.020095 -0.001501 -0.006177 0.007075 0.002888
# 3 -0.004636 -0.001501 0.011736 -0.005483 0.002063 0.000546
# 4 -0.001670 -0.006177 -0.005483 0.030764 -0.002535 0.001677
# 5 -0.001586 0.007075 0.002063 -0.002535 0.031114 -0.006915
# 6 0.000314 0.002888 0.000546 0.001677 -0.006915 0.028826
#
#
# Mechanical properties :
#
#
# Convention : Reuss Voigt Hill
#
# Bulk Modulus (GPa) = 33.78253 51.59424 42.68838
# Shear Modulus (GPa) = 29.50201 35.75229 32.62715
#
# Velocity S-wave (km/s) = 3.60589 3.96953 3.79207
# Velocity P-wave (km/s) = 5.67676 6.61428 6.16337
#
# Compressibility (1/GPa) = 0.02960110
#
# Stress axis : x y z
#
# Youngs Moduli (GPa) = 57.39077 49.76426 85.20846
#
# Poissons Ratio (x) = 0.18366 0.39501
# Poissons Ratio (y) = 0.21181 0.12786
# Poissons Ratio (z) = 0.26605 0.07467
#
# Static dielectric constant tensor:
#      x y z
#    x 1.857370 0.047390 0.032190 
#    y 0.047390 1.915290 0.005100 
#    z 0.032190 0.005100 1.990740 
# 
# From -- ./inp_files/141602.got.cif
#   From: 2010.05.17/outbox.cif.g08.bks.cpg/sg2_71_cif.got.tgz:141602.got - 2010.06.03 11:33:40.
