data_PCOD9019300
_publ_section_title
;
Structure prediction by ZEFSAII (Michael W. Deem and Ramdas Pophale) SiO2 
 PCOD9019300
Probable space group: P -1
;
_chemical_formula_sum "Si O2"
_cell_formula_units_Z 16
_cell_length_a 7.934477
_cell_length_b 19.355779
_cell_length_c 5.431920
_cell_angle_alpha 45.413301
_cell_angle_beta 101.428407
_cell_angle_gamma 99.456624
_cell_volume 581.965242
_symmetry_space_group_name_H-M "P -1"
_symmetry_group_IT_number 2
_symmetry_cell_setting 'triclinic'
loop_
_space_group_symop_operation_xyz
x,y,z
-x,-y,-z
loop_
_atom_site_type_symbol
_atom_site_label
_atom_site_fract_x
_atom_site_fract_y
_atom_site_fract_z
Si Si1 0.742125 0.180768 0.761866
Si Si2 0.258562 0.540581 0.358794
Si Si3 0.985846 0.308270 0.222692
Si Si4 0.425323 0.625934 0.690342
Si Si5 0.737532 0.655249 0.408517
Si Si6 0.299750 0.966606 0.247151
Si Si7 0.363993 0.127742 0.202751
Si Si8 0.026844 0.133832 0.361287
O O1 0.615071 0.259783 0.625215
O O2 0.670434 0.078201 0.900256
O O3 0.816962 0.240176 0.398854
O O4 0.899878 0.162116 0.032897
O O5 0.328698 0.575853 0.553924
O O6 0.259205 0.426363 0.593314
O O7 0.367733 0.584284 0.043570
O O8 0.076151 0.591107 0.150239
O O9 0.077279 0.327853 0.458474
O O10 0.083194 0.234386 0.263745
O O11 0.622766 0.615514 0.704356
O O12 0.655992 0.757273 0.066384
O O13 0.448162 0.909411 0.581222
O O14 0.103348 0.934967 0.345641
O O15 0.321637 0.078888 0.047105
O O16 0.199832 0.090060 0.415438
#
# Coordination Sequence:
#
# PCOD9019300 Si02
#       8
#     2   2   2   2   2   2   2   2
#     4  10  21  44  70  95 141 190 231 302 371 435
#     4  11  25  48  72 104 148 197 241 299 378 443
#     4  10  23  42  64 103 140 183 239 295 363 438
#     4  11  25  45  74 106 143 197 245 301 376 443
#     4  12  25  43  69 104 141 186 244 309 357 449
#     4  10  25  47  69 103 146 187 242 312 373 440
#     4  11  25  45  71 106 142 188 252 302 372 446
#     4  11  21  44  72 101 142 192 239 301 374 443
#
# _framework density 27.493054000000001
#
# number of rings (size 3 to 8) (size 9 to 14) (size 15 to 20)
#    0.000    1.250    2.500    2.250    5.250    1.500 
#    2.250    4.375    0.000    0.000    0.000    0.000 
#    0.000    0.000    0.000    0.000    0.000    0.000 
#
# Total GULP energy -89593.197507 kJ/mol
# GULP energy per Si atom -5599.574844 kJ/mol
# Density = 2.743048 g / cm^3
# Si number density = 27.493054 Si / 1000 Ang^3
#
#
#
# Elastic Constant Matrix: (Units=GPa)
#
#
# Indices 1 2 3 4 5 6 
#
# 1 129.8226 21.2762 29.7789 -3.9691 -13.3309 -24.7461
# 2 21.2762 197.8818 43.1727 -19.5232 14.0422 -18.7574
# 3 29.7789 43.1727 99.5713 -22.0133 25.6071 -13.3806
# 4 -3.9691 -19.5232 -22.0133 43.1751 -14.9799 10.7703
# 5 -13.3309 14.0422 25.6071 -14.9799 31.8056 9.3650
# 6 -24.7461 -18.7574 -13.3806 10.7703 9.3650 38.6966
#
#
#
# Elastic Compliance Matrix: (Units=1/GPa)
#
#
# Indices 1 2 3 4 5 6 
#
# 1 0.010014 -0.000345 -0.004157 0.000296 0.006941 0.003037
# 2 -0.000345 0.005837 -0.001465 0.000565 -0.001991 0.002427
# 3 -0.004157 -0.001465 0.017154 0.000281 -0.016695 0.006526
# 4 0.000296 0.000565 0.000281 0.033748 0.019536 -0.013561
# 5 0.006941 -0.001991 -0.016695 0.019536 0.064766 -0.023411
# 6 0.003037 0.002427 0.006526 -0.013561 -0.023411 0.040657
#
#
# Mechanical properties :
#
#
# Convention : Reuss Voigt Hill
#
# Bulk Modulus (GPa) = 47.45704 68.41460 57.93582
# Shear Modulus (GPa) = 26.15984 44.93864 35.54924
#
# Velocity S-wave (km/s) = 3.08800 4.04734 3.59977
# Velocity P-wave (km/s) = 5.47843 6.83956 6.19648
#
# Compressibility (1/GPa) = 0.02107169
#
# Stress axis : x y z
#
# Youngs Moduli (GPa) = 99.86498 171.31299 58.29558
#
# Poissons Ratio (x) = 0.05916 0.24232
# Poissons Ratio (y) = 0.03448 0.08538
# Poissons Ratio (z) = 0.41511 0.25090
#
# Static dielectric constant tensor:
#      x y z
#    x 2.166800 -0.014660 -0.106150 
#    y -0.014660 2.111260 0.003560 
#    z -0.106150 0.003560 2.201970 
# 
# From -- ./inp_files/46341.got.cif
#   From: 2010.05.17/outbox.cif.g08.bks.cpg/sg2_24_cif.got.tgz:46341.got - 2010.06.03 11:33:40.
