data_PCOD9019719
_publ_section_title
;
Structure prediction by ZEFSAII (Michael W. Deem and Ramdas Pophale) SiO2 
 PCOD9019719
Probable space group: P -1
;
_chemical_formula_sum "Si O2"
_cell_formula_units_Z 14
_cell_length_a 14.897385
_cell_length_b 8.095794
_cell_length_c 10.956234
_cell_angle_alpha 97.045737
_cell_angle_beta 41.582042
_cell_angle_gamma 124.251743
_cell_volume 608.333556
_symmetry_space_group_name_H-M "P -1"
_symmetry_group_IT_number 2
_symmetry_cell_setting 'triclinic'
loop_
_space_group_symop_operation_xyz
x,y,z
-x,-y,-z
loop_
_atom_site_type_symbol
_atom_site_label
_atom_site_fract_x
_atom_site_fract_y
_atom_site_fract_z
Si Si1 0.635676 0.095837 0.697154
Si Si2 0.112595 0.395218 0.610632
Si Si3 0.293432 0.017107 0.146857
Si Si4 0.494726 0.395333 0.808039
Si Si5 0.599492 0.914144 0.354914
Si Si6 0.593354 0.376498 0.253501
Si Si7 0.031993 0.224455 0.955405
O O1 0.492192 0.864907 0.738660
O O2 0.797023 0.342310 0.482648
O O3 0.731278 0.053559 0.693680
O O4 0.490402 0.092333 0.915088
O O5 0.276297 0.420336 0.386411
O O6 0.103251 0.326615 0.754448
O O7 0.902327 0.200968 0.745489
O O8 0.358353 0.253616 0.051467
O O9 0.444085 0.514547 0.796204
O O10 0.442210 0.199744 0.746063
O O11 0.500000 0.000000 0.500000
O O12 0.524759 0.710850 0.508520
O O13 0.826248 0.131534 0.162636
O O14 0.814871 0.569018 0.086137
O O15 0.000000 0.000000 0.000000
#
# Coordination Sequence:
#
# PCOD9019719 Si02
#       7
#     2   2   2   2   2   2   2
#     4  10  25  41  64  97 123 174 211 278 321 382
#     4  11  21  40  69  90 127 168 221 261 327 383
#     4  10  21  45  67  88 129 164 228 265 326 377
#     4  11  22  41  64  95 128 176 206 275 324 379
#     4  12  24  40  63  98 133 168 217 265 322 384
#     4  12  25  41  63  95 140 164 217 262 329 396
#     4  12  24  41  69  96 132 180 211 261 332 391
#
# _framework density 23.01369
#
# number of rings (size 3 to 8) (size 9 to 14) (size 15 to 20)
#    0.000    0.857    4.286    3.429    0.000    3.429 
#    0.000    0.714    0.000    0.000    0.000    0.000 
#    0.000    0.000    0.000    0.000    0.000    0.000 
#
# Total GULP energy -78247.036737 kJ/mol
# GULP energy per Si atom -5589.074053 kJ/mol
# Density = 2.296131 g / cm^3
# Si number density = 23.013690 Si / 1000 Ang^3
#
#
#
# Elastic Constant Matrix: (Units=GPa)
#
#
# Indices 1 2 3 4 5 6 
#
# 1 120.3347 18.2928 59.3119 -25.0239 29.0517 -9.1386
# 2 18.2928 70.3089 31.8474 -21.3243 10.1172 -6.9251
# 3 59.3119 31.8474 134.9400 -34.4168 3.7283 -16.7234
# 4 -25.0239 -21.3243 -34.4168 32.7089 -1.8973 -1.5991
# 5 29.0517 10.1172 3.7283 -1.8973 59.8533 -14.4084
# 6 -9.1386 -6.9251 -16.7234 -1.5991 -14.4084 21.1596
#
#
#
# Elastic Compliance Matrix: (Units=1/GPa)
#
#
# Indices 1 2 3 4 5 6 
#
# 1 0.012949 0.001091 -0.004630 0.005291 -0.006418 -0.001680
# 2 0.001091 0.018947 -0.001142 0.012131 -0.001994 0.005329
# 3 -0.004630 -0.001142 0.014146 0.011535 0.005089 0.013144
# 4 0.005291 0.012131 0.011535 0.055749 0.001369 0.020518
# 5 -0.006418 -0.001994 0.005089 0.001369 0.023987 0.017035
# 6 -0.001680 0.005329 0.013144 0.020518 0.017035 0.071817
#
#
# Mechanical properties :
#
#
# Convention : Reuss Voigt Hill
#
# Bulk Modulus (GPa) = 27.26320 60.49867 43.88093
# Shear Modulus (GPa) = 22.81193 37.15312 29.98252
#
# Velocity S-wave (km/s) = 3.15180 4.02231 3.61337
# Velocity P-wave (km/s) = 5.01172 6.92222 6.04295
#
# Compressibility (1/GPa) = 0.03667948
#
# Stress axis : x y z
#
# Youngs Moduli (GPa) = 77.22772 52.77816 70.69163
#
# Poissons Ratio (x) = -0.05759 0.32734
# Poissons Ratio (y) = -0.08428 0.08073
# Poissons Ratio (z) = 0.35760 0.06027
#
# Static dielectric constant tensor:
#      x y z
#    x 1.911750 -0.031410 0.052580 
#    y -0.031410 1.918740 0.001900 
#    z 0.052580 0.001900 1.871450 
# 
# From -- ./inp_files/445829.got.cif
#   From: 2010.05.17/outbox.cif.g08.bks.cpg/sg2_223_cif.got.tgz:445829.got - 2010.06.03 11:33:40.
