data_PCOD9019987
_publ_section_title
;
Structure prediction by ZEFSAII (Michael W. Deem and Ramdas Pophale) SiO2 
 PCOD9019987
Probable space group: P -1
;
_chemical_formula_sum "Si O2"
_cell_formula_units_Z 14
_cell_length_a 6.815054
_cell_length_b 7.638717
_cell_length_c 16.581390
_cell_angle_alpha 55.896383
_cell_angle_beta 57.981175
_cell_angle_gamma 89.052531
_cell_volume 555.455612
_symmetry_space_group_name_H-M "P -1"
_symmetry_group_IT_number 2
_symmetry_cell_setting 'triclinic'
loop_
_space_group_symop_operation_xyz
x,y,z
-x,-y,-z
loop_
_atom_site_type_symbol
_atom_site_label
_atom_site_fract_x
_atom_site_fract_y
_atom_site_fract_z
Si Si1 0.000432 0.084297 0.235605
Si Si2 0.716867 0.403050 0.968014
Si Si3 0.042190 0.851609 0.601532
Si Si4 0.014219 0.869417 0.949014
Si Si5 0.712329 0.400106 0.489917
Si Si6 0.443126 0.612668 0.156000
Si Si7 0.270111 0.797775 0.294843
O O1 0.041869 0.351283 0.151981
O O2 0.929241 0.993927 0.183409
O O3 0.861280 0.011417 0.371060
O O4 0.248007 0.032851 0.213702
O O5 0.664846 0.287270 0.920349
O O6 0.500000 0.500000 0.000000
O O7 0.784586 0.242221 0.054568
O O8 0.226310 0.731934 0.563677
O O9 0.761048 0.650431 0.728056
O O10 0.000000 0.000000 0.500000
O O11 0.731446 0.668378 0.057894
O O12 0.000000 0.000000 0.000000
O O13 0.500000 0.500000 0.500000
O O14 0.657055 0.231494 0.622780
O O15 0.980734 0.611378 0.394162
O O16 0.430683 0.726317 0.214174
#
# Coordination Sequence:
#
# PCOD9019987 Si02
#       7
#     2   2   2   2   2   2   2
#     4  11  23  42  73 101 141 182 239 287 355 417
#     4  11  24  45  68 100 144 180 228 296 353 410
#     4  10  21  45  76 102 141 186 233 295 361 412
#     4  12  27  45  71 106 143 188 242 282 353 434
#     4  10  22  44  66  98 138 179 237 281 345 420
#     4  10  24  43  72  99 142 185 234 286 356 418
#     4  10  22  41  67  97 137 183 225 289 346 415
#
# _framework density 25.204533000000001
#
# number of rings (size 3 to 8) (size 9 to 14) (size 15 to 20)
#    0.000    1.429    2.857    1.286    2.000    5.714 
#    2.571    0.714    0.000    0.000    0.000    0.000 
#    0.000    0.000    0.000    0.000    0.000    0.000 
#
# Total GULP energy -78245.815277 kJ/mol
# GULP energy per Si atom -5588.986806 kJ/mol
# Density = 2.514717 g / cm^3
# Si number density = 25.204533 Si / 1000 Ang^3
#
#
#
# Elastic Constant Matrix: (Units=GPa)
#
#
# Indices 1 2 3 4 5 6 
#
# 1 135.2834 40.5589 71.9652 15.9128 17.9663 -20.1985
# 2 40.5589 127.0221 36.2911 33.1273 22.1482 3.2291
# 3 71.9652 36.2911 118.3410 18.5817 20.6687 -2.8038
# 4 15.9128 33.1273 18.5817 48.8734 6.6140 12.5656
# 5 17.9663 22.1482 20.6687 6.6140 65.5591 5.0869
# 6 -20.1985 3.2291 -2.8038 12.5656 5.0869 42.9150
#
#
#
# Elastic Compliance Matrix: (Units=1/GPa)
#
#
# Indices 1 2 3 4 5 6 
#
# 1 0.012721 -0.001613 -0.006565 -0.002045 -0.001163 0.006416
# 2 -0.001613 0.010636 -0.000907 -0.006147 -0.002280 0.000451
# 3 -0.006565 -0.000907 0.013262 -0.001674 -0.001794 -0.001452
# 4 -0.002045 -0.006147 -0.001674 0.028094 0.001025 -0.008957
# 5 -0.001163 -0.002280 -0.001794 0.001025 0.017023 -0.002811
# 6 0.006416 0.000451 -0.001452 -0.008957 -0.002811 0.029149
#
#
# Mechanical properties :
#
#
# Convention : Reuss Voigt Hill
#
# Bulk Modulus (GPa) = 54.20166 75.36409 64.78288
# Shear Modulus (GPa) = 36.98153 46.92493 41.95323
#
# Velocity S-wave (km/s) = 3.83463 4.31950 4.08427
# Velocity P-wave (km/s) = 6.41540 7.40563 6.92823
#
# Compressibility (1/GPa) = 0.01844962
#
# Stress axis : x y z
#
# Youngs Moduli (GPa) = 78.61252 94.02064 75.40273
#
# Poissons Ratio (x) = 0.15168 0.49500
# Poissons Ratio (y) = 0.12683 0.06835
# Poissons Ratio (z) = 0.51607 0.08523
#
# Static dielectric constant tensor:
#      x y z
#    x 2.026890 0.101230 -0.093360 
#    y 0.101230 2.021690 -0.029140 
#    z -0.093360 -0.029140 2.143980 
# 
# From -- ./inp_files/539784.got.cif
#   From: 2010.05.17/outbox.cif.g08.bks.cpg/sg2_270_cif.got.tgz:539784.got - 2010.06.03 11:33:40.
