data_PCOD9019823
_publ_section_title
;
Structure prediction by ZEFSAII (Michael W. Deem and Ramdas Pophale) SiO2 
 PCOD9019823
Probable space group: P -1
;
_chemical_formula_sum "Si O2"
_cell_formula_units_Z 16
_cell_length_a 11.569544
_cell_length_b 5.439909
_cell_length_c 23.568002
_cell_angle_alpha 89.874779
_cell_angle_beta 26.914507
_cell_angle_gamma 88.738515
_cell_volume 670.772188
_symmetry_space_group_name_H-M "P -1"
_symmetry_group_IT_number 2
_symmetry_cell_setting 'triclinic'
loop_
_space_group_symop_operation_xyz
x,y,z
-x,-y,-z
loop_
_atom_site_type_symbol
_atom_site_label
_atom_site_fract_x
_atom_site_fract_y
_atom_site_fract_z
Si Si1 0.071363 0.387395 0.694894
Si Si2 0.626321 0.203228 0.180431
Si Si3 0.344501 0.562274 0.217985
Si Si4 0.911740 0.851325 0.199571
Si Si5 0.537411 0.239940 0.425337
Si Si6 0.135685 0.748474 0.421889
Si Si7 0.533486 0.503636 0.320146
Si Si8 0.152831 0.192099 0.997984
O O1 0.957132 0.255485 0.800402
O O2 0.291513 0.198275 0.571732
O O3 0.239642 0.617091 0.640160
O O4 0.850386 0.468176 0.747784
O O5 0.440304 0.335198 0.216037
O O6 0.505318 0.261123 0.294334
O O7 0.711445 0.951604 0.114043
O O8 0.901012 0.310672 0.077665
O O9 0.197366 0.739441 0.328230
O O10 0.618885 0.654139 0.077650
O O11 0.806434 0.609716 0.215779
O O12 0.675121 0.022849 0.328449
O O13 0.058283 0.008781 0.088827
O O14 0.422676 0.439173 0.429510
O O15 0.395259 0.715169 0.344137
O O16 0.000000 0.500000 0.500000
O O17 0.000000 0.000000 0.500000
#
# Coordination Sequence:
#
# PCOD9019823 Si02
#       8
#     2   2   2   2   2   2   2   2
#     4  10  24  44  65  98 130 180 229 291 356 423
#     4  10  24  42  66  98 135 174 225 278 350 422
#     4  11  26  42  68  99 142 181 227 292 359 424
#     4  11  24  41  70  97 127 182 236 290 347 420
#     4  10  21  45  69  95 131 176 236 290 351 421
#     4  11  27  44  68 106 149 188 232 297 370 436
#     4  10  23  38  70  98 134 178 233 287 353 427
#     4  11  25  41  70  99 136 178 233 287 356 426
#
# _framework density 23.853107000000001
#
# number of rings (size 3 to 8) (size 9 to 14) (size 15 to 20)
#    0.000    1.500    1.250    1.500   15.750    1.500 
#    0.000    1.250    0.000    0.000    0.000    0.000 
#    0.000    0.000    0.000    0.000    0.000    0.000 
#
# Total GULP energy -89246.573646 kJ/mol
# GULP energy per Si atom -5577.910853 kJ/mol
# Density = 2.379882 g / cm^3
# Si number density = 23.853107 Si / 1000 Ang^3
#
#
#
# Elastic Constant Matrix: (Units=GPa)
#
#
# Indices 1 2 3 4 5 6 
#
# 1 194.3182 11.9415 27.9374 -5.6303 -12.7482 -15.1391
# 2 11.9415 42.1571 5.6253 3.5417 2.9320 7.6637
# 3 27.9374 5.6253 59.5438 -17.4777 -5.3431 3.7731
# 4 -5.6303 3.5417 -17.4777 53.5376 -5.9095 5.8818
# 5 -12.7482 2.9320 -5.3431 -5.9095 35.8556 -2.5428
# 6 -15.1391 7.6637 3.7731 5.8818 -2.5428 26.4238
#
#
#
# Elastic Compliance Matrix: (Units=1/GPa)
#
#
# Indices 1 2 3 4 5 6 
#
# 1 0.006244 -0.002406 -0.002949 -0.000448 0.002259 0.005013
# 2 -0.002406 0.026727 -0.001849 -0.002131 -0.004292 -0.008805
# 3 -0.002949 -0.001849 0.021254 0.007713 0.003144 -0.005602
# 4 -0.000448 -0.002131 0.007713 0.022365 0.004475 -0.005288
# 5 0.002259 -0.004292 0.003144 0.004475 0.030536 0.004032
# 6 0.005013 -0.008805 -0.005602 -0.005288 0.004032 0.045636
#
#
# Mechanical properties :
#
#
# Convention : Reuss Voigt Hill
#
# Bulk Modulus (GPa) = 25.11471 43.00307 34.05889
# Shear Modulus (GPa) = 27.70985 39.86439 33.78712
#
# Velocity S-wave (km/s) = 3.41205 4.09252 3.76768
# Velocity P-wave (km/s) = 5.10632 6.35603 5.76514
#
# Compressibility (1/GPa) = 0.03981731
#
# Stress axis : x y z
#
# Youngs Moduli (GPa) = 160.15903 37.41509 47.05061
#
# Poissons Ratio (x) = 0.09002 0.13874
# Poissons Ratio (y) = 0.38533 0.08699
# Poissons Ratio (z) = 0.47228 0.06918
#
# Static dielectric constant tensor:
#      x y z
#    x 1.896650 -0.022860 -0.013260 
#    y -0.022860 1.993130 0.011990 
#    z -0.013260 0.011990 2.042070 
# 
# From -- ./inp_files/609182.got.cif
#   From: 2010.05.17/outbox.cif.g08.bks.cpg/sg2_305_cif.got.tgz:609182.got - 2010.06.03 11:33:40.
