data_PCOD9019102
_publ_section_title
;
Structure prediction by ZEFSAII (Michael W. Deem and Ramdas Pophale) SiO2 
 PCOD9019102
Probable space group: P -1
;
_chemical_formula_sum "Si O2"
_cell_formula_units_Z 16
_cell_length_a 10.615849
_cell_length_b 12.902350
_cell_length_c 11.774262
_cell_angle_alpha 82.890026
_cell_angle_beta 54.700746
_cell_angle_gamma 43.977012
_cell_volume 783.221100
_symmetry_space_group_name_H-M "P -1"
_symmetry_group_IT_number 2
_symmetry_cell_setting 'triclinic'
loop_
_space_group_symop_operation_xyz
x,y,z
-x,-y,-z
loop_
_atom_site_type_symbol
_atom_site_label
_atom_site_fract_x
_atom_site_fract_y
_atom_site_fract_z
Si Si1 0.243591 0.616514 0.047425
Si Si2 0.213007 0.480494 0.756669
Si Si3 0.553751 0.076450 0.031832
Si Si4 0.866837 0.246159 0.155663
Si Si5 0.426877 0.788616 0.585026
Si Si6 0.234347 0.291282 0.390348
Si Si7 0.767883 0.897746 0.425603
Si Si8 0.675215 0.658780 0.049679
O O1 0.251462 0.493787 0.015639
O O2 0.996441 0.761413 0.235544
O O3 0.500000 0.500000 0.000000
O O4 0.220063 0.701688 0.937158
O O5 0.227751 0.595500 0.757277
O O6 0.330739 0.385526 0.588553
O O7 0.919317 0.602385 0.910054
O O8 0.363848 0.336809 0.797192
O O9 0.336929 0.220902 0.218848
O O10 0.554343 0.167989 0.925879
O O11 0.500000 0.000000 0.000000
O O12 0.825035 0.920660 0.974554
O O13 0.751780 0.209025 0.283642
O O14 0.536722 0.786073 0.640238
O O15 0.281804 0.951967 0.559813
O O16 0.171200 0.210471 0.485192
O O17 0.000000 0.500000 0.500000
O O18 0.500000 0.000000 0.500000
#
# Coordination Sequence:
#
# PCOD9019102 Si02
#       8
#     2   2   2   2   2   2   2   2
#     4  11  25  43  67  98 139 176 224 284 351 418
#     4  10  21  44  68  93 134 183 232 280 339 411
#     4  12  25  43  70 102 135 175 232 285 336 414
#     4  11  25  42  66  99 136 181 227 284 349 408
#     4  11  24  41  67  95 139 176 222 286 347 403
#     4  11  25  42  70 102 132 175 230 287 336 406
#     4  10  22  41  64  94 130 173 220 277 337 400
#     4  10  22  41  70  94 128 181 229 276 341 408
#
# _framework density 20.428460000000001
#
# number of rings (size 3 to 8) (size 9 to 14) (size 15 to 20)
#    0.000    1.250    1.250    4.875    7.000    1.000 
#    0.000    0.625    0.000    0.000    0.000    0.000 
#    0.000    0.000    0.000    0.000    0.000    0.000 
#
# Total GULP energy -89411.991491 kJ/mol
# GULP energy per Si atom -5588.249468 kJ/mol
# Density = 2.038196 g / cm^3
# Si number density = 20.428460 Si / 1000 Ang^3
#
#
#
# Elastic Constant Matrix: (Units=GPa)
#
#
# Indices 1 2 3 4 5 6 
#
# 1 77.6014 30.3785 45.8987 -7.7284 1.3439 2.0217
# 2 30.3785 136.4487 34.2317 -16.7481 -4.5142 -0.8556
# 3 45.8987 34.2317 89.5808 0.7143 3.7179 9.6345
# 4 -7.7284 -16.7481 0.7143 30.7403 5.0045 -9.1570
# 5 1.3439 -4.5142 3.7179 5.0045 30.4595 -7.1683
# 6 2.0217 -0.8556 9.6345 -9.1570 -7.1683 33.2448
#
#
#
# Elastic Compliance Matrix: (Units=1/GPa)
#
#
# Indices 1 2 3 4 5 6 
#
# 1 0.019768 -0.001177 -0.010069 0.005514 0.000032 0.003211
# 2 -0.001177 0.009175 -0.003353 0.005445 0.001665 0.003138
# 3 -0.010069 -0.003353 0.018561 -0.006474 -0.002967 -0.007276
# 4 0.005514 0.005445 -0.006474 0.041154 -0.002470 0.012484
# 5 0.000032 0.001665 -0.002967 -0.002470 0.035708 0.007920
# 6 0.003211 0.003138 -0.007276 0.012484 0.007920 0.037220
#
#
# Mechanical properties :
#
#
# Convention : Reuss Voigt Hill
#
# Bulk Modulus (GPa) = 54.62985 58.29431 56.46208
# Shear Modulus (GPa) = 25.39534 31.76373 28.57954
#
# Velocity S-wave (km/s) = 3.52964 3.94747 3.74439
# Velocity P-wave (km/s) = 6.58872 7.02670 6.81123
#
# Compressibility (1/GPa) = 0.01830501
#
# Stress axis : x y z
#
# Youngs Moduli (GPa) = 50.58758 108.99147 53.87642
#
# Poissons Ratio (x) = 0.12827 0.54250
# Poissons Ratio (y) = 0.05953 0.18065
# Poissons Ratio (z) = 0.50939 0.36546
#
# Static dielectric constant tensor:
#      x y z
#    x 1.719190 -0.011310 0.004130 
#    y -0.011310 1.770860 -0.007560 
#    z 0.004130 -0.007560 1.682240 
# 
# From -- ./inp_files/284746.got.cif
#   From: 2010.05.17/outbox.cif.g08.bks.cpg/sg2_143_cif.got.tgz:284746.got - 2010.06.03 11:33:40.
