data_PCOD9019064
_publ_section_title
;
Structure prediction by ZEFSAII (Michael W. Deem and Ramdas Pophale) SiO2 
 PCOD9019064
Probable space group: P -1
;
_chemical_formula_sum "Si O2"
_cell_formula_units_Z 13
_cell_length_a 6.931100
_cell_length_b 11.999079
_cell_length_c 9.248171
_cell_angle_alpha 101.646514
_cell_angle_beta 47.735194
_cell_angle_gamma 82.152336
_cell_volume 516.639149
_symmetry_space_group_name_H-M "P -1"
_symmetry_group_IT_number 2
_symmetry_cell_setting 'triclinic'
loop_
_space_group_symop_operation_xyz
x,y,z
-x,-y,-z
loop_
_atom_site_type_symbol
_atom_site_label
_atom_site_fract_x
_atom_site_fract_y
_atom_site_fract_z
Si Si1 0.000000 0.500000 0.500000
Si Si2 0.823744 0.936047 0.768836
Si Si3 0.472193 0.551854 0.772950
Si Si4 0.973818 0.228072 0.112075
Si Si5 0.819816 0.912133 0.301936
Si Si6 0.629368 0.624832 0.013087
Si Si7 0.962306 0.736635 0.409684
O O1 0.254636 0.542547 0.466452
O O2 0.098317 0.374875 0.523407
O O3 0.025309 0.834566 0.752008
O O4 0.826067 0.857911 0.606019
O O5 0.968103 0.035603 0.711892
O O6 0.500000 0.000000 0.000000
O O7 0.303092 0.488307 0.938225
O O8 0.290379 0.667370 0.803234
O O9 0.671616 0.580222 0.809747
O O10 0.080709 0.114111 0.918500
O O11 0.205341 0.289129 0.021144
O O12 0.850564 0.780618 0.317884
O O13 0.500000 0.000000 0.500000
O O14 0.298226 0.695903 0.216665
#
# Coordination Sequence:
#
# PCOD9019064 Si02
#       7
#     1   2   2   2   2   2   2
#     4  10  24  40  72 102 140 180 220 306 352 414
#     4  12  27  45  70 103 144 191 238 296 357 415
#     4  10  22  42  68 102 141 184 233 283 362 422
#     4  12  24  42  72 101 137 180 243 288 349 423
#     4  12  26  44  69 103 139 187 241 295 343 426
#     4  10  21  44  68 101 138 188 225 293 356 421
#     4  11  23  46  70  98 143 183 234 285 363 420
#
# _framework density 25.162631000000001
#
# number of rings (size 3 to 8) (size 9 to 14) (size 15 to 20)
#    0.000    0.923    1.538    5.077    4.308    0.000 
#    2.769    3.846    0.000    0.000    0.000    0.000 
#    0.000    0.000    0.000    0.000    0.000    0.000 
#
# Total GULP energy -72610.050493 kJ/mol
# GULP energy per Si atom -5585.388499 kJ/mol
# Density = 2.510536 g / cm^3
# Si number density = 25.162631 Si / 1000 Ang^3
#
#
#
# Elastic Constant Matrix: (Units=GPa)
#
#
# Indices 1 2 3 4 5 6 
#
# 1 53.8588 28.1426 10.6006 -1.6938 -12.8237 -8.6361
# 2 28.1426 154.2277 19.7979 -28.9681 -13.1071 -14.8372
# 3 10.6006 19.7979 90.5181 1.5579 -13.9577 -2.8882
# 4 -1.6938 -28.9681 1.5579 43.6712 -2.0459 0.6651
# 5 -12.8237 -13.1071 -13.9577 -2.0459 42.2820 11.8871
# 6 -8.6361 -14.8372 -2.8882 0.6651 11.8871 48.5019
#
#
#
# Elastic Compliance Matrix: (Units=1/GPa)
#
#
# Indices 1 2 3 4 5 6 
#
# 1 0.021967 -0.003565 -0.000993 -0.001281 0.004711 0.001625
# 2 -0.003565 0.008604 -0.001362 0.005638 0.000958 0.001604
# 3 -0.000993 -0.001362 0.011980 -0.001201 0.003367 -0.000689
# 4 -0.001281 0.005638 -0.001201 0.026722 0.002103 0.000543
# 5 0.004711 0.000958 0.003367 0.002103 0.028164 -0.005599
# 6 0.001625 0.001604 -0.000689 0.000543 -0.005599 0.022722
#
#
# Mechanical properties :
#
#
# Convention : Reuss Voigt Hill
#
# Bulk Modulus (GPa) = 32.56205 46.18743 39.37474
# Shear Modulus (GPa) = 35.15320 42.89524 39.02422
#
# Velocity S-wave (km/s) = 3.74175 4.13330 3.94239
# Velocity P-wave (km/s) = 5.62462 6.41673 6.03369
#
# Compressibility (1/GPa) = 0.03071060
#
# Stress axis : x y z
#
# Youngs Moduli (GPa) = 45.52263 116.22420 83.47531
#
# Poissons Ratio (x) = 0.41435 0.08285
# Poissons Ratio (y) = 0.16229 0.11373
# Poissons Ratio (z) = 0.04518 0.15835
#
# Static dielectric constant tensor:
#      x y z
#    x 2.021830 -0.003550 -0.017080 
#    y -0.003550 1.925440 -0.003280 
#    z -0.017080 -0.003280 2.361420 
# 
# From -- ./inp_files/26649.got.cif
#   From: 2010.05.17/outbox.cif.g08.bks.cpg/sg2_14_cif.got.tgz:26649.got - 2010.06.03 11:33:40.
