data_PCOD9019451
_publ_section_title
;
Structure prediction by ZEFSAII (Michael W. Deem and Ramdas Pophale) SiO2 
 PCOD9019451
Probable space group: P -1
;
_chemical_formula_sum "Si O2"
_cell_formula_units_Z 14
_cell_length_a 14.668516
_cell_length_b 9.499220
_cell_length_c 14.811760
_cell_angle_alpha 22.625083
_cell_angle_beta 40.556226
_cell_angle_gamma 46.668566
_cell_volume 515.293328
_symmetry_space_group_name_H-M "P -1"
_symmetry_group_IT_number 2
_symmetry_cell_setting 'triclinic'
loop_
_space_group_symop_operation_xyz
x,y,z
-x,-y,-z
loop_
_atom_site_type_symbol
_atom_site_label
_atom_site_fract_x
_atom_site_fract_y
_atom_site_fract_z
Si Si1 0.940632 0.746133 0.979693
Si Si2 0.351321 0.318669 0.689821
Si Si3 0.559477 0.431145 0.199644
Si Si4 0.282582 0.598106 0.389336
Si Si5 0.297492 0.518364 0.120278
Si Si6 0.006004 0.649595 0.639569
Si Si7 0.226047 0.013834 0.632884
O O1 0.771851 0.728323 0.114898
O O2 0.065264 0.057926 0.700786
O O3 0.000000 0.500000 0.000000
O O4 0.961236 0.639945 0.134717
O O5 0.500000 0.500000 0.500000
O O6 0.310666 0.584426 0.482086
O O7 0.344236 0.918859 0.885676
O O8 0.436117 0.674493 0.184311
O O9 0.500000 0.000000 0.500000
O O10 0.704518 0.378777 0.176945
O O11 0.606111 0.563271 0.988404
O O12 0.242254 0.208549 0.602251
O O13 0.129681 0.758780 0.409664
O O14 0.138343 0.478473 0.225133
O O15 0.308781 0.235799 0.360620
O O16 0.000000 0.000000 0.500000
#
# Coordination Sequence:
#
# PCOD9019451 Si02
#       7
#     2   2   2   2   2   2   2
#     4  11  24  42  71 103 149 194 239 312 367 428
#     4  11  25  44  71 107 149 196 244 303 368 439
#     4  10  21  44  72 103 148 190 234 307 363 437
#     4  10  23  46  70 100 147 188 239 304 370 424
#     4  12  24  45  79 109 144 195 247 298 369 447
#     4  11  24  46  74 107 148 190 252 306 362 441
#     4  11  23  43  79 107 144 192 248 296 376 439
#
# _framework density 27.168990999999998
#
# number of rings (size 3 to 8) (size 9 to 14) (size 15 to 20)
#    0.000    1.143    4.286    1.714    2.000    8.000 
#    0.000    1.429    0.000    0.000    0.000    0.000 
#    0.000    0.000    0.000    0.000    0.000    0.000 
#
# Total GULP energy -78149.918873 kJ/mol
# GULP energy per Si atom -5582.137062 kJ/mol
# Density = 2.710715 g / cm^3
# Si number density = 27.168991 Si / 1000 Ang^3
#
#
#
# Elastic Constant Matrix: (Units=GPa)
#
#
# Indices 1 2 3 4 5 6 
#
# 1 156.3703 44.2000 46.3705 14.8404 -45.3222 -3.1917
# 2 44.2000 181.5154 61.9621 60.7829 -34.9640 -13.6862
# 3 46.3705 61.9621 130.2628 47.1143 -26.9441 2.2518
# 4 14.8404 60.7829 47.1143 58.0806 6.9222 -5.3203
# 5 -45.3222 -34.9640 -26.9441 6.9222 58.2337 9.3400
# 6 -3.1917 -13.6862 2.2518 -5.3203 9.3400 39.9687
#
#
#
# Elastic Compliance Matrix: (Units=1/GPa)
#
#
# Indices 1 2 3 4 5 6 
#
# 1 0.008917 0.000517 -0.000631 -0.003326 0.007560 -0.001285
# 2 0.000517 0.011780 0.001825 -0.015195 0.010195 -0.000433
# 3 -0.000631 0.001825 0.014703 -0.015286 0.009965 -0.004617
# 4 -0.003326 -0.015195 -0.015286 0.050224 -0.026065 0.008169
# 5 0.007560 0.010195 0.009965 -0.026065 0.038312 -0.008889
# 6 -0.001285 -0.000433 -0.004617 0.008169 -0.008889 0.028193
#
#
# Mechanical properties :
#
#
# Convention : Reuss Voigt Hill
#
# Bulk Modulus (GPa) = 25.75903 85.91264 55.83584
# Shear Modulus (GPa) = 30.93154 52.29765 41.61459
#
# Velocity S-wave (km/s) = 3.37781 4.39213 3.91793
# Velocity P-wave (km/s) = 4.97136 7.57702 6.40803
#
# Compressibility (1/GPa) = 0.03882133
#
# Stress axis : x y z
#
# Youngs Moduli (GPa) = 112.15100 84.89171 68.01185
#
# Poissons Ratio (x) = -0.04393 0.04293
# Poissons Ratio (y) = -0.05803 -0.12410
# Poissons Ratio (z) = 0.07079 -0.15490
#
# Static dielectric constant tensor:
#      x y z
#    x 2.862470 -0.149090 -0.138260 
#    y -0.149090 2.154120 0.025600 
#    z -0.138260 0.025600 2.362040 
# 
# From -- ./inp_files/527064.got.cif
#   From: 2010.05.17/outbox.cif.g08.bks.cpg/sg2_264_cif.got.tgz:527064.got - 2010.06.03 11:33:40.
