data_PCOD9019827
_publ_section_title
;
Structure prediction by ZEFSAII (Michael W. Deem and Ramdas Pophale) SiO2 
 PCOD9019827
Probable space group: P -1
;
_chemical_formula_sum "Si O2"
_cell_formula_units_Z 16
_cell_length_a 26.717699
_cell_length_b 7.969394
_cell_length_c 15.278492
_cell_angle_alpha 51.516841
_cell_angle_beta 159.818932
_cell_angle_gamma 137.994826
_cell_volume 710.103370
_symmetry_space_group_name_H-M "P -1"
_symmetry_group_IT_number 2
_symmetry_cell_setting 'triclinic'
loop_
_space_group_symop_operation_xyz
x,y,z
-x,-y,-z
loop_
_atom_site_type_symbol
_atom_site_label
_atom_site_fract_x
_atom_site_fract_y
_atom_site_fract_z
Si Si1 0.649095 0.140854 0.082494
Si Si2 0.094124 0.008953 0.397925
Si Si3 0.441293 0.562703 0.717639
Si Si4 0.038754 0.881331 0.686093
Si Si5 0.253137 0.325092 0.166840
Si Si6 0.333901 0.599047 0.790050
Si Si7 0.515780 0.430085 0.690232
Si Si8 0.401250 0.922054 0.268913
O O1 0.642627 0.262760 0.123838
O O2 0.815276 0.127799 0.370924
O O3 0.632801 0.316741 0.930509
O O4 0.472874 0.842151 0.878263
O O5 0.255669 0.305399 0.534450
O O6 0.984514 0.006496 0.300113
O O7 0.954871 0.852258 0.141518
O O8 0.475234 0.499983 0.694783
O O9 0.464194 0.836401 0.654843
O O10 0.595740 0.582449 0.023013
O O11 0.872204 0.572786 0.516076
O O12 0.227210 0.926471 0.979682
O O13 0.000000 0.000000 0.500000
O O14 0.323615 0.237865 0.389812
O O15 0.362682 0.340982 0.255646
O O16 0.323452 0.623180 0.212045
O O17 0.500000 0.000000 0.500000
#
# Coordination Sequence:
#
# PCOD9019827 Si02
#       8
#     2   2   2   2   2   2   2   2
#     4   9  20  39  69  99 130 167 221 269 335 389
#     4  11  26  43  67 104 135 172 224 278 332 400
#     4  10  21  45  69  97 139 172 218 278 337 386
#     4  12  26  43  69  96 137 174 225 275 333 395
#     4  11  25  42  68 100 131 177 228 270 330 396
#     4   9  19  40  67  98 131 171 212 276 333 391
#     4  10  22  41  70  95 131 178 220 275 322 399
#     4  12  25  46  70  98 133 181 222 273 335 398
#
# _framework density 22.531929999999999
#
# number of rings (size 3 to 8) (size 9 to 14) (size 15 to 20)
#    0.000    1.500    2.500    2.250    5.250    4.000 
#    2.250    0.625    0.000    0.000    0.000    0.000 
#    0.000    0.000    0.000    0.000    0.000    0.000 
#
# Total GULP energy -89345.567438 kJ/mol
# GULP energy per Si atom -5584.097965 kJ/mol
# Density = 2.248065 g / cm^3
# Si number density = 22.531930 Si / 1000 Ang^3
#
#
#
# Elastic Constant Matrix: (Units=GPa)
#
#
# Indices 1 2 3 4 5 6 
#
# 1 70.3425 1.6802 14.0928 1.3516 -3.0595 -2.0012
# 2 1.6802 60.4903 42.1466 0.6005 -1.7356 -14.5977
# 3 14.0928 42.1466 169.6582 8.1041 -6.5581 -0.9646
# 4 1.3516 0.6005 8.1041 32.7153 -5.8432 -4.5300
# 5 -3.0595 -1.7356 -6.5581 -5.8432 29.5935 -2.6455
# 6 -2.0012 -14.5977 -0.9646 -4.5300 -2.6455 14.6101
#
#
#
# Elastic Compliance Matrix: (Units=1/GPa)
#
#
# Indices 1 2 3 4 5 6 
#
# 1 0.014677 0.001757 -0.001595 0.000652 0.001770 0.004183
# 2 0.001757 0.029410 -0.007408 0.006427 0.004388 0.031924
# 3 -0.001595 -0.007408 0.007955 -0.002901 -0.000126 -0.008017
# 4 0.000652 0.006427 -0.002901 0.035248 0.008439 0.018776
# 5 0.001770 0.004388 -0.000126 0.008439 0.037117 0.013956
# 6 0.004183 0.031924 -0.008017 0.018776 0.013956 0.108735
#
#
# Mechanical properties :
#
#
# Convention : Reuss Voigt Hill
#
# Bulk Modulus (GPa) = 26.62989 46.25892 36.44440
# Shear Modulus (GPa) = 19.21958 31.55519 25.38738
#
# Velocity S-wave (km/s) = 2.92377 3.74634 3.36032
# Velocity P-wave (km/s) = 4.82103 6.26804 5.59154
#
# Compressibility (1/GPa) = 0.03755179
#
# Stress axis : x y z
#
# Youngs Moduli (GPa) = 68.13328 34.00155 125.70549
#
# Poissons Ratio (x) = -0.05975 0.20045
# Poissons Ratio (y) = -0.11972 0.93123
# Poissons Ratio (z) = 0.10865 0.25188
#
# Static dielectric constant tensor:
#      x y z
#    x 1.873890 -0.024770 -0.016300 
#    y -0.024770 1.919980 -0.011340 
#    z -0.016300 -0.011340 1.857740 
# 
# From -- ./inp_files/543823.got.cif
#   From: 2010.05.17/outbox.cif.g08.bks.cpg/sg2_272_cif.got.tgz:543823.got - 2010.06.03 11:33:40.
