data_PCOD9019135
_publ_section_title
;
Structure prediction by ZEFSAII (Michael W. Deem and Ramdas Pophale) SiO2 
 PCOD9019135
Probable space group: P -1
;
_chemical_formula_sum "Si O2"
_cell_formula_units_Z 14
_cell_length_a 15.525954
_cell_length_b 9.000919
_cell_length_c 8.105353
_cell_angle_alpha 49.218891
_cell_angle_beta 60.862274
_cell_angle_gamma 92.296918
_cell_volume 629.836284
_symmetry_space_group_name_H-M "P -1"
_symmetry_group_IT_number 2
_symmetry_cell_setting 'triclinic'
loop_
_space_group_symop_operation_xyz
x,y,z
-x,-y,-z
loop_
_atom_site_type_symbol
_atom_site_label
_atom_site_fract_x
_atom_site_fract_y
_atom_site_fract_z
Si Si1 0.703561 0.076721 0.366517
Si Si2 0.602629 0.592351 0.701295
Si Si3 0.558137 0.859325 0.999030
Si Si4 0.072663 0.775280 0.747763
Si Si5 0.782896 0.079549 0.829785
Si Si6 0.783542 0.470329 0.761087
Si Si7 0.980082 0.048963 0.797839
O O1 0.831916 0.144854 0.254028
O O2 0.648802 0.862847 0.444204
O O3 0.625887 0.978615 0.676055
O O4 0.718790 0.301344 0.100685
O O5 0.706156 0.566594 0.695439
O O6 0.500000 0.500000 0.000000
O O7 0.540098 0.410885 0.743471
O O8 0.651925 0.900066 0.019981
O O9 0.500000 0.000000 0.000000
O O10 0.142023 0.864218 0.448392
O O11 0.995012 0.880026 0.785915
O O12 0.000000 0.500000 0.000000
O O13 0.791269 0.305935 0.736433
O O14 0.852532 0.006295 0.934612
O O15 0.913754 0.684350 0.530187
O O16 0.000000 0.000000 0.000000
#
# Coordination Sequence:
#
# PCOD9019135 Si02
#       7
#     2   2   2   2   2   2   2
#     4  10  23  42  71  99 131 181 229 271 343 405
#     4  10  22  43  70  93 136 177 233 272 335 400
#     4  10  21  44  68  97 138 175 223 288 332 396
#     4  11  22  43  65  99 140 169 219 286 343 403
#     4  11  24  40  68 101 133 176 227 276 348 399
#     4  12  23  44  71  99 136 178 231 280 336 412
#     4  12  25  44  71 100 138 180 225 279 342 416
#
# _framework density 22.227997999999999
#
# number of rings (size 3 to 8) (size 9 to 14) (size 15 to 20)
#    0.000    1.143    2.857    3.429    0.000    2.286 
#    0.000    2.143    3.143    0.000    0.000    0.000 
#    0.000    0.000    0.000    0.000    0.000    0.000 
#
# Total GULP energy -78322.925476 kJ/mol
# GULP energy per Si atom -5594.494677 kJ/mol
# Density = 2.217741 g / cm^3
# Si number density = 22.227998 Si / 1000 Ang^3
#
#
#
# Elastic Constant Matrix: (Units=GPa)
#
#
# Indices 1 2 3 4 5 6 
#
# 1 135.6663 34.6543 29.8070 -7.3532 -12.4489 3.7088
# 2 34.6543 127.8031 21.9437 -13.5869 -15.8705 2.5718
# 3 29.8070 21.9437 88.8059 -19.0403 -2.7527 12.0907
# 4 -7.3532 -13.5869 -19.0403 40.0774 7.8714 -8.8226
# 5 -12.4489 -15.8705 -2.7527 7.8714 35.5828 0.0638
# 6 3.7088 2.5718 12.0907 -8.8226 0.0638 39.0448
#
#
#
# Elastic Compliance Matrix: (Units=1/GPa)
#
#
# Indices 1 2 3 4 5 6 
#
# 1 0.008516 -0.001675 -0.002504 -0.000639 0.002180 -0.000071
# 2 -0.001675 0.009035 -0.001271 0.001637 0.002983 0.000323
# 3 -0.002504 -0.001271 0.013903 0.005414 -0.001560 -0.002758
# 4 -0.000639 0.001637 0.005414 0.030221 -0.005769 0.005114
# 5 0.002180 0.002983 -0.001560 -0.005769 0.031354 -0.001275
# 6 -0.000071 0.000323 -0.002758 0.005114 -0.001275 0.027609
#
#
# Mechanical properties :
#
#
# Convention : Reuss Voigt Hill
#
# Bulk Modulus (GPa) = 48.65204 58.34279 53.49741
# Shear Modulus (GPa) = 36.12987 40.66569 38.39778
#
# Velocity S-wave (km/s) = 4.03603 4.28188 4.16077
# Velocity P-wave (km/s) = 6.60716 7.12393 6.87041
#
# Compressibility (1/GPa) = 0.02055412
#
# Stress axis : x y z
#
# Youngs Moduli (GPa) = 117.41931 110.68250 71.92708
#
# Poissons Ratio (x) = 0.18540 0.18013
# Poissons Ratio (y) = 0.19668 0.09140
# Poissons Ratio (z) = 0.29406 0.14065
#
# Static dielectric constant tensor:
#      x y z
#    x 1.820130 0.026890 0.012990 
#    y 0.026890 1.793800 0.024920 
#    z 0.012990 0.024920 1.836290 
# 
# From -- ./inp_files/52405.got.cif
#   From: 2010.05.17/outbox.cif.g08.bks.cpg/sg2_27_cif.got.tgz:52405.got - 2010.06.03 11:33:40.
