data_PCOD9019185
_publ_section_title
;
Structure prediction by ZEFSAII (Michael W. Deem and Ramdas Pophale) SiO2 
 PCOD9019185
Probable space group: P -1
;
_chemical_formula_sum "Si O2"
_cell_formula_units_Z 16
_cell_length_a 23.137800
_cell_length_b 14.377983
_cell_length_c 17.951279
_cell_angle_alpha 148.156284
_cell_angle_beta 20.786667
_cell_angle_gamma 158.873323
_cell_volume 751.895083
_symmetry_space_group_name_H-M "P -1"
_symmetry_group_IT_number 2
_symmetry_cell_setting 'triclinic'
loop_
_space_group_symop_operation_xyz
x,y,z
-x,-y,-z
loop_
_atom_site_type_symbol
_atom_site_label
_atom_site_fract_x
_atom_site_fract_y
_atom_site_fract_z
Si Si1 0.629785 0.482768 0.772236
Si Si2 0.787893 0.100467 0.186182
Si Si3 0.312627 0.379711 0.711969
Si Si4 0.726212 0.737771 0.672713
Si Si5 0.570955 0.248561 0.054944
Si Si6 0.061541 0.582357 0.375129
Si Si7 0.273583 0.942318 0.492364
Si Si8 0.530913 0.210571 0.506713
O O1 0.705161 0.661489 0.732023
O O2 0.855910 0.559198 0.586751
O O3 0.426890 0.181603 0.786322
O O4 0.500000 0.500000 0.000000
O O5 0.726550 0.253421 0.345608
O O6 0.718849 0.002915 0.289492
O O7 0.044530 0.252487 0.945096
O O8 0.500000 0.500000 0.500000
O O9 0.444979 0.617300 0.771170
O O10 0.250262 0.132825 0.645995
O O11 0.572461 0.784256 0.864436
O O12 0.620714 0.482824 0.582538
O O13 0.000000 0.000000 0.500000
O O14 0.840863 0.430069 0.824935
O O15 0.500000 0.000000 0.000000
O O16 0.273019 0.854024 0.351208
O O17 0.954989 0.339573 0.387949
O O18 0.488027 0.093234 0.396957
#
# Coordination Sequence:
#
# PCOD9019185 Si02
#       8
#     2   2   2   2   2   2   2   2
#     4  11  24  45  70 104 144 184 239 296 363 429
#     4  10  23  40  72  99 135 177 230 290 356 417
#     4  12  27  46  68  99 145 191 235 295 366 433
#     4  11  26  44  72 102 142 189 241 293 368 436
#     4  12  27  45  70 103 142 189 241 296 360 432
#     4  11  25  42  74 104 142 183 234 301 355 429
#     4  11  23  44  69 102 142 177 240 288 359 423
#     4  10  21  44  69 105 133 178 235 295 350 427
#
# _framework density 21.279564000000001
#
# number of rings (size 3 to 8) (size 9 to 14) (size 15 to 20)
#    0.000    1.000    2.500    3.000   12.250    2.000 
#    0.000    0.625    0.000    0.000    0.000    0.000 
#    0.000    0.000    0.000    0.000    0.000    0.000 
#
# Total GULP energy -89293.130230 kJ/mol
# GULP energy per Si atom -5580.820639 kJ/mol
# Density = 2.123113 g / cm^3
# Si number density = 21.279564 Si / 1000 Ang^3
#
#
#
# Elastic Constant Matrix: (Units=GPa)
#
#
# Indices 1 2 3 4 5 6 
#
# 1 99.4463 56.7990 55.2030 7.3302 1.7881 -8.1310
# 2 56.7990 119.4410 40.7777 12.4558 -5.4594 -21.4464
# 3 55.2030 40.7777 148.5389 -2.6810 2.9301 -14.6204
# 4 7.3302 12.4558 -2.6810 38.9990 1.4955 -3.7543
# 5 1.7881 -5.4594 2.9301 1.4955 33.5468 10.4285
# 6 -8.1310 -21.4464 -14.6204 -3.7543 10.4285 41.6698
#
#
#
# Elastic Compliance Matrix: (Units=1/GPa)
#
#
# Indices 1 2 3 4 5 6 
#
# 1 0.016116 -0.006332 -0.004410 -0.001422 -0.000959 -0.001550
# 2 -0.006332 0.012786 -0.000779 -0.002555 0.001188 0.004544
# 3 -0.004410 -0.000779 0.008888 0.001979 -0.001506 0.002412
# 4 -0.001422 -0.002555 0.001979 0.027160 -0.002391 0.002147
# 5 -0.000959 0.001188 -0.001506 -0.002391 0.032955 -0.008567
# 6 -0.001550 0.004544 0.002412 0.002147 -0.008567 0.029218
#
#
# Mechanical properties :
#
#
# Convention : Reuss Voigt Hill
#
# Bulk Modulus (GPa) = 67.80917 74.77619 71.29268
# Shear Modulus (GPa) = 32.24129 37.15289 34.69709
#
# Velocity S-wave (km/s) = 3.89669 4.18298 4.04237
# Velocity P-wave (km/s) = 7.22362 7.65153 7.44065
#
# Compressibility (1/GPa) = 0.01474727
#
# Stress axis : x y z
#
# Youngs Moduli (GPa) = 62.05183 78.21022 112.51080
#
# Poissons Ratio (x) = 0.49520 0.49620
# Poissons Ratio (y) = 0.39289 0.08767
# Poissons Ratio (z) = 0.27367 0.06095
#
# Static dielectric constant tensor:
#      x y z
#    x 2.606070 0.212270 0.289410 
#    y 0.212270 1.820180 0.073270 
#    z 0.289410 0.073270 1.887210 
# 
# From -- ./inp_files/579322.got.cif
#   From: 2010.05.17/outbox.cif.g08.bks.cpg/sg2_290_cif.got.tgz:579322.got - 2010.06.03 11:33:40.
