data_PCOD9019217
_publ_section_title
;
Structure prediction by ZEFSAII (Michael W. Deem and Ramdas Pophale) SiO2 
 PCOD9019217
Probable space group: P -1
;
_chemical_formula_sum "Si O2"
_cell_formula_units_Z 14
_cell_length_a 6.556883
_cell_length_b 8.088574
_cell_length_c 14.341008
_cell_angle_alpha 56.286465
_cell_angle_beta 116.165210
_cell_angle_gamma 115.084927
_cell_volume 551.239596
_symmetry_space_group_name_H-M "P -1"
_symmetry_group_IT_number 2
_symmetry_cell_setting 'triclinic'
loop_
_space_group_symop_operation_xyz
x,y,z
-x,-y,-z
loop_
_atom_site_type_symbol
_atom_site_label
_atom_site_fract_x
_atom_site_fract_y
_atom_site_fract_z
Si Si1 0.592108 0.811292 0.679904
Si Si2 0.056413 0.777542 0.837146
Si Si3 0.573533 0.792026 0.464261
Si Si4 0.697710 0.587418 0.199016
Si Si5 0.891979 0.522961 0.571484
Si Si6 0.997491 0.303674 0.930661
Si Si7 0.497548 0.927937 0.129223
O O1 0.542181 0.746114 0.582956
O O2 0.513264 0.610753 0.790063
O O3 0.870200 0.891091 0.721231
O O4 0.449205 0.977734 0.622576
O O5 0.998706 0.543885 0.863691
O O6 0.325408 0.892037 0.837428
O O7 0.015561 0.773067 0.942060
O O8 0.810284 0.733608 0.499492
O O9 0.350601 0.648681 0.412985
O O10 0.623794 0.740082 0.208889
O O11 0.917290 0.509441 0.306149
O O12 0.773543 0.699128 0.081640
O O13 0.000000 0.500000 0.500000
O O14 0.772895 0.168458 0.873302
O O15 0.500000 0.000000 0.000000
#
# Coordination Sequence:
#
# PCOD9019217 Si02
#       7
#     2   2   2   2   2   2   2
#     4  11  22  44  67 104 135 180 228 275 348 399
#     4  10  21  44  69  96 136 179 221 276 335 412
#     4  10  24  44  68  94 138 174 230 287 328 408
#     4  12  24  42  69  98 137 178 220 285 336 408
#     4  11  23  44  66  96 128 182 228 280 341 395
#     4  10  23  44  66  97 137 175 224 276 336 399
#     4  10  23  44  66  97 134 176 224 276 329 403
#
# _framework density 25.397304999999999
#
# number of rings (size 3 to 8) (size 9 to 14) (size 15 to 20)
#    0.000    1.429    2.857    1.714    0.000    3.429 
#   10.286    0.000    0.000    0.000    0.000    0.000 
#    0.000    0.000    0.000    0.000    0.000    0.000 
#
# Total GULP energy -78433.265005 kJ/mol
# GULP energy per Si atom -5602.376072 kJ/mol
# Density = 2.533950 g / cm^3
# Si number density = 25.397305 Si / 1000 Ang^3
#
#
#
# Elastic Constant Matrix: (Units=GPa)
#
#
# Indices 1 2 3 4 5 6 
#
# 1 78.2496 29.8420 22.7978 -6.6150 -0.3559 -7.0892
# 2 29.8420 97.8785 29.9167 -8.2768 10.1857 20.6639
# 3 22.7978 29.9167 57.3413 8.6553 10.3755 -2.4863
# 4 -6.6150 -8.2768 8.6553 36.4647 -1.8360 7.5166
# 5 -0.3559 10.1857 10.3755 -1.8360 50.8533 -3.0884
# 6 -7.0892 20.6639 -2.4863 7.5166 -3.0884 44.9612
#
#
#
# Elastic Compliance Matrix: (Units=1/GPa)
#
#
# Indices 1 2 3 4 5 6 
#
# 1 0.016475 -0.004465 -0.004822 0.002383 0.002331 0.004145
# 2 -0.004465 0.017118 -0.008284 0.007069 -0.002144 -0.010358
# 3 -0.004822 -0.008284 0.026180 -0.010389 -0.003728 0.005975
# 4 0.002383 0.007069 -0.010389 0.033854 0.001395 -0.009011
# 5 0.002331 -0.002144 -0.003728 0.001395 0.021064 0.002360
# 6 0.004145 -0.010358 0.005975 -0.009011 0.002360 0.029655
#
#
# Mechanical properties :
#
#
# Convention : Reuss Voigt Hill
#
# Bulk Modulus (GPa) = 40.60013 44.28695 42.44354
# Shear Modulus (GPa) = 26.63827 36.51670 31.57748
#
# Velocity S-wave (km/s) = 3.24213 3.79597 3.52993
# Velocity P-wave (km/s) = 5.48050 6.05707 5.77598
#
# Compressibility (1/GPa) = 0.02463046
#
# Stress axis : x y z
#
# Youngs Moduli (GPa) = 60.69778 58.41851 38.19642
#
# Poissons Ratio (x) = 0.26086 0.18419
# Poissons Ratio (y) = 0.27104 0.31641
# Poissons Ratio (z) = 0.29270 0.48393
#
# Static dielectric constant tensor:
#      x y z
#    x 1.982060 0.018140 -0.021860 
#    y 0.018140 2.004890 -0.038220 
#    z -0.021860 -0.038220 1.995810 
# 
# From -- ./inp_files/89842.got.cif
#   From: 2010.05.17/outbox.cif.g08.bks.cpg/sg2_45_cif.got.tgz:89842.got - 2010.06.03 11:33:40.
