data_PCOD9019850
_publ_section_title
;
Structure prediction by ZEFSAII (Michael W. Deem and Ramdas Pophale) SiO2 
 PCOD9019850
Probable space group: P -1
;
_chemical_formula_sum "Si O2"
_cell_formula_units_Z 14
_cell_length_a 23.400383
_cell_length_b 7.662070
_cell_length_c 5.794023
_cell_angle_alpha 120.273732
_cell_angle_beta 127.966217
_cell_angle_gamma 50.282795
_cell_volume 619.330016
_symmetry_space_group_name_H-M "P -1"
_symmetry_group_IT_number 2
_symmetry_cell_setting 'triclinic'
loop_
_space_group_symop_operation_xyz
x,y,z
-x,-y,-z
loop_
_atom_site_type_symbol
_atom_site_label
_atom_site_fract_x
_atom_site_fract_y
_atom_site_fract_z
Si Si1 0.779442 0.476406 0.581003
Si Si2 0.630378 0.404617 0.339566
Si Si3 0.679688 0.998782 0.556949
Si Si4 0.080338 0.812634 0.933278
Si Si5 0.470531 0.694424 0.363977
Si Si6 0.012440 0.374449 0.694817
Si Si7 0.826629 0.065048 0.091256
O O1 0.707573 0.444508 0.508516
O O2 0.736280 0.723789 0.512166
O O3 0.815564 0.282547 0.348832
O O4 0.856475 0.406052 0.900910
O O5 0.557584 0.638143 0.431555
O O6 0.657017 0.168041 0.393050
O O7 0.583887 0.367705 0.984316
O O8 0.593778 0.066417 0.518992
O O9 0.739030 0.074528 0.887546
O O10 0.135789 0.926111 0.058862
O O11 0.046807 0.738644 0.575724
O O12 0.000000 0.000000 0.000000
O O13 0.500000 0.500000 0.500000
O O14 0.000000 0.500000 0.500000
O O15 0.105299 0.169404 0.787328
O O16 0.000000 0.500000 0.000000
#
# Coordination Sequence:
#
# PCOD9019850 Si02
#       7
#     2   2   2   2   2   2   2
#     4  12  26  45  75 107 145 197 247 308 380 447
#     4  10  21  45  70 103 147 185 237 306 364 442
#     4  11  24  43  70 108 142 191 241 299 375 447
#     4  12  26  49  71 103 149 201 249 316 385 443
#     4   9  20  42  73 100 145 187 232 301 364 443
#     4  12  28  47  76 108 146 202 259 318 390 463
#     4  12  26  46  71 103 152 183 253 317 372 451
#
# _framework density 22.605070000000001
#
# number of rings (size 3 to 8) (size 9 to 14) (size 15 to 20)
#    0.000    0.857    4.286    2.143    4.000    1.714 
#    0.000    6.429    0.000    0.000    0.000    0.000 
#    0.000    0.000    0.000    0.000    0.000    0.000 
#
# Total GULP energy -78092.728077 kJ/mol
# GULP energy per Si atom -5578.052006 kJ/mol
# Density = 2.255362 g / cm^3
# Si number density = 22.605070 Si / 1000 Ang^3
#
#
#
# Elastic Constant Matrix: (Units=GPa)
#
#
# Indices 1 2 3 4 5 6 
#
# 1 120.3993 46.6042 20.9572 -6.2814 7.6186 -21.0782
# 2 46.6042 146.6655 68.9171 -27.3118 -18.9222 -5.5391
# 3 20.9572 68.9171 123.9208 -22.3028 -5.0222 -5.8837
# 4 -6.2814 -27.3118 -22.3028 43.9849 -3.5911 -1.6609
# 5 7.6186 -18.9222 -5.0222 -3.5911 21.4520 -6.5879
# 6 -21.0782 -5.5391 -5.8837 -1.6609 -6.5879 44.8084
#
#
#
# Elastic Compliance Matrix: (Units=1/GPa)
#
#
# Indices 1 2 3 4 5 6 
#
# 1 0.011103 -0.004828 0.000376 -0.001685 -0.007309 0.003538
# 2 -0.004828 0.013811 -0.005068 0.006512 0.014136 0.001090
# 3 0.000376 -0.005068 0.011280 0.002560 -0.001245 0.000943
# 4 -0.001685 0.006512 0.002560 0.029007 0.012813 0.003308
# 5 -0.007309 0.014136 -0.001245 0.012813 0.066094 0.008338
# 6 0.003538 0.001090 0.000943 0.003308 0.008338 0.025589
#
#
# Mechanical properties :
#
#
# Convention : Reuss Voigt Hill
#
# Bulk Modulus (GPa) = 58.29426 73.77142 66.03284
# Shear Modulus (GPa) = 27.52664 39.01619 33.27142
#
# Velocity S-wave (km/s) = 3.49337 4.15901 3.84064
# Velocity P-wave (km/s) = 6.48966 7.46786 6.99588
#
# Compressibility (1/GPa) = 0.01715435
#
# Stress axis : x y z
#
# Youngs Moduli (GPa) = 90.06503 72.40521 88.65503
#
# Poissons Ratio (x) = 0.34955 -0.03331
# Poissons Ratio (y) = 0.43481 0.44929
# Poissons Ratio (z) = -0.03384 0.36694
#
# Static dielectric constant tensor:
#      x y z
#    x 1.942170 0.005330 -0.004800 
#    y 0.005330 1.858540 0.008030 
#    z -0.004800 0.008030 1.904570 
# 
# From -- ./inp_files/123022.got.cif
#   From: 2010.05.17/outbox.cif.g08.bks.cpg/sg2_62_cif.got.tgz:123022.got - 2010.06.03 11:33:40.
