data_PCOD9019089
_publ_section_title
;
Structure prediction by ZEFSAII (Michael W. Deem and Ramdas Pophale) SiO2 
 PCOD9019089
Probable space group: P -1
;
_chemical_formula_sum "Si O2"
_cell_formula_units_Z 16
_cell_length_a 13.412805
_cell_length_b 8.776174
_cell_length_c 7.816150
_cell_angle_alpha 124.659773
_cell_angle_beta 84.845213
_cell_angle_gamma 115.109781
_cell_volume 670.949324
_symmetry_space_group_name_H-M "P -1"
_symmetry_group_IT_number 2
_symmetry_cell_setting 'triclinic'
loop_
_space_group_symop_operation_xyz
x,y,z
-x,-y,-z
loop_
_atom_site_type_symbol
_atom_site_label
_atom_site_fract_x
_atom_site_fract_y
_atom_site_fract_z
Si Si1 0.859214 0.707987 0.120806
Si Si2 0.397013 0.553411 0.097867
Si Si3 0.619645 0.660542 0.717115
Si Si4 0.835050 0.746064 0.540633
Si Si5 0.059233 0.801442 0.620209
Si Si6 0.575276 0.242592 0.133280
Si Si7 0.232234 0.844596 0.907237
Si Si8 0.915738 0.238356 0.807578
O O1 0.838216 0.676110 0.304917
O O2 0.961236 0.646490 0.044780
O O3 0.899621 0.950036 0.229088
O O4 0.737515 0.591853 0.983312
O O5 0.407086 0.543028 0.293286
O O6 0.500000 0.500000 0.000000
O O7 0.411234 0.710238 0.042481
O O8 0.708938 0.673124 0.571715
O O9 0.499642 0.658479 0.709438
O O10 0.694047 0.899559 0.942960
O O11 0.924611 0.702807 0.608530
O O12 0.889149 0.995659 0.675158
O O13 0.131560 0.773097 0.741347
O O14 0.081303 0.737472 0.384437
O O15 0.689483 0.264859 0.213885
O O16 0.500000 0.000000 0.000000
O O17 0.181251 0.768549 0.056857
#
# Coordination Sequence:
#
# PCOD9019089 Si02
#       8
#     2   2   2   2   2   2   2   2
#     4   9  16  30  49  76 110 127 162 220 256 285
#     4  10  19  32  52  74  96 132 175 216 248 298
#     4   9  17  31  54  76  97 131 176 210 246 300
#     4   8  16  28  50  80 106 128 162 215 253 296
#     4   9  16  28  51  84 106 131 170 206 253 304
#     4   9  20  35  50  70 101 135 174 210 252 304
#     4  10  17  30  55  74 105 142 166 204 254 304
#     4   8  17  28  48  82 109 133 167 208 249 306
#
# _framework density 23.846807999999999
#
# number of rings (size 3 to 8) (size 9 to 14) (size 15 to 20)
#    0.000    3.000    1.250    1.500    1.750    1.500 
#    0.000    3.125    8.250    5.250    0.000    0.000 
#    0.000    0.000    0.000    0.000    0.000    0.000 
#
# Total GULP energy -89070.233537 kJ/mol
# GULP energy per Si atom -5566.889596 kJ/mol
# Density = 2.379253 g / cm^3
# Si number density = 23.846808 Si / 1000 Ang^3
#
#
#
# Elastic Constant Matrix: (Units=GPa)
#
#
# Indices 1 2 3 4 5 6 
#
# 1 207.8882 11.7928 45.8133 -16.6851 13.4719 -0.0363
# 2 11.7928 73.7286 -11.2913 -5.0980 1.2350 6.4013
# 3 45.8133 -11.2913 34.9406 -0.8083 0.0977 -1.4519
# 4 -16.6851 -5.0980 -0.8083 28.4070 -1.3423 -4.7861
# 5 13.4719 1.2350 0.0977 -1.3423 42.0018 -3.6784
# 6 -0.0363 6.4013 -1.4519 -4.7861 -3.6784 35.3567
#
#
#
# Elastic Compliance Matrix: (Units=1/GPa)
#
#
# Indices 1 2 3 4 5 6 
#
# 1 0.007844 -0.002675 -0.011043 0.003759 -0.002264 0.000312
# 2 -0.002675 0.015559 0.008464 0.001084 0.000214 -0.002303
# 3 -0.011043 0.008464 0.045753 -0.003488 0.003091 0.000184
# 4 0.003759 0.001084 -0.003488 0.038351 0.000425 0.004900
# 5 -0.002264 0.000214 0.003091 0.000425 0.024773 0.002721
# 6 0.000312 -0.002303 0.000184 0.004900 0.002721 0.029654
#
#
# Mechanical properties :
#
#
# Convention : Reuss Voigt Hill
#
# Bulk Modulus (GPa) = 17.05093 45.46524 31.25808
# Shear Modulus (GPa) = 26.04267 39.16928 32.60597
#
# Velocity S-wave (km/s) = 3.30825 4.05722 3.70173
# Velocity P-wave (km/s) = 4.66459 6.40742 5.60417
#
# Compressibility (1/GPa) = 0.05864783
#
# Stress axis : x y z
#
# Youngs Moduli (GPa) = 127.48356 64.27248 21.85635
#
# Poissons Ratio (x) = 0.17194 0.24137
# Poissons Ratio (y) = 0.34104 -0.18500
# Poissons Ratio (z) = 1.40784 -0.54402
#
# Static dielectric constant tensor:
#      x y z
#    x 2.008690 0.042920 0.074240 
#    y 0.042920 1.996270 0.111940 
#    z 0.074240 0.111940 2.209220 
# 
# From -- ./inp_files/171355.got.cif
#   From: 2010.05.17/outbox.cif.g08.bks.cpg/sg2_86_cif.got.tgz:171355.got - 2010.06.03 11:33:40.
