data_PCOD9019370
_publ_section_title
;
Structure prediction by ZEFSAII (Michael W. Deem and Ramdas Pophale) SiO2 
 PCOD9019370
Probable space group: P -1
;
_chemical_formula_sum "Si O2"
_cell_formula_units_Z 15
_cell_length_a 7.440752
_cell_length_b 6.455448
_cell_length_c 16.601349
_cell_angle_alpha 105.627047
_cell_angle_beta 53.781536
_cell_angle_gamma 97.373962
_cell_volume 619.065590
_symmetry_space_group_name_H-M "P -1"
_symmetry_group_IT_number 2
_symmetry_cell_setting 'triclinic'
loop_
_space_group_symop_operation_xyz
x,y,z
-x,-y,-z
loop_
_atom_site_type_symbol
_atom_site_label
_atom_site_fract_x
_atom_site_fract_y
_atom_site_fract_z
Si Si1 0.998540 0.874815 0.817030
Si Si2 0.197243 0.433509 0.748767
Si Si3 0.657811 0.333113 0.705122
Si Si4 0.000000 0.500000 0.500000
Si Si5 0.427828 0.389466 0.089964
Si Si6 0.082575 0.697147 0.050077
Si Si7 0.784586 0.991852 0.380661
Si Si8 0.308891 0.091275 0.435415
O O1 0.757274 0.785480 0.886946
O O2 0.175824 0.680426 0.760127
O O3 0.038476 0.068119 0.888593
O O4 0.024655 0.942536 0.724072
O O5 0.411128 0.385067 0.741384
O O6 0.221949 0.267037 0.651595
O O7 0.976251 0.380773 0.852147
O O8 0.655723 0.433248 0.804487
O O9 0.837919 0.447203 0.614218
O O10 0.686128 0.075987 0.657602
O O11 0.195015 0.318231 0.465707
O O12 0.500000 0.500000 0.000000
O O13 0.664518 0.277403 0.040465
O O14 0.000000 0.500000 0.000000
O O15 0.812782 0.038771 0.472061
O O16 0.555330 0.092370 0.412590
#
# Coordination Sequence:
#
# PCOD9019370 Si02
#       8
#     2   2   2   1   2   2   2   2
#     4  11  24  42  75 109 142 197 249 306 381 443
#     4  10  21  44  71 105 140 193 253 305 365 455
#     4  11  26  45  69 103 151 191 245 311 378 446
#     4  12  26  44  68 110 146 186 254 306 390 432
#     4  12  26  48  69 107 151 195 248 314 375 444
#     4  11  23  47  68 101 145 190 248 306 370 444
#     4   9  22  43  76 104 150 193 253 307 376 446
#     4  10  23  47  71 107 144 201 247 314 366 455
#
# _framework density 24.230065
#
# number of rings (size 3 to 8) (size 9 to 14) (size 15 to 20)
#    0.000    1.333    2.667    1.600    3.733    0.533 
#    4.800    4.000    0.000    0.000    0.000    0.000 
#    0.000    0.000    0.000    0.000    0.000    0.000 
#
# Total GULP energy -83570.738726 kJ/mol
# GULP energy per Si atom -5571.382582 kJ/mol
# Density = 2.417492 g / cm^3
# Si number density = 24.230065 Si / 1000 Ang^3
#
#
#
# Elastic Constant Matrix: (Units=GPa)
#
#
# Indices 1 2 3 4 5 6 
#
# 1 68.6338 43.5259 42.0189 15.7054 -13.4731 -6.8257
# 2 43.5259 109.4625 59.6550 24.2877 -3.5829 -20.8037
# 3 42.0189 59.6550 164.3708 6.3137 2.2096 -1.7960
# 4 15.7054 24.2877 6.3137 52.7768 8.4638 -8.6888
# 5 -13.4731 -3.5829 2.2096 8.4638 44.0195 4.3544
# 6 -6.8257 -20.8037 -1.7960 -8.6888 4.3544 35.2746
#
#
#
# Elastic Compliance Matrix: (Units=1/GPa)
#
#
# Indices 1 2 3 4 5 6 
#
# 1 0.023311 -0.006168 -0.003645 -0.005201 0.007972 -0.001577
# 2 -0.006168 0.015939 -0.003980 -0.003794 -0.000365 0.007115
# 3 -0.003645 -0.003980 0.008393 0.001927 -0.002044 -0.001898
# 4 -0.005201 -0.003794 0.001927 0.023702 -0.006905 0.003545
# 5 0.007972 -0.000365 -0.002044 -0.006905 0.026934 -0.003802
# 6 -0.001577 0.007115 -0.001898 0.003545 -0.003802 0.033486
#
#
# Mechanical properties :
#
#
# Convention : Reuss Voigt Hill
#
# Bulk Modulus (GPa) = 49.85649 70.31854 60.08752
# Shear Modulus (GPa) = 30.11407 39.56531 34.83969
#
# Velocity S-wave (km/s) = 3.52922 4.04530 3.79604
# Velocity P-wave (km/s) = 6.10149 7.13467 6.63821
#
# Compressibility (1/GPa) = 0.02005757
#
# Stress axis : x y z
#
# Youngs Moduli (GPa) = 42.89754 62.74004 119.15068
#
# Poissons Ratio (x) = 0.38695 0.43436
# Poissons Ratio (y) = 0.26457 0.47418
# Poissons Ratio (z) = 0.15638 0.24968
#
# Static dielectric constant tensor:
#      x y z
#    x 2.021850 -0.010520 -0.024700 
#    y -0.010520 2.044400 0.039550 
#    z -0.024700 0.039550 1.954760 
# 
# From -- ./inp_files/552883.got.cif
#   From: 2010.05.17/outbox.cif.g08.bks.cpg/sg2_277_cif.got.tgz:552883.got - 2010.06.03 11:33:40.
