data_PCOD9019928
_publ_section_title
;
Structure prediction by ZEFSAII (Michael W. Deem and Ramdas Pophale) SiO2 
 PCOD9019928
Probable space group: P -1
;
_chemical_formula_sum "Si O2"
_cell_formula_units_Z 16
_cell_length_a 13.533119
_cell_length_b 12.674244
_cell_length_c 8.900709
_cell_angle_alpha 138.452340
_cell_angle_beta 129.858554
_cell_angle_gamma 52.421949
_cell_volume 751.420474
_symmetry_space_group_name_H-M "P -1"
_symmetry_group_IT_number 2
_symmetry_cell_setting 'triclinic'
loop_
_space_group_symop_operation_xyz
x,y,z
-x,-y,-z
loop_
_atom_site_type_symbol
_atom_site_label
_atom_site_fract_x
_atom_site_fract_y
_atom_site_fract_z
Si Si1 0.635115 0.361556 0.007600
Si Si2 0.546546 0.062782 0.460523
Si Si3 0.087728 0.748278 0.965364
Si Si4 0.756759 0.769234 0.183148
Si Si5 0.964021 0.870325 0.687959
Si Si6 0.756208 0.236606 0.300143
Si Si7 0.365325 0.054274 0.023296
Si Si8 0.116407 0.576037 0.122395
O O1 0.657646 0.333213 0.178449
O O2 0.500000 0.500000 0.000000
O O3 0.612240 0.206675 0.725716
O O4 0.777774 0.376378 0.099294
O O5 0.500000 0.000000 0.500000
O O6 0.644193 0.903497 0.306301
O O7 0.416082 0.125641 0.297238
O O8 0.063631 0.693414 0.051943
O O9 0.104207 0.935583 0.175159
O O10 0.972393 0.774296 0.752731
O O11 0.892156 0.787654 0.407400
O O12 0.740093 0.822144 0.049897
O O13 0.767509 0.576986 0.991321
O O14 0.114200 0.854893 0.765923
O O15 0.812682 0.336439 0.589536
O O16 0.688680 0.103454 0.163599
O O17 0.500000 0.000000 0.000000
O O18 0.000000 0.500000 0.000000
#
# Coordination Sequence:
#
# PCOD9019928 Si02
#       8
#     2   2   2   2   2   2   2   2
#     4  11  25  44  69 101 133 180 230 290 346 398
#     4  11  23  45  68  98 133 180 239 281 341 413
#     4  10  24  43  70 100 135 177 232 292 343 413
#     4  11  24  44  65 101 138 180 230 282 348 413
#     4  10  21  45  72  98 130 183 236 284 348 410
#     4  11  24  45  68 100 139 182 233 283 348 414
#     4  10  24  42  69  98 135 184 234 279 334 418
#     4  12  27  44  63 106 146 182 221 281 355 416
#
# _framework density 21.293004
#
# number of rings (size 3 to 8) (size 9 to 14) (size 15 to 20)
#    0.000    1.250    3.750    0.750    7.000    1.500 
#    0.000    3.125    0.000    0.000    0.000    0.000 
#    0.000    0.000    0.000    0.000    0.000    0.000 
#
# Total GULP energy -89224.791927 kJ/mol
# GULP energy per Si atom -5576.549495 kJ/mol
# Density = 2.124454 g / cm^3
# Si number density = 21.293004 Si / 1000 Ang^3
#
#
#
# Elastic Constant Matrix: (Units=GPa)
#
#
# Indices 1 2 3 4 5 6 
#
# 1 67.5425 55.1427 34.6037 -5.7766 -5.2336 7.6618
# 2 55.1427 172.9215 62.7165 -33.5574 -11.3500 12.6562
# 3 34.6037 62.7165 89.9746 -36.6727 8.2923 8.7984
# 4 -5.7766 -33.5574 -36.6727 43.1206 -4.5564 -17.0564
# 5 -5.2336 -11.3500 8.2923 -4.5564 24.7504 1.4705
# 6 7.6618 12.6562 8.7984 -17.0564 1.4705 38.8241
#
#
#
# Elastic Compliance Matrix: (Units=1/GPa)
#
#
# Indices 1 2 3 4 5 6 
#
# 1 0.024642 -0.005788 -0.009970 -0.011611 0.004114 -0.005973
# 2 -0.005788 0.010135 -0.003316 0.005116 0.005439 0.000631
# 3 -0.009970 -0.003316 0.025230 0.018970 -0.008947 0.006004
# 4 -0.011611 0.005116 0.018970 0.048935 0.001488 0.017766
# 5 0.004114 0.005439 -0.008947 0.001488 0.047139 -0.001689
# 6 -0.005973 0.000631 0.006004 0.017766 -0.001689 0.033239
#
#
# Mechanical properties :
#
#
# Convention : Reuss Voigt Hill
#
# Bulk Modulus (GPa) = 45.74968 70.59604 58.17286
# Shear Modulus (GPa) = 21.29870 33.20407 27.25139
#
# Velocity S-wave (km/s) = 3.16613 3.95319 3.58135
# Velocity P-wave (km/s) = 5.90748 7.35279 6.66940
#
# Compressibility (1/GPa) = 0.02185808
#
# Stress axis : x y z
#
# Youngs Moduli (GPa) = 40.58063 98.66649 39.63543
#
# Poissons Ratio (x) = 0.57108 0.39517
# Poissons Ratio (y) = 0.23488 0.13145
# Poissons Ratio (z) = 0.40460 0.32723
#
# Static dielectric constant tensor:
#      x y z
#    x 1.821370 -0.030670 0.004780 
#    y -0.030670 1.810810 -0.031420 
#    z 0.004780 -0.031420 1.841060 
# 
# From -- ./inp_files/308897.got.cif
#   From: 2010.05.17/outbox.cif.g08.bks.cpg/sg2_155_cif.got.tgz:308897.got - 2010.06.03 11:33:40.
