data_PCOD9019235
_publ_section_title
;
Structure prediction by ZEFSAII (Michael W. Deem and Ramdas Pophale) SiO2 
 PCOD9019235
Probable space group: P -1
;
_chemical_formula_sum "Si O2"
_cell_formula_units_Z 16
_cell_length_a 12.644946
_cell_length_b 10.839028
_cell_length_c 12.339768
_cell_angle_alpha 34.754570
_cell_angle_beta 104.070765
_cell_angle_gamma 125.537544
_cell_volume 676.994911
_symmetry_space_group_name_H-M "P -1"
_symmetry_group_IT_number 2
_symmetry_cell_setting 'triclinic'
loop_
_space_group_symop_operation_xyz
x,y,z
-x,-y,-z
loop_
_atom_site_type_symbol
_atom_site_label
_atom_site_fract_x
_atom_site_fract_y
_atom_site_fract_z
Si Si1 0.612980 0.848606 0.293905
Si Si2 0.595128 0.765716 0.604068
Si Si3 0.897281 0.338331 0.332355
Si Si4 0.098905 0.967665 0.864746
Si Si5 0.977341 0.762816 0.741191
Si Si6 0.634853 0.321282 0.002175
Si Si7 0.965582 0.214874 0.650697
Si Si8 0.633102 0.540973 0.062261
O O1 0.500000 0.500000 0.500000
O O2 0.634244 0.864790 0.418141
O O3 0.749290 0.963740 0.163954
O O4 0.544759 0.998658 0.159650
O O5 0.609612 0.524722 0.799579
O O6 0.433379 0.603876 0.731540
O O7 0.719295 0.061177 0.494406
O O8 0.968044 0.267723 0.485093
O O9 0.940586 0.321208 0.235530
O O10 0.978648 0.678115 0.118910
O O11 0.034942 0.886132 0.785598
O O12 0.089684 0.207189 0.721699
O O13 0.802320 0.476251 0.905095
O O14 0.000000 0.000000 0.500000
O O15 0.638776 0.356655 0.108316
O O16 0.000000 0.500000 0.500000
O O17 0.795263 0.883733 0.865734
O O18 0.500000 0.500000 0.000000
#
# Coordination Sequence:
#
# PCOD9019235 Si02
#       8
#     2   2   2   2   2   2   2   2
#     4  12  28  43  62 103 138 174 222 282 345 395
#     4  11  23  41  71  97 133 182 222 274 335 396
#     4  12  22  40  73 103 128 171 230 278 339 394
#     4  12  24  41  69  99 132 172 226 279 336 404
#     4  12  17  36  71 101 123 160 221 281 327 384
#     4  11  21  41  69  96 131 169 225 278 321 409
#     4  12  27  46  69 100 140 179 223 283 341 398
#     4  10  21  44  69  99 131 179 233 267 321 411
#
# _framework density 23.633855000000001
#
# number of rings (size 3 to 8) (size 9 to 14) (size 15 to 20)
#    0.000    0.500    8.750    1.125    0.000    4.500 
#    0.000    0.000    0.000    0.000    0.000    0.000 
#    0.000    0.000    0.000    0.000    0.000    0.000 
#
# Total GULP energy -89250.204231 kJ/mol
# GULP energy per Si atom -5578.137764 kJ/mol
# Density = 2.358006 g / cm^3
# Si number density = 23.633855 Si / 1000 Ang^3
#
#
#
# Elastic Constant Matrix: (Units=GPa)
#
#
# Indices 1 2 3 4 5 6 
#
# 1 93.4846 16.5524 59.7213 -14.0643 7.5503 -28.1787
# 2 16.5524 24.5368 10.6259 -9.3810 -3.0340 -17.6702
# 3 59.7213 10.6259 120.7368 -12.4164 12.7901 -19.6435
# 4 -14.0643 -9.3810 -12.4164 42.4180 -7.6992 6.9044
# 5 7.5503 -3.0340 12.7901 -7.6992 40.5176 0.6284
# 6 -28.1787 -17.6702 -19.6435 6.9044 0.6284 26.8124
#
#
#
# Elastic Compliance Matrix: (Units=1/GPa)
#
#
# Indices 1 2 3 4 5 6 
#
# 1 0.020521 0.002495 -0.007182 0.002198 -0.001223 0.017412
# 2 0.002495 0.083992 0.000873 0.011905 0.006952 0.055387
# 3 -0.007182 0.000873 0.012409 0.000680 -0.002415 0.002000
# 4 0.002198 0.011905 0.000680 0.027567 0.005452 0.003427
# 5 -0.001223 0.006952 -0.002415 0.005452 0.027236 -0.000515
# 6 0.017412 0.055387 0.002000 0.003427 -0.000515 0.092693
#
#
# Mechanical properties :
#
#
# Convention : Reuss Voigt Hill
#
# Bulk Modulus (GPa) = 9.14954 45.83971 27.49463
# Shear Modulus (GPa) = 16.20869 32.07350 24.14109
#
# Velocity S-wave (km/s) = 2.62167 3.68788 3.19950
# Velocity P-wave (km/s) = 3.61164 6.12959 5.03070
#
# Compressibility (1/GPa) = 0.10929510
#
# Stress axis : x y z
#
# Youngs Moduli (GPa) = 48.73086 11.90589 80.58485
#
# Poissons Ratio (x) = -0.02971 0.57873
# Poissons Ratio (y) = -0.12160 -0.07033
# Poissons Ratio (z) = 0.34997 -0.01039
#
# Static dielectric constant tensor:
#      x y z
#    x 1.927360 -0.010140 0.059270 
#    y -0.010140 1.947030 -0.083330 
#    z 0.059270 -0.083330 2.044720 
# 
# From -- ./inp_files/530881.got.cif
#   From: 2010.05.17/outbox.cif.g08.bks.cpg/sg2_266_cif.got.tgz:530881.got - 2010.06.03 11:33:40.
