data_PCOD9019172
_publ_section_title
;
Structure prediction by ZEFSAII (Michael W. Deem and Ramdas Pophale) SiO2 
 PCOD9019172
Probable space group: P -1
;
_chemical_formula_sum "Si O2"
_cell_formula_units_Z 14
_cell_length_a 12.680928
_cell_length_b 11.445166
_cell_length_c 5.309686
_cell_angle_alpha 130.083953
_cell_angle_beta 80.823037
_cell_angle_gamma 83.610802
_cell_volume 558.213120
_symmetry_space_group_name_H-M "P -1"
_symmetry_group_IT_number 2
_symmetry_cell_setting 'triclinic'
loop_
_space_group_symop_operation_xyz
x,y,z
-x,-y,-z
loop_
_atom_site_type_symbol
_atom_site_label
_atom_site_fract_x
_atom_site_fract_y
_atom_site_fract_z
Si Si1 0.195995 0.384198 0.609707
Si Si2 0.578430 0.847484 0.617319
Si Si3 0.567760 0.356987 0.455499
Si Si4 0.218169 0.562894 0.352281
Si Si5 0.865312 0.113890 0.339686
Si Si6 0.076436 0.144979 0.440093
Si Si7 0.698727 0.055225 0.648547
O O1 0.310794 0.240071 0.388060
O O2 0.189321 0.457503 0.437946
O O3 0.094284 0.315430 0.624278
O O4 0.204680 0.502917 0.994736
O O5 0.510483 0.717470 0.440814
O O6 0.626800 0.929005 0.480050
O O7 0.500000 0.000000 0.000000
O O8 0.500000 0.500000 0.500000
O O9 0.656284 0.430586 0.654455
O O10 0.635120 0.204200 0.050304
O O11 0.143467 0.743917 0.655102
O O12 0.739724 0.127312 0.488883
O O13 0.952295 0.142753 0.552847
O O14 0.906780 0.944327 0.958772
O O15 0.180645 0.045577 0.427256
#
# Coordination Sequence:
#
# PCOD9019172 Si02
#       7
#     2   2   2   2   2   2   2
#     4  11  26  47  70 105 147 188 234 298 357 427
#     4   9  21  42  69 100 138 183 235 291 351 414
#     4  11  21  43  70 102 142 186 236 287 358 421
#     4  12  26  46  71 103 148 186 238 294 356 426
#     4  11  24  44  75 102 137 187 240 293 359 423
#     4  10  24  45  72 103 139 185 236 297 357 427
#     4  10  21  44  69 102 137 182 235 297 349 427
#
# _framework density 25.080031000000002
#
# number of rings (size 3 to 8) (size 9 to 14) (size 15 to 20)
#    0.000    1.429    2.857    1.286    4.000    1.714 
#    0.000    1.429    0.000    0.000    0.000    0.000 
#    0.000    0.000    0.000    0.000    0.000    0.000 
#
# Total GULP energy -78283.733262 kJ/mol
# GULP energy per Si atom -5591.695233 kJ/mol
# Density = 2.502295 g / cm^3
# Si number density = 25.080031 Si / 1000 Ang^3
#
#
#
# Elastic Constant Matrix: (Units=GPa)
#
#
# Indices 1 2 3 4 5 6 
#
# 1 98.0008 29.1139 5.2299 10.6772 6.5477 18.8618
# 2 29.1139 106.0260 10.1812 21.6126 -17.9576 7.6149
# 3 5.2299 10.1812 71.4330 9.4264 -11.0296 1.2176
# 4 10.6772 21.6126 9.4264 27.7495 5.4069 1.7404
# 5 6.5477 -17.9576 -11.0296 5.4069 26.9509 4.6722
# 6 18.8618 7.6149 1.2176 1.7404 4.6722 52.1524
#
#
#
# Elastic Compliance Matrix: (Units=1/GPa)
#
#
# Indices 1 2 3 4 5 6 
#
# 1 0.012489 -0.004031 -0.001152 0.000031 -0.005608 -0.003400
# 2 -0.004031 0.016215 0.002479 -0.014943 0.016128 -0.001914
# 3 -0.001152 0.002479 0.016614 -0.009162 0.010740 -0.000990
# 4 0.000031 -0.014943 -0.009162 0.055537 -0.025341 0.002801
# 5 -0.005608 0.016128 0.010740 -0.025341 0.059571 -0.005069
# 6 -0.003400 -0.001914 -0.000990 0.002801 -0.005069 0.021067
#
#
# Mechanical properties :
#
#
# Convention : Reuss Voigt Hill
#
# Bulk Modulus (GPa) = 25.05601 40.50109 32.77855
# Shear Modulus (GPa) = 24.97430 36.76621 30.87025
#
# Velocity S-wave (km/s) = 3.15903 3.83293 3.51218
# Velocity P-wave (km/s) = 4.82888 5.98100 5.43555
#
# Compressibility (1/GPa) = 0.03991059
#
# Stress axis : x y z
#
# Youngs Moduli (GPa) = 80.07343 61.66953 60.18853
#
# Poissons Ratio (x) = 0.24857 0.06933
# Poissons Ratio (y) = 0.32275 -0.14919
# Poissons Ratio (z) = 0.09224 -0.15286
#
# Static dielectric constant tensor:
#      x y z
#    x 2.053560 -0.028900 -0.036910 
#    y -0.028900 2.045650 -0.007250 
#    z -0.036910 -0.007250 1.991140 
# 
# From -- ./inp_files/72533.got.cif
#   From: 2010.05.17/outbox.cif.g08.bks.cpg/sg2_37_cif.got.tgz:72533.got - 2010.06.03 11:33:40.
