data_PCOD9019569
_publ_section_title
;
Structure prediction by ZEFSAII (Michael W. Deem and Ramdas Pophale) SiO2 
 PCOD9019569
Probable space group: P -1
;
_chemical_formula_sum "Si O2"
_cell_formula_units_Z 12
_cell_length_a 5.520790
_cell_length_b 11.465758
_cell_length_c 12.674612
_cell_angle_alpha 37.332335
_cell_angle_beta 90.473602
_cell_angle_gamma 72.729100
_cell_volume 421.229648
_symmetry_space_group_name_H-M "P -1"
_symmetry_group_IT_number 2
_symmetry_cell_setting 'triclinic'
loop_
_space_group_symop_operation_xyz
x,y,z
-x,-y,-z
loop_
_atom_site_type_symbol
_atom_site_label
_atom_site_fract_x
_atom_site_fract_y
_atom_site_fract_z
Si Si1 0.001824 0.745994 0.004132
Si Si2 0.646547 0.339016 0.213594
Si Si3 0.553345 0.865473 0.203553
Si Si4 0.199255 0.241542 0.338733
Si Si5 0.526085 0.472493 0.691228
Si Si6 0.033157 0.142416 0.635935
O O1 0.678678 0.930171 0.874678
O O2 0.123366 0.890450 0.845977
O O3 0.062603 0.512551 0.125904
O O4 0.145110 0.663731 0.180453
O O5 0.981018 0.201052 0.301191
O O6 0.582603 0.484308 0.217048
O O7 0.512330 0.181071 0.349571
O O8 0.500000 0.500000 0.000000
O O9 0.517363 0.668432 0.296899
O O10 0.845473 0.779005 0.325021
O O11 0.500000 0.000000 0.000000
O O12 0.157426 0.193940 0.494334
O O13 0.305080 0.720729 0.473475
#
# Coordination Sequence:
#
# PCOD9019569 Si02
#       6
#     2   2   2   2   2   2
#     4  11  25  43  67  99 146 180 231 281 347 417
#     4  10  21  44  74  99 133 183 235 295 353 406
#     4  12  23  40  65 103 141 185 230 277 346 421
#     4  10  24  44  72 106 138 181 239 283 354 422
#     4  10  23  43  62 102 133 179 234 276 340 413
#     4  11  25  43  69  98 146 187 225 283 344 421
#
# _framework density 28.488026000000001
#
# number of rings (size 3 to 8) (size 9 to 14) (size 15 to 20)
#    0.000    1.333    1.667    3.500    9.333    0.667 
#    0.000    0.000    0.000   33.000    0.000    0.000 
#    0.000    0.000    0.000    0.000    0.000    0.000 
#
# Total GULP energy -67014.441558 kJ/mol
# GULP energy per Si atom -5584.536796 kJ/mol
# Density = 2.842319 g / cm^3
# Si number density = 28.488026 Si / 1000 Ang^3
#
#
#
# Elastic Constant Matrix: (Units=GPa)
#
#
# Indices 1 2 3 4 5 6 
#
# 1 158.7671 3.9958 49.2080 14.7853 14.5879 26.8931
# 2 3.9958 99.7155 15.0192 18.6035 0.8983 12.2455
# 3 49.2080 15.0192 146.6689 22.4854 2.5964 9.9797
# 4 14.7853 18.6035 22.4854 46.6825 3.0521 12.8242
# 5 14.5879 0.8983 2.5964 3.0521 70.8276 1.0584
# 6 26.8931 12.2455 9.9797 12.8242 1.0584 51.5381
#
#
#
# Elastic Compliance Matrix: (Units=1/GPa)
#
#
# Indices 1 2 3 4 5 6 
#
# 1 0.007795 0.000586 -0.002328 -0.000496 -0.001452 -0.003603
# 2 0.000586 0.011031 -0.000621 -0.003766 -0.000048 -0.001869
# 3 -0.002328 -0.000621 0.008093 -0.003087 0.000315 0.000557
# 4 -0.000496 -0.003766 -0.003087 0.025902 -0.000783 -0.004678
# 5 -0.001452 -0.000048 0.000315 -0.000783 0.014432 0.000607
# 6 -0.003603 -0.001869 0.000557 -0.004678 0.000607 0.022771
#
#
# Mechanical properties :
#
#
# Convention : Reuss Voigt Hill
#
# Bulk Modulus (GPa) = 45.05897 60.17751 52.61824
# Shear Modulus (GPa) = 48.94878 56.27154 52.61016
#
# Velocity S-wave (km/s) = 4.14964 4.44922 4.30204
# Velocity P-wave (km/s) = 6.22981 6.89665 6.57169
#
# Compressibility (1/GPa) = 0.02219314
#
# Stress axis : x y z
#
# Youngs Moduli (GPa) = 128.28048 90.65264 123.56970
#
# Poissons Ratio (x) = -0.05317 0.28773
# Poissons Ratio (y) = -0.07523 0.07674
# Poissons Ratio (z) = 0.29870 0.05630
#
# Static dielectric constant tensor:
#      x y z
#    x 2.421630 -0.115510 -0.048140 
#    y -0.115510 2.164130 0.056560 
#    z -0.048140 0.056560 2.096790 
# 
# From -- ./inp_files/478058.got.cif
#   From: 2010.05.17/outbox.cif.g08.bks.cpg/sg2_240_cif.got.tgz:478058.got - 2010.06.03 11:33:40.
