data_PCOD9019763
_publ_section_title
;
Structure prediction by ZEFSAII (Michael W. Deem and Ramdas Pophale) SiO2 
 PCOD9019763
Probable space group: P -1
;
_chemical_formula_sum "Si O2"
_cell_formula_units_Z 14
_cell_length_a 15.851130
_cell_length_b 11.868234
_cell_length_c 5.132927
_cell_angle_alpha 97.419928
_cell_angle_beta 95.305302
_cell_angle_gamma 145.376010
_cell_volume 509.098857
_symmetry_space_group_name_H-M "P -1"
_symmetry_group_IT_number 2
_symmetry_cell_setting 'triclinic'
loop_
_space_group_symop_operation_xyz
x,y,z
-x,-y,-z
loop_
_atom_site_type_symbol
_atom_site_label
_atom_site_fract_x
_atom_site_fract_y
_atom_site_fract_z
Si Si1 0.050658 0.737442 0.015619
Si Si2 0.168404 0.185741 0.834581
Si Si3 0.894457 0.701995 0.524445
Si Si4 0.296681 0.216005 0.367500
Si Si5 0.473899 0.715848 0.642342
Si Si6 0.453563 0.058040 0.755301
Si Si7 0.228797 0.705515 0.945438
O O1 0.986989 0.705721 0.704013
O O2 0.905809 0.540110 0.108726
O O3 0.150732 0.735442 0.014171
O O4 0.164315 0.964792 0.225302
O O5 0.137854 0.280654 0.771325
O O6 0.266855 0.236324 0.645964
O O7 0.261729 0.265344 0.144588
O O8 0.001701 0.929991 0.724299
O O9 0.713977 0.485602 0.500106
O O10 0.458151 0.333053 0.384918
O O11 0.552734 0.875976 0.482037
O O12 0.522523 0.826322 0.964288
O O13 0.610031 0.156652 0.831251
O O14 0.297829 0.807890 0.705976
#
# Coordination Sequence:
#
# PCOD9019763 Si02
#       7
#     2   2   2   2   2   2   2
#     4  10  21  45  68 105 133 185 219 284 323 412
#     4  10  25  45  72  99 135 175 226 278 338 399
#     4  10  24  44  71 100 137 176 225 277 340 401
#     4  11  24  45  70 102 135 176 224 280 334 400
#     4  12  25  44  71  98 138 179 223 278 340 393
#     4  11  25  45  65 104 135 184 219 284 322 408
#     4  10  22  43  70  98 142 176 231 267 343 388
#
# _framework density 27.499569999999999
#
# number of rings (size 3 to 8) (size 9 to 14) (size 15 to 20)
#    0.000    1.429    2.857    0.857    4.000    9.714 
#    0.000    1.429    0.000    0.000    0.000    0.000 
#    0.000    0.000    0.000    0.000    0.000    0.000 
#
# Total GULP energy -78512.599340 kJ/mol
# GULP energy per Si atom -5608.042810 kJ/mol
# Density = 2.743698 g / cm^3
# Si number density = 27.499570 Si / 1000 Ang^3
#
#
#
# Elastic Constant Matrix: (Units=GPa)
#
#
# Indices 1 2 3 4 5 6 
#
# 1 165.6031 30.5662 47.6669 -6.9596 10.7055 3.1889
# 2 30.5662 170.9527 56.4149 -2.3094 12.5759 2.6686
# 3 47.6669 56.4149 139.5481 -28.9012 3.3725 -1.5935
# 4 -6.9596 -2.3094 -28.9012 41.5368 -3.2439 9.9646
# 5 10.7055 12.5759 3.3725 -3.2439 50.7328 0.0034
# 6 3.1889 2.6686 -1.5935 9.9646 0.0034 51.0687
#
#
#
# Elastic Compliance Matrix: (Units=1/GPa)
#
#
# Indices 1 2 3 4 5 6 
#
# 1 0.006823 -0.000391 -0.002238 -0.000438 -0.001222 -0.000390
# 2 -0.000391 0.007022 -0.003064 -0.001915 -0.001577 -0.000064
# 3 -0.002238 -0.003064 0.010606 0.007091 0.000980 -0.000753
# 4 -0.000438 -0.001915 0.007091 0.030324 0.002035 -0.005568
# 5 -0.001222 -0.001577 0.000980 0.002035 0.020425 -0.000209
# 6 -0.000390 -0.000064 -0.000753 -0.005568 -0.000209 0.020672
#
#
# Mechanical properties :
#
#
# Convention : Reuss Voigt Hill
#
# Bulk Modulus (GPa) = 76.55027 82.82221 79.68624
# Shear Modulus (GPa) = 44.79760 51.43138 48.11449
#
# Velocity S-wave (km/s) = 4.04050 4.32934 4.18741
# Velocity P-wave (km/s) = 7.04733 7.42792 7.24013
#
# Compressibility (1/GPa) = 0.01306331
#
# Stress axis : x y z
#
# Youngs Moduli (GPa) = 146.56204 142.41171 94.29030
#
# Poissons Ratio (x) = 0.05573 0.21102
# Poissons Ratio (y) = 0.05736 0.28893
# Poissons Ratio (z) = 0.32800 0.43639
#
# Static dielectric constant tensor:
#      x y z
#    x 2.240250 0.001590 -0.128070 
#    y 0.001590 2.192910 0.013290 
#    z -0.128070 0.013290 2.164690 
# 
# From -- ./inp_files/110812.got.cif
#   From: 2010.05.17/outbox.cif.g08.bks.cpg/sg2_56_cif.got.tgz:110812.got - 2010.06.03 11:33:40.
