data_PCOD9019992
_publ_section_title
;
Structure prediction by ZEFSAII (Michael W. Deem and Ramdas Pophale) SiO2 
 PCOD9019992
Probable space group: P -1
;
_chemical_formula_sum "Si O2"
_cell_formula_units_Z 12
_cell_length_a 16.918652
_cell_length_b 4.991491
_cell_length_c 9.315402
_cell_angle_alpha 136.304881
_cell_angle_beta 124.360391
_cell_angle_gamma 62.117765
_cell_volume 446.168336
_symmetry_space_group_name_H-M "P -1"
_symmetry_group_IT_number 2
_symmetry_cell_setting 'triclinic'
loop_
_space_group_symop_operation_xyz
x,y,z
-x,-y,-z
loop_
_atom_site_type_symbol
_atom_site_label
_atom_site_fract_x
_atom_site_fract_y
_atom_site_fract_z
Si Si1 0.936317 0.668798 0.869222
Si Si2 0.277056 0.800605 0.364904
Si Si3 0.894159 0.609892 0.499704
Si Si4 0.561298 0.606202 0.469277
Si Si5 0.397433 0.550549 0.839785
Si Si6 0.243486 0.812208 0.007446
O O1 0.908931 0.428376 0.606462
O O2 0.837780 0.840516 0.907075
O O3 0.000000 0.500000 0.000000
O O4 0.000000 0.000000 0.000000
O O5 0.329947 0.452614 0.380057
O O6 0.281314 0.685460 0.156248
O O7 0.168498 0.977977 0.362456
O O8 0.341985 0.166214 0.597951
O O9 0.000000 0.500000 0.500000
O O10 0.824699 0.471514 0.252965
O O11 0.500000 0.500000 0.500000
O O12 0.576266 0.308145 0.236431
O O13 0.500000 0.000000 0.500000
O O14 0.500000 0.500000 0.000000
O O15 0.327466 0.804506 0.972590
#
# Coordination Sequence:
#
# PCOD9019992 Si02
#       6
#     2   2   2   2   2   2
#     4  11  24  46  74 108 151 196 246 314 375 444
#     4  10  24  47  72 110 154 195 254 314 381 448
#     4  10  21  45  76 110 149 201 252 307 378 455
#     4  12  25  49  78 105 150 200 250 319 384 450
#     4  11  25  46  75 107 143 197 251 308 381 451
#     4  10  23  48  72 111 148 200 250 313 374 457
#
# _framework density 26.895679000000001
#
# number of rings (size 3 to 8) (size 9 to 14) (size 15 to 20)
#    0.000    1.333    3.333    1.000    0.000    2.667 
#   24.000    0.000    0.000    0.000    0.000    0.000 
#    0.000    0.000    0.000    0.000    0.000    0.000 
#
# Total GULP energy -67008.744902 kJ/mol
# GULP energy per Si atom -5584.062075 kJ/mol
# Density = 2.683446 g / cm^3
# Si number density = 26.895679 Si / 1000 Ang^3
#
#
#
# Elastic Constant Matrix: (Units=GPa)
#
#
# Indices 1 2 3 4 5 6 
#
# 1 226.7990 96.6810 78.3127 -14.9264 -37.8359 -57.3338
# 2 96.6810 168.2288 66.6824 -46.6607 -19.8637 -12.0586
# 3 78.3127 66.6824 234.7898 -33.2409 -39.3006 -7.6491
# 4 -14.9264 -46.6607 -33.2409 63.1830 0.3523 -2.8779
# 5 -37.8359 -19.8637 -39.3006 0.3523 82.8070 -1.2089
# 6 -57.3338 -12.0586 -7.6491 -2.8779 -1.2089 55.8021
#
#
#
# Elastic Compliance Matrix: (Units=1/GPa)
#
#
# Indices 1 2 3 4 5 6 
#
# 1 0.009067 -0.004130 -0.001314 -0.001239 0.002654 0.008237
# 2 -0.004130 0.010166 -0.000677 0.006092 0.000178 -0.001821
# 3 -0.001314 -0.000677 0.005460 0.002024 0.001811 -0.000604
# 4 -0.001239 0.006092 0.002024 0.021155 0.001787 0.001451
# 5 0.002654 0.000178 0.001811 0.001787 0.014233 0.003414
# 6 0.008237 -0.001821 -0.000604 0.001451 0.003414 0.026056
#
#
# Mechanical properties :
#
#
# Convention : Reuss Voigt Hill
#
# Bulk Modulus (GPa) = 80.31237 123.68553 101.99895
# Shear Modulus (GPa) = 48.76721 66.23452 57.50087
#
# Velocity S-wave (km/s) = 4.26279 4.96789 4.62878
# Velocity P-wave (km/s) = 7.35894 8.88783 8.15927
#
# Compressibility (1/GPa) = 0.01245138
#
# Stress axis : x y z
#
# Youngs Moduli (GPa) = 110.29286 98.36642 183.15883
#
# Poissons Ratio (x) = 0.40621 0.24069
# Poissons Ratio (y) = 0.45546 0.12398
# Poissons Ratio (z) = 0.14494 0.06658
#
# Static dielectric constant tensor:
#      x y z
#    x 2.432370 -0.307750 0.135400 
#    y -0.307750 3.219260 0.166760 
#    z 0.135400 0.166760 2.291040 
# 
# From -- ./inp_files/324280.got.cif
#   From: 2010.05.17/outbox.cif.g08.bks.cpg/sg2_163_cif.got.tgz:324280.got - 2010.06.03 11:33:40.
