data_PCOD9019323
_publ_section_title
;
Structure prediction by ZEFSAII (Michael W. Deem and Ramdas Pophale) SiO2 
 PCOD9019323
Probable space group: P -1
;
_chemical_formula_sum "Si O2"
_cell_formula_units_Z 16
_cell_length_a 8.792034
_cell_length_b 14.259136
_cell_length_c 20.324952
_cell_angle_alpha 158.626807
_cell_angle_beta 122.632534
_cell_angle_gamma 68.550125
_cell_volume 700.464585
_symmetry_space_group_name_H-M "P -1"
_symmetry_group_IT_number 2
_symmetry_cell_setting 'triclinic'
loop_
_space_group_symop_operation_xyz
x,y,z
-x,-y,-z
loop_
_atom_site_type_symbol
_atom_site_label
_atom_site_fract_x
_atom_site_fract_y
_atom_site_fract_z
Si Si1 0.922047 0.358849 0.738361
Si Si2 0.492256 0.235766 0.601800
Si Si3 0.835355 0.197425 0.405113
Si Si4 0.128776 0.206322 0.571368
Si Si5 0.858346 0.130786 0.082895
Si Si6 0.799504 0.046607 0.771931
Si Si7 0.557547 0.824877 0.702096
Si Si8 0.875735 0.157453 0.252827
O O1 0.720547 0.404389 0.735538
O O2 0.028869 0.371612 0.700474
O O3 0.863861 0.041034 0.543131
O O4 0.100480 0.610368 0.983786
O O5 0.351674 0.358397 0.688514
O O6 0.358308 0.090720 0.412082
O O7 0.500000 0.000000 0.500000
O O8 0.636210 0.171819 0.376893
O O9 0.736314 0.110587 0.252596
O O10 0.953813 0.049388 0.373398
O O11 0.006252 0.527044 0.659242
O O12 0.800250 0.037485 0.084586
O O13 0.672851 0.026339 0.921996
O O14 0.000000 0.000000 0.000000
O O15 0.714306 0.929257 0.747384
O O16 0.977174 0.953371 0.751722
O O17 0.500000 0.500000 0.500000
O O18 0.000000 0.500000 0.500000
#
# Coordination Sequence:
#
# PCOD9019323 Si02
#       8
#     2   2   2   2   2   2   2   2
#     4  10  24  44  69 101 137 181 231 284 347 413
#     4  10  23  45  70 101 138 182 230 285 347 409
#     4  11  22  42  62  94 136 171 224 284 346 403
#     4  10  21  44  70  98 142 178 225 296 342 403
#     4  11  21  40  65  92 131 174 226 281 335 414
#     4  12  23  44  69  97 136 182 231 279 348 418
#     4  12  24  40  70 100 130 182 231 284 352 413
#     4  10  22  41  63  90 134 175 214 283 338 397
#
# _framework density 22.841982000000002
#
# number of rings (size 3 to 8) (size 9 to 14) (size 15 to 20)
#    0.000    1.250    3.750    2.250    0.000    3.500 
#    4.500   10.000    0.000    0.000    0.000    0.000 
#    0.000    0.000    0.000    0.000    0.000    0.000 
#
# Total GULP energy -89079.219723 kJ/mol
# GULP energy per Si atom -5567.451233 kJ/mol
# Density = 2.278999 g / cm^3
# Si number density = 22.841982 Si / 1000 Ang^3
#
#
#
# Elastic Constant Matrix: (Units=GPa)
#
#
# Indices 1 2 3 4 5 6 
#
# 1 128.6810 21.5723 32.8446 -13.7060 8.6032 -3.7599
# 2 21.5723 86.5415 28.7426 -29.0099 -6.2339 4.4034
# 3 32.8446 28.7426 64.3108 -18.7945 4.6415 8.6364
# 4 -13.7060 -29.0099 -18.7945 29.2771 -2.4992 -4.5399
# 5 8.6032 -6.2339 4.6415 -2.4992 23.4326 -11.2758
# 6 -3.7599 4.4034 8.6364 -4.5399 -11.2758 36.9495
#
#
#
# Elastic Compliance Matrix: (Units=1/GPa)
#
#
# Indices 1 2 3 4 5 6 
#
# 1 0.009242 -0.000848 -0.004141 0.000895 -0.001973 0.001517
# 2 -0.000848 0.019747 -0.004457 0.017788 0.010225 0.003908
# 3 -0.004141 -0.004457 0.022997 0.006848 -0.006586 -0.006434
# 4 0.000895 0.017788 0.006848 0.058876 0.012965 0.007561
# 5 -0.001973 0.010225 -0.006586 0.012965 0.058175 0.019466
# 6 0.001517 0.003908 -0.006434 0.007561 0.019466 0.035126
#
#
# Mechanical properties :
#
#
# Convention : Reuss Voigt Hill
#
# Bulk Modulus (GPa) = 30.21639 49.53913 39.87776
# Shear Modulus (GPa) = 21.35970 31.02344 26.19157
#
# Velocity S-wave (km/s) = 3.06127 3.68934 3.38988
# Velocity P-wave (km/s) = 5.07468 6.31531 5.72868
#
# Compressibility (1/GPa) = 0.03309462
#
# Stress axis : x y z
#
# Youngs Moduli (GPa) = 108.20479 50.64013 43.48391
#
# Poissons Ratio (x) = 0.04292 0.18006
# Poissons Ratio (y) = 0.09172 0.19382
# Poissons Ratio (z) = 0.44805 0.22572
#
# Static dielectric constant tensor:
#      x y z
#    x 1.734740 0.217450 -0.107520 
#    y 0.217450 1.754440 0.017850 
#    z -0.107520 0.017850 1.837120 
# 
# From -- ./inp_files/590563.got.cif
#   From: 2010.05.17/outbox.cif.g08.bks.cpg/sg2_296_cif.got.tgz:590563.got - 2010.06.03 11:33:40.
