data_PCOD9019926
_publ_section_title
;
Structure prediction by ZEFSAII (Michael W. Deem and Ramdas Pophale) SiO2 
 PCOD9019926
Probable space group: P -1
;
_chemical_formula_sum "Si O2"
_cell_formula_units_Z 14
_cell_length_a 12.768111
_cell_length_b 6.766207
_cell_length_c 10.766152
_cell_angle_alpha 136.142595
_cell_angle_beta 59.152484
_cell_angle_gamma 111.101483
_cell_volume 553.199509
_symmetry_space_group_name_H-M "P -1"
_symmetry_group_IT_number 2
_symmetry_cell_setting 'triclinic'
loop_
_space_group_symop_operation_xyz
x,y,z
-x,-y,-z
loop_
_atom_site_type_symbol
_atom_site_label
_atom_site_fract_x
_atom_site_fract_y
_atom_site_fract_z
Si Si1 0.424321 0.273413 0.275813
Si Si2 0.916810 0.170751 0.031189
Si Si3 0.250167 0.848653 0.298436
Si Si4 0.649293 0.291976 0.299436
Si Si5 0.576824 0.541122 0.094034
Si Si6 0.681149 0.876769 0.383393
Si Si7 0.062795 0.157030 0.708035
O O1 0.308018 0.077079 0.272036
O O2 0.526594 0.164202 0.262658
O O3 0.372988 0.581051 0.493242
O O4 0.504610 0.325250 0.130388
O O5 0.940658 0.513390 0.183730
O O6 0.826535 0.866109 0.268013
O O7 0.946448 0.091860 0.833264
O O8 0.000000 0.000000 0.000000
O O9 0.325717 0.876961 0.396382
O O10 0.116523 0.948959 0.472389
O O11 0.286226 0.560326 0.077107
O O12 0.661695 0.584648 0.342309
O O13 0.774543 0.128318 0.127762
O O14 0.500000 0.500000 0.000000
O O15 0.600329 0.825589 0.288459
#
# Coordination Sequence:
#
# PCOD9019926 Si02
#       7
#     2   2   2   2   2   2   2
#     4   9  16  33  53  73 111 145 179 217 276 338
#     4  10  17  30  57  87 107 142 192 234 278 329
#     4   9  18  36  54  77 106 149 180 223 280 328
#     4   8  15  30  55  81 103 142 185 223 270 333
#     4  11  21  30  50  83 112 145 183 224 279 333
#     4   7  16  35  50  71 109 142 180 217 277 329
#     4   8  18  36  53  79 114 143 187 231 277 338
#
# _framework density 25.307324999999999
#
# number of rings (size 3 to 8) (size 9 to 14) (size 15 to 20)
#    0.857    2.286    1.429    1.286    0.000    1.714 
#    2.571    0.000    0.000   13.714    0.000   11.000 
#    0.000    0.000    0.000    0.000    0.000    0.000 
#
# Total GULP energy -78045.787057 kJ/mol
# GULP energy per Si atom -5574.699075 kJ/mol
# Density = 2.524972 g / cm^3
# Si number density = 25.307325 Si / 1000 Ang^3
#
#
#
# Elastic Constant Matrix: (Units=GPa)
#
#
# Indices 1 2 3 4 5 6 
#
# 1 85.0616 12.7886 33.7288 -11.5678 -25.3082 -3.7841
# 2 12.7886 70.8396 42.6785 -15.1038 -5.8288 -8.3537
# 3 33.7288 42.6785 192.6236 -17.6406 -30.4981 5.5031
# 4 -11.5678 -15.1038 -17.6406 33.1729 10.0779 6.6675
# 5 -25.3082 -5.8288 -30.4981 10.0779 49.1138 -2.4063
# 6 -3.7841 -8.3537 5.5031 6.6675 -2.4063 21.6982
#
#
#
# Elastic Compliance Matrix: (Units=1/GPa)
#
#
# Indices 1 2 3 4 5 6 
#
# 1 0.014646 -0.000630 -0.001341 0.001564 0.006460 0.002887
# 2 -0.000630 0.018277 -0.003845 0.005219 -0.001313 0.006152
# 3 -0.001341 -0.003845 0.006934 0.001371 0.002701 -0.003595
# 4 0.001564 0.005219 0.001371 0.037678 -0.005959 -0.010304
# 5 0.006460 -0.001313 0.002701 -0.005959 0.026665 0.004724
# 6 0.002887 0.006152 -0.003595 -0.010304 0.004724 0.053561
#
#
# Mechanical properties :
#
#
# Convention : Reuss Voigt Hill
#
# Bulk Modulus (GPa) = 35.43094 58.54632 46.98863
# Shear Modulus (GPa) = 27.96400 38.08558 33.02479
#
# Velocity S-wave (km/s) = 3.32773 3.88354 3.61633
# Velocity P-wave (km/s) = 5.36616 6.57978 6.00372
#
# Compressibility (1/GPa) = 0.02822392
#
# Stress axis : x y z
#
# Youngs Moduli (GPa) = 68.27824 54.71406 144.21495
#
# Poissons Ratio (x) = 0.03449 0.19344
# Poissons Ratio (y) = 0.04304 0.55447
# Poissons Ratio (z) = 0.09158 0.21036
#
# Static dielectric constant tensor:
#      x y z
#    x 2.035670 -0.033730 0.003660 
#    y -0.033730 2.092260 0.042650 
#    z 0.003660 0.042650 2.056270 
# 
# From -- ./inp_files/473126.got.cif
#   From: 2010.05.17/outbox.cif.g08.bks.cpg/sg2_237_cif.got.tgz:473126.got - 2010.06.03 11:33:40.
