data_PCOD9019704
_publ_section_title
;
Structure prediction by ZEFSAII (Michael W. Deem and Ramdas Pophale) SiO2 
 PCOD9019704
Probable space group: P -1
;
_chemical_formula_sum "Si O2"
_cell_formula_units_Z 12
_cell_length_a 14.696398
_cell_length_b 7.769287
_cell_length_c 7.208471
_cell_angle_alpha 57.911224
_cell_angle_beta 39.390167
_cell_angle_gamma 70.095457
_cell_volume 438.742211
_symmetry_space_group_name_H-M "P -1"
_symmetry_group_IT_number 2
_symmetry_cell_setting 'triclinic'
loop_
_space_group_symop_operation_xyz
x,y,z
-x,-y,-z
loop_
_atom_site_type_symbol
_atom_site_label
_atom_site_fract_x
_atom_site_fract_y
_atom_site_fract_z
Si Si1 0.450043 0.799629 0.325192
Si Si2 0.187439 0.931879 0.539455
Si Si3 0.346118 0.365237 0.155674
Si Si4 0.053468 0.305285 0.122538
Si Si5 0.201654 0.774562 0.196674
Si Si6 0.351827 0.194892 0.640953
O O1 0.277168 0.787777 0.604532
O O2 0.398507 0.300893 0.312734
O O3 0.524761 0.822854 0.393573
O O4 0.500000 0.000000 0.000000
O O5 0.240228 0.867145 0.289234
O O6 0.234961 0.166837 0.380374
O O7 0.017211 0.868966 0.812881
O O8 0.268508 0.567242 0.174031
O O9 0.478416 0.374849 0.797282
O O10 0.222918 0.308256 0.863742
O O11 0.000000 0.500000 0.000000
O O12 0.971302 0.272369 0.467695
O O13 0.267786 0.968206 0.863665
#
# Coordination Sequence:
#
# PCOD9019704 Si02
#       6
#     2   2   2   2   2   2
#     4  10  21  45  66  99 145 168 222 290 322 399
#     4   9  22  45  66  94 147 168 214 300 315 385
#     4  11  23  43  71 101 133 182 224 274 339 404
#     4  10  21  46  69  96 142 174 222 289 328 394
#     4  10  22  43  66 102 134 173 224 281 326 401
#     4  12  22  44  74  97 137 183 217 282 345 385
#
# _framework density 27.350914
#
# number of rings (size 3 to 8) (size 9 to 14) (size 15 to 20)
#    1.000    0.667    5.000    0.500    0.000    4.000 
#    6.000    5.000    0.000    3.000    0.000    0.000 
#    0.000    0.000    0.000    0.000    0.000    0.000 
#
# Total GULP energy -67154.183617 kJ/mol
# GULP energy per Si atom -5596.181968 kJ/mol
# Density = 2.728866 g / cm^3
# Si number density = 27.350914 Si / 1000 Ang^3
#
#
#
# Elastic Constant Matrix: (Units=GPa)
#
#
# Indices 1 2 3 4 5 6 
#
# 1 100.2497 49.3793 46.8305 18.1372 1.7120 -7.2786
# 2 49.3793 173.9907 40.7001 -8.8147 6.0581 -1.5814
# 3 46.8305 40.7001 109.2113 17.0951 -0.8046 -19.9391
# 4 18.1372 -8.8147 17.0951 54.1094 -7.7217 -2.2463
# 5 1.7120 6.0581 -0.8046 -7.7217 44.6960 4.3643
# 6 -7.2786 -1.5814 -19.9391 -2.2463 4.3643 48.7106
#
#
#
# Elastic Compliance Matrix: (Units=1/GPa)
#
#
# Indices 1 2 3 4 5 6 
#
# 1 0.014341 -0.003246 -0.004270 -0.004110 -0.000914 0.000182
# 2 -0.003246 0.007261 -0.001913 0.002792 -0.000326 -0.000874
# 3 -0.004270 -0.001913 0.012963 -0.002828 -0.000272 0.004500
# 4 -0.004110 0.002792 -0.002828 0.021675 0.003570 -0.001001
# 5 -0.000914 -0.000326 -0.000272 0.003570 0.023277 -0.002179
# 6 0.000182 -0.000874 0.004500 -0.001001 -0.002179 0.022519
#
#
# Mechanical properties :
#
#
# Convention : Reuss Voigt Hill
#
# Bulk Modulus (GPa) = 63.66854 73.03017 68.34936
# Shear Modulus (GPa) = 39.64152 45.93930 42.79041
#
# Velocity S-wave (km/s) = 3.81119 4.10277 3.95966
# Velocity P-wave (km/s) = 6.53420 7.01447 6.77859
#
# Compressibility (1/GPa) = 0.01570634
#
# Stress axis : x y z
#
# Youngs Moduli (GPa) = 69.73042 137.72027 77.14362
#
# Poissons Ratio (x) = 0.44703 0.32941
# Poissons Ratio (y) = 0.22634 0.14760
# Poissons Ratio (z) = 0.29775 0.26350
#
# Static dielectric constant tensor:
#      x y z
#    x 2.161640 0.035160 0.020820 
#    y 0.035160 2.182190 -0.036710 
#    z 0.020820 -0.036710 2.300660 
# 
# From -- ./inp_files/212528.got.cif
#   From: 2010.05.17/outbox.cif.g08.bks.cpg/sg2_107_cif.got.tgz:212528.got - 2010.06.03 11:33:40.
