data_PCOD9019302
_publ_section_title
;
Structure prediction by ZEFSAII (Michael W. Deem and Ramdas Pophale) SiO2 
 PCOD9019302
Probable space group: P -1
;
_chemical_formula_sum "Si O2"
_cell_formula_units_Z 14
_cell_length_a 8.293366
_cell_length_b 20.012639
_cell_length_c 9.864590
_cell_angle_alpha 139.298321
_cell_angle_beta 145.942955
_cell_angle_gamma 44.028281
_cell_volume 579.098081
_symmetry_space_group_name_H-M "P -1"
_symmetry_group_IT_number 2
_symmetry_cell_setting 'triclinic'
loop_
_space_group_symop_operation_xyz
x,y,z
-x,-y,-z
loop_
_atom_site_type_symbol
_atom_site_label
_atom_site_fract_x
_atom_site_fract_y
_atom_site_fract_z
Si Si1 0.308662 0.722961 0.042351
Si Si2 0.375034 0.177646 0.234236
Si Si3 0.601252 0.811627 0.168465
Si Si4 0.697619 0.581799 0.284947
Si Si5 0.718289 0.289622 0.451873
Si Si6 0.330002 0.504240 0.579616
Si Si7 0.318548 0.017343 0.708622
O O1 0.389486 0.815339 0.155481
O O2 0.507195 0.692886 0.268365
O O3 0.396219 0.612784 0.846670
O O4 0.959587 0.751198 0.872116
O O5 0.610856 0.238616 0.434085
O O6 0.462252 0.097541 0.297346
O O7 0.371604 0.097323 0.983866
O O8 0.650873 0.921119 0.313271
O O9 0.925445 0.742370 0.336352
O O10 0.437514 0.758031 0.854470
O O11 0.742877 0.565514 0.451404
O O12 0.999524 0.546060 0.354554
O O13 0.500000 0.500000 0.000000
O O14 0.582502 0.416881 0.547385
O O15 0.000000 0.000000 0.500000
#
# Coordination Sequence:
#
# PCOD9019302 Si02
#       7
#     2   2   2   2   2   2   2
#     4  11  25  41  64 102 138 178 218 291 336 404
#     4  10  22  41  72  98 127 175 235 275 339 401
#     4  11  27  44  67 102 144 173 228 281 351 389
#     4   9  19  36  58  91 127 169 228 274 318 385
#     4  11  24  44  69  98 135 189 228 275 325 414
#     4  10  22  38  65  93 134 182 234 267 328 401
#     4  10  21  44  70  96 127 177 228 282 334 419
#
# _framework density 24.175523999999999
#
# number of rings (size 3 to 8) (size 9 to 14) (size 15 to 20)
#    0.000    1.714    1.429    2.571   10.000    2.857 
#    0.000    0.714    0.000    0.000    0.000    0.000 
#    0.000    0.000    0.000    0.000    0.000    0.000 
#
# Total GULP energy -78144.064819 kJ/mol
# GULP energy per Si atom -5581.718916 kJ/mol
# Density = 2.412050 g / cm^3
# Si number density = 24.175524 Si / 1000 Ang^3
#
#
#
# Elastic Constant Matrix: (Units=GPa)
#
#
# Indices 1 2 3 4 5 6 
#
# 1 77.2396 16.6010 12.1501 -1.8176 22.0537 30.4325
# 2 16.6010 115.9927 27.1432 -6.0221 1.4734 21.5494
# 3 12.1501 27.1432 69.6322 -13.4438 9.7513 -7.0881
# 4 -1.8176 -6.0221 -13.4438 53.6672 -3.3159 3.3770
# 5 22.0537 1.4734 9.7513 -3.3159 30.1929 5.5820
# 6 30.4325 21.5494 -7.0881 3.3770 5.5820 38.8111
#
#
#
# Elastic Compliance Matrix: (Units=1/GPa)
#
#
# Indices 1 2 3 4 5 6 
#
# 1 0.024680 0.001357 -0.004944 0.000156 -0.012937 -0.019161
# 2 0.001357 0.011408 -0.005749 0.000562 0.001994 -0.008784
# 3 -0.004944 -0.005749 0.019787 0.003193 -0.004183 0.011006
# 4 0.000156 0.000562 0.003193 0.019693 0.001314 -0.001754
# 5 -0.012937 0.001994 -0.004183 0.001314 0.043619 0.001885
# 6 -0.019161 -0.008784 0.011006 -0.001754 0.001885 0.047559
#
#
# Mechanical properties :
#
#
# Convention : Reuss Voigt Hill
#
# Bulk Modulus (GPa) = 26.87907 41.62814 34.25360
# Shear Modulus (GPa) = 25.27562 38.33224 31.80393
#
# Velocity S-wave (km/s) = 3.23693 3.98625 3.63098
# Velocity P-wave (km/s) = 5.01126 6.20028 5.63721
#
# Compressibility (1/GPa) = 0.03720366
#
# Stress axis : x y z
#
# Youngs Moduli (GPa) = 40.51918 87.65817 50.53727
#
# Poissons Ratio (x) = -0.11895 0.24986
# Poissons Ratio (y) = -0.05498 0.29052
# Poissons Ratio (z) = 0.20033 0.50391
#
# Static dielectric constant tensor:
#      x y z
#    x 2.070880 -0.158150 -0.178420 
#    y -0.158150 2.269420 0.151860 
#    z -0.178420 0.151860 2.085580 
# 
# From -- ./inp_files/35944.got.cif
#   From: 2010.05.17/outbox.cif.g08.bks.cpg/sg2_18_cif.got.tgz:35944.got - 2010.06.03 11:33:40.
