data_PCOD9019462
_publ_section_title
;
Structure prediction by ZEFSAII (Michael W. Deem and Ramdas Pophale) SiO2 
 PCOD9019462
Probable space group: P -1
;
_chemical_formula_sum "Si O2"
_cell_formula_units_Z 11
_cell_length_a 5.481019
_cell_length_b 14.727477
_cell_length_c 5.481311
_cell_angle_alpha 64.010584
_cell_angle_beta 97.201773
_cell_angle_gamma 99.027596
_cell_volume 391.990456
_symmetry_space_group_name_H-M "P -1"
_symmetry_group_IT_number 2
_symmetry_cell_setting 'triclinic'
loop_
_space_group_symop_operation_xyz
x,y,z
-x,-y,-z
loop_
_atom_site_type_symbol
_atom_site_label
_atom_site_fract_x
_atom_site_fract_y
_atom_site_fract_z
Si Si1 0.971435 0.247772 0.193099
Si Si2 0.351490 0.882188 0.347255
Si Si3 0.197647 0.069573 0.275559
Si Si4 0.694567 0.567738 0.774987
Si Si5 0.000000 0.500000 0.500000
Si Si6 0.631741 0.311306 0.724273
O O1 0.895463 0.179783 0.497053
O O2 0.070341 0.171860 0.094831
O O3 0.177268 0.339879 0.161361
O O4 0.714771 0.286913 0.033607
O O5 0.563034 0.899815 0.560566
O O6 0.433796 0.801035 0.263332
O O7 0.277976 0.996082 0.156751
O O8 0.000000 0.000000 0.500000
O O9 0.870583 0.496072 0.753027
O O10 0.572509 0.617144 0.464492
O O11 0.500000 0.500000 0.000000
O O12 0.873900 0.380632 0.567276
#
# Coordination Sequence:
#
# PCOD9019462 Si02
#       6
#     2   2   2   2   1   2
#     4  11  24  45  75 106 154 197 250 319 383 450
#     4  10  21  44  72 106 154 193 253 313 380 461
#     4   9  20  42  72 106 148 198 242 319 387 446
#     4  12  28  51  77 110 159 202 257 328 376 454
#     4  12  28  50  74 112 152 206 260 312 392 452
#     4  12  26  44  75 111 143 204 261 303 387 467
#
# _framework density 28.061903000000001
#
# number of rings (size 3 to 8) (size 9 to 14) (size 15 to 20)
#    0.000    1.091    3.636    1.636    2.545    3.636 
#    0.000    9.091    0.000    0.000    0.000    0.000 
#    0.000    0.000    0.000    0.000    0.000    0.000 
#
# Total GULP energy -61351.873738 kJ/mol
# GULP energy per Si atom -5577.443067 kJ/mol
# Density = 2.799803 g / cm^3
# Si number density = 28.061903 Si / 1000 Ang^3
#
#
#
# Elastic Constant Matrix: (Units=GPa)
#
#
# Indices 1 2 3 4 5 6 
#
# 1 76.8082 33.1865 24.8317 -7.0367 -20.2116 21.1246
# 2 33.1865 216.2433 37.5664 -27.4574 -12.3944 19.1500
# 3 24.8317 37.5664 72.8467 -7.7198 11.4590 4.7860
# 4 -7.0367 -27.4574 -7.7198 36.8557 -1.3519 -7.7628
# 5 -20.2116 -12.3944 11.4590 -1.3519 53.7390 -1.9147
# 6 21.1246 19.1500 4.7860 -7.7628 -1.9147 51.9180
#
#
#
# Elastic Compliance Matrix: (Units=1/GPa)
#
#
# Indices 1 2 3 4 5 6 
#
# 1 0.019836 -0.000591 -0.007299 0.000713 0.008658 -0.006754
# 2 -0.000591 0.005810 -0.002625 0.003503 0.001727 -0.001073
# 3 -0.007299 -0.002625 0.018649 0.000726 -0.007235 0.002061
# 4 0.000713 0.003503 0.000726 0.030731 0.001802 0.003012
# 5 0.008658 0.001727 -0.007235 0.001802 0.023768 -0.002347
# 6 -0.006754 -0.001073 0.002061 0.003012 -0.002347 0.022579
#
#
# Mechanical properties :
#
#
# Convention : Reuss Voigt Hill
#
# Bulk Modulus (GPa) = 42.98418 61.89638 52.44028
# Shear Modulus (GPa) = 33.29840 46.52344 39.91092
#
# Velocity S-wave (km/s) = 3.44845 4.07613 3.77536
# Velocity P-wave (km/s) = 5.58629 6.65268 6.14267
#
# Compressibility (1/GPa) = 0.02326437
#
# Stress axis : x y z
#
# Youngs Moduli (GPa) = 50.41384 172.11922 53.62289
#
# Poissons Ratio (x) = 0.10177 0.39141
# Poissons Ratio (y) = 0.02981 0.14073
# Poissons Ratio (z) = 0.36798 0.45173
#
# Static dielectric constant tensor:
#      x y z
#    x 2.318970 -0.004730 0.086830 
#    y -0.004730 2.129960 0.114900 
#    z 0.086830 0.114900 2.212140 
# 
# From -- ./inp_files/3905.got.cif
#   From: 2010.05.17/outbox.cif.g08.bks.cpg/sg2_2_cif.got.tgz:3905.got - 2010.06.03 11:33:40.
