data_PCOD9019990
_publ_section_title
;
Structure prediction by ZEFSAII (Michael W. Deem and Ramdas Pophale) SiO2 
 PCOD9019990
Probable space group: P -1
;
_chemical_formula_sum "Si O2"
_cell_formula_units_Z 14
_cell_length_a 12.062562
_cell_length_b 12.161779
_cell_length_c 14.357650
_cell_angle_alpha 134.779115
_cell_angle_beta 151.713853
_cell_angle_gamma 39.503783
_cell_volume 632.760852
_symmetry_space_group_name_H-M "P -1"
_symmetry_group_IT_number 2
_symmetry_cell_setting 'triclinic'
loop_
_space_group_symop_operation_xyz
x,y,z
-x,-y,-z
loop_
_atom_site_type_symbol
_atom_site_label
_atom_site_fract_x
_atom_site_fract_y
_atom_site_fract_z
Si Si1 0.929138 0.877846 0.495171
Si Si2 0.495562 0.071166 0.643589
Si Si3 0.421002 0.516538 0.656636
Si Si4 0.764367 0.492155 0.739280
Si Si5 0.605398 0.402065 0.924014
Si Si6 0.212603 0.109152 0.808021
Si Si7 0.200909 0.286047 0.255380
O O1 0.782181 0.868537 0.473946
O O2 0.758933 0.913759 0.296630
O O3 0.180418 0.695462 0.556570
O O4 0.032289 0.022165 0.660308
O O5 0.580410 0.223893 0.796824
O O6 0.500000 0.000000 0.500000
O O7 0.683908 0.914506 0.755691
O O8 0.680617 0.503255 0.790906
O O9 0.448216 0.509608 0.782738
O O10 0.358112 0.363147 0.481308
O O11 0.500000 0.500000 0.500000
O O12 0.778841 0.655673 0.799717
O O13 0.026314 0.314444 0.809111
O O14 0.500000 0.500000 0.000000
O O15 0.900503 0.371488 0.112466
O O16 0.500000 0.000000 0.000000
#
# Coordination Sequence:
#
# PCOD9019990 Si02
#       7
#     2   2   2   2   2   2   2
#     4  11  25  44  71 104 151 194 242 305 377 441
#     4  12  27  49  75 103 148 203 247 303 372 443
#     4  11  24  46  76 106 145 201 242 303 382 448
#     4  10  21  45  76 104 150 196 243 304 385 448
#     4  12  29  46  74 109 145 195 258 307 362 442
#     4  11  25  43  72 113 150 188 245 314 375 443
#     4  11  24  47  74 103 147 188 251 308 368 441
#
# _framework density 22.125261999999999
#
# number of rings (size 3 to 8) (size 9 to 14) (size 15 to 20)
#    0.000    0.857    4.286    3.000    6.000    2.857 
#    0.000    0.000    0.000    0.000    0.000    0.000 
#    0.000    0.000    0.000    0.000    0.000    0.000 
#
# Total GULP energy -78316.173418 kJ/mol
# GULP energy per Si atom -5594.012387 kJ/mol
# Density = 2.207490 g / cm^3
# Si number density = 22.125262 Si / 1000 Ang^3
#
#
#
# Elastic Constant Matrix: (Units=GPa)
#
#
# Indices 1 2 3 4 5 6 
#
# 1 157.3643 36.1219 66.8016 16.3660 2.6819 15.6221
# 2 36.1219 95.7332 43.9573 -16.0712 -10.4081 19.1627
# 3 66.8016 43.9573 109.0141 -10.7054 -14.0813 -1.9642
# 4 16.3660 -16.0712 -10.7054 34.1728 2.9252 -0.9243
# 5 2.6819 -10.4081 -14.0813 2.9252 33.4360 -5.6482
# 6 15.6221 19.1627 -1.9642 -0.9243 -5.6482 32.4470
#
#
#
# Elastic Compliance Matrix: (Units=1/GPa)
#
#
# Indices 1 2 3 4 5 6 
#
# 1 0.011863 -0.001334 -0.008379 -0.008662 -0.005251 -0.006591
# 2 -0.001334 0.016277 -0.005162 0.006355 0.000934 -0.008939
# 3 -0.008379 -0.005162 0.018248 0.006898 0.007792 0.009740
# 4 -0.008662 0.006355 0.006898 0.038402 0.002622 0.002385
# 5 -0.005251 0.000934 0.007792 0.002622 0.035131 0.008639
# 6 -0.006591 -0.008939 0.009740 0.002385 0.008639 0.041434
#
#
# Mechanical properties :
#
#
# Convention : Reuss Voigt Hill
#
# Bulk Modulus (GPa) = 60.10454 72.87479 66.48966
# Shear Modulus (GPa) = 25.42574 34.35987 29.89281
#
# Velocity S-wave (km/s) = 3.39362 3.94505 3.67968
# Velocity P-wave (km/s) = 6.52534 7.33213 6.94047
#
# Compressibility (1/GPa) = 0.01663768
#
# Stress axis : x y z
#
# Youngs Moduli (GPa) = 84.29909 61.43548 54.79963
#
# Poissons Ratio (x) = 0.08198 0.45915
# Poissons Ratio (y) = 0.11249 0.28288
# Poissons Ratio (z) = 0.70632 0.31713
#
# Static dielectric constant tensor:
#      x y z
#    x 2.125920 0.044320 0.203720 
#    y 0.044320 1.833100 0.055930 
#    z 0.203720 0.055930 2.028290 
# 
# From -- ./inp_files/519158.got.cif
#   From: 2010.05.17/outbox.cif.g08.bks.cpg/sg2_260_cif.got.tgz:519158.got - 2010.06.03 11:33:40.
