data_PCOD9019974
_publ_section_title
;
Structure prediction by ZEFSAII (Michael W. Deem and Ramdas Pophale) SiO2 
 PCOD9019974
Probable space group: P -1
;
_chemical_formula_sum "Si O2"
_cell_formula_units_Z 13
_cell_length_a 13.594670
_cell_length_b 5.027639
_cell_length_c 9.073194
_cell_angle_alpha 101.961570
_cell_angle_beta 121.463082
_cell_angle_gamma 92.822321
_cell_volume 508.192052
_symmetry_space_group_name_H-M "P -1"
_symmetry_group_IT_number 2
_symmetry_cell_setting 'triclinic'
loop_
_space_group_symop_operation_xyz
x,y,z
-x,-y,-z
loop_
_atom_site_type_symbol
_atom_site_label
_atom_site_fract_x
_atom_site_fract_y
_atom_site_fract_z
Si Si1 0.500000 0.500000 0.500000
Si Si2 0.101872 0.815713 0.067811
Si Si3 0.877995 0.636558 0.169318
Si Si4 0.468615 0.616293 0.830497
Si Si5 0.320472 0.158392 0.123665
Si Si6 0.802006 0.363254 0.380378
Si Si7 0.111083 0.040752 0.400956
O O1 0.476191 0.444247 0.661259
O O2 0.376214 0.309439 0.333037
O O3 0.151713 0.878405 0.276260
O O4 0.215706 0.922772 0.066377
O O5 0.065543 0.515352 0.934919
O O6 0.000000 0.000000 0.000000
O O7 0.864441 0.462512 0.287358
O O8 0.972991 0.918346 0.295863
O O9 0.750535 0.668917 0.017419
O O10 0.336409 0.658913 0.739215
O O11 0.500000 0.500000 0.000000
O O12 0.432243 0.115583 0.109141
O O13 0.826183 0.074511 0.425822
O O14 0.855769 0.631186 0.553393
#
# Coordination Sequence:
#
# PCOD9019974 Si02
#       7
#     1   2   2   2   2   2   2
#     4   8  20  38  70  98 154 186 260 302 378 446
#     4  12  26  45  73 107 151 200 254 313 385 461
#     4  12  26  45  75 108 151 197 257 315 389 460
#     4  10  21  45  74 108 152 202 249 320 376 459
#     4  10  23  45  70 105 150 193 262 308 384 457
#     4  12  27  50  75 113 153 201 255 317 385 457
#     4  12  28  45  77 109 155 198 255 317 384 452
#
# _framework density 25.580881999999999
#
# number of rings (size 3 to 8) (size 9 to 14) (size 15 to 20)
#    0.923    0.000    3.077    3.231    6.462    0.000 
#    2.769    3.077    0.000    0.000    0.000    0.000 
#    0.000    0.000    0.000    0.000    0.000    0.000 
#
# Total GULP energy -72367.549356 kJ/mol
# GULP energy per Si atom -5566.734566 kJ/mol
# Density = 2.552266 g / cm^3
# Si number density = 25.580882 Si / 1000 Ang^3
#
#
#
# Elastic Constant Matrix: (Units=GPa)
#
#
# Indices 1 2 3 4 5 6 
#
# 1 127.8993 21.8421 28.0333 6.1974 5.0050 24.4541
# 2 21.8421 48.7585 17.3780 -4.1984 5.8538 -4.2749
# 3 28.0333 17.3780 145.6021 1.6271 -0.7444 -1.7450
# 4 6.1974 -4.1984 1.6271 42.8418 15.5802 -9.4776
# 5 5.0050 5.8538 -0.7444 15.5802 54.5594 -2.9905
# 6 24.4541 -4.2749 -1.7450 -9.4776 -2.9905 29.4520
#
#
#
# Elastic Compliance Matrix: (Units=1/GPa)
#
#
# Indices 1 2 3 4 5 6 
#
# 1 0.011885 -0.006332 -0.001623 -0.005177 0.000359 -0.012513
# 2 -0.006332 0.026040 -0.001859 0.007305 -0.003727 0.010899
# 3 -0.001623 -0.001859 0.007425 -0.000091 0.000560 0.001545
# 4 -0.005177 0.007305 -0.000091 0.031068 -0.008387 0.014499
# 5 0.000359 -0.003727 0.000560 -0.008387 0.021023 -0.001370
# 6 -0.012513 0.010899 0.001545 0.014499 -0.001370 0.050543
#
#
# Mechanical properties :
#
#
# Convention : Reuss Voigt Hill
#
# Bulk Modulus (GPa) = 38.87570 50.75183 44.81376
# Shear Modulus (GPa) = 28.37939 42.37107 35.37523
#
# Velocity S-wave (km/s) = 3.33438 4.07425 3.72274
# Velocity P-wave (km/s) = 5.48218 6.48194 6.00291
#
# Compressibility (1/GPa) = 0.02572301
#
# Stress axis : x y z
#
# Youngs Moduli (GPa) = 84.14134 38.40232 134.68455
#
# Poissons Ratio (x) = 0.24314 0.21857
# Poissons Ratio (y) = 0.53274 0.25038
# Poissons Ratio (z) = 0.13655 0.07139
#
# Static dielectric constant tensor:
#      x y z
#    x 2.016830 0.041640 -0.063820 
#    y 0.041640 2.128830 0.016920 
#    z -0.063820 0.016920 2.147450 
# 
# From -- ./inp_files/287168.got.cif
#   From: 2010.05.17/outbox.cif.g08.bks.cpg/sg2_144_cif.got.tgz:287168.got - 2010.06.03 11:33:40.
