data_PCOD9019844
_publ_section_title
;
Structure prediction by ZEFSAII (Michael W. Deem and Ramdas Pophale) SiO2 
 PCOD9019844
Probable space group: P -1
;
_chemical_formula_sum "Si O2"
_cell_formula_units_Z 14
_cell_length_a 5.032999
_cell_length_b 8.617877
_cell_length_c 11.919801
_cell_angle_alpha 80.270126
_cell_angle_beta 87.645384
_cell_angle_gamma 86.081895
_cell_volume 508.149381
_symmetry_space_group_name_H-M "P -1"
_symmetry_group_IT_number 2
_symmetry_cell_setting 'triclinic'
loop_
_space_group_symop_operation_xyz
x,y,z
-x,-y,-z
loop_
_atom_site_type_symbol
_atom_site_label
_atom_site_fract_x
_atom_site_fract_y
_atom_site_fract_z
Si Si1 0.005671 0.532693 0.700625
Si Si2 0.173329 0.985964 0.696211
Si Si3 0.841102 0.244395 0.602543
Si Si4 0.281912 0.605234 0.061888
Si Si5 0.492657 0.713495 0.617445
Si Si6 0.084255 0.130178 0.076844
Si Si7 0.519683 0.122201 0.833421
O O1 0.990188 0.391681 0.628224
O O2 0.867466 0.482626 0.824779
O O3 0.800565 0.665378 0.633338
O O4 0.304736 0.588163 0.696905
O O5 0.242664 0.106765 0.779841
O O6 0.042010 0.095894 0.589724
O O7 0.417457 0.882632 0.652706
O O8 0.018025 0.869971 0.792232
O O9 0.626231 0.286105 0.505773
O O10 0.696560 0.174576 0.720964
O O11 0.456428 0.740100 0.096377
O O12 0.500000 0.500000 0.000000
O O13 0.043817 0.704615 0.987607
O O14 0.382189 0.052027 0.104053
O O15 0.000000 0.000000 0.000000
#
# Coordination Sequence:
#
# PCOD9019844 Si02
#       7
#     2   2   2   2   2   2   2
#     4  11  27  47  70 105 142 182 239 286 346 419
#     4  11  24  43  68 104 136 178 239 287 342 422
#     4  10  24  45  73  99 138 187 228 287 351 415
#     4  10  21  45  70 101 135 185 232 290 344 414
#     4  12  27  46  72 104 144 186 231 290 347 413
#     4   9  20  42  63  95 130 180 225 284 345 405
#     4   9  22  41  70  99 136 175 234 285 347 416
#
# _framework density 27.55095
#
# number of rings (size 3 to 8) (size 9 to 14) (size 15 to 20)
#    0.000    1.714    0.000    3.000   10.000    2.857 
#    5.143    1.429    0.000    0.000    0.000    0.000 
#    0.000    0.000    0.000    0.000    0.000    0.000 
#
# Total GULP energy -78371.181168 kJ/mol
# GULP energy per Si atom -5597.941512 kJ/mol
# Density = 2.748824 g / cm^3
# Si number density = 27.550950 Si / 1000 Ang^3
#
#
#
# Elastic Constant Matrix: (Units=GPa)
#
#
# Indices 1 2 3 4 5 6 
#
# 1 73.7499 18.6597 34.3272 -1.1244 10.8429 -7.3556
# 2 18.6597 121.5232 74.3443 1.6152 8.6322 -23.2176
# 3 34.3272 74.3443 115.1072 -13.4213 9.7970 -11.6028
# 4 -1.1244 1.6152 -13.4213 54.0027 1.1695 13.3519
# 5 10.8429 8.6322 9.7970 1.1695 39.6856 -2.1946
# 6 -7.3556 -23.2176 -11.6028 13.3519 -2.1946 54.6439
#
#
#
# Elastic Compliance Matrix: (Units=1/GPa)
#
#
# Indices 1 2 3 4 5 6 
#
# 1 0.016422 0.001501 -0.005569 -0.001485 -0.003290 0.001896
# 2 0.001501 0.015520 -0.010347 -0.004381 -0.000791 0.005638
# 3 -0.005569 -0.010347 0.017434 0.005225 -0.000838 -0.002754
# 4 -0.001485 -0.004381 0.005225 0.021478 -0.000909 -0.006236
# 5 -0.003290 -0.000791 -0.000838 -0.000909 0.026521 0.000331
# 6 0.001896 0.005638 -0.002754 -0.006236 0.000331 0.021903
#
#
# Mechanical properties :
#
#
# Convention : Reuss Voigt Hill
#
# Bulk Modulus (GPa) = 48.66964 62.78252 55.72608
# Shear Modulus (GPa) = 32.26749 41.86971 37.06860
#
# Velocity S-wave (km/s) = 3.42598 3.90259 3.67203
# Velocity P-wave (km/s) = 5.77525 6.56842 6.18456
#
# Compressibility (1/GPa) = 0.02054669
#
# Stress axis : x y z
#
# Youngs Moduli (GPa) = 60.89498 64.43423 57.36010
#
# Poissons Ratio (x) = -0.09671 0.31942
# Poissons Ratio (y) = -0.09140 0.59348
# Poissons Ratio (z) = 0.33910 0.66667
#
# Static dielectric constant tensor:
#      x y z
#    x 2.216830 0.063610 -0.049890 
#    y 0.063610 2.190360 -0.066000 
#    z -0.049890 -0.066000 2.190730 
# 
# From -- ./inp_files/28119.got.cif
#   From: 2010.05.17/outbox.cif.g08.bks.cpg/sg2_15_cif.got.tgz:28119.got - 2010.06.03 11:33:40.
