data_PCOD9019286
_publ_section_title
;
Structure prediction by ZEFSAII (Michael W. Deem and Ramdas Pophale) SiO2 
 PCOD9019286
Probable space group: P -1
;
_chemical_formula_sum "Si O2"
_cell_formula_units_Z 14
_cell_length_a 11.879494
_cell_length_b 12.091428
_cell_length_c 12.404842
_cell_angle_alpha 83.320062
_cell_angle_beta 36.573734
_cell_angle_gamma 115.862924
_cell_volume 470.502518
_symmetry_space_group_name_H-M "P -1"
_symmetry_group_IT_number 2
_symmetry_cell_setting 'triclinic'
loop_
_space_group_symop_operation_xyz
x,y,z
-x,-y,-z
loop_
_atom_site_type_symbol
_atom_site_label
_atom_site_fract_x
_atom_site_fract_y
_atom_site_fract_z
Si Si1 0.500146 0.757412 0.429553
Si Si2 0.548250 0.718464 0.830723
Si Si3 0.500000 0.000000 0.500000
Si Si4 0.662606 0.590182 0.581219
Si Si5 0.468528 0.876074 0.227126
Si Si6 0.591744 0.371197 0.816202
Si Si7 0.500000 0.500000 0.500000
Si Si8 0.674657 0.988497 0.586752
O O1 0.430337 0.820780 0.560105
O O2 0.358784 0.557061 0.590714
O O3 0.373595 0.743558 0.413305
O O4 0.000000 0.000000 0.000000
O O5 0.582775 0.634795 0.732185
O O6 0.311642 0.559819 0.139909
O O7 0.401685 0.742580 0.866284
O O8 0.000000 0.000000 0.500000
O O9 0.450933 0.992483 0.410061
O O10 0.285800 0.380543 0.808375
O O11 0.017902 0.822547 0.197289
O O12 0.810901 0.558796 0.533165
O O13 0.420707 0.767768 0.174937
O O14 0.286650 0.904697 0.355655
O O15 0.115838 0.167201 0.191298
#
# Coordination Sequence:
#
# PCOD9019286 Si02
#       8
#     2   2   1   2   2   2   1   2
#     4  11  21  40  64  92 135 185 220 276 342 406
#     4  10  21  44  70  93 133 187 227 275 339 406
#     4  10  22  38  68  98 138 182 230 274 342 418
#     4  12  23  40  69 101 131 181 224 278 347 399
#     4  11  22  41  66  96 136 172 228 273 348 402
#     4  11  23  45  68  96 135 178 228 284 333 405
#     4  12  24  36  72 104 138 180 234 282 346 420
#     4  10  22  40  67  98 132 182 222 275 341 402
#
# _framework density 29.755420999999998
#
# number of rings (size 3 to 8) (size 9 to 14) (size 15 to 20)
#    0.000    1.143    5.714    2.143    0.000    0.571 
#    2.571    1.429    0.000    0.000    0.000    0.000 
#    0.000    0.000    0.000    0.000    0.000    0.000 
#
# Total GULP energy -78053.345032 kJ/mol
# GULP energy per Si atom -5575.238931 kJ/mol
# Density = 2.968770 g / cm^3
# Si number density = 29.755421 Si / 1000 Ang^3
#
#
#
# Elastic Constant Matrix: (Units=GPa)
#
#
# Indices 1 2 3 4 5 6 
#
# 1 229.0368 37.3816 23.0824 -3.3568 32.9393 -38.5725
# 2 37.3816 227.9787 13.9576 35.0096 11.8913 -61.0516
# 3 23.0824 13.9576 88.5430 6.4754 23.9503 -25.6670
# 4 -3.3568 35.0096 6.4754 57.9947 -8.7294 10.0109
# 5 32.9393 11.8913 23.9503 -8.7294 50.7356 -8.3170
# 6 -38.5725 -61.0516 -25.6670 10.0109 -8.3170 48.7754
#
#
#
# Elastic Compliance Matrix: (Units=1/GPa)
#
#
# Indices 1 2 3 4 5 6 
#
# 1 0.005693 0.001434 0.001596 -0.002530 -0.004080 0.006961
# 2 0.001434 0.010945 0.005640 -0.011222 -0.004932 0.019265
# 3 0.001596 0.005640 0.018806 -0.010117 -0.009927 0.018602
# 4 -0.002530 -0.011222 -0.010117 0.031014 0.010121 -0.026011
# 5 -0.004080 -0.004932 -0.009927 0.010121 0.027987 -0.011929
# 6 0.006961 0.019265 0.018602 -0.026011 -0.011929 0.063214
#
#
# Mechanical properties :
#
#
# Convention : Reuss Voigt Hill
#
# Bulk Modulus (GPa) = 18.94430 77.15576 48.05003
# Shear Modulus (GPa) = 31.66274 62.91028 47.28651
#
# Velocity S-wave (km/s) = 3.26559 4.60308 3.99077
# Velocity P-wave (km/s) = 4.53864 7.36461 6.11705
#
# Compressibility (1/GPa) = 0.05278632
#
# Stress axis : x y z
#
# Youngs Moduli (GPa) = 175.64775 91.36241 53.17363
#
# Poissons Ratio (x) = -0.13105 -0.08489
# Poissons Ratio (y) = -0.25195 -0.29989
# Poissons Ratio (z) = -0.28041 -0.51527
#
# Static dielectric constant tensor:
#      x y z
#    x 2.021070 -0.029310 0.139300 
#    y -0.029310 2.277550 -0.028730 
#    z 0.139300 -0.028730 2.415410 
# 
# From -- ./inp_files/425754.got.cif
#   From: 2010.05.17/outbox.cif.g08.bks.cpg/sg2_213_cif.got.tgz:425754.got - 2010.06.03 11:33:40.
