data_PCOD9019355
_publ_section_title
;
Structure prediction by ZEFSAII (Michael W. Deem and Ramdas Pophale) SiO2 
 PCOD9019355
Probable space group: P -1
;
_chemical_formula_sum "Si O2"
_cell_formula_units_Z 16
_cell_length_a 17.769586
_cell_length_b 8.507443
_cell_length_c 9.656752
_cell_angle_alpha 130.592201
_cell_angle_beta 125.547529
_cell_angle_gamma 85.931969
_cell_volume 782.437574
_symmetry_space_group_name_H-M "P -1"
_symmetry_group_IT_number 2
_symmetry_cell_setting 'triclinic'
loop_
_space_group_symop_operation_xyz
x,y,z
-x,-y,-z
loop_
_atom_site_type_symbol
_atom_site_label
_atom_site_fract_x
_atom_site_fract_y
_atom_site_fract_z
Si Si1 0.412167 0.479868 0.787292
Si Si2 0.667839 0.159397 0.049371
Si Si3 0.152653 0.745862 0.478274
Si Si4 0.256996 0.590240 0.269130
Si Si5 0.726671 0.064634 0.755728
Si Si6 0.476565 0.672531 0.668193
Si Si7 0.878055 0.826111 0.313864
Si Si8 0.055519 0.524069 0.719066
O O1 0.351381 0.617305 0.851027
O O2 0.475276 0.606913 0.788007
O O3 0.327535 0.207205 0.504498
O O4 0.500000 0.500000 0.000000
O O5 0.766958 0.211603 0.284193
O O6 0.681605 0.082539 0.866850
O O7 0.564235 0.941524 0.882908
O O8 0.181280 0.628069 0.315519
O O9 0.034237 0.582697 0.319260
O O10 0.164642 0.997830 0.586088
O O11 0.293597 0.785980 0.298438
O O12 0.359586 0.625062 0.479339
O O13 0.192743 0.332362 0.980962
O O14 0.854471 0.207947 0.995338
O O15 0.500000 0.500000 0.500000
O O16 0.885063 0.634082 0.310956
O O17 0.000000 0.000000 0.500000
O O18 0.000000 0.500000 0.500000
#
# Coordination Sequence:
#
# PCOD9019355 Si02
#       8
#     2   2   2   2   2   2   2   2
#     4  12  28  45  68 103 137 180 233 280 344 412
#     4  12  25  45  70  97 139 181 225 284 343 405
#     4  11  23  44  72  97 137 179 228 280 337 411
#     4  11  25  44  68 102 136 175 234 283 336 411
#     4  11  26  45  68 100 139 177 226 284 345 401
#     4  12  25  45  73  99 134 183 228 281 348 406
#     4   9  22  40  70  96 132 178 222 273 339 400
#     4  10  21  44  71 103 137 180 224 282 344 406
#
# _framework density 20.448916000000001
#
# number of rings (size 3 to 8) (size 9 to 14) (size 15 to 20)
#    0.000    1.000    3.750    1.875    3.500    7.500 
#    0.000    1.875    0.000    0.000    0.000    0.000 
#    0.000    0.000    0.000    0.000    0.000    0.000 
#
# Total GULP energy -89494.238390 kJ/mol
# GULP energy per Si atom -5593.389899 kJ/mol
# Density = 2.040237 g / cm^3
# Si number density = 20.448916 Si / 1000 Ang^3
#
#
#
# Elastic Constant Matrix: (Units=GPa)
#
#
# Indices 1 2 3 4 5 6 
#
# 1 86.5367 35.4683 43.1996 7.0711 8.7651 -3.9780
# 2 35.4683 93.5748 59.3736 -7.3500 10.8676 3.8322
# 3 43.1996 59.3736 133.9815 15.4759 13.7703 2.3637
# 4 7.0711 -7.3500 15.4759 52.2253 -0.1498 -1.8872
# 5 8.7651 10.8676 13.7703 -0.1498 23.9795 1.0715
# 6 -3.9780 3.8322 2.3637 -1.8872 1.0715 36.5930
#
#
#
# Elastic Compliance Matrix: (Units=1/GPa)
#
#
# Indices 1 2 3 4 5 6 
#
# 1 0.014982 -0.003928 -0.002700 -0.001709 -0.002255 0.002192
# 2 -0.003928 0.017072 -0.006581 0.004825 -0.002426 -0.001470
# 3 -0.002700 -0.006581 0.012043 -0.004156 -0.002949 -0.000510
# 4 -0.001709 0.004825 -0.004156 0.021316 0.000929 0.000650
# 5 -0.002255 -0.002426 -0.002949 0.000929 0.045374 -0.001081
# 6 0.002192 -0.001470 -0.000510 0.000650 -0.001081 0.027818
#
#
# Mechanical properties :
#
#
# Convention : Reuss Voigt Hill
#
# Bulk Modulus (GPa) = 56.56159 65.57511 61.06835
# Shear Modulus (GPa) = 29.25431 34.29633 31.77532
#
# Velocity S-wave (km/s) = 3.78644 4.09977 3.94621
# Velocity P-wave (km/s) = 6.84369 7.38568 7.11984
#
# Compressibility (1/GPa) = 0.01767984
#
# Stress axis : x y z
#
# Youngs Moduli (GPa) = 66.74607 58.57527 83.03817
#
# Poissons Ratio (x) = 0.23009 0.22417
# Poissons Ratio (y) = 0.26218 0.54646
# Poissons Ratio (z) = 0.18019 0.38548
#
# Static dielectric constant tensor:
#      x y z
#    x 1.719760 -0.003560 0.004280 
#    y -0.003560 1.736950 0.008250 
#    z 0.004280 0.008250 1.706810 
# 
# From -- ./inp_files/329647.got.cif
#   From: 2010.05.17/outbox.cif.g08.bks.cpg/sg2_165_cif.got.tgz:329647.got - 2010.06.03 11:33:40.
