data_PCOD9019457
_publ_section_title
;
Structure prediction by ZEFSAII (Michael W. Deem and Ramdas Pophale) SiO2 
 PCOD9019457
Probable space group: P -1
;
_chemical_formula_sum "Si O2"
_cell_formula_units_Z 16
_cell_length_a 9.178341
_cell_length_b 7.453458
_cell_length_c 12.552839
_cell_angle_alpha 122.124150
_cell_angle_beta 118.683026
_cell_angle_gamma 55.754954
_cell_volume 580.810602
_symmetry_space_group_name_H-M "P -1"
_symmetry_group_IT_number 2
_symmetry_cell_setting 'triclinic'
loop_
_space_group_symop_operation_xyz
x,y,z
-x,-y,-z
loop_
_atom_site_type_symbol
_atom_site_label
_atom_site_fract_x
_atom_site_fract_y
_atom_site_fract_z
Si Si1 0.868504 0.267165 0.373368
Si Si2 0.723312 0.201685 0.002551
Si Si3 0.777265 0.426377 0.730288
Si Si4 0.552135 0.194621 0.136447
Si Si5 0.928118 0.612056 0.345932
Si Si6 0.522779 0.696051 0.469461
Si Si7 0.966285 0.274678 0.949957
Si Si8 0.492452 0.108707 0.710346
O O1 0.741163 0.132652 0.250885
O O2 0.938120 0.376331 0.333373
O O3 0.712465 0.491062 0.444119
O O4 0.025848 0.216048 0.501272
O O5 0.616882 0.134504 0.853083
O O6 0.866219 0.959764 0.028847
O O7 0.589836 0.332647 0.093400
O O8 0.828874 0.328849 0.017945
O O9 0.626067 0.641684 0.809795
O O10 0.652112 0.353709 0.587167
O O11 0.933091 0.452617 0.723770
O O12 0.877887 0.234552 0.796801
O O13 0.500000 0.000000 0.000000
O O14 0.717503 0.754646 0.288631
O O15 0.478793 0.814273 0.373707
O O16 0.540099 0.841984 0.619736
O O17 0.000000 0.500000 0.000000
#
# Coordination Sequence:
#
# PCOD9019457 Si02
#       8
#     2   2   2   2   2   2   2   2
#     4   9  22  46  69 110 151 198 259 311 398 465
#     4  11  26  49  75 111 158 208 252 321 391 465
#     4  11  24  45  71 106 150 197 260 321 379 461
#     4  11  26  47  72 108 156 205 261 315 383 467
#     4  10  23  43  74 110 147 200 251 326 385 454
#     4   9  20  41  71 103 144 193 248 317 381 458
#     4  11  26  48  74 113 150 200 261 317 386 459
#     4  10  21  44  72 105 147 198 249 306 392 458
#
# _framework density 27.547705000000001
#
# number of rings (size 3 to 8) (size 9 to 14) (size 15 to 20)
#    0.000    1.750    1.250    0.750    1.750    9.000 
#    9.000    0.000    0.000    0.000    0.000    0.000 
#    0.000    0.000    0.000    0.000    0.000    0.000 
#
# Total GULP energy -89653.618518 kJ/mol
# GULP energy per Si atom -5603.351157 kJ/mol
# Density = 2.748501 g / cm^3
# Si number density = 27.547705 Si / 1000 Ang^3
#
#
#
# Elastic Constant Matrix: (Units=GPa)
#
#
# Indices 1 2 3 4 5 6 
#
# 1 266.5303 62.5643 58.8588 -6.8672 -9.9636 4.8704
# 2 62.5643 86.0548 35.4692 -8.7130 0.5096 -0.8829
# 3 58.8588 35.4692 167.8875 -4.4554 15.4583 -5.7536
# 4 -6.8672 -8.7130 -4.4554 37.5819 2.1541 -4.4312
# 5 -9.9636 0.5096 15.4583 2.1541 55.5191 -7.0588
# 6 4.8704 -0.8829 -5.7536 -4.4312 -7.0588 44.0281
#
#
#
# Elastic Compliance Matrix: (Units=1/GPa)
#
#
# Indices 1 2 3 4 5 6 
#
# 1 0.004765 -0.003008 -0.001162 -0.000096 0.001138 -0.000566
# 2 -0.003008 0.014913 -0.001988 0.002754 -0.000151 0.000625
# 3 -0.001162 -0.001988 0.007008 0.000360 -0.002065 0.000710
# 4 -0.000096 0.002754 0.000360 0.027647 -0.000865 0.002757
# 5 0.001138 -0.000151 -0.002065 -0.000865 0.019155 0.002585
# 6 -0.000566 0.000625 0.000710 0.002757 0.002585 0.023573
#
#
# Mechanical properties :
#
#
# Convention : Reuss Voigt Hill
#
# Bulk Modulus (GPa) = 69.58586 92.69524 81.14055
# Shear Modulus (GPa) = 43.79669 51.66452 47.73060
#
# Velocity S-wave (km/s) = 3.99162 4.33535 4.16703
# Velocity P-wave (km/s) = 6.82341 7.66697 7.25746
#
# Compressibility (1/GPa) = 0.01437074
#
# Stress axis : x y z
#
# Youngs Moduli (GPa) = 209.86794 67.05730 142.70130
#
# Poissons Ratio (x) = 0.20169 0.16579
# Poissons Ratio (y) = 0.63121 0.28365
# Poissons Ratio (z) = 0.24383 0.13329
#
# Static dielectric constant tensor:
#      x y z
#    x 2.140320 0.114900 0.018220 
#    y 0.114900 2.269020 0.010400 
#    z 0.018220 0.010400 2.233430 
# 
# From -- ./inp_files/382967.got.cif
#   From: 2010.05.17/outbox.cif.g08.bks.cpg/sg2_192_cif.got.tgz:382967.got - 2010.06.03 11:33:40.
