data_PCOD9019480
_publ_section_title
;
Structure prediction by ZEFSAII (Michael W. Deem and Ramdas Pophale) SiO2 
 PCOD9019480
Probable space group: P -1
;
_chemical_formula_sum "Si O2"
_cell_formula_units_Z 14
_cell_length_a 14.736153
_cell_length_b 9.346160
_cell_length_c 9.317771
_cell_angle_alpha 148.020879
_cell_angle_beta 71.802195
_cell_angle_gamma 111.093100
_cell_volume 634.047713
_symmetry_space_group_name_H-M "P -1"
_symmetry_group_IT_number 2
_symmetry_cell_setting 'triclinic'
loop_
_space_group_symop_operation_xyz
x,y,z
-x,-y,-z
loop_
_atom_site_type_symbol
_atom_site_label
_atom_site_fract_x
_atom_site_fract_y
_atom_site_fract_z
Si Si1 0.760382 0.940923 0.072693
Si Si2 0.732259 0.593054 0.142378
Si Si3 0.464733 0.327993 0.015036
Si Si4 0.102409 0.954001 0.465524
Si Si5 0.184533 0.591716 0.319141
Si Si6 0.572761 0.813474 0.542065
Si Si7 0.264321 0.909901 0.110574
O O1 0.785120 0.187285 0.383403
O O2 0.649731 0.783614 0.016447
O O3 0.828539 0.714158 0.869973
O O4 0.763967 0.054879 0.007433
O O5 0.838749 0.778714 0.254917
O O6 0.655055 0.790483 0.361382
O O7 0.731605 0.414137 0.847958
O O8 0.714380 0.388930 0.112332
O O9 0.498415 0.530486 0.306210
O O10 0.500000 0.500000 0.000000
O O11 0.517844 0.066539 0.768810
O O12 0.173515 0.931053 0.276764
O O13 0.101860 0.699015 0.357179
O O14 0.000000 0.000000 0.500000
O O15 0.639447 0.875451 0.704243
#
# Coordination Sequence:
#
# PCOD9019480 Si02
#       7
#     2   2   2   2   2   2   2
#     4  12  27  44  64 104 140 187 222 277 350 389
#     4  10  21  44  72  95 134 178 223 280 340 399
#     4  12  26  37  65  97 140 178 243 278 325 392
#     4  10  23  46  79 105 126 174 230 277 337 421
#     4  11  24  43  71  96 141 175 220 281 340 402
#     4  11  23  42  63  97 130 183 230 284 322 377
#     4  10  25  43  72  94 144 181 222 279 346 406
#
# _framework density 22.080355000000001
#
# number of rings (size 3 to 8) (size 9 to 14) (size 15 to 20)
#    0.000    1.143    2.857    2.143   12.000    3.429 
#    0.000    1.429    0.000    0.000    0.000    0.000 
#    0.000    0.000    0.000    0.000    0.000    0.000 
#
# Total GULP energy -78203.905765 kJ/mol
# GULP energy per Si atom -5585.993269 kJ/mol
# Density = 2.203010 g / cm^3
# Si number density = 22.080355 Si / 1000 Ang^3
#
#
#
# Elastic Constant Matrix: (Units=GPa)
#
#
# Indices 1 2 3 4 5 6 
#
# 1 105.7020 14.5446 50.1828 -0.5274 -14.8395 -25.1969
# 2 14.5446 98.3690 47.1542 -7.0982 -2.0503 -43.5157
# 3 50.1828 47.1542 159.5360 25.9445 -1.2517 -32.2742
# 4 -0.5274 -7.0982 25.9445 31.0279 -10.6306 4.4821
# 5 -14.8395 -2.0503 -1.2517 -10.6306 22.2125 3.0442
# 6 -25.1969 -43.5157 -32.2742 4.4821 3.0442 36.9716
#
#
#
# Elastic Compliance Matrix: (Units=1/GPa)
#
#
# Indices 1 2 3 4 5 6 
#
# 1 0.016330 0.006448 -0.006580 0.010851 0.014897 0.010433
# 2 0.006448 0.024354 -0.005005 0.008151 0.006451 0.027171
# 3 -0.006580 -0.005005 0.013569 -0.017834 -0.013276 0.004725
# 4 0.010851 0.008151 -0.017834 0.063886 0.038877 -0.009525
# 5 0.014897 0.006451 -0.013276 0.038877 0.074063 -0.004655
# 6 0.010433 0.027171 0.004725 -0.009525 -0.004655 0.071800
#
#
# Mechanical properties :
#
#
# Convention : Reuss Voigt Hill
#
# Bulk Modulus (GPa) = 22.73789 65.26335 44.00062
# Shear Modulus (GPa) = 17.30494 34.82411 26.06453
#
# Velocity S-wave (km/s) = 2.80255 3.97565 3.43948
# Velocity P-wave (km/s) = 4.55988 7.12009 5.97864
#
# Compressibility (1/GPa) = 0.04397946
#
# Stress axis : x y z
#
# Youngs Moduli (GPa) = 61.23879 41.06154 73.69656
#
# Poissons Ratio (x) = -0.26477 0.48491
# Poissons Ratio (y) = -0.39488 0.36885
# Poissons Ratio (z) = 0.40294 0.20551
#
# Static dielectric constant tensor:
#      x y z
#    x 1.824870 -0.025100 0.017370 
#    y -0.025100 1.844000 0.025720 
#    z 0.017370 0.025720 1.859400 
# 
# From -- ./inp_files/297096.got.cif
#   From: 2010.05.17/outbox.cif.g08.bks.cpg/sg2_149_cif.got.tgz:297096.got - 2010.06.03 11:33:40.
