data_PCOD9019025
_publ_section_title
;
Structure prediction by ZEFSAII (Michael W. Deem and Ramdas Pophale) SiO2 
 PCOD9019025
Probable space group: P -1
;
_chemical_formula_sum "Si O2"
_cell_formula_units_Z 16
_cell_length_a 11.636183
_cell_length_b 11.306777
_cell_length_c 13.345668
_cell_angle_alpha 50.312046
_cell_angle_beta 151.036650
_cell_angle_gamma 123.889704
_cell_volume 654.312260
_symmetry_space_group_name_H-M "P -1"
_symmetry_group_IT_number 2
_symmetry_cell_setting 'triclinic'
loop_
_space_group_symop_operation_xyz
x,y,z
-x,-y,-z
loop_
_atom_site_type_symbol
_atom_site_label
_atom_site_fract_x
_atom_site_fract_y
_atom_site_fract_z
Si Si1 0.977776 0.504770 0.337064
Si Si2 0.598683 0.285354 0.471798
Si Si3 0.657499 0.119150 0.121675
Si Si4 0.925074 0.680880 0.996883
Si Si5 0.184044 0.107576 0.468217
Si Si6 0.794926 0.726261 0.235804
Si Si7 0.592286 0.329915 0.670651
Si Si8 0.866801 0.012117 0.724873
O O1 0.229755 0.584886 0.510241
O O2 0.024094 0.334006 0.506154
O O3 0.797374 0.599896 0.217698
O O4 0.940634 0.556545 0.166341
O O5 0.333696 0.343930 0.231059
O O6 0.651782 0.267857 0.638638
O O7 0.675597 0.131198 0.557671
O O8 0.908963 0.156261 0.242283
O O9 0.750681 0.040888 0.336762
O O10 0.466172 0.248249 0.933538
O O11 0.500000 0.000000 0.000000
O O12 0.913435 0.866143 0.911751
O O13 0.138770 0.665387 0.087864
O O14 0.371471 0.229490 0.590411
O O15 0.221620 0.063904 0.404926
O O16 0.903156 0.884173 0.185738
O O17 0.500000 0.500000 0.500000
#
# Coordination Sequence:
#
# PCOD9019025 Si02
#       8
#     2   2   2   2   2   2   2   2
#     4   9  23  42  64 101 140 177 221 270 347 412
#     4  10  23  43  67 105 134 170 229 285 337 408
#     4  11  24  42  69 100 131 181 228 283 346 399
#     4  11  23  43  71 102 132 180 222 284 344 397
#     4  11  25  44  66 106 133 175 237 285 339 404
#     4  10  21  44  67  95 141 180 218 281 336 410
#     4  11  26  44  65  96 141 184 224 272 336 415
#     4  11  22  43  74 103 135 167 232 293 340 399
#
# _framework density 24.453157000000001
#
# number of rings (size 3 to 8) (size 9 to 14) (size 15 to 20)
#    0.000    1.500    2.500    1.125    1.750    8.000 
#    2.250    1.875    0.000    0.000    0.000    0.000 
#    0.000    0.000    0.000    0.000    0.000    0.000 
#
# Total GULP energy -89320.689570 kJ/mol
# GULP energy per Si atom -5582.543098 kJ/mol
# Density = 2.439750 g / cm^3
# Si number density = 24.453157 Si / 1000 Ang^3
#
#
#
# Elastic Constant Matrix: (Units=GPa)
#
#
# Indices 1 2 3 4 5 6 
#
# 1 81.3314 8.5357 44.5190 -1.4805 0.4866 -0.0908
# 2 8.5357 43.8794 10.5689 -2.8022 14.1869 3.7013
# 3 44.5190 10.5689 128.9593 -3.1189 22.8349 -11.6979
# 4 -1.4805 -2.8022 -3.1189 26.5120 10.6966 -0.6876
# 5 0.4866 14.1869 22.8349 10.6966 53.4765 -9.3801
# 6 -0.0908 3.7013 -11.6979 -0.6876 -9.3801 15.3544
#
#
#
# Elastic Compliance Matrix: (Units=1/GPa)
#
#
# Indices 1 2 3 4 5 6 
#
# 1 0.015798 -0.002498 -0.006001 -0.001345 0.002979 -0.002116
# 2 -0.002498 0.028637 -0.000602 0.006952 -0.011141 -0.013871
# 3 -0.006001 -0.000602 0.011225 0.002703 -0.004009 0.006334
# 4 -0.001345 0.006952 0.002703 0.043668 -0.012670 -0.005409
# 5 0.002979 -0.011141 -0.004009 -0.012670 0.028799 0.016676
# 6 -0.002116 -0.013871 0.006334 -0.005409 0.016676 0.083229
#
#
# Mechanical properties :
#
#
# Convention : Reuss Voigt Hill
#
# Bulk Modulus (GPa) = 26.69701 42.37970 34.53835
# Shear Modulus (GPa) = 20.65742 31.77168 26.21455
#
# Velocity S-wave (km/s) = 2.90965 3.60847 3.27774
# Velocity P-wave (km/s) = 4.71481 5.89322 5.33664
#
# Compressibility (1/GPa) = 0.03745738
#
# Stress axis : x y z
#
# Youngs Moduli (GPa) = 63.30051 34.92022 89.08642
#
# Poissons Ratio (x) = 0.08724 0.53460
# Poissons Ratio (y) = 0.15814 0.05362
# Poissons Ratio (z) = 0.37986 0.02102
#
# Static dielectric constant tensor:
#      x y z
#    x 1.981250 0.041830 -0.006760 
#    y 0.041830 2.025530 0.056150 
#    z -0.006760 0.056150 1.973740 
# 
# From -- ./inp_files/518798.got.cif
#   From: 2010.05.17/outbox.cif.g08.bks.cpg/sg2_260_cif.got.tgz:518798.got - 2010.06.03 11:33:40.
