data_PCOD9019759
_publ_section_title
;
Structure prediction by ZEFSAII (Michael W. Deem and Ramdas Pophale) SiO2 
 PCOD9019759
Probable space group: P -1
;
_chemical_formula_sum "Si O2"
_cell_formula_units_Z 15
_cell_length_a 7.796289
_cell_length_b 12.719940
_cell_length_c 17.338592
_cell_angle_alpha 157.239463
_cell_angle_beta 117.501886
_cell_angle_gamma 60.191706
_cell_volume 577.175586
_symmetry_space_group_name_H-M "P -1"
_symmetry_group_IT_number 2
_symmetry_cell_setting 'triclinic'
loop_
_space_group_symop_operation_xyz
x,y,z
-x,-y,-z
loop_
_atom_site_type_symbol
_atom_site_label
_atom_site_fract_x
_atom_site_fract_y
_atom_site_fract_z
Si Si1 0.000000 0.000000 0.500000
Si Si2 0.254653 0.953719 0.673242
Si Si3 0.860185 0.902910 0.596556
Si Si4 0.192603 0.474635 0.808181
Si Si5 0.446401 0.774280 0.893430
Si Si6 0.866142 0.960308 0.874792
Si Si7 0.316028 0.347766 0.475671
Si Si8 0.637887 0.474382 0.868601
O O1 0.151019 0.893015 0.531434
O O2 0.910743 0.713298 0.287948
O O3 0.465844 0.744489 0.577385
O O4 0.086012 0.905868 0.665903
O O5 0.287866 0.266894 0.903640
O O6 0.784027 0.177205 0.712478
O O7 0.841713 0.639895 0.361917
O O8 0.715902 0.883123 0.623994
O O9 0.429757 0.437813 0.838014
O O10 0.104554 0.799529 0.015371
O O11 0.310693 0.623019 0.709397
O O12 0.604440 0.540907 0.815017
O O13 0.500000 0.000000 0.000000
O O14 0.344479 0.932505 0.054492
O O15 0.847457 0.677924 0.639436
O O16 0.000000 0.000000 0.000000
#
# Coordination Sequence:
#
# PCOD9019759 Si02
#       8
#     1   2   2   2   2   2   2   2
#     4  10  24  36  64 110 142 198 236 292 372 452
#     4  11  25  43  70 113 155 189 256 298 381 461
#     4  11  24  42  75 111 151 197 243 308 383 461
#     4  10  21  45  68 102 158 187 248 314 371 444
#     4  11  27  50  74 109 148 198 255 312 375 448
#     4  11  26  51  75 110 143 199 267 308 371 460
#     4  12  25  50  82 104 153 206 235 327 397 428
#     4  11  22  46  71 105 157 192 251 312 371 454
#
# _framework density 25.988626
#
# number of rings (size 3 to 8) (size 9 to 14) (size 15 to 20)
#    0.000    1.067    5.333    1.600    5.600    5.333 
#    4.800    0.000    0.000    0.000    0.000    0.000 
#    0.000    0.000    0.000    0.000    0.000    0.000 
#
# Total GULP energy -83613.327436 kJ/mol
# GULP energy per Si atom -5574.221829 kJ/mol
# Density = 2.592947 g / cm^3
# Si number density = 25.988626 Si / 1000 Ang^3
#
#
#
# Elastic Constant Matrix: (Units=GPa)
#
#
# Indices 1 2 3 4 5 6 
#
# 1 94.4589 26.4905 33.2273 9.3320 30.2904 -12.9911
# 2 26.4905 88.6751 42.3053 -8.7943 20.2224 3.9434
# 3 33.2273 42.3053 169.3446 -31.7319 29.2260 0.8271
# 4 9.3320 -8.7943 -31.7319 55.1202 7.1422 25.0429
# 5 30.2904 20.2224 29.2260 7.1422 49.0019 -0.1823
# 6 -12.9911 3.9434 0.8271 25.0429 -0.1823 27.5394
#
#
#
# Elastic Compliance Matrix: (Units=1/GPa)
#
#
# Indices 1 2 3 4 5 6 
#
# 1 0.022900 -0.006526 -0.006716 -0.023323 -0.003934 0.033122
# 2 -0.006526 0.015976 0.000358 0.011767 -0.004548 -0.016107
# 3 -0.006716 0.000358 0.011362 0.017144 -0.005343 -0.019186
# 4 -0.023323 0.011767 0.017144 0.070414 -0.011215 -0.077307
# 5 -0.003934 -0.004548 -0.005343 -0.011215 0.029572 0.009350
# 6 0.033122 -0.016107 -0.019186 -0.077307 0.009350 0.125180
#
#
# Mechanical properties :
#
#
# Convention : Reuss Voigt Hill
#
# Bulk Modulus (GPa) = 40.86625 61.83610 51.35117
# Shear Modulus (GPa) = 16.16401 43.02934 29.59667
#
# Velocity S-wave (km/s) = 2.49663 4.07344 3.37832
# Velocity P-wave (km/s) = 4.90608 6.78005 5.91772
#
# Compressibility (1/GPa) = 0.02447007
#
# Stress axis : x y z
#
# Youngs Moduli (GPa) = 43.66754 62.59241 88.01489
#
# Poissons Ratio (x) = 0.40847 0.59111
# Poissons Ratio (y) = 0.28497 -0.03148
# Poissons Ratio (z) = 0.29327 -0.02239
#
# Static dielectric constant tensor:
#      x y z
#    x 2.025560 -0.113110 -0.165740 
#    y -0.113110 2.116120 0.026450 
#    z -0.165740 0.026450 2.016970 
# 
# From -- ./inp_files/590363.got.cif
#   From: 2010.05.17/outbox.cif.g08.bks.cpg/sg2_296_cif.got.tgz:590363.got - 2010.06.03 11:33:40.
