data_PCOD9019243
_publ_section_title
;
Structure prediction by ZEFSAII (Michael W. Deem and Ramdas Pophale) SiO2 
 PCOD9019243
Probable space group: P -1
;
_chemical_formula_sum "Si O2"
_cell_formula_units_Z 14
_cell_length_a 7.294460
_cell_length_b 11.424108
_cell_length_c 7.950897
_cell_angle_alpha 104.953271
_cell_angle_beta 52.689304
_cell_angle_gamma 109.603235
_cell_volume 495.113792
_symmetry_space_group_name_H-M "P -1"
_symmetry_group_IT_number 2
_symmetry_cell_setting 'triclinic'
loop_
_space_group_symop_operation_xyz
x,y,z
-x,-y,-z
loop_
_atom_site_type_symbol
_atom_site_label
_atom_site_fract_x
_atom_site_fract_y
_atom_site_fract_z
Si Si1 0.735392 0.011988 0.988284
Si Si2 0.310554 0.838190 0.596551
Si Si3 0.974010 0.590386 0.699738
Si Si4 0.182966 0.168578 0.618881
Si Si5 0.690213 0.580696 0.169791
Si Si6 0.573075 0.684275 0.765254
Si Si7 0.453360 0.768948 0.173128
O O1 0.761494 0.093282 0.175841
O O2 0.692494 0.873700 0.038753
O O3 0.953858 0.067200 0.764730
O O4 0.500000 0.000000 0.000000
O O5 0.594825 0.878044 0.445721
O O6 0.272655 0.827258 0.408329
O O7 0.211772 0.693273 0.644319
O O8 0.782427 0.659681 0.757131
O O9 0.000000 0.500000 0.500000
O O10 0.863094 0.541722 0.921439
O O11 0.178684 0.304953 0.745878
O O12 0.292181 0.206884 0.389481
O O13 0.548888 0.453205 0.285208
O O14 0.510250 0.649749 0.193285
O O15 0.382119 0.726474 0.007533
#
# Coordination Sequence:
#
# PCOD9019243 Si02
#       7
#     2   2   2   2   2   2   2
#     4  12  27  47  71 102 138 186 237 286 344 407
#     4  11  24  45  70 103 137 180 236 281 340 410
#     4  11  21  40  68 104 138 178 233 280 334 417
#     4  11  25  47  69 101 146 179 227 288 350 411
#     4  10  21  44  70 100 140 183 230 284 345 410
#     4  11  23  43  72 102 143 183 223 286 355 405
#     4  10  23  43  71  97 137 178 232 282 338 404
#
# _framework density 28.276330000000002
#
# number of rings (size 3 to 8) (size 9 to 14) (size 15 to 20)
#    0.000    1.143    1.429    6.000    2.000    4.571 
#    5.143    1.429    0.000    0.000    0.000    0.000 
#    0.000    0.000    0.000    0.000    0.000    0.000 
#
# Total GULP energy -78238.947465 kJ/mol
# GULP energy per Si atom -5588.496248 kJ/mol
# Density = 2.821197 g / cm^3
# Si number density = 28.276330 Si / 1000 Ang^3
#
#
#
# Elastic Constant Matrix: (Units=GPa)
#
#
# Indices 1 2 3 4 5 6 
#
# 1 53.8806 -0.7374 18.0834 -15.8849 -7.7251 -2.6294
# 2 -0.7374 165.6052 61.7476 -6.6947 1.0622 17.5353
# 3 18.0834 61.7476 194.1301 0.4217 21.5904 11.6748
# 4 -15.8849 -6.6947 0.4217 78.0742 11.1297 -3.1678
# 5 -7.7251 1.0622 21.5904 11.1297 45.8654 -12.7573
# 6 -2.6294 17.5353 11.6748 -3.1678 -12.7573 34.0077
#
#
#
# Elastic Compliance Matrix: (Units=1/GPa)
#
#
# Indices 1 2 3 4 5 6 
#
# 1 0.021854 0.000925 -0.003244 0.003945 0.005559 0.004779
# 2 0.000925 0.007191 -0.002218 0.000691 0.000094 -0.002775
# 3 -0.003244 -0.002218 0.006854 -0.000373 -0.004518 -0.003190
# 4 0.003945 0.000691 -0.000373 0.014041 -0.002454 0.000464
# 5 0.005559 0.000094 -0.004518 -0.002454 0.028955 0.012566
# 6 0.004779 -0.002775 -0.003190 0.000464 0.012566 0.037058
#
#
# Mechanical properties :
#
#
# Convention : Reuss Voigt Hill
#
# Bulk Modulus (GPa) = 37.28073 63.53370 50.40722
# Shear Modulus (GPa) = 37.32211 53.89094 45.60653
#
# Velocity S-wave (km/s) = 3.63699 4.37036 4.02043
# Velocity P-wave (km/s) = 5.55428 6.92708 6.27831
#
# Compressibility (1/GPa) = 0.02682351
#
# Stress axis : x y z
#
# Youngs Moduli (GPa) = 45.75796 139.06450 145.89761
#
# Poissons Ratio (x) = -0.12858 0.47330
# Poissons Ratio (y) = -0.04231 0.32366
# Poissons Ratio (z) = 0.14844 0.30850
#
# Static dielectric constant tensor:
#      x y z
#    x 2.318650 0.006700 0.063470 
#    y 0.006700 2.210080 0.100070 
#    z 0.063470 0.100070 2.304010 
# 
# From -- ./inp_files/188973.got.cif
#   From: 2010.05.17/outbox.cif.g08.bks.cpg/sg2_95_cif.got.tgz:188973.got - 2010.06.03 11:33:40.
