data_PCOD9019178
_publ_section_title
;
Structure prediction by ZEFSAII (Michael W. Deem and Ramdas Pophale) SiO2 
 PCOD9019178
Probable space group: P -1
;
_chemical_formula_sum "Si O2"
_cell_formula_units_Z 16
_cell_length_a 13.009027
_cell_length_b 19.184445
_cell_length_c 9.245235
_cell_angle_alpha 134.778089
_cell_angle_beta 24.391375
_cell_angle_gamma 140.638367
_cell_volume 604.314003
_symmetry_space_group_name_H-M "P -1"
_symmetry_group_IT_number 2
_symmetry_cell_setting 'triclinic'
loop_
_space_group_symop_operation_xyz
x,y,z
-x,-y,-z
loop_
_atom_site_type_symbol
_atom_site_label
_atom_site_fract_x
_atom_site_fract_y
_atom_site_fract_z
Si Si1 0.354779 0.680918 0.610638
Si Si2 0.769294 0.969104 0.121388
Si Si3 0.513531 0.495305 0.146203
Si Si4 0.466402 0.130049 0.124447
Si Si5 0.767882 0.495954 0.089361
Si Si6 0.104469 0.906482 0.142813
Si Si7 0.074884 0.691562 0.379700
Si Si8 0.699084 0.246566 0.510129
O O1 0.504636 0.609057 0.368534
O O2 0.451015 0.799906 0.731150
O O3 0.371175 0.686332 0.423244
O O4 0.036609 0.604148 0.946357
O O5 0.592929 0.838473 0.168595
O O6 0.500000 0.000000 0.500000
O O7 0.929917 0.025946 0.852877
O O8 0.000000 0.000000 0.000000
O O9 0.759340 0.494391 0.923178
O O10 0.240652 0.382881 0.372081
O O11 0.500000 0.500000 0.000000
O O12 0.182111 0.141936 0.472069
O O13 0.351644 0.999744 0.055253
O O14 0.733969 0.192488 0.769886
O O15 0.500000 0.500000 0.500000
O O16 0.781505 0.386289 0.957036
O O17 0.175389 0.817298 0.845809
O O18 0.096539 0.704549 0.544995
#
# Coordination Sequence:
#
# PCOD9019178 Si02
#       8
#     2   2   2   2   2   2   2   2
#     4  11  25  41  69 101 135 179 236 287 354 436
#     4  10  21  44  69 102 141 191 245 309 364 428
#     4  11  24  44  69  99 139 177 226 295 356 429
#     4  11  23  44  67 102 140 184 236 293 354 435
#     4  11  24  44  66 100 138 179 222 292 361 431
#     4  10  24  43  71  98 145 186 238 295 357 431
#     4  11  24  43  69 105 137 177 242 284 355 443
#     4  11  23  43  69 102 138 188 237 293 359 428
#
# _framework density 26.476302
#
# number of rings (size 3 to 8) (size 9 to 14) (size 15 to 20)
#    0.000    1.250    1.250    3.750    5.250    4.500 
#    4.500    2.500    0.000    0.000    0.000    0.000 
#    0.000    0.000    0.000    0.000    0.000    0.000 
#
# Total GULP energy -89446.501513 kJ/mol
# GULP energy per Si atom -5590.406345 kJ/mol
# Density = 2.641604 g / cm^3
# Si number density = 26.476302 Si / 1000 Ang^3
#
#
#
# Elastic Constant Matrix: (Units=GPa)
#
#
# Indices 1 2 3 4 5 6 
#
# 1 146.5957 16.9769 -3.3688 3.4220 5.1023 28.6358
# 2 16.9769 117.1879 25.7694 -1.1165 -11.4241 29.4777
# 3 -3.3688 25.7694 67.5393 7.3156 6.3011 3.9190
# 4 3.4220 -1.1165 7.3156 37.1363 5.2288 5.9480
# 5 5.1023 -11.4241 6.3011 5.2288 30.4438 -0.9490
# 6 28.6358 29.4777 3.9190 5.9480 -0.9490 50.1238
#
#
#
# Elastic Compliance Matrix: (Units=1/GPa)
#
#
# Indices 1 2 3 4 5 6 
#
# 1 0.007799 -0.000435 0.000972 0.000022 -0.001810 -0.004313
# 2 -0.000435 0.011759 -0.004782 0.001657 0.004991 -0.006395
# 3 0.000972 -0.004782 0.017418 -0.003151 -0.004985 0.001175
# 4 0.000022 0.001657 -0.003151 0.028811 -0.003810 -0.004232
# 5 -0.001810 0.004991 -0.004985 -0.003810 0.036698 -0.000365
# 6 -0.004313 -0.006395 0.001175 -0.004232 -0.000365 0.026579
#
#
# Mechanical properties :
#
#
# Convention : Reuss Voigt Hill
#
# Bulk Modulus (GPa) = 35.10710 45.56421 40.33565
# Shear Modulus (GPa) = 34.00214 43.00380 38.50297
#
# Velocity S-wave (km/s) = 3.58753 4.03456 3.81759
# Velocity P-wave (km/s) = 5.51807 6.24102 5.89064
#
# Compressibility (1/GPa) = 0.02848427
#
# Stress axis : x y z
#
# Youngs Moduli (GPa) = 128.22011 85.04147 57.41349
#
# Poissons Ratio (x) = 0.03698 -0.05578
# Poissons Ratio (y) = 0.05576 0.27457
# Poissons Ratio (z) = -0.12458 0.40670
#
# Static dielectric constant tensor:
#      x y z
#    x 2.137490 -0.007010 0.020330 
#    y -0.007010 2.072720 0.026110 
#    z 0.020330 0.026110 2.110100 
# 
# From -- ./inp_files/283186.got.cif
#   From: 2010.05.17/outbox.cif.g08.bks.cpg/sg2_142_cif.got.tgz:283186.got - 2010.06.03 11:33:40.
