data_PCOD9019621
_publ_section_title
;
Structure prediction by ZEFSAII (Michael W. Deem and Ramdas Pophale) SiO2 
 PCOD9019621
Probable space group: P -1
;
_chemical_formula_sum "Si O2"
_cell_formula_units_Z 12
_cell_length_a 7.552716
_cell_length_b 10.167586
_cell_length_c 8.508670
_cell_angle_alpha 62.065256
_cell_angle_beta 128.495511
_cell_angle_gamma 110.102456
_cell_volume 450.521255
_symmetry_space_group_name_H-M "P -1"
_symmetry_group_IT_number 2
_symmetry_cell_setting 'triclinic'
loop_
_space_group_symop_operation_xyz
x,y,z
-x,-y,-z
loop_
_atom_site_type_symbol
_atom_site_label
_atom_site_fract_x
_atom_site_fract_y
_atom_site_fract_z
Si Si1 0.277160 0.503110 0.186521
Si Si2 0.740572 0.531248 0.312255
Si Si3 0.806134 0.906523 0.345428
Si Si4 0.911808 0.359646 0.266780
Si Si5 0.699585 0.055851 0.867764
Si Si6 0.829746 0.766362 0.967868
O O1 0.545205 0.521628 0.336394
O O2 0.104642 0.487031 0.243611
O O3 0.228146 0.345727 0.148167
O O4 0.217735 0.647696 0.968470
O O5 0.000000 0.500000 0.500000
O O6 0.704253 0.394610 0.243909
O O7 0.743812 0.676425 0.125159
O O8 0.929612 0.753557 0.501412
O O9 0.764668 0.981359 0.112783
O O10 0.556056 0.894142 0.292567
O O11 0.000000 0.000000 0.500000
O O12 0.902421 0.183454 0.885868
O O13 0.718282 0.925463 0.820684
#
# Coordination Sequence:
#
# PCOD9019621 Si02
#       6
#     2   2   2   2   2   2
#     4  10  23  42  70  94 129 173 218 274 329 390
#     4  11  24  40  67  98 129 171 219 273 333 387
#     4  11  24  41  66  97 131 175 218 265 330 389
#     4  10  22  43  63  98 125 170 220 265 333 382
#     4  10  24  43  65  95 132 174 217 270 318 393
#     4  10  21  45  63  90 131 167 217 272 322 382
#
# _framework density 26.635812999999999
#
# number of rings (size 3 to 8) (size 9 to 14) (size 15 to 20)
#    0.000    1.667    0.000    4.000    7.000    0.667 
#   12.000    2.500    0.000    0.000    0.000    0.000 
#    0.000    0.000    0.000    0.000    0.000    0.000 
#
# Total GULP energy -66934.901041 kJ/mol
# GULP energy per Si atom -5577.908420 kJ/mol
# Density = 2.657519 g / cm^3
# Si number density = 26.635813 Si / 1000 Ang^3
#
#
#
# Elastic Constant Matrix: (Units=GPa)
#
#
# Indices 1 2 3 4 5 6 
#
# 1 150.7535 15.2626 28.5466 2.8169 44.1910 23.7503
# 2 15.2626 110.0616 31.2747 -5.4099 26.5997 -1.4917
# 3 28.5466 31.2747 129.7325 7.2524 33.3077 9.8901
# 4 2.8169 -5.4099 7.2524 41.4597 2.4233 10.5936
# 5 44.1910 26.5997 33.3077 2.4233 47.2465 12.3601
# 6 23.7503 -1.4917 9.8901 10.5936 12.3601 39.0724
#
#
#
# Elastic Compliance Matrix: (Units=1/GPa)
#
#
# Indices 1 2 3 4 5 6 
#
# 1 0.009569 0.000709 0.000148 0.000765 -0.008629 -0.003305
# 2 0.000709 0.011056 -0.001386 0.001508 -0.006509 0.001992
# 3 0.000148 -0.001386 0.009658 -0.001455 -0.006016 -0.000290
# 4 0.000765 0.001508 -0.001455 0.026355 -0.000013 -0.007181
# 5 -0.008629 -0.006509 -0.006016 -0.000013 0.038633 -0.005698
# 6 -0.003305 0.001992 -0.000290 -0.007181 -0.005698 0.031501
#
#
# Mechanical properties :
#
#
# Convention : Reuss Voigt Hill
#
# Bulk Modulus (GPa) = 34.21849 60.07950 47.14900
# Shear Modulus (GPa) = 36.34470 46.58663 41.46567
#
# Velocity S-wave (km/s) = 3.69793 4.18667 3.94986
# Velocity P-wave (km/s) = 5.57742 6.78055 6.20820
#
# Compressibility (1/GPa) = 0.02922396
#
# Stress axis : x y z
#
# Youngs Moduli (GPa) = 104.50145 90.45204 103.54346
#
# Poissons Ratio (x) = -0.06414 -0.01531
# Poissons Ratio (y) = -0.07411 0.14355
# Poissons Ratio (z) = -0.01545 0.12540
#
# Static dielectric constant tensor:
#      x y z
#    x 2.190640 -0.425090 -0.119660 
#    y -0.425090 3.002960 0.240170 
#    z -0.119660 0.240170 2.184750 
# 
# From -- ./inp_files/301818.got.cif
#   From: 2010.05.17/outbox.cif.g08.bks.cpg/sg2_151_cif.got.tgz:301818.got - 2010.06.03 11:33:40.
