data_PCOD9019234
_publ_section_title
;
Structure prediction by ZEFSAII (Michael W. Deem and Ramdas Pophale) SiO2 
 PCOD9019234
Probable space group: P -1
;
_chemical_formula_sum "Si O2"
_cell_formula_units_Z 14
_cell_length_a 12.188865
_cell_length_b 7.239455
_cell_length_c 11.215729
_cell_angle_alpha 102.352810
_cell_angle_beta 126.869235
_cell_angle_gamma 56.350129
_cell_volume 648.563178
_symmetry_space_group_name_H-M "P -1"
_symmetry_group_IT_number 2
_symmetry_cell_setting 'triclinic'
loop_
_space_group_symop_operation_xyz
x,y,z
-x,-y,-z
loop_
_atom_site_type_symbol
_atom_site_label
_atom_site_fract_x
_atom_site_fract_y
_atom_site_fract_z
Si Si1 0.796716 0.513729 0.883956
Si Si2 0.574246 0.153116 0.576949
Si Si3 0.552971 0.386403 0.358369
Si Si4 0.896380 0.761687 0.814126
Si Si5 0.336837 0.682896 0.846735
Si Si6 0.912928 0.477462 0.326206
Si Si7 0.689585 0.884319 0.071129
O O1 0.641430 0.505109 0.754289
O O2 0.854252 0.587515 0.817336
O O3 0.734203 0.719640 0.965492
O O4 0.947974 0.293360 0.013311
O O5 0.618097 0.206327 0.482723
O O6 0.439614 0.397563 0.576041
O O7 0.500000 0.000000 0.500000
O O8 0.735911 0.009779 0.742795
O O9 0.620081 0.297361 0.259059
O O10 0.955147 0.688558 0.707844
O O11 0.207742 0.610278 0.747014
O O12 0.276013 0.921289 0.901199
O O13 0.500000 0.500000 0.000000
O O14 0.801797 0.722457 0.227651
O O15 0.000000 0.500000 0.500000
O O16 0.500000 0.000000 0.000000
#
# Coordination Sequence:
#
# PCOD9019234 Si02
#       7
#     2   2   2   2   2   2   2
#     4  10  21  44  69  99 127 174 223 278 330 397
#     4  11  25  43  67  97 132 175 215 277 339 388
#     4  11  25  42  69 102 125 169 239 267 325 415
#     4  10  23  44  65  93 139 171 214 275 339 389
#     4  12  25  43  71 100 135 178 229 276 334 402
#     4  11  27  44  66 100 138 179 223 277 343 400
#     4  11  22  44  71  99 132 174 227 280 330 401
#
# _framework density 21.586178
#
# number of rings (size 3 to 8) (size 9 to 14) (size 15 to 20)
#    0.000    1.143    4.286    0.857    6.000    1.143 
#    7.714    0.000    0.000    0.000    0.000    0.000 
#    0.000    0.000    0.000    0.000    0.000    0.000 
#
# Total GULP energy -78280.960465 kJ/mol
# GULP energy per Si atom -5591.497176 kJ/mol
# Density = 2.153705 g / cm^3
# Si number density = 21.586178 Si / 1000 Ang^3
#
#
#
# Elastic Constant Matrix: (Units=GPa)
#
#
# Indices 1 2 3 4 5 6 
#
# 1 63.7981 -4.6131 13.7053 4.4303 1.4153 5.8714
# 2 -4.6131 110.6686 32.8424 -8.6735 14.2102 18.1197
# 3 13.7053 32.8424 94.6964 -2.4748 8.1878 11.8729
# 4 4.4303 -8.6735 -2.4748 34.0389 5.7872 9.0312
# 5 1.4153 14.2102 8.1878 5.7872 35.8469 2.2990
# 6 5.8714 18.1197 11.8729 9.0312 2.2990 24.4701
#
#
#
# Elastic Compliance Matrix: (Units=1/GPa)
#
#
# Indices 1 2 3 4 5 6 
#
# 1 0.016833 0.002174 -0.002649 -0.000656 -0.000554 -0.004069
# 2 0.002174 0.012827 -0.002853 0.006404 -0.004877 -0.010541
# 3 -0.002649 -0.002853 0.012617 0.001859 -0.001696 -0.003900
# 4 -0.000656 0.006404 0.001859 0.037488 -0.007797 -0.018590
# 5 -0.000554 -0.004877 -0.001696 -0.007797 0.031208 0.004513
# 6 -0.004069 -0.010541 -0.003900 -0.018590 0.004513 0.057977
#
#
# Mechanical properties :
#
#
# Convention : Reuss Voigt Hill
#
# Bulk Modulus (GPa) = 28.07293 39.22581 33.64937
# Shear Modulus (GPa) = 26.66934 34.01976 30.34455
#
# Velocity S-wave (km/s) = 3.51876 3.97419 3.75339
# Velocity P-wave (km/s) = 5.43527 6.26659 5.86567
#
# Compressibility (1/GPa) = 0.03562151
#
# Stress axis : x y z
#
# Youngs Moduli (GPa) = 59.40689 77.95941 79.25754
#
# Poissons Ratio (x) = -0.16948 0.20997
# Poissons Ratio (y) = -0.12915 0.22609
# Poissons Ratio (z) = 0.15738 0.22239
#
# Static dielectric constant tensor:
#      x y z
#    x 1.801810 0.006090 0.008970 
#    y 0.006090 1.797000 0.015790 
#    z 0.008970 0.015790 1.792400 
# 
# From -- ./inp_files/410935.got.cif
#   From: 2010.05.17/outbox.cif.g08.bks.cpg/sg2_206_cif.got.tgz:410935.got - 2010.06.03 11:33:40.
