data_PCOD9019640
_publ_section_title
;
Structure prediction by ZEFSAII (Michael W. Deem and Ramdas Pophale) SiO2 
 PCOD9019640
Probable space group: P -1
;
_chemical_formula_sum "Si O2"
_cell_formula_units_Z 16
_cell_length_a 15.668503
_cell_length_b 16.628905
_cell_length_c 12.627862
_cell_angle_alpha 35.340675
_cell_angle_beta 26.218768
_cell_angle_gamma 32.021001
_cell_volume 749.116252
_symmetry_space_group_name_H-M "P -1"
_symmetry_group_IT_number 2
_symmetry_cell_setting 'triclinic'
loop_
_space_group_symop_operation_xyz
x,y,z
-x,-y,-z
loop_
_atom_site_type_symbol
_atom_site_label
_atom_site_fract_x
_atom_site_fract_y
_atom_site_fract_z
Si Si1 0.543904 0.452522 0.343911
Si Si2 0.212614 0.448980 0.889568
Si Si3 0.358181 0.749510 0.926612
Si Si4 0.254585 0.812869 0.206098
Si Si5 0.807790 0.478593 0.683952
Si Si6 0.203357 0.142477 0.260221
Si Si7 0.326822 0.075737 0.962148
Si Si8 0.419744 0.289057 0.483208
O O1 0.405112 0.417385 0.626014
O O2 0.760355 0.439217 0.173395
O O3 0.405200 0.633484 0.267367
O O4 0.559575 0.340063 0.350991
O O5 0.238272 0.292845 0.085161
O O6 0.000000 0.500000 0.000000
O O7 0.581650 0.591137 0.873268
O O8 0.431928 0.808542 0.676510
O O9 0.293186 0.838783 0.012454
O O10 0.182517 0.690437 0.152062
O O11 0.008624 0.844616 0.462286
O O12 0.293472 0.935481 0.101429
O O13 0.761024 0.552566 0.539118
O O14 0.000000 0.500000 0.500000
O O15 0.421664 0.992040 0.209745
O O16 0.184084 0.139109 0.157994
O O17 0.302590 0.204618 0.765470
#
# Coordination Sequence:
#
# PCOD9019640 Si02
#       8
#     2   2   2   2   2   2   2   2
#     4  11  21  39  68  93 129 160 209 277 310 366
#     4  11  22  39  64 100 123 160 220 265 315 378
#     4   9  21  40  61  94 130 153 213 266 308 375
#     4  12  22  42  65  91 127 171 208 263 323 373
#     4   9  18  39  67  96 126 165 207 265 321 369
#     4  11  24  42  63  91 127 170 215 262 321 383
#     4  11  25  44  62  88 131 171 215 261 318 385
#     4  10  21  45  64  94 131 167 207 266 317 374
#
# _framework density 21.358498999999998
#
# number of rings (size 3 to 8) (size 9 to 14) (size 15 to 20)
#    0.750    0.750    5.000    0.375    0.000    1.500 
#   11.250    0.625    0.000    0.000    0.000    0.000 
#    0.000    0.000    0.000    0.000    0.000    0.000 
#
# Total GULP energy -89287.203536 kJ/mol
# GULP energy per Si atom -5580.450221 kJ/mol
# Density = 2.130989 g / cm^3
# Si number density = 21.358499 Si / 1000 Ang^3
#
#
#
# Elastic Constant Matrix: (Units=GPa)
#
#
# Indices 1 2 3 4 5 6 
#
# 1 81.1273 2.9821 36.4513 12.5915 -19.2069 13.6299
# 2 2.9821 25.7995 14.1796 2.9348 -4.9557 12.3955
# 3 36.4513 14.1796 76.9488 2.7407 -1.0066 19.7331
# 4 12.5915 2.9348 2.7407 26.0313 2.9346 1.2238
# 5 -19.2069 -4.9557 -1.0066 2.9346 40.8287 -1.1536
# 6 13.6299 12.3955 19.7331 1.2238 -1.1536 23.8869
#
#
#
# Elastic Compliance Matrix: (Units=1/GPa)
#
#
# Indices 1 2 3 4 5 6 
#
# 1 0.022716 0.011022 -0.009794 -0.012156 0.012392 -0.009369
# 2 0.011022 0.059690 -0.008125 -0.011200 0.012204 -0.029388
# 3 -0.009794 -0.008125 0.020953 0.004458 -0.005624 -0.008004
# 4 -0.012156 -0.011200 0.004458 0.045934 -0.010094 0.006225
# 5 0.012392 0.012204 -0.005624 -0.010094 0.032201 -0.006686
# 6 -0.009369 -0.029388 -0.008004 0.006225 -0.006686 0.068430
#
#
# Mechanical properties :
#
#
# Convention : Reuss Voigt Hill
#
# Bulk Modulus (GPa) = 11.16527 32.34462 21.75495
# Shear Modulus (GPa) = 17.03144 26.83358 21.93251
#
# Velocity S-wave (km/s) = 2.82690 3.54834 3.20797
# Velocity P-wave (km/s) = 3.98674 5.65368 4.89174
#
# Compressibility (1/GPa) = 0.08956341
#
# Stress axis : x y z
#
# Youngs Moduli (GPa) = 44.02136 16.75319 47.72629
#
# Poissons Ratio (x) = -0.18465 0.46744
# Poissons Ratio (y) = -0.48519 0.38780
# Poissons Ratio (z) = 0.43115 0.13613
#
# Static dielectric constant tensor:
#      x y z
#    x 1.810980 -0.021370 0.029370 
#    y -0.021370 1.801920 -0.001480 
#    z 0.029370 -0.001480 1.752060 
# 
# From -- ./inp_files/454462.got.cif
#   From: 2010.05.17/outbox.cif.g08.bks.cpg/sg2_228_cif.got.tgz:454462.got - 2010.06.03 11:33:40.
