data_PCOD9019011
_publ_section_title
;
Structure prediction by ZEFSAII (Michael W. Deem and Ramdas Pophale) SiO2 
 PCOD9019011
Probable space group: P -1
;
_chemical_formula_sum "Si O2"
_cell_formula_units_Z 14
_cell_length_a 11.562248
_cell_length_b 7.566909
_cell_length_c 7.512509
_cell_angle_alpha 118.276980
_cell_angle_beta 91.103047
_cell_angle_gamma 86.803099
_cell_volume 577.919140
_symmetry_space_group_name_H-M "P -1"
_symmetry_group_IT_number 2
_symmetry_cell_setting 'triclinic'
loop_
_space_group_symop_operation_xyz
x,y,z
-x,-y,-z
loop_
_atom_site_type_symbol
_atom_site_label
_atom_site_fract_x
_atom_site_fract_y
_atom_site_fract_z
Si Si1 0.505436 0.976971 0.770885
Si Si2 0.649555 0.574588 0.569027
Si Si3 0.608829 0.378945 0.849907
Si Si4 0.721085 0.168050 0.253225
Si Si5 0.140812 0.479318 0.953661
Si Si6 0.936441 0.331164 0.318124
Si Si7 0.167849 0.171622 0.107342
O O1 0.566664 0.766126 0.616355
O O2 0.369906 0.966326 0.716120
O O3 0.572817 0.152737 0.769533
O O4 0.500000 0.000000 0.000000
O O5 0.608525 0.464558 0.692109
O O6 0.659920 0.391878 0.341570
O O7 0.764901 0.683028 0.689576
O O8 0.500000 0.500000 0.000000
O O9 0.743332 0.407863 0.925830
O O10 0.841443 0.218785 0.374676
O O11 0.765822 0.043523 0.021489
O O12 0.131216 0.546395 0.781661
O O13 0.167901 0.268425 0.955431
O O14 0.000000 0.500000 0.000000
O O15 0.000000 0.500000 0.500000
O O16 0.037076 0.177751 0.175670
#
# Coordination Sequence:
#
# PCOD9019011 Si02
#       7
#     2   2   2   2   2   2   2
#     4  12  22  41  67 100 134 182 228 277 351 411
#     4  11  24  43  66  99 139 174 234 283 337 414
#     4  11  22  42  73 100 139 185 228 286 351 416
#     4  12  24  42  66  97 139 176 229 289 337 409
#     4   9  21  41  69  99 135 181 228 282 350 411
#     4  11  22  41  70  99 134 179 231 284 344 413
#     4  10  21  44  67  94 134 181 222 279 351 408
#
# _framework density 24.224841000000001
#
# number of rings (size 3 to 8) (size 9 to 14) (size 15 to 20)
#    0.000    1.143    4.286    2.571    0.000    0.571 
#    2.571    0.714    0.000    0.000    0.000    0.000 
#    0.000    0.000    0.000    0.000    0.000    0.000 
#
# Total GULP energy -77999.353921 kJ/mol
# GULP energy per Si atom -5571.382423 kJ/mol
# Density = 2.416970 g / cm^3
# Si number density = 24.224841 Si / 1000 Ang^3
#
#
#
# Elastic Constant Matrix: (Units=GPa)
#
#
# Indices 1 2 3 4 5 6 
#
# 1 204.4025 75.3211 49.1447 17.8948 5.4549 33.3383
# 2 75.3211 119.6476 41.4963 22.7920 0.1327 16.4006
# 3 49.1447 41.4963 95.3660 36.9762 -7.6339 -1.6895
# 4 17.8948 22.7920 36.9762 42.8166 1.0694 -0.0423
# 5 5.4549 0.1327 -7.6339 1.0694 42.4091 10.4634
# 6 33.3383 16.4006 -1.6895 -0.0423 10.4634 49.4251
#
#
#
# Elastic Compliance Matrix: (Units=1/GPa)
#
#
# Indices 1 2 3 4 5 6 
#
# 1 0.007355 -0.003320 -0.002939 0.001241 -0.000548 -0.003843
# 2 -0.003320 0.012121 -0.002386 -0.003019 0.000524 -0.001978
# 3 -0.002939 -0.002386 0.018679 -0.013716 0.003434 0.002674
# 4 0.001241 -0.003019 -0.013716 0.036381 -0.003660 0.000502
# 5 -0.000548 0.000524 0.003434 -0.003660 0.025621 -0.005114
# 6 -0.003843 -0.001978 0.002674 0.000502 -0.005114 0.024655
#
#
# Mechanical properties :
#
#
# Convention : Reuss Voigt Hill
#
# Bulk Modulus (GPa) = 47.92537 83.48227 65.70382
# Shear Modulus (GPa) = 33.54447 43.82710 38.68579
#
# Velocity S-wave (km/s) = 3.72521 4.25806 4.00052
# Velocity P-wave (km/s) = 6.19108 7.66231 6.96565
#
# Compressibility (1/GPa) = 0.02086578
#
# Stress axis : x y z
#
# Youngs Moduli (GPa) = 135.96164 82.50155 53.53698
#
# Poissons Ratio (x) = 0.27390 0.15733
# Poissons Ratio (y) = 0.45139 0.12772
# Poissons Ratio (z) = 0.39956 0.19682
#
# Static dielectric constant tensor:
#      x y z
#    x 2.077450 0.034160 0.018310 
#    y 0.034160 1.922810 0.036040 
#    z 0.018310 0.036040 1.999540 
# 
# From -- ./inp_files/241345.got.cif
#   From: 2010.05.17/outbox.cif.g08.bks.cpg/sg2_121_cif.got.tgz:241345.got - 2010.06.03 11:33:40.
