data_PCOD9019005
_publ_section_title
;
Structure prediction by ZEFSAII (Michael W. Deem and Ramdas Pophale) SiO2 
 PCOD9019005
Probable space group: P -1
;
_chemical_formula_sum "Si O2"
_cell_formula_units_Z 14
_cell_length_a 8.128438
_cell_length_b 12.025736
_cell_length_c 8.391910
_cell_angle_alpha 108.727282
_cell_angle_beta 49.174080
_cell_angle_gamma 107.220677
_cell_volume 583.603783
_symmetry_space_group_name_H-M "P -1"
_symmetry_group_IT_number 2
_symmetry_cell_setting 'triclinic'
loop_
_space_group_symop_operation_xyz
x,y,z
-x,-y,-z
loop_
_atom_site_type_symbol
_atom_site_label
_atom_site_fract_x
_atom_site_fract_y
_atom_site_fract_z
Si Si1 0.993464 0.308059 0.663078
Si Si2 0.076353 0.906347 0.149936
Si Si3 0.245855 0.807106 0.704491
Si Si4 0.624263 0.824559 0.229408
Si Si5 0.730947 0.465245 0.391463
Si Si6 0.815964 0.831731 0.784497
Si Si7 0.396962 0.589522 0.218309
O O1 0.933017 0.202452 0.775131
O O2 0.776393 0.335515 0.720797
O O3 0.086931 0.433321 0.739332
O O4 0.175383 0.259681 0.407782
O O5 0.842811 0.891802 0.198974
O O6 0.128899 0.034832 0.251590
O O7 0.249616 0.890953 0.892950
O O8 0.425733 0.852501 0.480164
O O9 0.257625 0.674138 0.701759
O O10 0.016309 0.803647 0.757363
O O11 0.595477 0.681533 0.203304
O O12 0.626720 0.834521 0.039386
O O13 0.500000 0.500000 0.500000
O O14 0.735306 0.477080 0.585625
O O15 0.500000 0.500000 0.000000
#
# Coordination Sequence:
#
# PCOD9019005 Si02
#       7
#     2   2   2   2   2   2   2
#     4  12  24  44  65 100 140 171 213 281 334 390
#     4  11  26  41  68  96 134 178 223 271 322 395
#     4  10  22  43  67 101 127 168 230 262 338 386
#     4  10  21  44  67  94 128 175 221 274 318 392
#     4  11  24  42  69  96 131 171 217 276 329 402
#     4  11  23  44  68  95 132 178 225 269 327 386
#     4  11  24  40  66  99 133 173 219 269 340 394
#
# _framework density 23.988879000000001
#
# number of rings (size 3 to 8) (size 9 to 14) (size 15 to 20)
#    0.000    1.143    2.857    5.143    6.000    2.857 
#    2.571    0.714    0.000    0.000    0.000    0.000 
#    0.000    0.000    0.000    0.000    0.000    0.000 
#
# Total GULP energy -78219.087926 kJ/mol
# GULP energy per Si atom -5587.077709 kJ/mol
# Density = 2.393428 g / cm^3
# Si number density = 23.988879 Si / 1000 Ang^3
#
#
#
# Elastic Constant Matrix: (Units=GPa)
#
#
# Indices 1 2 3 4 5 6 
#
# 1 45.5529 16.5071 7.4360 -8.0117 -5.8129 -15.7632
# 2 16.5071 126.0328 29.8364 5.0158 -13.7474 -7.6054
# 3 7.4360 29.8364 93.6483 0.7618 -0.6521 5.6031
# 4 -8.0117 5.0158 0.7618 42.4240 0.5152 5.6293
# 5 -5.8129 -13.7474 -0.6521 0.5152 20.8066 -5.6276
# 6 -15.7632 -7.6054 5.6031 5.6293 -5.6276 37.1116
#
#
#
# Elastic Compliance Matrix: (Units=1/GPa)
#
#
# Indices 1 2 3 4 5 6 
#
# 1 0.029765 -0.001379 -0.002707 0.003862 0.010969 0.013846
# 2 -0.001379 0.009902 -0.003177 -0.001893 0.006989 0.003270
# 3 -0.002707 -0.003177 0.012131 0.000250 -0.003623 -0.004220
# 4 0.003862 -0.001893 0.000250 0.024910 -0.001537 -0.002797
# 5 0.010969 0.006989 -0.003623 -0.001537 0.059987 0.015968
# 6 0.013846 0.003270 -0.004220 -0.002797 0.015968 0.036980
#
#
# Mechanical properties :
#
#
# Convention : Reuss Voigt Hill
#
# Bulk Modulus (GPa) = 26.83104 41.42144 34.12624
# Shear Modulus (GPa) = 24.92209 34.16539 29.54374
#
# Velocity S-wave (km/s) = 3.22670 3.77798 3.51317
# Velocity P-wave (km/s) = 5.00911 6.02787 5.54195
#
# Compressibility (1/GPa) = 0.03727027
#
# Stress axis : x y z
#
# Youngs Moduli (GPa) = 33.59696 100.98775 82.43599
#
# Poissons Ratio (x) = 0.13928 0.22319
# Poissons Ratio (y) = 0.04634 0.26189
# Poissons Ratio (z) = 0.09096 0.32083
#
# Static dielectric constant tensor:
#      x y z
#    x 1.935410 -0.006290 0.010160 
#    y -0.006290 1.927260 -0.036290 
#    z 0.010160 -0.036290 1.984900 
# 
# From -- ./inp_files/181081.got.cif
#   From: 2010.05.17/outbox.cif.g08.bks.cpg/sg2_91_cif.got.tgz:181081.got - 2010.06.03 11:33:40.
