data_PCOD9019157
_publ_section_title
;
Structure prediction by ZEFSAII (Michael W. Deem and Ramdas Pophale) SiO2 
 PCOD9019157
Probable space group: P -1
;
_chemical_formula_sum "Si O2"
_cell_formula_units_Z 12
_cell_length_a 7.869594
_cell_length_b 9.177020
_cell_length_c 11.580085
_cell_angle_alpha 141.765780
_cell_angle_beta 112.978602
_cell_angle_gamma 78.807108
_cell_volume 467.116702
_symmetry_space_group_name_H-M "P -1"
_symmetry_group_IT_number 2
_symmetry_cell_setting 'triclinic'
loop_
_space_group_symop_operation_xyz
x,y,z
-x,-y,-z
loop_
_atom_site_type_symbol
_atom_site_label
_atom_site_fract_x
_atom_site_fract_y
_atom_site_fract_z
Si Si1 0.717283 0.459786 0.888691
Si Si2 0.899761 0.890693 0.071400
Si Si3 0.190884 0.900982 0.500776
Si Si4 0.730563 0.803200 0.727561
Si Si5 0.535871 0.225748 0.909640
Si Si6 0.810426 0.349165 0.414110
O O1 0.738223 0.243445 0.675559
O O2 0.698155 0.368897 0.958601
O O3 0.876852 0.686104 0.034276
O O4 0.533654 0.587371 0.906487
O O5 0.772528 0.090946 0.182781
O O6 0.836805 0.780056 0.861691
O O7 0.109373 0.043741 0.216674
O O8 0.159241 0.724115 0.492214
O O9 0.358740 0.121602 0.715258
O O10 0.000000 0.000000 0.500000
O O11 0.670528 0.537272 0.493740
O O12 0.588953 0.981971 0.818122
O O13 0.000000 0.500000 0.500000
#
# Coordination Sequence:
#
# PCOD9019157 Si02
#       6
#     2   2   2   2   2   2
#     4  11  25  47  66 102 138 178 228 275 335 399
#     4  10  21  44  69 100 133 179 222 270 336 401
#     4  12  27  47  70  98 134 184 229 275 339 400
#     4  10  23  43  71 100 136 174 223 278 336 398
#     4  11  27  46  66 103 138 179 222 283 336 394
#     4  10  22  44  67 104 132 174 227 277 330 399
#
# _framework density 25.689512000000001
#
# number of rings (size 3 to 8) (size 9 to 14) (size 15 to 20)
#    0.000    1.333    3.333    0.500    4.667    6.667 
#    0.000    0.000    0.000    0.000    0.000    0.000 
#    0.000    0.000    0.000    0.000    0.000    0.000 
#
# Total GULP energy -67093.656102 kJ/mol
# GULP energy per Si atom -5591.138009 kJ/mol
# Density = 2.563104 g / cm^3
# Si number density = 25.689512 Si / 1000 Ang^3
#
#
#
# Elastic Constant Matrix: (Units=GPa)
#
#
# Indices 1 2 3 4 5 6 
#
# 1 124.4072 30.2691 32.5647 10.3088 -27.0717 11.3295
# 2 30.2691 105.0655 44.9209 37.3860 -3.6008 5.6784
# 3 32.5647 44.9209 136.2251 36.8475 -33.3758 -7.8577
# 4 10.3088 37.3860 36.8475 45.0778 -5.4348 -12.2196
# 5 -27.0717 -3.6008 -33.3758 -5.4348 44.8739 8.3580
# 6 11.3295 5.6784 -7.8577 -12.2196 8.3580 46.7188
#
#
#
# Elastic Compliance Matrix: (Units=1/GPa)
#
#
# Indices 1 2 3 4 5 6 
#
# 1 0.010458 -0.002345 -0.000193 -0.000466 0.006588 -0.003584
# 2 -0.002345 0.015580 -0.002141 -0.012125 -0.002401 -0.004427
# 3 -0.000193 -0.002141 0.011930 -0.007250 0.007892 -0.000995
# 4 -0.000466 -0.012125 -0.007250 0.041000 -0.003876 0.011785
# 5 0.006588 -0.002401 0.007892 -0.003876 0.032743 -0.006850
# 6 -0.003584 -0.004427 -0.000995 0.011785 -0.006850 0.026952
#
#
# Mechanical properties :
#
#
# Convention : Reuss Voigt Hill
#
# Bulk Modulus (GPa) = 34.95238 64.57857 49.76547
# Shear Modulus (GPa) = 31.73403 44.53032 38.13218
#
# Velocity S-wave (km/s) = 3.51848 4.16793 3.85690
# Velocity P-wave (km/s) = 5.49013 6.95377 6.26484
#
# Compressibility (1/GPa) = 0.02861035
#
# Stress axis : x y z
#
# Youngs Moduli (GPa) = 95.62135 64.18367 83.81939
#
# Poissons Ratio (x) = 0.15051 0.01619
# Poissons Ratio (y) = 0.22422 0.17946
# Poissons Ratio (z) = 0.01847 0.13742
#
# Static dielectric constant tensor:
#      x y z
#    x 2.142320 -0.058280 -0.020260 
#    y -0.058280 2.042650 -0.007880 
#    z -0.020260 -0.007880 2.019740 
# 
# From -- ./inp_files/380804.got.cif
#   From: 2010.05.17/outbox.cif.g08.bks.cpg/sg2_191_cif.got.tgz:380804.got - 2010.06.03 11:33:40.
