data_PCOD9019359
_publ_section_title
;
Structure prediction by ZEFSAII (Michael W. Deem and Ramdas Pophale) SiO2 
 PCOD9019359
Probable space group: P -1
;
_chemical_formula_sum "Si O2"
_cell_formula_units_Z 14
_cell_length_a 11.651987
_cell_length_b 9.728377
_cell_length_c 14.740915
_cell_angle_alpha 61.895528
_cell_angle_beta 150.878306
_cell_angle_gamma 130.564326
_cell_volume 596.118373
_symmetry_space_group_name_H-M "P -1"
_symmetry_group_IT_number 2
_symmetry_cell_setting 'triclinic'
loop_
_space_group_symop_operation_xyz
x,y,z
-x,-y,-z
loop_
_atom_site_type_symbol
_atom_site_label
_atom_site_fract_x
_atom_site_fract_y
_atom_site_fract_z
Si Si1 0.755530 0.881915 0.206660
Si Si2 0.727465 0.866344 0.632167
Si Si3 0.979420 0.670034 0.964947
Si Si4 0.832274 0.225062 0.659115
Si Si5 0.264064 0.708992 0.628125
Si Si6 0.630193 0.553711 0.945142
Si Si7 0.443720 0.989431 0.811165
O O1 0.627481 0.662353 0.174774
O O2 0.690439 0.923117 0.248591
O O3 0.577601 0.920192 0.999245
O O4 0.080421 0.029702 0.355558
O O5 0.391909 0.776904 0.427439
O O6 0.795043 0.717697 0.758782
O O7 0.839372 0.039718 0.726901
O O8 0.826403 0.616289 0.972309
O O9 0.000000 0.500000 0.000000
O O10 0.295958 0.855482 0.118791
O O11 0.710363 0.209494 0.479363
O O12 0.149397 0.403992 0.835594
O O13 0.523286 0.690385 0.836034
O O14 0.233055 0.820172 0.652779
O O15 0.000000 0.500000 0.500000
#
# Coordination Sequence:
#
# PCOD9019359 Si02
#       7
#     2   2   2   2   2   2   2
#     4  10  21  44  71 103 139 190 236 287 362 419
#     4  10  23  44  69 103 147 183 241 294 351 432
#     4  11  22  43  73 107 142 190 241 293 359 425
#     4  11  25  44  72 108 141 187 241 293 360 424
#     4  12  26  46  74 111 143 185 245 297 354 425
#     4  12  24  44  76 103 145 188 238 299 354 421
#     4  10  23  41  73 101 142 188 234 295 355 423
#
# _framework density 23.485267
#
# number of rings (size 3 to 8) (size 9 to 14) (size 15 to 20)
#    0.000    1.143    2.857    3.429    4.000    2.857 
#    0.000    5.000    0.000    0.000    0.000    0.000 
#    0.000    0.000    0.000    0.000    0.000    0.000 
#
# Total GULP energy -78344.641158 kJ/mol
# GULP energy per Si atom -5596.045797 kJ/mol
# Density = 2.343181 g / cm^3
# Si number density = 23.485267 Si / 1000 Ang^3
#
#
#
# Elastic Constant Matrix: (Units=GPa)
#
#
# Indices 1 2 3 4 5 6 
#
# 1 138.4847 30.8006 31.1336 -5.9788 1.1770 -3.5887
# 2 30.8006 112.4889 33.3750 -10.9010 -3.3671 -13.6531
# 3 31.1336 33.3750 97.8037 -1.2504 7.6787 -10.1364
# 4 -5.9788 -10.9010 -1.2504 40.1867 -7.3009 3.1454
# 5 1.1770 -3.3671 7.6787 -7.3009 30.6524 -5.9031
# 6 -3.5887 -13.6531 -10.1364 3.1454 -5.9031 36.2173
#
#
#
# Elastic Compliance Matrix: (Units=1/GPa)
#
#
# Indices 1 2 3 4 5 6 
#
# 1 0.008056 -0.001562 -0.002076 0.000769 0.000142 -0.000415
# 2 -0.001562 0.011067 -0.003156 0.003029 0.003449 0.003433
# 3 -0.002076 -0.003156 0.012382 -0.001529 -0.003416 0.001646
# 4 0.000769 0.003029 -0.001529 0.027087 0.007059 -0.000412
# 5 0.000142 0.003449 -0.003416 0.007059 0.036635 0.005716
# 6 -0.000415 0.003433 0.001646 -0.000412 0.005716 0.030292
#
#
# Mechanical properties :
#
#
# Convention : Reuss Voigt Hill
#
# Bulk Modulus (GPa) = 55.80891 59.93283 57.87087
# Shear Modulus (GPa) = 34.46402 38.30916 36.38659
#
# Velocity S-wave (km/s) = 3.83492 4.04319 3.94043
# Velocity P-wave (km/s) = 6.58967 6.88268 6.73777
#
# Compressibility (1/GPa) = 0.01791829
#
# Stress axis : x y z
#
# Youngs Moduli (GPa) = 124.12694 90.35760 80.76556
#
# Poissons Ratio (x) = 0.14110 0.16767
# Poissons Ratio (y) = 0.19383 0.25488
# Poissons Ratio (z) = 0.25769 0.28515
#
# Static dielectric constant tensor:
#      x y z
#    x 1.919480 0.028150 -0.004940 
#    y 0.028150 1.871560 -0.028930 
#    z -0.004940 -0.028930 1.933980 
# 
# From -- ./inp_files/515258.got.cif
#   From: 2010.05.17/outbox.cif.g08.bks.cpg/sg2_258_cif.got.tgz:515258.got - 2010.06.03 11:33:40.
