data_PCOD9019339
_publ_section_title
;
Structure prediction by ZEFSAII (Michael W. Deem and Ramdas Pophale) SiO2 
 PCOD9019339
Probable space group: P -1
;
_chemical_formula_sum "Si O2"
_cell_formula_units_Z 14
_cell_length_a 4.994121
_cell_length_b 12.134204
_cell_length_c 20.373116
_cell_angle_alpha 30.611227
_cell_angle_beta 79.494279
_cell_angle_gamma 67.876890
_cell_volume 555.459307
_symmetry_space_group_name_H-M "P -1"
_symmetry_group_IT_number 2
_symmetry_cell_setting 'triclinic'
loop_
_space_group_symop_operation_xyz
x,y,z
-x,-y,-z
loop_
_atom_site_type_symbol
_atom_site_label
_atom_site_fract_x
_atom_site_fract_y
_atom_site_fract_z
Si Si1 0.874499 0.860643 0.700189
Si Si2 0.495568 0.900329 0.890237
Si Si3 0.101837 0.885640 0.806670
Si Si4 0.288253 0.692091 0.460483
Si Si5 0.198232 0.443337 0.830157
Si Si6 0.418262 0.798955 0.572455
Si Si7 0.068712 0.403736 0.709675
O O1 0.632259 0.086879 0.636891
O O2 0.849507 0.035445 0.550231
O O3 0.125531 0.758748 0.799537
O O4 0.885591 0.621639 0.789962
O O5 0.381189 0.790991 0.891644
O O6 0.806287 0.906511 0.849338
O O7 0.208775 0.155530 0.790091
O O8 0.586317 0.754308 0.028709
O O9 0.016327 0.154131 0.646003
O O10 0.500000 0.500000 0.500000
O O11 0.237143 0.549737 0.595643
O O12 0.332504 0.632710 0.709364
O O13 0.146166 0.348515 0.811563
O O14 0.717934 0.598460 0.625492
O O15 0.500000 0.000000 0.500000
#
# Coordination Sequence:
#
# PCOD9019339 Si02
#       7
#     2   2   2   2   2   2   2
#     4  10  23  45  71 102 140 183 245 305 363 414
#     4  12  29  46  74 105 151 198 243 287 367 438
#     4  10  27  47  70 108 141 194 248 295 359 428
#     4  10  21  44  71 100 140 178 242 303 360 409
#     4  12  26  48  67 104 150 191 241 295 364 444
#     4  12  25  41  75 107 140 184 241 308 370 423
#     4  12  25  44  73 106 145 187 242 304 364 432
#
# _framework density 25.204363000000001
#
# number of rings (size 3 to 8) (size 9 to 14) (size 15 to 20)
#    0.857    0.000    4.286    1.714    8.000    2.286 
#    0.000    0.000    0.000    0.000    0.000    0.000 
#    0.000    0.000    0.000    0.000    0.000    0.000 
#
# Total GULP energy -77945.209799 kJ/mol
# GULP energy per Si atom -5567.514986 kJ/mol
# Density = 2.514700 g / cm^3
# Si number density = 25.204363 Si / 1000 Ang^3
#
#
#
# Elastic Constant Matrix: (Units=GPa)
#
#
# Indices 1 2 3 4 5 6 
#
# 1 90.7406 27.6325 21.4002 14.5867 13.2217 -5.2159
# 2 27.6325 112.6463 22.3795 6.5378 2.4217 4.3808
# 3 21.4002 22.3795 109.4971 28.4692 24.9190 10.3727
# 4 14.5867 6.5378 28.4692 44.6094 11.4362 16.0082
# 5 13.2217 2.4217 24.9190 11.4362 26.5276 7.8039
# 6 -5.2159 4.3808 10.3727 16.0082 7.8039 30.3378
#
#
#
# Elastic Compliance Matrix: (Units=1/GPa)
#
#
# Indices 1 2 3 4 5 6 
#
# 1 0.014267 -0.003360 0.000090 -0.005119 -0.006850 0.007371
# 2 -0.003360 0.010101 -0.002156 0.001181 0.003066 -0.002711
# 3 0.000090 -0.002156 0.013329 -0.006207 -0.010183 0.001664
# 4 -0.005119 0.001181 -0.006207 0.034242 -0.001610 -0.016583
# 5 -0.006850 0.003066 -0.010183 -0.001610 0.054410 -0.011286
# 6 0.007371 -0.002711 0.001664 -0.016583 -0.011286 0.045705
#
#
# Mechanical properties :
#
#
# Convention : Reuss Voigt Hill
#
# Bulk Modulus (GPa) = 37.25000 50.63429 43.94215
# Shear Modulus (GPa) = 26.06149 36.39310 31.22730
#
# Velocity S-wave (km/s) = 3.21909 3.80402 3.52371
# Velocity P-wave (km/s) = 5.35051 6.27911 5.83332
#
# Compressibility (1/GPa) = 0.02684563
#
# Stress axis : x y z
#
# Youngs Moduli (GPa) = 70.09163 99.00212 75.02386
#
# Poissons Ratio (x) = 0.33264 -0.00675
# Poissons Ratio (y) = 0.23550 0.16173
# Poissons Ratio (z) = -0.00631 0.21342
#
# Static dielectric constant tensor:
#      x y z
#    x 2.087870 -0.093700 0.049360 
#    y -0.093700 2.332270 0.023940 
#    z 0.049360 0.023940 2.021200 
# 
# From -- ./inp_files/548799.got.cif
#   From: 2010.05.17/outbox.cif.g08.bks.cpg/sg2_275_cif.got.tgz:548799.got - 2010.06.03 11:33:40.
