data_PCOD9019967
_publ_section_title
;
Structure prediction by ZEFSAII (Michael W. Deem and Ramdas Pophale) SiO2 
 PCOD9019967
Probable space group: P -1
;
_chemical_formula_sum "Si O2"
_cell_formula_units_Z 16
_cell_length_a 13.433678
_cell_length_b 6.760935
_cell_length_c 11.695782
_cell_angle_alpha 106.512884
_cell_angle_beta 40.806086
_cell_angle_gamma 110.345831
_cell_volume 650.494045
_symmetry_space_group_name_H-M "P -1"
_symmetry_group_IT_number 2
_symmetry_cell_setting 'triclinic'
loop_
_space_group_symop_operation_xyz
x,y,z
-x,-y,-z
loop_
_atom_site_type_symbol
_atom_site_label
_atom_site_fract_x
_atom_site_fract_y
_atom_site_fract_z
Si Si1 0.999780 0.695390 0.736995
Si Si2 0.540688 0.783231 0.476208
Si Si3 0.554644 0.310179 0.851487
Si Si4 0.376995 0.872937 0.842866
Si Si5 0.050835 0.080623 0.595959
Si Si6 0.218364 0.707363 0.159233
Si Si7 0.712255 0.485741 0.503941
Si Si8 0.173603 0.092155 0.904663
O O1 0.905506 0.492979 0.718996
O O2 0.144150 0.631172 0.664340
O O3 0.067283 0.889288 0.629870
O O4 0.862846 0.745328 0.943115
O O5 0.486505 0.187523 0.361557
O O6 0.414763 0.591974 0.497491
O O7 0.500000 0.000000 0.500000
O O8 0.712065 0.796715 0.276828
O O9 0.673254 0.219716 0.815638
O O10 0.633080 0.400517 0.679183
O O11 0.426751 0.102584 0.896794
O O12 0.500000 0.500000 0.000000
O O13 0.247075 0.911584 0.871435
O O14 0.330314 0.698722 0.952838
O O15 0.197246 0.273525 0.514041
O O16 0.893746 0.156653 0.779051
O O17 0.000000 0.000000 0.500000
O O18 0.000000 0.000000 0.000000
#
# Coordination Sequence:
#
# PCOD9019967 Si02
#       8
#     2   2   2   2   2   2   2   2
#     4  11  23  46  71 103 147 188 245 303 365 436
#     4  10  21  45  74 104 147 188 242 311 369 434
#     4  12  25  43  73 104 152 197 245 303 369 444
#     4  11  23  46  71 106 154 188 244 307 370 443
#     4  11  24  44  71 107 148 191 253 302 365 439
#     4  11  25  44  70 108 144 199 242 302 370 437
#     4  11  24  45  75 108 146 197 246 308 370 433
#     4  11  22  42  76 103 137 191 243 300 371 434
#
# _framework density 24.596689999999999
#
# number of rings (size 3 to 8) (size 9 to 14) (size 15 to 20)
#    0.000    1.000    3.750    4.125    1.750    2.000 
#    4.500    2.500    0.000    0.000    0.000    0.000 
#    0.000    0.000    0.000    0.000    0.000    0.000 
#
# Total GULP energy -89462.868013 kJ/mol
# GULP energy per Si atom -5591.429251 kJ/mol
# Density = 2.454071 g / cm^3
# Si number density = 24.596690 Si / 1000 Ang^3
#
#
#
# Elastic Constant Matrix: (Units=GPa)
#
#
# Indices 1 2 3 4 5 6 
#
# 1 124.5178 45.1674 24.0029 -16.0689 -16.5893 26.0470
# 2 45.1674 153.2794 24.8371 -20.9662 -2.4732 15.2663
# 3 24.0029 24.8371 114.8895 -14.1801 4.2184 7.2313
# 4 -16.0689 -20.9662 -14.1801 44.4045 -2.5962 -2.3322
# 5 -16.5893 -2.4732 4.2184 -2.5962 43.3415 -5.8023
# 6 26.0470 15.2663 7.2313 -2.3322 -5.8023 32.3481
#
#
#
# Elastic Compliance Matrix: (Units=1/GPa)
#
#
# Indices 1 2 3 4 5 6 
#
# 1 0.011281 -0.002007 -0.001295 0.002559 0.003542 -0.007027
# 2 -0.002007 0.007768 -0.000822 0.002569 -0.000324 -0.001739
# 3 -0.001295 -0.000822 0.009510 0.002053 -0.001453 -0.000808
# 4 0.002559 0.002569 0.002053 0.025367 0.002245 -0.001500
# 5 0.003542 -0.000324 -0.001453 0.002245 0.024990 0.002270
# 6 -0.007027 -0.001739 -0.000808 -0.001500 0.002270 0.037872
#
#
# Mechanical properties :
#
#
# Convention : Reuss Voigt Hill
#
# Bulk Modulus (GPa) = 49.23393 64.52240 56.87817
# Shear Modulus (GPa) = 37.93485 43.93077 40.93281
#
# Velocity S-wave (km/s) = 3.93144 4.23075 4.08384
# Velocity P-wave (km/s) = 6.37717 7.08200 6.73880
#
# Compressibility (1/GPa) = 0.02031119
#
# Stress axis : x y z
#
# Youngs Moduli (GPa) = 88.64719 128.73349 105.15533
#
# Poissons Ratio (x) = 0.25841 0.13615
# Poissons Ratio (y) = 0.17794 0.08639
# Poissons Ratio (z) = 0.11478 0.10576
#
# Static dielectric constant tensor:
#      x y z
#    x 2.008600 0.021600 0.070380 
#    y 0.021600 2.053420 0.139720 
#    z 0.070380 0.139720 2.290240 
# 
# From -- ./inp_files/525996.got.cif
#   From: 2010.05.17/outbox.cif.g08.bks.cpg/sg2_263_cif.got.tgz:525996.got - 2010.06.03 11:33:40.
