data_PCOD9019947
_publ_section_title
;
Structure prediction by ZEFSAII (Michael W. Deem and Ramdas Pophale) SiO2 
 PCOD9019947
Probable space group: P -1
;
_chemical_formula_sum "Si O2"
_cell_formula_units_Z 15
_cell_length_a 11.629465
_cell_length_b 8.995776
_cell_length_c 7.694616
_cell_angle_alpha 71.399840
_cell_angle_beta 64.739214
_cell_angle_gamma 49.665159
_cell_volume 553.870970
_symmetry_space_group_name_H-M "P -1"
_symmetry_group_IT_number 2
_symmetry_cell_setting 'triclinic'
loop_
_space_group_symop_operation_xyz
x,y,z
-x,-y,-z
loop_
_atom_site_type_symbol
_atom_site_label
_atom_site_fract_x
_atom_site_fract_y
_atom_site_fract_z
Si Si1 0.249766 0.942171 0.511455
Si Si2 0.946900 0.668469 0.680364
Si Si3 0.216448 0.115904 0.929153
Si Si4 0.500000 0.000000 0.500000
Si Si5 0.316639 0.353301 0.590997
Si Si6 0.651490 0.432296 0.231355
Si Si7 0.324782 0.730839 0.172882
Si Si8 0.894466 0.356805 0.840473
O O1 0.258003 0.793696 0.696748
O O2 0.272822 0.838275 0.352084
O O3 0.098847 0.162913 0.488270
O O4 0.382312 0.968811 0.470966
O O5 0.903526 0.526143 0.702054
O O6 0.134080 0.529130 0.640547
O O7 0.857976 0.765307 0.886369
O O8 0.325600 0.166987 0.741436
O O9 0.067820 0.190077 0.871250
O O10 0.314968 0.889869 0.996020
O O11 0.403114 0.235287 0.407616
O O12 0.395019 0.435430 0.615804
O O13 0.497801 0.533818 0.172446
O O14 0.778040 0.448996 0.048063
O O15 0.196672 0.702019 0.196207
#
# Coordination Sequence:
#
# PCOD9019947 Si02
#       8
#     2   2   2   1   2   2   2   2
#     4  11  28  45  68 102 149 191 238 289 366 429
#     4  10  22  47  75 105 138 197 239 291 356 430
#     4  10  21  45  73 107 139 190 241 298 349 425
#     4  12  28  46  68  98 148 194 232 290 360 432
#     4  11  23  45  74 101 147 185 243 294 353 424
#     4  12  24  45  69 110 147 187 230 310 357 423
#     4  11  25  42  68 107 146 189 238 293 361 426
#     4  11  22  43  76 104 142 184 247 297 353 423
#
# _framework density 27.08212
#
# number of rings (size 3 to 8) (size 9 to 14) (size 15 to 20)
#    0.000    1.067    4.000    2.000    3.733    2.667 
#    0.000    0.000    0.000    0.000    0.000    0.000 
#    0.000    0.000    0.000    0.000    0.000    0.000 
#
# Total GULP energy -83937.040020 kJ/mol
# GULP energy per Si atom -5595.802668 kJ/mol
# Density = 2.702048 g / cm^3
# Si number density = 27.082120 Si / 1000 Ang^3
#
#
#
# Elastic Constant Matrix: (Units=GPa)
#
#
# Indices 1 2 3 4 5 6 
#
# 1 191.3222 79.9061 38.2738 -23.8444 8.1396 9.8650
# 2 79.9061 204.1694 58.3037 -43.6678 1.6669 7.2221
# 3 38.2738 58.3037 115.3424 -28.1118 1.1488 5.8171
# 4 -23.8444 -43.6678 -28.1118 56.2679 8.5053 14.9382
# 5 8.1396 1.6669 1.1488 8.5053 47.5785 11.0095
# 6 9.8650 7.2221 5.8171 14.9382 11.0095 53.2676
#
#
#
# Elastic Compliance Matrix: (Units=1/GPa)
#
#
# Indices 1 2 3 4 5 6 
#
# 1 0.006464 -0.002008 -0.000778 0.001201 -0.001007 -0.000969
# 2 -0.002008 0.007175 -0.001846 0.004242 -0.000267 -0.001534
# 3 -0.000778 -0.001846 0.011014 0.004313 -0.000391 -0.001937
# 4 0.001201 0.004242 0.004313 0.026347 -0.003324 -0.007970
# 5 -0.001007 -0.000267 -0.000391 -0.003324 0.022607 -0.003475
# 6 -0.000969 -0.001534 -0.001937 -0.007970 -0.003475 0.022325
#
#
# Mechanical properties :
#
#
# Convention : Reuss Voigt Hill
#
# Bulk Modulus (GPa) = 64.98796 95.97791 80.48293
# Shear Modulus (GPa) = 45.31988 53.71284 49.51636
#
# Velocity S-wave (km/s) = 4.09519 4.45829 4.28059
# Velocity P-wave (km/s) = 6.81245 7.87517 7.36301
#
# Compressibility (1/GPa) = 0.01538747
#
# Stress axis : x y z
#
# Youngs Moduli (GPa) = 154.71193 139.37578 90.79106
#
# Poissons Ratio (x) = 0.27988 0.07064
# Poissons Ratio (y) = 0.31067 0.16764
# Poissons Ratio (z) = 0.12038 0.25736
#
# Static dielectric constant tensor:
#      x y z
#    x 2.017260 0.041210 0.120150 
#    y 0.041210 1.520760 -0.553180 
#    z 0.120150 -0.553180 1.639940 
# 
# From -- ./inp_files/237522.got.cif
#   From: 2010.05.17/outbox.cif.g08.bks.cpg/sg2_119_cif.got.tgz:237522.got - 2010.06.03 11:33:40.
