data_PCOD9019672
_publ_section_title
;
Structure prediction by ZEFSAII (Michael W. Deem and Ramdas Pophale) SiO2 
 PCOD9019672
Probable space group: P -1
;
_chemical_formula_sum "Si O2"
_cell_formula_units_Z 16
_cell_length_a 13.330344
_cell_length_b 11.664967
_cell_length_c 5.528160
_cell_angle_alpha 95.041273
_cell_angle_beta 65.744938
_cell_angle_gamma 111.058376
_cell_volume 729.589126
_symmetry_space_group_name_H-M "P -1"
_symmetry_group_IT_number 2
_symmetry_cell_setting 'triclinic'
loop_
_space_group_symop_operation_xyz
x,y,z
-x,-y,-z
loop_
_atom_site_type_symbol
_atom_site_label
_atom_site_fract_x
_atom_site_fract_y
_atom_site_fract_z
Si Si1 0.822035 0.942197 0.237339
Si Si2 0.591519 0.957956 0.246156
Si Si3 0.369790 0.730480 0.367903
Si Si4 0.737450 0.217572 0.002893
Si Si5 0.186558 0.293218 0.516657
Si Si6 0.024864 0.149583 0.221697
Si Si7 0.568944 0.508591 0.685594
Si Si8 0.002034 0.638582 0.067599
O O1 0.692728 0.936201 0.301649
O O2 0.821586 0.812213 0.304286
O O3 0.910188 0.950913 0.927384
O O4 0.890716 0.055290 0.364340
O O5 0.501113 0.831115 0.206846
O O6 0.500000 0.000000 0.500000
O O7 0.669159 0.069463 0.017327
O O8 0.310183 0.759287 0.678631
O O9 0.383374 0.602353 0.382987
O O10 0.299146 0.726304 0.189530
O O11 0.878598 0.279266 0.896117
O O12 0.111104 0.221941 0.356423
O O13 0.322524 0.365525 0.369421
O O14 0.119863 0.383136 0.678495
O O15 0.005983 0.263220 0.111056
O O16 0.500000 0.500000 0.500000
O O17 0.500000 0.500000 0.000000
O O18 0.000000 0.500000 0.000000
#
# Coordination Sequence:
#
# PCOD9019672 Si02
#       8
#     2   2   2   2   2   2   2   2
#     4  10  21  45  66 101 142 179 237 297 361 422
#     4  10  22  42  68 100 137 185 235 293 354 427
#     4  11  25  44  68  98 143 183 235 289 359 420
#     4  11  24  45  66 103 138 184 230 293 355 425
#     4  11  26  42  72 101 136 190 242 291 363 435
#     4  10  23  42  69 101 137 183 237 293 361 426
#     4  12  28  48  72 103 138 188 240 296 356 430
#     4  11  25  42  70  99 144 184 235 299 360 425
#
# _framework density 21.930152
#
# number of rings (size 3 to 8) (size 9 to 14) (size 15 to 20)
#    0.000    1.250    1.250    3.000    8.750    1.500 
#    4.500    0.000    0.000    0.000    0.000    0.000 
#    0.000    0.000    0.000    0.000    0.000    0.000 
#
# Total GULP energy -89108.266886 kJ/mol
# GULP energy per Si atom -5569.266680 kJ/mol
# Density = 2.188024 g / cm^3
# Si number density = 21.930152 Si / 1000 Ang^3
#
#
#
# Elastic Constant Matrix: (Units=GPa)
#
#
# Indices 1 2 3 4 5 6 
#
# 1 178.0474 17.4191 30.9360 6.6799 21.1130 26.5703
# 2 17.4191 78.2814 -17.4556 -0.3149 15.0548 43.7680
# 3 30.9360 -17.4556 56.3979 7.2142 -4.0955 -8.9200
# 4 6.6799 -0.3149 7.2142 19.5073 3.3451 -3.1427
# 5 21.1130 15.0548 -4.0955 3.3451 51.2803 31.3255
# 6 26.5703 43.7680 -8.9200 -3.1427 31.3255 119.8376
#
#
#
# Elastic Compliance Matrix: (Units=1/GPa)
#
#
# Indices 1 2 3 4 5 6 
#
# 1 0.006972 -0.001770 -0.004586 -0.000432 -0.002290 -0.000654
# 2 -0.001770 0.017644 0.005784 -0.002064 -0.000461 -0.005555
# 3 -0.004586 0.005784 0.023136 -0.007396 0.002685 -0.000269
# 4 -0.000432 -0.002064 -0.007396 0.055540 -0.005358 0.003156
# 5 -0.002290 -0.000461 0.002685 -0.005358 0.024626 -0.005702
# 6 -0.000654 -0.005555 -0.000269 0.003156 -0.005702 0.012071
#
#
# Mechanical properties :
#
#
# Convention : Reuss Voigt Hill
#
# Bulk Modulus (GPa) = 21.45633 41.61397 31.53515
# Shear Modulus (GPa) = 31.91438 56.91351 44.41394
#
# Velocity S-wave (km/s) = 3.81894 5.09985 4.50516
# Velocity P-wave (km/s) = 5.40842 7.32768 6.43995
#
# Compressibility (1/GPa) = 0.04660630
#
# Stress axis : x y z
#
# Youngs Moduli (GPa) = 143.43462 56.67602 43.22348
#
# Poissons Ratio (x) = 0.10032 0.19824
# Poissons Ratio (y) = 0.25389 -0.25000
# Poissons Ratio (z) = 0.65785 -0.32781
#
# Static dielectric constant tensor:
#      x y z
#    x 1.766180 0.023850 -0.002050 
#    y 0.023850 1.875750 -0.010600 
#    z -0.002050 -0.010600 1.960030 
# 
# From -- ./inp_files/69188.got.cif
#   From: 2010.05.17/outbox.cif.g08.bks.cpg/sg2_35_cif.got.tgz:69188.got - 2010.06.03 11:33:40.
