data_PCOD9019979
_publ_section_title
;
Structure prediction by ZEFSAII (Michael W. Deem and Ramdas Pophale) SiO2 
 PCOD9019979
Probable space group: P -1
;
_chemical_formula_sum "Si O2"
_cell_formula_units_Z 14
_cell_length_a 6.779976
_cell_length_b 8.156150
_cell_length_c 10.930051
_cell_angle_alpha 103.107957
_cell_angle_beta 94.932063
_cell_angle_gamma 87.503926
_cell_volume 586.307233
_symmetry_space_group_name_H-M "P -1"
_symmetry_group_IT_number 2
_symmetry_cell_setting 'triclinic'
loop_
_space_group_symop_operation_xyz
x,y,z
-x,-y,-z
loop_
_atom_site_type_symbol
_atom_site_label
_atom_site_fract_x
_atom_site_fract_y
_atom_site_fract_z
Si Si1 0.209561 0.904257 0.991956
Si Si2 0.970207 0.832594 0.555887
Si Si3 0.726368 0.728495 0.734619
Si Si4 0.436046 0.591452 0.887449
Si Si5 0.686753 0.394838 0.548791
Si Si6 0.635362 0.716347 0.343648
Si Si7 0.539504 0.995285 0.207998
O O1 0.243920 0.707934 0.929363
O O2 0.325952 0.980458 0.897601
O O3 0.335138 0.930127 0.127076
O O4 0.000000 0.000000 0.000000
O O5 0.159313 0.707335 0.540984
O O6 0.897045 0.837908 0.694904
O O7 0.798991 0.732804 0.458150
O O8 0.000000 0.000000 0.500000
O O9 0.628460 0.691861 0.859491
O O10 0.781003 0.540907 0.660496
O O11 0.530467 0.835307 0.696778
O O12 0.372692 0.458513 0.759122
O O13 0.500000 0.500000 0.000000
O O14 0.500000 0.500000 0.500000
O O15 0.583288 0.260977 0.607903
O O16 0.655684 0.866829 0.276799
#
# Coordination Sequence:
#
# PCOD9019979 Si02
#       7
#     2   2   2   2   2   2   2
#     4  10  22  42  65  97 133 176 230 275 335 407
#     4  12  27  44  69 106 139 181 237 277 343 421
#     4  10  23  42  71  99 139 180 230 280 342 411
#     4  10  21  45  75 101 138 183 229 286 349 405
#     4  11  24  44  68  98 140 179 225 284 346 403
#     4  11  24  43  72  98 139 182 229 284 345 410
#     4  10  22  41  65  96 136 177 219 282 340 398
#
# _framework density 23.878267000000001
#
# number of rings (size 3 to 8) (size 9 to 14) (size 15 to 20)
#    0.000    1.429    2.857    1.286    2.000    4.571 
#    2.571    0.714    0.000    0.000    0.000    0.000 
#    0.000    0.000    0.000    0.000    0.000    0.000 
#
# Total GULP energy -78010.006408 kJ/mol
# GULP energy per Si atom -5572.143315 kJ/mol
# Density = 2.382392 g / cm^3
# Si number density = 23.878267 Si / 1000 Ang^3
#
#
#
# Elastic Constant Matrix: (Units=GPa)
#
#
# Indices 1 2 3 4 5 6 
#
# 1 117.4992 33.1056 41.4709 18.9589 -28.5518 -23.8498
# 2 33.1056 85.3913 31.4518 -5.9904 -20.6586 -10.3143
# 3 41.4709 31.4518 87.2107 6.3202 -16.5505 -7.3769
# 4 18.9589 -5.9904 6.3202 41.6504 -4.8578 -8.7438
# 5 -28.5518 -20.6586 -16.5505 -4.8578 49.2033 7.8608
# 6 -23.8498 -10.3143 -7.3769 -8.7438 7.8608 44.1367
#
#
#
# Elastic Compliance Matrix: (Units=1/GPa)
#
#
# Indices 1 2 3 4 5 6 
#
# 1 0.013169 -0.002442 -0.003908 -0.004365 0.004187 0.004282
# 2 -0.002442 0.015635 -0.003904 0.004824 0.004003 0.001924
# 3 -0.003908 -0.003904 0.014954 -0.001116 0.001165 -0.000954
# 4 -0.004365 0.004824 -0.001116 0.027817 0.001245 0.003871
# 5 0.004187 0.004003 0.001165 0.001245 0.025081 -0.000828
# 6 0.004282 0.001924 -0.000954 0.003871 -0.000828 0.026175
#
#
# Mechanical properties :
#
#
# Convention : Reuss Voigt Hill
#
# Bulk Modulus (GPa) = 43.01376 55.79531 49.40453
# Shear Modulus (GPa) = 33.09255 39.26961 36.18108
#
# Velocity S-wave (km/s) = 3.72679 4.05974 3.89682
# Velocity P-wave (km/s) = 6.04743 6.73740 6.40172
#
# Compressibility (1/GPa) = 0.02324838
#
# Stress axis : x y z
#
# Youngs Moduli (GPa) = 75.93567 63.95943 66.86968
#
# Poissons Ratio (x) = 0.15620 0.26135
# Poissons Ratio (y) = 0.18545 0.26109
# Poissons Ratio (z) = 0.29679 0.24973
#
# Static dielectric constant tensor:
#      x y z
#    x 1.928130 0.108640 0.039810 
#    y 0.108640 2.012740 0.044520 
#    z 0.039810 0.044520 2.044630 
# 
# From -- ./inp_files/360847.got.cif
#   From: 2010.05.17/outbox.cif.g08.bks.cpg/sg2_181_cif.got.tgz:360847.got - 2010.06.03 11:33:40.
