data_PCOD9019271
_publ_section_title
;
Structure prediction by ZEFSAII (Michael W. Deem and Ramdas Pophale) SiO2 
 PCOD9019271
Probable space group: P -1
;
_chemical_formula_sum "Si O2"
_cell_formula_units_Z 14
_cell_length_a 5.662514
_cell_length_b 4.839172
_cell_length_c 20.638014
_cell_angle_alpha 95.146990
_cell_angle_beta 79.848298
_cell_angle_gamma 85.073618
_cell_volume 551.431859
_symmetry_space_group_name_H-M "P -1"
_symmetry_group_IT_number 2
_symmetry_cell_setting 'triclinic'
loop_
_space_group_symop_operation_xyz
x,y,z
-x,-y,-z
loop_
_atom_site_type_symbol
_atom_site_label
_atom_site_fract_x
_atom_site_fract_y
_atom_site_fract_z
Si Si1 0.565514 0.774616 0.435420
Si Si2 0.519604 0.350289 0.847827
Si Si3 0.266049 0.338293 0.986743
Si Si4 0.064277 0.781703 0.434808
Si Si5 0.169679 0.507441 0.765507
Si Si6 0.201677 0.150517 0.121174
Si Si7 0.872965 0.998341 0.322634
O O1 0.500000 0.000000 0.500000
O O2 0.828195 0.612647 0.435648
O O3 0.630515 0.933269 0.370424
O O4 0.327327 0.625520 0.431104
O O5 0.328859 0.257270 0.908235
O O6 0.413855 0.357269 0.781606
O O7 0.590003 0.658726 0.863970
O O8 0.748926 0.140505 0.851782
O O9 0.500000 0.500000 0.000000
O O10 0.230976 0.120793 0.041769
O O11 0.000000 0.500000 0.000000
O O12 0.058586 0.965312 0.373010
O O13 0.000000 0.000000 0.500000
O O14 0.176325 0.728469 0.712072
O O15 0.036573 0.676483 0.835379
O O16 0.045611 0.259293 0.733667
#
# Coordination Sequence:
#
# PCOD9019271 Si02
#       7
#     2   2   2   2   2   2   2
#     4   8  16  36  66  92 129 167 220 277 340 398
#     4  11  24  43  68  98 137 185 232 287 343 408
#     4  10  21  44  70 105 135 181 238 294 340 403
#     4   8  16  36  66  92 129 167 220 277 340 398
#     4  12  24  45  62 102 138 184 228 282 346 424
#     4  11  24  43  68  98 137 185 232 287 343 408
#     4  10  24  38  68  97 136 178 228 280 346 413
#
# _framework density 25.388451
#
# number of rings (size 3 to 8) (size 9 to 14) (size 15 to 20)
#    0.857    1.143    1.429    2.143    0.000    3.429 
#    0.000    4.286    0.000    0.000    0.000    0.000 
#    0.000    0.000    0.000    0.000    0.000    0.000 
#
# Total GULP energy -78124.692374 kJ/mol
# GULP energy per Si atom -5580.335170 kJ/mol
# Density = 2.533067 g / cm^3
# Si number density = 25.388451 Si / 1000 Ang^3
#
#
#
# Elastic Constant Matrix: (Units=GPa)
#
#
# Indices 1 2 3 4 5 6 
#
# 1 155.5541 21.1668 16.1134 -11.0392 2.0559 -25.3208
# 2 21.1668 104.9993 46.9735 -19.4374 1.3602 -3.4901
# 3 16.1134 46.9735 122.3226 -35.0393 -5.7981 12.4324
# 4 -11.0392 -19.4374 -35.0393 41.1602 -0.4841 -7.8258
# 5 2.0559 1.3602 -5.7981 -0.4841 45.7009 -4.3803
# 6 -25.3208 -3.4901 12.4324 -7.8258 -4.3803 18.4619
#
#
#
# Elastic Compliance Matrix: (Units=1/GPa)
#
#
# Indices 1 2 3 4 5 6 
#
# 1 0.009525 0.000163 -0.001697 0.004295 0.000958 0.016285
# 2 0.000163 0.012375 -0.004535 0.003351 -0.000247 0.006979
# 3 -0.001697 -0.004535 0.013050 0.006851 0.001095 -0.008808
# 4 0.004295 0.003351 0.006851 0.036303 0.002680 0.017935
# 5 0.000958 -0.000247 0.001095 0.002680 0.022689 0.007048
# 6 0.016285 0.006979 -0.008808 0.017935 0.007048 0.093026
#
#
# Mechanical properties :
#
#
# Convention : Reuss Voigt Hill
#
# Bulk Modulus (GPa) = 43.83538 61.26482 52.55010
# Shear Modulus (GPa) = 24.18854 40.97276 32.58065
#
# Velocity S-wave (km/s) = 3.08999 4.02161 3.58618
# Velocity P-wave (km/s) = 5.48034 6.76372 6.15557
#
# Compressibility (1/GPa) = 0.02281262
#
# Stress axis : x y z
#
# Youngs Moduli (GPa) = 104.98444 80.80625 76.63128
#
# Poissons Ratio (x) = -0.01316 0.13003
# Poissons Ratio (y) = -0.01710 0.34750
# Poissons Ratio (z) = 0.17814 0.36643
#
# Static dielectric constant tensor:
#      x y z
#    x 2.053690 -0.026340 -0.026010 
#    y -0.026340 1.937780 0.026040 
#    z -0.026010 0.026040 2.039540 
# 
# From -- ./inp_files/580807.got.cif
#   From: 2010.05.17/outbox.cif.g08.bks.cpg/sg2_291_cif.got.tgz:580807.got - 2010.06.03 11:33:40.
