data_PCOD9019400
_publ_section_title
;
Structure prediction by ZEFSAII (Michael W. Deem and Ramdas Pophale) SiO2 
 PCOD9019400
Probable space group: P -1
;
_chemical_formula_sum "Si O2"
_cell_formula_units_Z 12
_cell_length_a 6.480242
_cell_length_b 5.647289
_cell_length_c 15.072036
_cell_angle_alpha 62.905169
_cell_angle_beta 95.042586
_cell_angle_gamma 99.401324
_cell_volume 484.387533
_symmetry_space_group_name_H-M "P -1"
_symmetry_group_IT_number 2
_symmetry_cell_setting 'triclinic'
loop_
_space_group_symop_operation_xyz
x,y,z
-x,-y,-z
loop_
_atom_site_type_symbol
_atom_site_label
_atom_site_fract_x
_atom_site_fract_y
_atom_site_fract_z
Si Si1 0.281650 0.496197 0.443265
Si Si2 0.526466 0.562272 0.714985
Si Si3 0.873830 0.387848 0.230106
Si Si4 0.845233 0.979154 0.590630
Si Si5 0.414497 0.767563 0.919914
Si Si6 0.751549 0.240426 0.897618
O O1 0.500000 0.500000 0.500000
O O2 0.353225 0.585093 0.330544
O O3 0.170072 0.187500 0.475258
O O4 0.153485 0.708383 0.446957
O O5 0.278527 0.512728 0.718462
O O6 0.609818 0.866623 0.639919
O O7 0.617118 0.478386 0.825488
O O8 0.723784 0.254871 0.169419
O O9 0.003394 0.171510 0.316058
O O10 0.022001 0.639455 0.150019
O O11 0.618315 0.989506 0.887176
O O12 0.500000 0.500000 0.000000
O O13 0.266344 0.826330 0.987701
#
# Coordination Sequence:
#
# PCOD9019400 Si02
#       6
#     2   2   2   2   2   2
#     4  10  21  44  71  97 140 178 218 289 347 405
#     4   9  22  39  65  96 134 176 225 281 340 403
#     4  11  22  43  68  98 134 185 225 284 340 405
#     4   9  23  41  67 101 133 177 230 273 346 413
#     4  11  23  41  63  93 137 177 231 282 335 401
#     4  10  23  42  59  97 133 176 234 280 338 405
#
# _framework density 24.773553
#
# number of rings (size 3 to 8) (size 9 to 14) (size 15 to 20)
#    1.000    1.000    1.667    1.000    2.333    2.000 
#    3.000    1.667    0.000    0.000    0.000    0.000 
#    0.000    0.000    0.000    0.000    0.000    0.000 
#
# Total GULP energy -66981.418174 kJ/mol
# GULP energy per Si atom -5581.784848 kJ/mol
# Density = 2.471717 g / cm^3
# Si number density = 24.773553 Si / 1000 Ang^3
#
#
#
# Elastic Constant Matrix: (Units=GPa)
#
#
# Indices 1 2 3 4 5 6 
#
# 1 114.5940 67.3929 -0.0831 3.1228 1.2828 -12.2090
# 2 67.3929 174.0476 39.6180 2.9056 -4.6501 11.4219
# 3 -0.0831 39.6180 76.1785 22.8918 14.1220 -13.0251
# 4 3.1228 2.9056 22.8918 36.6215 9.5295 3.2652
# 5 1.2828 -4.6501 14.1220 9.5295 29.7468 2.4748
# 6 -12.2090 11.4219 -13.0251 3.2652 2.4748 28.2577
#
#
#
# Elastic Compliance Matrix: (Units=1/GPa)
#
#
# Indices 1 2 3 4 5 6 
#
# 1 0.017969 -0.011448 0.013583 -0.008885 -0.007861 0.020367
# 2 -0.011448 0.015191 -0.015786 0.009062 0.009141 -0.020210
# 3 0.013583 -0.015786 0.036416 -0.021381 -0.016231 0.032927
# 4 -0.008885 0.009062 -0.021381 0.042662 0.000138 -0.022299
# 5 -0.007861 0.009141 -0.016231 0.000138 0.044585 -0.018493
# 6 0.020367 -0.020210 0.032927 -0.022299 -0.018493 0.071731
#
#
# Mechanical properties :
#
#
# Convention : Reuss Voigt Hill
#
# Bulk Modulus (GPa) = 23.65584 64.29730 43.97657
# Shear Modulus (GPa) = 18.52219 36.11802 27.32010
#
# Velocity S-wave (km/s) = 2.73730 3.82242 3.32444
# Velocity P-wave (km/s) = 4.42267 6.74474 5.70314
#
# Compressibility (1/GPa) = 0.04227287
#
# Stress axis : x y z
#
# Youngs Moduli (GPa) = 55.65224 65.82934 27.46079
#
# Poissons Ratio (x) = 0.75359 -0.37299
# Poissons Ratio (y) = 0.63709 0.43350
# Poissons Ratio (z) = -0.75590 1.03919
#
# Static dielectric constant tensor:
#      x y z
#    x 2.093900 -0.025640 -0.163990 
#    y -0.025640 2.091970 0.057300 
#    z -0.163990 0.057300 2.088280 
# 
# From -- ./inp_files/11676.got.cif
#   From: 2010.05.17/outbox.cif.g08.bks.cpg/sg2_6_cif.got.tgz:11676.got - 2010.06.03 11:33:40.
