data_PCOD9019409
_publ_section_title
;
Structure prediction by ZEFSAII (Michael W. Deem and Ramdas Pophale) SiO2 
 PCOD9019409
Probable space group: P -1
;
_chemical_formula_sum "Si O2"
_cell_formula_units_Z 16
_cell_length_a 12.753638
_cell_length_b 11.970847
_cell_length_c 8.680901
_cell_angle_alpha 47.192788
_cell_angle_beta 44.495219
_cell_angle_gamma 43.413022
_cell_volume 601.465812
_symmetry_space_group_name_H-M "P -1"
_symmetry_group_IT_number 2
_symmetry_cell_setting 'triclinic'
loop_
_space_group_symop_operation_xyz
x,y,z
-x,-y,-z
loop_
_atom_site_type_symbol
_atom_site_label
_atom_site_fract_x
_atom_site_fract_y
_atom_site_fract_z
Si Si1 0.636744 0.065085 0.740044
Si Si2 0.654626 0.573511 0.356692
Si Si3 0.707360 0.250024 0.770939
Si Si4 0.690904 0.854629 0.399638
Si Si5 0.071847 0.052998 0.728418
Si Si6 0.613547 0.580746 0.871301
Si Si7 0.213219 0.681192 0.807009
Si Si8 0.851494 0.771151 0.972602
O O1 0.502237 0.237923 0.629310
O O2 0.705666 0.153229 0.709584
O O3 0.692698 0.672405 0.596388
O O4 0.500000 0.000000 0.000000
O O5 0.670648 0.442784 0.593528
O O6 0.652455 0.472968 0.297241
O O7 0.812333 0.612295 0.146761
O O8 0.896066 0.162517 0.722086
O O9 0.541014 0.264379 0.018331
O O10 0.751743 0.864001 0.152288
O O11 0.500000 0.000000 0.500000
O O12 0.811950 0.872058 0.387478
O O13 0.194455 0.872919 0.679848
O O14 0.799123 0.872225 0.767475
O O15 0.000000 0.000000 0.000000
O O16 0.500000 0.500000 0.000000
O O17 0.756803 0.423943 0.966661
O O18 0.039157 0.727390 0.861045
#
# Coordination Sequence:
#
# PCOD9019409 Si02
#       8
#     2   2   2   2   2   2   2   2
#     4  10  21  44  71  98 138 192 238 294 360 440
#     4  11  26  44  74 108 143 197 246 297 381 432
#     4  12  24  49  71 105 150 193 246 308 362 442
#     4  12  26  47  78 110 142 196 254 298 380 445
#     4  12  25  48  77 105 153 195 245 313 374 435
#     4  12  27  45  73 108 147 194 251 306 368 443
#     4  12  25  45  71 106 156 188 244 308 371 440
#     4  11  24  47  74 105 149 189 241 313 365 449
#
# _framework density 26.601678
#
# number of rings (size 3 to 8) (size 9 to 14) (size 15 to 20)
#    0.000    0.500    3.750    4.500    1.750    1.000 
#    4.500    0.000    0.000    0.000    0.000    0.000 
#    0.000    0.000    0.000    0.000    0.000    0.000 
#
# Total GULP energy -89349.801611 kJ/mol
# GULP energy per Si atom -5584.362601 kJ/mol
# Density = 2.654113 g / cm^3
# Si number density = 26.601678 Si / 1000 Ang^3
#
#
#
# Elastic Constant Matrix: (Units=GPa)
#
#
# Indices 1 2 3 4 5 6 
#
# 1 177.6594 41.3104 20.4250 -20.9421 -21.9373 -20.2264
# 2 41.3104 108.8629 42.7147 -11.1361 4.8566 -1.8469
# 3 20.4250 42.7147 54.3118 -21.4462 4.1333 -11.2846
# 4 -20.9421 -11.1361 -21.4462 63.2830 2.4579 -2.1576
# 5 -21.9373 4.8566 4.1333 2.4579 36.8439 -5.1591
# 6 -20.2264 -1.8469 -11.2846 -2.1576 -5.1591 69.5370
#
#
#
# Elastic Compliance Matrix: (Units=1/GPa)
#
#
# Indices 1 2 3 4 5 6 
#
# 1 0.007409 -0.002985 0.000508 0.001994 0.004977 0.002589
# 2 -0.002985 0.014771 -0.011783 -0.002371 -0.002616 -0.002656
# 3 0.000508 -0.011783 0.032385 0.009313 -0.001663 0.005256
# 4 0.001994 -0.002371 0.009313 0.019307 -0.000470 0.002592
# 5 0.004977 -0.002616 -0.001663 -0.000470 0.031145 0.003405
# 6 0.002589 -0.002656 0.005256 0.002592 0.003405 0.016249
#
#
# Mechanical properties :
#
#
# Convention : Reuss Voigt Hill
#
# Bulk Modulus (GPa) = 38.39741 61.08160 49.73950
# Shear Modulus (GPa) = 31.55204 49.69171 40.62187
#
# Velocity S-wave (km/s) = 3.44770 4.32672 3.91198
# Velocity P-wave (km/s) = 5.50585 6.92618 6.25646
#
# Compressibility (1/GPa) = 0.02604343
#
# Stress axis : x y z
#
# Youngs Moduli (GPa) = 134.97434 67.69960 30.87879
#
# Poissons Ratio (x) = 0.20207 -0.01567
# Poissons Ratio (y) = 0.40287 0.36386
# Poissons Ratio (z) = -0.06852 0.79773
#
# Static dielectric constant tensor:
#      x y z
#    x 2.126330 -0.095050 0.024040 
#    y -0.095050 2.295990 0.058530 
#    z 0.024040 0.058530 1.928710 
# 
# From -- ./inp_files/306420.got.cif
#   From: 2010.05.17/outbox.cif.g08.bks.cpg/sg2_154_cif.got.tgz:306420.got - 2010.06.03 11:33:40.
