data_PCOD9019231
_publ_section_title
;
Structure prediction by ZEFSAII (Michael W. Deem and Ramdas Pophale) SiO2 
 PCOD9019231
Probable space group: P -1
;
_chemical_formula_sum "Si O2"
_cell_formula_units_Z 16
_cell_length_a 7.186558
_cell_length_b 8.669525
_cell_length_c 12.992102
_cell_angle_alpha 85.448518
_cell_angle_beta 81.599515
_cell_angle_gamma 58.374621
_cell_volume 681.852822
_symmetry_space_group_name_H-M "P -1"
_symmetry_group_IT_number 2
_symmetry_cell_setting 'triclinic'
loop_
_space_group_symop_operation_xyz
x,y,z
-x,-y,-z
loop_
_atom_site_type_symbol
_atom_site_label
_atom_site_fract_x
_atom_site_fract_y
_atom_site_fract_z
Si Si1 0.789650 0.223422 0.627045
Si Si2 0.427815 0.999686 0.391345
Si Si3 0.652815 0.090763 0.214566
Si Si4 0.685796 0.823825 0.932591
Si Si5 0.005363 0.653908 0.559600
Si Si6 0.564878 0.602773 0.071343
Si Si7 0.365166 0.572668 0.705964
Si Si8 0.107416 0.956150 0.152763
O O1 0.952140 0.224297 0.530670
O O2 0.614976 0.431711 0.658084
O O3 0.897340 0.101422 0.725560
O O4 0.647235 0.143703 0.599815
O O5 0.613092 0.956333 0.293794
O O6 0.225227 0.203624 0.376474
O O7 0.500000 0.000000 0.500000
O O8 0.442579 0.192561 0.153140
O O9 0.668149 0.231897 0.280499
O O10 0.871228 0.998628 0.130945
O O11 0.863403 0.872884 0.877126
O O12 0.733274 0.657459 0.009532
O O13 0.500000 0.000000 0.000000
O O14 0.197188 0.579699 0.633690
O O15 0.000000 0.500000 0.500000
O O16 0.652937 0.500492 0.177408
O O17 0.329057 0.784947 0.102216
O O18 0.500000 0.500000 0.000000
#
# Coordination Sequence:
#
# PCOD9019231 Si02
#       8
#     2   2   2   2   2   2   2   2
#     4  11  22  44  65  99 138 171 231 281 334 416
#     4  12  24  41  69  99 135 179 227 280 341 408
#     4  12  23  43  69  99 138 179 226 281 343 408
#     4  10  22  43  69  94 136 173 230 281 340 396
#     4  12  25  44  68 102 141 181 225 281 346 407
#     4  10  21  44  69  98 135 176 228 287 333 404
#     4  11  24  41  69  98 138 182 227 279 344 406
#     4  10  23  42  71  99 133 179 228 276 348 405
#
# _framework density 23.465475000000001
#
# number of rings (size 3 to 8) (size 9 to 14) (size 15 to 20)
#    0.000    1.000    2.500    4.500    0.000    2.000 
#    0.000    1.875    2.750    0.000    0.000    0.000 
#    0.000    0.000    0.000    0.000    0.000    0.000 
#
# Total GULP energy -89517.196047 kJ/mol
# GULP energy per Si atom -5594.824753 kJ/mol
# Density = 2.341207 g / cm^3
# Si number density = 23.465475 Si / 1000 Ang^3
#
#
#
# Elastic Constant Matrix: (Units=GPa)
#
#
# Indices 1 2 3 4 5 6 
#
# 1 99.2260 27.2756 44.7063 -5.7442 -26.3720 13.1656
# 2 27.2756 78.3070 11.6535 8.6943 -14.9066 12.4516
# 3 44.7063 11.6535 114.2499 -17.8026 -11.8953 10.9619
# 4 -5.7442 8.6943 -17.8026 27.5950 13.4538 -5.8961
# 5 -26.3720 -14.9066 -11.8953 13.4538 41.1154 0.6072
# 6 13.1656 12.4516 10.9619 -5.8961 0.6072 44.7284
#
#
#
# Elastic Compliance Matrix: (Units=1/GPa)
#
#
# Indices 1 2 3 4 5 6 
#
# 1 0.015745 -0.001674 -0.005444 -0.005203 0.009674 -0.003652
# 2 -0.001674 0.017642 -0.001607 -0.012606 0.009068 -0.005809
# 3 -0.005444 -0.001607 0.012040 0.008924 -0.003516 0.000323
# 4 -0.005203 -0.012606 0.008924 0.059390 -0.024922 0.011021
# 5 0.009674 0.009068 -0.003516 -0.024922 0.041076 -0.008353
# 6 -0.003652 -0.005809 0.000323 0.011021 -0.008353 0.026536
#
#
# Mechanical properties :
#
#
# Convention : Reuss Voigt Hill
#
# Bulk Modulus (GPa) = 35.74285 51.00598 43.37441
# Shear Modulus (GPa) = 25.09969 36.56426 30.83197
#
# Velocity S-wave (km/s) = 3.27409 3.95171 3.62875
# Velocity P-wave (km/s) = 5.43673 6.52726 6.00679
#
# Compressibility (1/GPa) = 0.02797762
#
# Stress axis : x y z
#
# Youngs Moduli (GPa) = 63.51124 56.68211 83.05451
#
# Poissons Ratio (x) = 0.09490 0.45212
# Poissons Ratio (y) = 0.10634 0.13348
# Poissons Ratio (z) = 0.34573 0.09109
#
# Static dielectric constant tensor:
#      x y z
#    x 1.862410 -0.024550 -0.004510 
#    y -0.024550 1.888870 0.004610 
#    z -0.004510 0.004610 1.914470 
# 
# From -- ./inp_files/54986.got.cif
#   From: 2010.05.17/outbox.cif.g08.bks.cpg/sg2_28_cif.got.tgz:54986.got - 2010.06.03 11:33:40.
