data_PCOD9019772
_publ_section_title
;
Structure prediction by ZEFSAII (Michael W. Deem and Ramdas Pophale) SiO2 
 PCOD9019772
Probable space group: P -1
;
_chemical_formula_sum "Si O2"
_cell_formula_units_Z 14
_cell_length_a 12.974020
_cell_length_b 8.864232
_cell_length_c 8.190840
_cell_angle_alpha 72.185710
_cell_angle_beta 96.889779
_cell_angle_gamma 132.337199
_cell_volume 657.945802
_symmetry_space_group_name_H-M "P -1"
_symmetry_group_IT_number 2
_symmetry_cell_setting 'triclinic'
loop_
_space_group_symop_operation_xyz
x,y,z
-x,-y,-z
loop_
_atom_site_type_symbol
_atom_site_label
_atom_site_fract_x
_atom_site_fract_y
_atom_site_fract_z
Si Si1 0.067399 0.103140 0.655196
Si Si2 0.405797 0.750019 0.573668
Si Si3 0.365639 0.472397 0.431329
Si Si4 0.166232 0.708972 0.653337
Si Si5 0.898436 0.225716 0.724579
Si Si6 0.782777 0.012860 0.118453
Si Si7 0.487730 0.490807 0.811239
O O1 0.226490 0.303120 0.562841
O O2 0.989005 0.163651 0.712796
O O3 0.088255 0.973453 0.818137
O O4 0.000000 0.000000 0.500000
O O5 0.393824 0.683033 0.404773
O O6 0.265254 0.658823 0.667401
O O7 0.461070 0.645735 0.701791
O O8 0.500000 0.000000 0.500000
O O9 0.500000 0.500000 0.500000
O O10 0.364299 0.421041 0.262339
O O11 0.181641 0.816712 0.446710
O O12 0.210149 0.855793 0.771667
O O13 0.006246 0.481069 0.700430
O O14 0.808274 0.105966 0.910502
O O15 0.637625 0.763065 0.172053
O O16 0.500000 0.500000 0.000000
#
# Coordination Sequence:
#
# PCOD9019772 Si02
#       7
#     2   2   2   2   2   2   2
#     4  12  23  42  72 103 134 189 242 285 354 422
#     4  11  23  41  71  96 134 181 230 288 358 414
#     4  10  21  45  68  92 137 185 232 281 351 418
#     4  11  24  46  66 103 145 182 230 287 369 419
#     4  11  25  43  70 103 140 186 233 287 358 429
#     4  12  24  44  72 100 145 183 238 298 348 416
#     4  11  26  45  70 105 137 184 249 292 342 427
#
# _framework density 21.27835
#
# number of rings (size 3 to 8) (size 9 to 14) (size 15 to 20)
#    0.000    0.857    5.714    1.714    6.000    0.000 
#    2.571    1.429    0.000    0.000    0.000    0.000 
#    0.000    0.000    0.000    0.000    0.000    0.000 
#
# Total GULP energy -78010.061808 kJ/mol
# GULP energy per Si atom -5572.147272 kJ/mol
# Density = 2.122992 g / cm^3
# Si number density = 21.278350 Si / 1000 Ang^3
#
#
#
# Elastic Constant Matrix: (Units=GPa)
#
#
# Indices 1 2 3 4 5 6 
#
# 1 99.7989 36.8512 35.8158 8.7425 -13.4638 -33.2041
# 2 36.8512 102.3926 39.6460 4.1008 -10.3777 -23.1597
# 3 35.8158 39.6460 138.0294 2.0468 -20.6844 -22.2644
# 4 8.7425 4.1008 2.0468 32.7515 -5.6448 -10.9119
# 5 -13.4638 -10.3777 -20.6844 -5.6448 26.2362 2.2571
# 6 -33.2041 -23.1597 -22.2644 -10.9119 2.2571 32.8595
#
#
#
# Elastic Compliance Matrix: (Units=1/GPa)
#
#
# Indices 1 2 3 4 5 6 
#
# 1 0.016730 -0.001743 -0.000326 0.002172 0.006754 0.015713
# 2 -0.001743 0.012718 -0.001839 0.001508 0.002470 0.006287
# 3 -0.000326 -0.001839 0.009716 0.002688 0.006881 0.005378
# 4 0.002172 0.001508 0.002688 0.036919 0.010343 0.016629
# 5 0.006754 0.002470 0.006881 0.010343 0.049066 0.013293
# 6 0.015713 0.006287 0.005378 0.016629 0.013293 0.058995
#
#
# Mechanical properties :
#
#
# Convention : Reuss Voigt Hill
#
# Bulk Modulus (GPa) = 31.89950 62.76077 47.33014
# Shear Modulus (GPa) = 24.70259 33.56331 29.13295
#
# Velocity S-wave (km/s) = 3.41093 3.97589 3.70420
# Velocity P-wave (km/s) = 5.52600 7.11590 6.37074
#
# Compressibility (1/GPa) = 0.03134845
#
# Stress axis : x y z
#
# Youngs Moduli (GPa) = 59.77435 78.63071 102.91920
#
# Poissons Ratio (x) = 0.13707 0.03353
# Poissons Ratio (y) = 0.10420 0.18923
# Poissons Ratio (z) = 0.01947 0.14457
#
# Static dielectric constant tensor:
#      x y z
#    x 1.754730 0.062660 -0.005960 
#    y 0.062660 1.880670 0.042610 
#    z -0.005960 0.042610 1.924050 
# 
# From -- ./inp_files/242609.got.cif
#   From: 2010.05.17/outbox.cif.g08.bks.cpg/sg2_122_cif.got.tgz:242609.got - 2010.06.03 11:33:40.
