data_PCOD9019196
_publ_section_title
;
Structure prediction by ZEFSAII (Michael W. Deem and Ramdas Pophale) SiO2 
 PCOD9019196
Probable space group: P -1
;
_chemical_formula_sum "Si O2"
_cell_formula_units_Z 16
_cell_length_a 16.337828
_cell_length_b 8.642833
_cell_length_c 10.846315
_cell_angle_alpha 45.532154
_cell_angle_beta 132.473175
_cell_angle_gamma 106.206419
_cell_volume 749.478807
_symmetry_space_group_name_H-M "P -1"
_symmetry_group_IT_number 2
_symmetry_cell_setting 'triclinic'
loop_
_space_group_symop_operation_xyz
x,y,z
-x,-y,-z
loop_
_atom_site_type_symbol
_atom_site_label
_atom_site_fract_x
_atom_site_fract_y
_atom_site_fract_z
Si Si1 0.827884 0.721657 0.353391
Si Si2 0.784604 0.441224 0.253142
Si Si3 0.682824 0.658571 0.455292
Si Si4 0.780778 0.248727 0.936267
Si Si5 0.320621 0.926877 0.646269
Si Si6 0.517826 0.769581 0.723236
Si Si7 0.561090 0.346476 0.836603
Si Si8 0.954002 0.279145 0.284740
O O1 0.847300 0.534431 0.370578
O O2 0.714061 0.727549 0.313837
O O3 0.932521 0.659763 0.596519
O O4 0.812522 0.970845 0.136881
O O5 0.772584 0.195484 0.411582
O O6 0.855874 0.399417 0.221740
O O7 0.651398 0.633157 0.988153
O O8 0.747374 0.382623 0.698923
O O9 0.541191 0.725681 0.286178
O O10 0.722501 0.799862 0.522923
O O11 0.660299 0.354175 0.837456
O O12 0.886289 0.315668 0.066322
O O13 0.424765 0.837203 0.702373
O O14 0.371266 0.823370 0.889537
O O15 0.497796 0.590242 0.706171
O O16 0.500000 0.000000 0.500000
O O17 0.000000 0.000000 0.500000
#
# Coordination Sequence:
#
# PCOD9019196 Si02
#       8
#     2   2   2   2   2   2   2   2
#     4  11  24  42  66  91 127 168 215 266 313 372
#     4  11  22  42  66  90 126 168 213 258 323 377
#     4  12  24  38  66  96 132 167 212 259 316 383
#     4  11  23  41  64  95 125 169 210 265 316 376
#     4  11  21  38  61  91 130 175 203 253 319 384
#     4  11  23  35  59  94 135 169 203 258 320 387
#     4  11  21  40  58  92 132 165 215 251 319 385
#     4  10  21  44  69  90 122 166 221 266 316 364
#
# _framework density 21.348165999999999
#
# number of rings (size 3 to 8) (size 9 to 14) (size 15 to 20)
#    0.000    1.000    3.750    5.625    3.500    0.500 
#    0.000    0.000    0.000    4.500    0.000    0.000 
#    0.000    0.000    0.000    0.000    0.000    0.000 
#
# Total GULP energy -89356.671448 kJ/mol
# GULP energy per Si atom -5584.791966 kJ/mol
# Density = 2.129958 g / cm^3
# Si number density = 21.348166 Si / 1000 Ang^3
#
#
#
# Elastic Constant Matrix: (Units=GPa)
#
#
# Indices 1 2 3 4 5 6 
#
# 1 23.2616 -1.5036 -7.2980 -10.5537 -1.4232 -1.3983
# 2 -1.5036 110.7250 26.0692 7.6339 -8.8434 6.0596
# 3 -7.2980 26.0692 49.8135 -6.3741 -10.1235 17.5606
# 4 -10.5537 7.6339 -6.3741 26.7382 7.7275 8.1565
# 5 -1.4232 -8.8434 -10.1235 7.7275 21.8083 -2.3327
# 6 -1.3983 6.0596 17.5606 8.1565 -2.3327 26.8121
#
#
#
# Elastic Compliance Matrix: (Units=1/GPa)
#
#
# Indices 1 2 3 4 5 6 
#
# 1 0.071928 -0.008317 0.030507 0.048436 -0.004836 -0.029505
# 2 -0.008317 0.012541 -0.011745 -0.013870 0.004976 0.009076
# 3 0.030507 -0.011745 0.050457 0.039048 0.002487 -0.040464
# 4 0.048436 -0.013870 0.039048 0.091266 -0.021981 -0.049590
# 5 -0.004836 0.004976 0.002487 -0.021981 0.057427 0.008677
# 6 -0.029505 0.009076 -0.040464 -0.049590 0.008677 0.076049
#
#
# Mechanical properties :
#
#
# Convention : Reuss Voigt Hill
#
# Bulk Modulus (GPa) = 6.41776 24.25947 15.33862
# Shear Modulus (GPa) = 12.79698 26.17387 19.48543
#
# Velocity S-wave (km/s) = 2.45101 3.50530 3.02444
# Velocity P-wave (km/s) = 3.32004 5.26984 4.40419
#
# Compressibility (1/GPa) = 0.15581751
#
# Stress axis : x y z
#
# Youngs Moduli (GPa) = 13.90271 79.74138 19.81872
#
# Poissons Ratio (x) = 0.66318 -0.60461
# Poissons Ratio (y) = 0.11562 0.23276
# Poissons Ratio (z) = -0.42413 0.93652
#
# Static dielectric constant tensor:
#      x y z
#    x 1.753730 0.034200 0.005550 
#    y 0.034200 1.850740 -0.013420 
#    z 0.005550 -0.013420 1.796540 
# 
# From -- ./inp_files/446701.got.cif
#   From: 2010.05.17/outbox.cif.g08.bks.cpg/sg2_224_cif.got.tgz:446701.got - 2010.06.03 11:33:40.
