data_PCOD9019970
_publ_section_title
;
Structure prediction by ZEFSAII (Michael W. Deem and Ramdas Pophale) SiO2 
 PCOD9019970
Probable space group: P -1
;
_chemical_formula_sum "Si O2"
_cell_formula_units_Z 16
_cell_length_a 8.399123
_cell_length_b 10.921290
_cell_length_c 10.193409
_cell_angle_alpha 96.189287
_cell_angle_beta 61.366272
_cell_angle_gamma 122.763474
_cell_volume 675.420357
_symmetry_space_group_name_H-M "P -1"
_symmetry_group_IT_number 2
_symmetry_cell_setting 'triclinic'
loop_
_space_group_symop_operation_xyz
x,y,z
-x,-y,-z
loop_
_atom_site_type_symbol
_atom_site_label
_atom_site_fract_x
_atom_site_fract_y
_atom_site_fract_z
Si Si1 0.850973 0.486737 0.321504
Si Si2 0.924749 0.893182 0.748055
Si Si3 0.496882 0.220000 0.245068
Si Si4 0.731462 0.089773 0.569914
Si Si5 0.542372 0.290666 0.624977
Si Si6 0.910543 0.791498 0.325152
Si Si7 0.192141 0.536780 0.022316
Si Si8 0.650936 0.651502 0.043437
O O1 0.660177 0.350873 0.294168
O O2 0.752631 0.442031 0.500820
O O3 0.887086 0.640285 0.284399
O O4 0.080052 0.503578 0.205579
O O5 0.552179 0.931575 0.690622
O O6 0.820128 0.785988 0.900087
O O7 0.150043 0.921173 0.607678
O O8 0.957643 0.050424 0.784360
O O9 0.256322 0.182660 0.306353
O O10 0.614243 0.292590 0.065709
O O11 0.467965 0.309813 0.799462
O O12 0.934177 0.164406 0.601706
O O13 0.621119 0.178846 0.592136
O O14 0.336610 0.247402 0.604344
O O15 0.228585 0.413548 0.942876
O O16 0.000000 0.500000 0.000000
O O17 0.500000 0.500000 0.000000
#
# Coordination Sequence:
#
# PCOD9019970 Si02
#       8
#     2   2   2   2   2   2   2   2
#     4  11  24  43  76 106 141 187 242 291 345 422
#     4  11  24  46  71 103 145 188 232 288 356 425
#     4  10  21  45  74 105 145 190 231 287 358 417
#     4  11  26  45  75 107 142 187 237 288 355 425
#     4  12  27  46  71 106 146 185 239 297 350 415
#     4  11  26  44  73 108 142 181 238 295 351 411
#     4  10  22  42  70 102 136 183 230 280 351 418
#     4  12  27  44  71  99 142 187 230 291 361 417
#
# _framework density 23.688953000000001
#
# number of rings (size 3 to 8) (size 9 to 14) (size 15 to 20)
#    0.000    1.000    1.250    5.625    3.500    7.000 
#    0.000    2.500    0.000    0.000    0.000    0.000 
#    0.000    0.000    0.000    0.000    0.000    0.000 
#
# Total GULP energy -89120.897125 kJ/mol
# GULP energy per Si atom -5570.056070 kJ/mol
# Density = 2.363504 g / cm^3
# Si number density = 23.688953 Si / 1000 Ang^3
#
#
#
# Elastic Constant Matrix: (Units=GPa)
#
#
# Indices 1 2 3 4 5 6 
#
# 1 63.2210 24.5424 7.9009 3.3330 -6.0705 9.5666
# 2 24.5424 136.9315 79.6526 -16.4732 -7.5378 -8.0400
# 3 7.9009 79.6526 143.1580 -10.9983 -2.8111 -11.5015
# 4 3.3330 -16.4732 -10.9983 29.0484 -1.4260 -6.7202
# 5 -6.0705 -7.5378 -2.8111 -1.4260 31.2360 0.0144
# 6 9.5666 -8.0400 -11.5015 -6.7202 0.0144 29.3333
#
#
#
# Elastic Compliance Matrix: (Units=1/GPa)
#
#
# Indices 1 2 3 4 5 6 
#
# 1 0.019713 -0.005080 0.000508 -0.006968 0.002337 -0.009220
# 2 -0.005080 0.012853 -0.005966 0.006718 0.001882 0.004378
# 3 0.000508 -0.005966 0.010567 0.001145 -0.000339 0.002605
# 4 -0.006968 0.006718 0.001145 0.042912 0.002322 0.014393
# 5 0.002337 0.001882 -0.000339 0.002322 0.032998 0.000137
# 6 -0.009220 0.004378 0.002605 0.014393 0.000137 0.042617
#
#
# Mechanical properties :
#
#
# Convention : Reuss Voigt Hill
#
# Bulk Modulus (GPa) = 45.33542 63.05581 54.19562
# Shear Modulus (GPa) = 26.30370 33.33786 29.82078
#
# Velocity S-wave (km/s) = 3.33585 3.75549 3.55187
# Velocity P-wave (km/s) = 5.83237 6.74396 6.30466
#
# Compressibility (1/GPa) = 0.02205781
#
# Stress axis : x y z
#
# Youngs Moduli (GPa) = 50.72826 77.80504 94.63141
#
# Poissons Ratio (x) = 0.39523 -0.04810
# Poissons Ratio (y) = 0.25769 0.56457
# Poissons Ratio (z) = -0.02578 0.46418
#
# Static dielectric constant tensor:
#      x y z
#    x 2.114880 0.063040 0.039890 
#    y 0.063040 1.878340 0.048110 
#    z 0.039890 0.048110 2.076340 
# 
# From -- ./inp_files/492930.got.cif
#   From: 2010.05.17/outbox.cif.g08.bks.cpg/sg2_247_cif.got.tgz:492930.got - 2010.06.03 11:33:40.
