data_PCOD9019443
_publ_section_title
;
Structure prediction by ZEFSAII (Michael W. Deem and Ramdas Pophale) SiO2 
 PCOD9019443
Probable space group: P -1
;
_chemical_formula_sum "Si O2"
_cell_formula_units_Z 13
_cell_length_a 8.039079
_cell_length_b 13.787711
_cell_length_c 7.727485
_cell_angle_alpha 73.815792
_cell_angle_beta 54.360188
_cell_angle_gamma 46.598233
_cell_volume 494.897251
_symmetry_space_group_name_H-M "P -1"
_symmetry_group_IT_number 2
_symmetry_cell_setting 'triclinic'
loop_
_space_group_symop_operation_xyz
x,y,z
-x,-y,-z
loop_
_atom_site_type_symbol
_atom_site_label
_atom_site_fract_x
_atom_site_fract_y
_atom_site_fract_z
Si Si1 0.867647 0.880100 0.816643
Si Si2 0.203204 0.021383 0.816265
Si Si3 0.774883 0.778445 0.413810
Si Si4 0.466357 0.608313 0.674013
Si Si5 0.000000 0.500000 0.500000
Si Si6 0.464103 0.177679 0.838177
Si Si7 0.691949 0.559250 0.184387
O O1 0.192180 0.759849 0.704805
O O2 0.739613 0.017658 0.724567
O O3 0.744232 0.944296 0.049001
O O4 0.736476 0.812359 0.905696
O O5 0.096954 0.151643 0.704740
O O6 0.481878 0.890056 0.628202
O O7 0.000000 0.000000 0.000000
O O8 0.699109 0.763474 0.274419
O O9 0.976838 0.630133 0.442677
O O10 0.656858 0.546007 0.416362
O O11 0.372698 0.526523 0.821865
O O12 0.659323 0.604259 0.690488
O O13 0.503943 0.280211 0.818230
O O14 0.000000 0.500000 0.000000
#
# Coordination Sequence:
#
# PCOD9019443 Si02
#       7
#     2   2   2   2   1   2   2
#     4  10  22  43  73 102 133 184 238 295 353 417
#     4  10  22  43  66  98 135 180 238 285 353 423
#     4  10  23  45  66  97 145 186 226 298 355 418
#     4  11  25  44  70 102 140 186 233 289 353 425
#     4  12  24  46  70 102 146 194 232 286 362 436
#     4  10  21  44  72 102 139 179 236 299 350 420
#     4  11  23  45  69 102 141 178 234 292 351 422
#
# _framework density 26.268080000000001
#
# number of rings (size 3 to 8) (size 9 to 14) (size 15 to 20)
#    0.000    1.538    3.077    0.923    0.000    3.077 
#   13.846   10.769    0.000    0.000    0.000    0.000 
#    0.000    0.000    0.000    0.000    0.000    0.000 
#
# Total GULP energy -72434.204905 kJ/mol
# GULP energy per Si atom -5571.861916 kJ/mol
# Density = 2.620829 g / cm^3
# Si number density = 26.268080 Si / 1000 Ang^3
#
#
#
# Elastic Constant Matrix: (Units=GPa)
#
#
# Indices 1 2 3 4 5 6 
#
# 1 66.3055 58.7015 29.3150 -5.3528 -41.6983 9.5759
# 2 58.7015 214.5113 34.9333 -4.3161 -35.5938 16.3367
# 3 29.3150 34.9333 101.6458 3.9464 -35.9237 1.2154
# 4 -5.3528 -4.3161 3.9464 27.6170 11.7910 -17.0075
# 5 -41.6983 -35.5938 -35.9237 11.7910 51.4080 -2.2703
# 6 9.5759 16.3367 1.2154 -17.0075 -2.2703 36.8003
#
#
#
# Elastic Compliance Matrix: (Units=1/GPa)
#
#
# Indices 1 2 3 4 5 6 
#
# 1 0.041156 -0.005179 0.003255 -0.017203 0.035386 -0.014285
# 2 -0.005179 0.006285 -0.000658 -0.001037 -0.000156 -0.001909
# 3 0.003255 -0.000658 0.014913 -0.011274 0.014956 -0.005335
# 4 -0.017203 -0.001037 -0.011274 0.073036 -0.037679 0.036738
# 5 0.035386 -0.000156 0.014956 -0.037679 0.066126 -0.022967
# 6 -0.014285 -0.001909 -0.005335 0.036738 -0.022967 0.047477
#
#
# Mechanical properties :
#
#
# Convention : Reuss Voigt Hill
#
# Bulk Modulus (GPa) = 17.48583 69.81802 43.65193
# Shear Modulus (GPa) = 18.30038 40.46591 29.38315
#
# Velocity S-wave (km/s) = 2.64233 3.92918 3.34816
# Velocity P-wave (km/s) = 3.99754 6.87178 5.62146
#
# Compressibility (1/GPa) = 0.05718918
#
# Stress axis : x y z
#
# Youngs Moduli (GPa) = 24.29808 159.11089 67.05726
#
# Poissons Ratio (x) = 0.82404 -0.21830
# Poissons Ratio (y) = 0.12584 0.04414
# Poissons Ratio (z) = -0.07910 0.10474
#
# Static dielectric constant tensor:
#      x y z
#    x 2.825740 0.067780 -0.178350 
#    y 0.067780 2.022670 0.275990 
#    z -0.178350 0.275990 1.392720 
# 
# From -- ./inp_files/200548.got.cif
#   From: 2010.05.17/outbox.cif.g08.bks.cpg/sg2_101_cif.got.tgz:200548.got - 2010.06.03 11:33:40.
