data_PCOD9019671
_publ_section_title
;
Structure prediction by ZEFSAII (Michael W. Deem and Ramdas Pophale) SiO2 
 PCOD9019671
Probable space group: P -1
;
_chemical_formula_sum "Si O2"
_cell_formula_units_Z 16
_cell_length_a 16.242897
_cell_length_b 9.020217
_cell_length_c 6.901079
_cell_angle_alpha 102.475901
_cell_angle_beta 81.026886
_cell_angle_gamma 129.264703
_cell_volume 764.097530
_symmetry_space_group_name_H-M "P -1"
_symmetry_group_IT_number 2
_symmetry_cell_setting 'triclinic'
loop_
_space_group_symop_operation_xyz
x,y,z
-x,-y,-z
loop_
_atom_site_type_symbol
_atom_site_label
_atom_site_fract_x
_atom_site_fract_y
_atom_site_fract_z
Si Si1 0.453690 0.024605 0.832867
Si Si2 0.651064 0.269433 0.542686
Si Si3 0.805918 0.896478 0.246617
Si Si4 0.164453 0.731685 0.522332
Si Si5 0.612956 0.710350 0.983858
Si Si6 0.248651 0.286621 0.361256
Si Si7 0.008830 0.404206 0.782069
Si Si8 0.985124 0.025572 0.739855
O O1 0.547955 0.165746 0.685725
O O2 0.400116 0.124466 0.933336
O O3 0.379788 0.822223 0.687014
O O4 0.500000 0.000000 0.000000
O O5 0.728314 0.224615 0.577154
O O6 0.710729 0.496048 0.590917
O O7 0.705497 0.754771 0.105653
O O8 0.776461 0.792499 0.435107
O O9 0.924290 0.965943 0.177885
O O10 0.817085 0.089079 0.326416
O O11 0.108708 0.558021 0.651038
O O12 0.089157 0.677909 0.351612
O O13 0.500000 0.500000 0.000000
O O14 0.660584 0.719398 0.760947
O O15 0.139740 0.149618 0.238854
O O16 0.007804 0.229823 0.802559
O O17 0.000000 0.500000 0.000000
O O18 0.000000 0.000000 0.500000
#
# Coordination Sequence:
#
# PCOD9019671 Si02
#       8
#     2   2   2   2   2   2   2   2
#     4  11  27  47  69  95 138 175 236 291 337 405
#     4  11  25  45  69 100 132 185 227 282 349 400
#     4  11  25  44  73  98 140 184 220 284 338 404
#     4  11  23  42  67  97 140 177 226 276 336 407
#     4  12  27  48  67 107 133 175 237 281 340 408
#     4  11  25  42  74 100 141 177 223 282 343 406
#     4  11  25  41  67 102 138 179 225 276 333 410
#     4  10  21  45  66 101 138 177 222 268 342 407
#
# _framework density 20.939736
#
# number of rings (size 3 to 8) (size 9 to 14) (size 15 to 20)
#    0.000    1.000    5.000    1.500    7.000    3.000 
#    0.000    0.000    0.000    0.000    0.000    0.000 
#    0.000    0.000    0.000    0.000    0.000    0.000 
#
# Total GULP energy -89455.396041 kJ/mol
# GULP energy per Si atom -5590.962253 kJ/mol
# Density = 2.089208 g / cm^3
# Si number density = 20.939736 Si / 1000 Ang^3
#
#
#
# Elastic Constant Matrix: (Units=GPa)
#
#
# Indices 1 2 3 4 5 6 
#
# 1 132.0808 42.3598 23.5634 7.6027 -14.2793 -4.4764
# 2 42.3598 115.8815 16.2282 22.9692 -2.5524 -12.1694
# 3 23.5634 16.2282 61.9182 9.7270 0.4265 -4.4985
# 4 7.6027 22.9692 9.7270 25.5567 -3.0878 -6.0590
# 5 -14.2793 -2.5524 0.4265 -3.0878 44.8605 7.6157
# 6 -4.4764 -12.1694 -4.4985 -6.0590 7.6157 38.2788
#
#
#
# Elastic Compliance Matrix: (Units=1/GPa)
#
#
# Indices 1 2 3 4 5 6 
#
# 1 0.009392 -0.003321 -0.003017 0.001548 0.003050 -0.000674
# 2 -0.003321 0.011914 -0.000233 -0.009282 -0.001386 0.002178
# 3 -0.003017 -0.000233 0.018370 -0.005822 -0.001745 0.001158
# 4 0.001548 -0.009282 -0.005822 0.050511 0.002821 0.003980
# 5 0.003050 -0.001386 -0.001745 0.002821 0.024184 -0.004654
# 6 -0.000674 0.002178 0.001158 0.003980 -0.004654 0.028430
#
#
# Mechanical properties :
#
#
# Convention : Reuss Voigt Hill
#
# Bulk Modulus (GPa) = 37.68613 52.68701 45.18657
# Shear Modulus (GPa) = 30.34194 36.92115 33.63154
#
# Velocity S-wave (km/s) = 3.81072 4.20361 4.01198
# Velocity P-wave (km/s) = 6.11544 6.98401 6.56411
#
# Compressibility (1/GPa) = 0.02653496
#
# Stress axis : x y z
#
# Youngs Moduli (GPa) = 106.46974 83.93289 54.43613
#
# Poissons Ratio (x) = 0.27876 0.16423
# Poissons Ratio (y) = 0.35361 0.01267
# Poissons Ratio (z) = 0.32122 0.01953
#
# Static dielectric constant tensor:
#      x y z
#    x 1.768270 0.034530 -0.001880 
#    y 0.034530 1.730940 0.002030 
#    z -0.001880 0.002030 1.759740 
# 
# From -- ./inp_files/107202.got.cif
#   From: 2010.05.17/outbox.cif.g08.bks.cpg/sg2_54_cif.got.tgz:107202.got - 2010.06.03 11:33:40.
