data_PCOD9019308
_publ_section_title
;
Structure prediction by ZEFSAII (Michael W. Deem and Ramdas Pophale) SiO2 
 PCOD9019308
Probable space group: P -1
;
_chemical_formula_sum "Si O2"
_cell_formula_units_Z 10
_cell_length_a 5.248996
_cell_length_b 19.113089
_cell_length_c 5.303786
_cell_angle_alpha 126.948422
_cell_angle_beta 92.646809
_cell_angle_gamma 113.064719
_cell_volume 361.404085
_symmetry_space_group_name_H-M "P -1"
_symmetry_group_IT_number 2
_symmetry_cell_setting 'triclinic'
loop_
_space_group_symop_operation_xyz
x,y,z
-x,-y,-z
loop_
_atom_site_type_symbol
_atom_site_label
_atom_site_fract_x
_atom_site_fract_y
_atom_site_fract_z
Si Si1 0.222121 0.449856 0.676374
Si Si2 0.239958 0.878395 0.728575
Si Si3 0.861493 0.070326 0.667956
Si Si4 0.413206 0.716001 0.534882
Si Si5 0.574606 0.661202 0.919528
O O1 0.294376 0.544989 0.706876
O O2 0.218852 0.366453 0.300204
O O3 0.500000 0.500000 0.000000
O O4 0.918072 0.388280 0.689130
O O5 0.078090 0.857121 0.408497
O O6 0.371609 0.807878 0.640399
O O7 0.041462 0.872649 0.940847
O O8 0.500000 0.000000 0.000000
O O9 0.500000 0.000000 0.500000
O O10 0.000000 0.000000 0.500000
O O11 0.504388 0.724651 0.851706
O O12 0.603479 0.700758 0.294133
#
# Coordination Sequence:
#
# PCOD9019308 Si02
#       5
#     2   2   2   2   2
#     4  11  25  44  67 105 135 175 234 278 359 412
#     4  10  23  46  66 100 135 181 234 287 345 417
#     4  10  21  44  70  97 133 185 234 290 352 408
#     4  12  25  44  69  99 139 181 231 276 356 408
#     4  11  25  43  69  98 137 180 223 292 338 423
#
# _framework density 27.66986
#
# number of rings (size 3 to 8) (size 9 to 14) (size 15 to 20)
#    0.000    1.200    2.000    3.000    5.600    0.000 
#   21.600    0.000    0.000    0.000    0.000    0.000 
#    0.000    0.000    0.000    0.000    0.000    0.000 
#
# Total GULP energy -55999.718032 kJ/mol
# GULP energy per Si atom -5599.971803 kJ/mol
# Density = 2.760688 g / cm^3
# Si number density = 27.669860 Si / 1000 Ang^3
#
#
#
# Elastic Constant Matrix: (Units=GPa)
#
#
# Indices 1 2 3 4 5 6 
#
# 1 100.3530 40.6481 43.6529 -15.2995 -13.1227 15.6222
# 2 40.6481 226.1774 50.1471 -24.8793 -17.1497 -7.4906
# 3 43.6529 50.1471 205.5490 -44.7191 -24.4932 -8.5484
# 4 -15.2995 -24.8793 -44.7191 66.9812 1.4785 -5.2318
# 5 -13.1227 -17.1497 -24.4932 1.4785 64.0234 4.9781
# 6 15.6222 -7.4906 -8.5484 -5.2318 4.9781 67.7035
#
#
#
# Elastic Compliance Matrix: (Units=1/GPa)
#
#
# Indices 1 2 3 4 5 6 
#
# 1 0.012352 -0.001703 -0.002051 0.000523 0.001541 -0.003370
# 2 -0.001703 0.005054 -0.000480 0.001225 0.000720 0.000933
# 3 -0.002051 -0.000480 0.006503 0.003766 0.001743 0.001404
# 4 0.000523 0.001225 0.003766 0.018129 0.001318 0.001794
# 5 0.001541 0.000720 0.001743 0.001318 0.016857 -0.001194
# 6 -0.003370 0.000933 0.001404 0.001794 -0.001194 0.016055
#
#
# Mechanical properties :
#
#
# Convention : Reuss Voigt Hill
#
# Bulk Modulus (GPa) = 64.75759 88.99729 76.87744
# Shear Modulus (GPa) = 56.45526 66.25037 61.35282
#
# Velocity S-wave (km/s) = 4.52189 4.89848 4.71395
# Velocity P-wave (km/s) = 7.12164 8.01419 7.58106
#
# Compressibility (1/GPa) = 0.01544220
#
# Stress axis : x y z
#
# Youngs Moduli (GPa) = 80.95583 197.86272 153.77189
#
# Poissons Ratio (x) = 0.33687 0.31535
# Poissons Ratio (y) = 0.13783 0.07387
# Poissons Ratio (z) = 0.16602 0.09505
#
# Static dielectric constant tensor:
#      x y z
#    x 2.136960 0.013260 0.065460 
#    y 0.013260 2.183190 0.017830 
#    z 0.065460 0.017830 2.237080 
# 
# From -- ./inp_files/2898.got.cif
#   From: 2010.05.17/outbox.cif.g08.bks.cpg/sg2_2_cif.got.tgz:2898.got - 2010.06.03 11:33:40.
