data_PCOD9019918
_publ_section_title
;
Structure prediction by ZEFSAII (Michael W. Deem and Ramdas Pophale) SiO2 
 PCOD9019918
Probable space group: P -1
;
_chemical_formula_sum "Si O2"
_cell_formula_units_Z 16
_cell_length_a 14.781066
_cell_length_b 8.914918
_cell_length_c 8.988954
_cell_angle_alpha 110.859369
_cell_angle_beta 114.431859
_cell_angle_gamma 37.241326
_cell_volume 651.861932
_symmetry_space_group_name_H-M "P -1"
_symmetry_group_IT_number 2
_symmetry_cell_setting 'triclinic'
loop_
_space_group_symop_operation_xyz
x,y,z
-x,-y,-z
loop_
_atom_site_type_symbol
_atom_site_label
_atom_site_fract_x
_atom_site_fract_y
_atom_site_fract_z
Si Si1 0.954832 0.613109 0.345091
Si Si2 0.434985 0.638784 0.171034
Si Si3 0.442132 0.966109 0.164369
Si Si4 0.782744 0.533830 0.178783
Si Si5 0.162597 0.788620 0.114826
Si Si6 0.146366 0.789069 0.631202
Si Si7 0.213611 0.510799 0.327569
Si Si8 0.318007 0.887182 0.791383
O O1 0.902337 0.515144 0.192055
O O2 0.000000 0.500000 0.500000
O O3 0.083422 0.554251 0.325370
O O4 0.795677 0.908592 0.340624
O O5 0.454055 0.805169 0.232337
O O6 0.260490 0.827201 0.172183
O O7 0.533042 0.396742 0.255115
O O8 0.500000 0.500000 0.000000
O O9 0.617802 0.807230 0.207841
O O10 0.338523 0.240341 0.244608
O O11 0.365724 0.968539 0.969090
O O12 0.867028 0.329986 0.294502
O O13 0.738234 0.458651 0.001252
O O14 0.149530 0.717003 0.237145
O O15 0.000000 0.000000 0.000000
O O16 0.265488 0.560259 0.515966
O O17 0.211602 0.871043 0.777121
O O18 0.000000 0.000000 0.500000
#
# Coordination Sequence:
#
# PCOD9019918 Si02
#       8
#     2   2   2   2   2   2   2   2
#     4  12  27  48  72 106 150 211 250 304 385 457
#     4  10  21  45  72 107 143 196 242 300 381 448
#     4  11  25  47  77 115 150 189 256 320 377 444
#     4  12  24  47  78 102 154 206 244 305 393 452
#     4  12  27  44  75 116 149 192 259 320 369 447
#     4  12  23  49  74 104 149 208 248 302 383 457
#     4  12  29  47  71 117 155 188 258 318 377 439
#     4  11  22  45  81  99 146 200 259 300 373 464
#
# _framework density 24.545074
#
# number of rings (size 3 to 8) (size 9 to 14) (size 15 to 20)
#    0.000    0.500    6.250    2.250    7.000    2.500 
#    0.000    0.625    0.000    0.000    0.000    0.000 
#    0.000    0.000    0.000    0.000    0.000    0.000 
#
# Total GULP energy -89304.075538 kJ/mol
# GULP energy per Si atom -5581.504721 kJ/mol
# Density = 2.448921 g / cm^3
# Si number density = 24.545074 Si / 1000 Ang^3
#
#
#
# Elastic Constant Matrix: (Units=GPa)
#
#
# Indices 1 2 3 4 5 6 
#
# 1 143.7093 23.5395 29.8928 -16.6747 -3.7928 -1.8748
# 2 23.5395 123.3840 37.7409 -26.4038 -10.2320 -4.1532
# 3 29.8928 37.7409 72.3241 -24.3827 -12.1136 4.0322
# 4 -16.6747 -26.4038 -24.3827 50.6651 7.2654 4.9799
# 5 -3.7928 -10.2320 -12.1136 7.2654 37.1343 -4.9349
# 6 -1.8748 -4.1532 4.0322 4.9799 -4.9349 38.2421
#
#
#
# Elastic Compliance Matrix: (Units=1/GPa)
#
#
# Indices 1 2 3 4 5 6 
#
# 1 0.007706 -0.000443 -0.002695 0.001016 -0.000355 0.000436
# 2 -0.000443 0.010182 -0.004033 0.002947 0.001035 0.001259
# 3 -0.002695 -0.004033 0.019961 0.006422 0.003461 -0.003064
# 4 0.001016 0.002947 0.006422 0.025443 -0.002491 -0.003942
# 5 -0.000355 0.001035 0.003461 -0.002491 0.029305 0.003836
# 6 0.000436 0.001259 -0.003064 -0.003942 0.003836 0.027639
#
#
# Mechanical properties :
#
#
# Convention : Reuss Voigt Hill
#
# Bulk Modulus (GPa) = 42.54210 57.97377 50.25793
# Shear Modulus (GPa) = 35.10911 41.75790 38.43350
#
# Velocity S-wave (km/s) = 3.78616 4.12913 3.96135
# Velocity P-wave (km/s) = 6.04013 6.81201 6.43765
#
# Compressibility (1/GPa) = 0.02350612
#
# Stress axis : x y z
#
# Youngs Moduli (GPa) = 129.77123 98.21288 50.09796
#
# Poissons Ratio (x) = 0.04352 0.13501
# Poissons Ratio (y) = 0.05750 0.20206
# Poissons Ratio (z) = 0.34971 0.39613
#
# Static dielectric constant tensor:
#      x y z
#    x 2.017050 -0.009630 -0.004220 
#    y -0.009630 2.032990 -0.015060 
#    z -0.004220 -0.015060 2.055540 
# 
# From -- ./inp_files/298883.got.cif
#   From: 2010.05.17/outbox.cif.g08.bks.cpg/sg2_150_cif.got.tgz:298883.got - 2010.06.03 11:33:40.
