data_PCOD9019200
_publ_section_title
;
Structure prediction by ZEFSAII (Michael W. Deem and Ramdas Pophale) SiO2 
 PCOD9019200
Probable space group: P -1
;
_chemical_formula_sum "Si O2"
_cell_formula_units_Z 14
_cell_length_a 10.734455
_cell_length_b 11.419551
_cell_length_c 13.165557
_cell_angle_alpha 142.874406
_cell_angle_beta 105.362858
_cell_angle_gamma 102.267789
_cell_volume 643.905160
_symmetry_space_group_name_H-M "P -1"
_symmetry_group_IT_number 2
_symmetry_cell_setting 'triclinic'
loop_
_space_group_symop_operation_xyz
x,y,z
-x,-y,-z
loop_
_atom_site_type_symbol
_atom_site_label
_atom_site_fract_x
_atom_site_fract_y
_atom_site_fract_z
Si Si1 0.669030 0.633683 0.356152
Si Si2 0.811628 0.778714 0.870459
Si Si3 0.248977 0.281849 0.963720
Si Si4 0.772350 0.187108 0.139801
Si Si5 0.981533 0.265488 0.793185
Si Si6 0.981980 0.682115 0.396473
Si Si7 0.636545 0.356183 0.362147
O O1 0.786815 0.591526 0.297730
O O2 0.639890 0.521739 0.387207
O O3 0.812651 0.969808 0.609883
O O4 0.469082 0.472323 0.152768
O O5 0.676683 0.509218 0.581305
O O6 0.816198 0.699921 0.929612
O O7 0.771428 0.961188 0.009395
O O8 0.000000 0.000000 0.000000
O O9 0.172826 0.351578 0.913178
O O10 0.130844 0.959225 0.689571
O O11 0.926268 0.415537 0.248031
O O12 0.781664 0.351154 0.347971
O O13 0.560651 0.973260 0.901093
O O14 0.944935 0.234886 0.644183
O O15 0.000000 0.500000 0.000000
#
# Coordination Sequence:
#
# PCOD9019200 Si02
#       7
#     2   2   2   2   2   2   2
#     4  10  21  44  69  92 130 171 221 267 325 390
#     4  12  24  38  66  99 136 173 213 274 326 392
#     4  11  24  43  67  98 124 175 225 265 329 388
#     4  10  22  42  65  96 132 173 215 257 336 394
#     4  11  26  44  65  94 131 171 218 276 331 384
#     4  10  24  43  67  93 131 173 213 276 324 387
#     4  10  22  42  65  97 135 175 210 268 328 394
#
# _framework density 21.742332999999999
#
# number of rings (size 3 to 8) (size 9 to 14) (size 15 to 20)
#    0.000    1.429    1.429    4.714    4.000    5.143 
#    0.000    0.000    0.000    0.000    0.000    0.000 
#    0.000    0.000    0.000    0.000    0.000    0.000 
#
# Total GULP energy -78185.146462 kJ/mol
# GULP energy per Si atom -5584.653319 kJ/mol
# Density = 2.169285 g / cm^3
# Si number density = 21.742333 Si / 1000 Ang^3
#
#
#
# Elastic Constant Matrix: (Units=GPa)
#
#
# Indices 1 2 3 4 5 6 
#
# 1 51.6234 10.1230 38.5739 -3.0767 7.5994 4.2373
# 2 10.1230 93.6967 64.3687 1.4496 -14.6795 5.5340
# 3 38.5739 64.3687 138.0587 -8.1148 -11.1338 2.5496
# 4 -3.0767 1.4496 -8.1148 38.0555 2.9340 -6.5488
# 5 7.5994 -14.6795 -11.1338 2.9340 41.6589 2.5524
# 6 4.2373 5.5340 2.5496 -6.5488 2.5524 22.6129
#
#
#
# Elastic Compliance Matrix: (Units=1/GPa)
#
#
# Indices 1 2 3 4 5 6 
#
# 1 0.026965 0.002689 -0.009218 -0.000100 -0.006183 -0.004002
# 2 0.002689 0.017247 -0.008589 -0.003462 0.003853 -0.005194
# 3 -0.009218 -0.008589 0.014108 0.002924 0.002044 0.002855
# 4 -0.000100 -0.003462 0.002924 0.028846 -0.003017 0.009231
# 5 -0.006183 0.003853 0.002044 -0.003017 0.027494 -0.003992
# 6 -0.004002 -0.005194 0.002855 0.009231 -0.003992 0.049046
#
#
# Mechanical properties :
#
#
# Convention : Reuss Voigt Hill
#
# Bulk Modulus (GPa) = 35.61034 56.61222 46.11128
# Shear Modulus (GPa) = 24.59389 31.81965 28.20677
#
# Velocity S-wave (km/s) = 3.36691 3.82971 3.60574
# Velocity P-wave (km/s) = 5.61504 6.75647 6.21203
#
# Compressibility (1/GPa) = 0.02808173
#
# Stress axis : x y z
#
# Youngs Moduli (GPa) = 37.08577 57.98084 70.88368
#
# Poissons Ratio (x) = -0.15590 0.65342
# Poissons Ratio (y) = -0.09972 0.60885
# Poissons Ratio (z) = 0.34186 0.49802
#
# Static dielectric constant tensor:
#      x y z
#    x 1.873140 -0.022580 0.006150 
#    y -0.022580 1.795190 0.015480 
#    z 0.006150 0.015480 1.838090 
# 
# From -- ./inp_files/428585.got.cif
#   From: 2010.05.17/outbox.cif.g08.bks.cpg/sg2_215_cif.got.tgz:428585.got - 2010.06.03 11:33:40.
