data_PCOD9019700
_publ_section_title
;
Structure prediction by ZEFSAII (Michael W. Deem and Ramdas Pophale) SiO2 
 PCOD9019700
Probable space group: P -1
;
_chemical_formula_sum "Si O2"
_cell_formula_units_Z 14
_cell_length_a 18.252587
_cell_length_b 8.858803
_cell_length_c 5.239869
_cell_angle_alpha 103.864375
_cell_angle_beta 114.983408
_cell_angle_gamma 50.727861
_cell_volume 594.071821
_symmetry_space_group_name_H-M "P -1"
_symmetry_group_IT_number 2
_symmetry_cell_setting 'triclinic'
loop_
_space_group_symop_operation_xyz
x,y,z
-x,-y,-z
loop_
_atom_site_type_symbol
_atom_site_label
_atom_site_fract_x
_atom_site_fract_y
_atom_site_fract_z
Si Si1 0.969018 0.831512 0.164226
Si Si2 0.594778 0.311904 0.916699
Si Si3 0.228824 0.120619 0.914828
Si Si4 0.077975 0.744671 0.791032
Si Si5 0.712273 0.777707 0.436611
Si Si6 0.491787 0.863128 0.616431
Si Si7 0.305243 0.485775 0.980812
O O1 0.869783 0.858089 0.127486
O O2 0.052452 0.710219 0.458895
O O3 0.946340 0.042576 0.187407
O O4 0.010485 0.742207 0.908782
O O5 0.544746 0.253088 0.617343
O O6 0.500000 0.500000 0.000000
O O7 0.660409 0.377590 0.933329
O O8 0.680255 0.108138 0.097611
O O9 0.216168 0.236944 0.687692
O O10 0.260910 0.188514 0.232633
O O11 0.194804 0.601111 0.984895
O O12 0.705662 0.599216 0.333141
O O13 0.601106 0.975504 0.279241
O O14 0.500000 0.000000 0.500000
O O15 0.601311 0.705519 0.824959
#
# Coordination Sequence:
#
# PCOD9019700 Si02
#       7
#     2   2   2   2   2   2   2
#     4  10  21  45  66  99 134 178 223 281 349 396
#     4  11  23  39  66 104 132 176 230 284 327 406
#     4  11  23  46  68  98 136 188 219 276 350 405
#     4  10  23  40  70 100 132 174 228 287 336 391
#     4  11  25  42  68  97 141 183 221 270 349 409
#     4  11  24  45  68  99 145 185 218 276 347 413
#     4  12  23  43  65 104 133 180 231 287 324 405
#
# _framework density 23.566174
#
# number of rings (size 3 to 8) (size 9 to 14) (size 15 to 20)
#    0.000    1.143    1.429    5.143    0.000    4.571 
#    2.571    4.286    0.000    0.000    0.000    0.000 
#    0.000    0.000    0.000    0.000    0.000    0.000 
#
# Total GULP energy -78278.961808 kJ/mol
# GULP energy per Si atom -5591.354415 kJ/mol
# Density = 2.351254 g / cm^3
# Si number density = 23.566174 Si / 1000 Ang^3
#
#
#
# Elastic Constant Matrix: (Units=GPa)
#
#
# Indices 1 2 3 4 5 6 
#
# 1 155.5245 30.6047 35.3510 0.1924 4.0658 -1.2675
# 2 30.6047 64.6209 35.3545 10.8096 11.2452 7.0777
# 3 35.3510 35.3545 67.5436 3.5444 7.7871 12.2945
# 4 0.1924 10.8096 3.5444 30.5112 -5.8731 7.6877
# 5 4.0658 11.2452 7.7871 -5.8731 35.6795 -5.8650
# 6 -1.2675 7.0777 12.2945 7.6877 -5.8650 40.8878
#
#
#
# Elastic Compliance Matrix: (Units=1/GPa)
#
#
# Indices 1 2 3 4 5 6 
#
# 1 0.007606 -0.002356 -0.003197 0.000954 0.000988 0.001567
# 2 -0.002356 0.025097 -0.010541 -0.008833 -0.006890 -0.000575
# 3 -0.003197 -0.010541 0.023193 0.002174 -0.001995 -0.005943
# 4 0.000954 -0.008833 0.002174 0.038438 0.007670 -0.005222
# 5 0.000988 -0.006890 -0.001995 0.007670 0.032616 0.005059
# 6 0.001567 -0.000575 -0.005943 -0.005222 0.005059 0.028100
#
#
# Mechanical properties :
#
#
# Convention : Reuss Voigt Hill
#
# Bulk Modulus (GPa) = 42.17834 54.47881 48.32858
# Shear Modulus (GPa) = 25.62248 33.84095 29.73171
#
# Velocity S-wave (km/s) = 3.30093 3.79357 3.55579
# Velocity P-wave (km/s) = 5.69780 6.50813 6.11640
#
# Compressibility (1/GPa) = 0.02370885
#
# Stress axis : x y z
#
# Youngs Moduli (GPa) = 131.47646 39.84473 43.11559
#
# Poissons Ratio (x) = 0.09389 0.13782
# Poissons Ratio (y) = 0.30982 0.45448
# Poissons Ratio (z) = 0.42028 0.42000
#
# Static dielectric constant tensor:
#      x y z
#    x 1.902810 -0.008550 -0.013570 
#    y -0.008550 1.942120 0.020340 
#    z -0.013570 0.020340 1.898320 
# 
# From -- ./inp_files/107419.got.cif
#   From: 2010.05.17/outbox.cif.g08.bks.cpg/sg2_54_cif.got.tgz:107419.got - 2010.06.03 11:33:40.
