data_PCOD9019176
_publ_section_title
;
Structure prediction by ZEFSAII (Michael W. Deem and Ramdas Pophale) SiO2 
 PCOD9019176
Probable space group: P -1
;
_chemical_formula_sum "Si O2"
_cell_formula_units_Z 12
_cell_length_a 8.742332
_cell_length_b 5.040873
_cell_length_c 17.202605
_cell_angle_alpha 130.886889
_cell_angle_beta 125.009167
_cell_angle_gamma 59.917392
_cell_volume 459.648843
_symmetry_space_group_name_H-M "P -1"
_symmetry_group_IT_number 2
_symmetry_cell_setting 'triclinic'
loop_
_space_group_symop_operation_xyz
x,y,z
-x,-y,-z
loop_
_atom_site_type_symbol
_atom_site_label
_atom_site_fract_x
_atom_site_fract_y
_atom_site_fract_z
Si Si1 0.886933 0.361411 0.254382
Si Si2 0.389061 0.786173 0.346849
Si Si3 0.811065 0.330186 0.394987
Si Si4 0.241679 0.628353 0.439300
Si Si5 0.858098 0.285693 0.876349
Si Si6 0.502026 0.574735 0.925136
O O1 0.864728 0.165802 0.292765
O O2 0.682709 0.506149 0.186825
O O3 0.017883 0.649557 0.361864
O O4 0.007578 0.090174 0.176631
O O5 0.608961 0.598504 0.365670
O O6 0.326155 0.772542 0.415298
O O7 0.253856 0.600509 0.215997
O O8 0.338523 0.205508 0.389787
O O9 0.749876 0.219430 0.442349
O O10 0.000000 0.500000 0.500000
O O11 0.684236 0.322259 0.891899
O O12 0.000000 0.500000 0.000000
O O13 0.500000 0.500000 0.000000
O O14 0.500000 0.000000 0.000000
#
# Coordination Sequence:
#
# PCOD9019176 Si02
#       6
#     2   2   2   2   2   2
#     4  10  23  46  69 106 140 184 234 283 351 414
#     4  11  23  45  69 105 136 185 230 285 346 409
#     4  10  21  44  69 102 141 182 230 288 343 415
#     4  10  24  42  73  98 141 179 232 285 345 409
#     4  11  24  45  73 103 143 184 230 290 345 413
#     4  12  27  46  72 101 139 186 234 287 346 411
#
# _framework density 26.106885999999999
#
# number of rings (size 3 to 8) (size 9 to 14) (size 15 to 20)
#    0.000    1.333    3.333    1.000    2.333    3.333 
#    0.000   25.833    0.000    0.000    0.000    0.000 
#    0.000    0.000    0.000    0.000    0.000    0.000 
#
# Total GULP energy -67174.327527 kJ/mol
# GULP energy per Si atom -5597.860627 kJ/mol
# Density = 2.604747 g / cm^3
# Si number density = 26.106886 Si / 1000 Ang^3
#
#
#
# Elastic Constant Matrix: (Units=GPa)
#
#
# Indices 1 2 3 4 5 6 
#
# 1 166.2748 62.4580 61.1137 -19.2307 -28.4109 -34.8118
# 2 62.4580 82.5993 35.5151 -2.3610 -13.5091 -19.5273
# 3 61.1137 35.5151 184.9681 -25.1860 -13.3276 -17.9212
# 4 -19.2307 -2.3610 -25.1860 53.8236 -17.4664 -5.5412
# 5 -28.4109 -13.5091 -13.3276 -17.4664 72.4211 -13.8022
# 6 -34.8118 -19.5273 -17.9212 -5.5412 -13.8022 71.3357
#
#
#
# Elastic Compliance Matrix: (Units=1/GPa)
#
#
# Indices 1 2 3 4 5 6 
#
# 1 0.011192 -0.005793 -0.000929 0.005614 0.005472 0.005137
# 2 -0.005793 0.017562 -0.001475 -0.001613 0.000650 0.001610
# 3 -0.000929 -0.001475 0.006728 0.003452 0.001704 0.001431
# 4 0.005614 -0.001613 0.003452 0.026185 0.010220 0.007177
# 5 0.005472 0.000650 0.001704 0.010220 0.020382 0.008014
# 6 0.005137 0.001610 0.001431 0.007177 0.008014 0.019433
#
#
# Mechanical properties :
#
#
# Convention : Reuss Voigt Hill
#
# Bulk Modulus (GPa) = 52.38949 83.55732 67.97340
# Shear Modulus (GPa) = 40.24534 57.83313 49.03924
#
# Velocity S-wave (km/s) = 3.93053 4.71174 4.33876
# Velocity P-wave (km/s) = 6.38041 7.85341 7.15492
#
# Compressibility (1/GPa) = 0.01908780
#
# Stress axis : x y z
#
# Youngs Moduli (GPa) = 89.35345 56.94052 148.63626
#
# Poissons Ratio (x) = 0.32987 0.13806
# Poissons Ratio (y) = 0.51765 0.21920
# Poissons Ratio (z) = 0.08300 0.08397
#
# Static dielectric constant tensor:
#      x y z
#    x 2.047970 0.059960 0.067300 
#    y 0.059960 2.221870 0.077570 
#    z 0.067300 0.077570 2.105040 
# 
# From -- ./inp_files/41699.got.cif
#   From: 2010.05.17/outbox.cif.g08.bks.cpg/sg2_21_cif.got.tgz:41699.got - 2010.06.03 11:33:40.
