data_PCOD9019912
_publ_section_title
;
Structure prediction by ZEFSAII (Michael W. Deem and Ramdas Pophale) SiO2 
 PCOD9019912
Probable space group: P -1
;
_chemical_formula_sum "Si O2"
_cell_formula_units_Z 14
_cell_length_a 6.993785
_cell_length_b 29.421536
_cell_length_c 5.361402
_cell_angle_alpha 57.176760
_cell_angle_beta 103.191625
_cell_angle_gamma 140.355250
_cell_volume 553.455128
_symmetry_space_group_name_H-M "P -1"
_symmetry_group_IT_number 2
_symmetry_cell_setting 'triclinic'
loop_
_space_group_symop_operation_xyz
x,y,z
-x,-y,-z
loop_
_atom_site_type_symbol
_atom_site_label
_atom_site_fract_x
_atom_site_fract_y
_atom_site_fract_z
Si Si1 0.286306 0.052989 0.232811
Si Si2 0.054985 0.735775 0.726332
Si Si3 0.893499 0.153853 0.930268
Si Si4 0.603474 0.400882 0.818093
Si Si5 0.514103 0.738535 0.906734
Si Si6 0.522103 0.440598 0.170869
Si Si7 0.959259 0.900127 0.207732
O O1 0.159676 0.981119 0.212335
O O2 0.649037 0.112896 0.205342
O O3 0.000000 0.000000 0.500000
O O4 0.301906 0.115890 0.932671
O O5 0.172563 0.815836 0.391571
O O6 0.312085 0.748845 0.861799
O O7 0.841778 0.659769 0.675597
O O8 0.784944 0.687635 0.997120
O O9 0.841587 0.083618 0.003025
O O10 0.266525 0.233471 0.881509
O O11 0.666635 0.445490 0.447591
O O12 0.696107 0.357953 0.959502
O O13 0.692063 0.455194 0.926350
O O14 0.771245 0.813051 0.556498
O O15 0.500000 0.500000 0.000000
#
# Coordination Sequence:
#
# PCOD9019912 Si02
#       7
#     2   2   2   2   2   2   2
#     4  11  26  45  66 100 135 181 236 294 366 424
#     4  10  24  42  70 103 137 181 237 288 346 426
#     4  12  24  45  71  95 140 183 235 296 361 421
#     4  10  22  43  69 105 142 184 236 287 350 424
#     4  12  23  42  71 102 131 184 235 289 351 420
#     4  10  21  45  72 102 148 189 225 290 356 416
#     4  11  24  43  67  96 133 179 236 293 356 427
#
# _framework density 25.295639000000001
#
# number of rings (size 3 to 8) (size 9 to 14) (size 15 to 20)
#    0.857    0.286    4.286    1.714    0.000    8.000 
#    0.000    1.429    0.000    0.000    0.000    0.000 
#    0.000    0.000    0.000    0.000    0.000    0.000 
#
# Total GULP energy -78275.396854 kJ/mol
# GULP energy per Si atom -5591.099775 kJ/mol
# Density = 2.523807 g / cm^3
# Si number density = 25.295639 Si / 1000 Ang^3
#
#
#
# Elastic Constant Matrix: (Units=GPa)
#
#
# Indices 1 2 3 4 5 6 
#
# 1 165.0919 40.9719 41.9543 3.3356 8.6794 -10.3704
# 2 40.9719 95.4102 27.1333 4.9606 9.6263 -24.7247
# 3 41.9543 27.1333 112.6788 4.7661 19.6732 -23.1207
# 4 3.3356 4.9606 4.7661 34.7783 -5.4176 1.7568
# 5 8.6794 9.6263 19.6732 -5.4176 41.4326 -8.4431
# 6 -10.3704 -24.7247 -23.1207 1.7568 -8.4431 46.0697
#
#
#
# Elastic Compliance Matrix: (Units=1/GPa)
#
#
# Indices 1 2 3 4 5 6 
#
# 1 0.007241 -0.002723 -0.002237 0.000047 -0.000011 -0.000958
# 2 -0.002723 0.013704 -0.000691 -0.002115 -0.001291 0.006239
# 3 -0.002237 -0.000691 0.011583 -0.002156 -0.004290 0.004235
# 4 0.000047 -0.002115 -0.002156 0.030243 0.004960 -0.002451
# 5 -0.000011 -0.001291 -0.004290 0.004960 0.027533 0.002009
# 6 -0.000958 0.006239 0.004235 -0.002451 0.002009 0.027426
#
#
# Mechanical properties :
#
#
# Convention : Reuss Voigt Hill
#
# Bulk Modulus (GPa) = 47.11190 65.92220 56.51705
# Shear Modulus (GPa) = 36.73595 41.99755 39.36675
#
# Velocity S-wave (km/s) = 3.81499 4.07906 3.94923
# Velocity P-wave (km/s) = 6.17013 6.94998 6.57163
#
# Compressibility (1/GPa) = 0.02122606
#
# Stress axis : x y z
#
# Youngs Moduli (GPa) = 138.10409 72.97243 86.33145
#
# Poissons Ratio (x) = 0.19869 0.19312
# Poissons Ratio (y) = 0.37603 0.05967
# Poissons Ratio (z) = 0.30894 0.05043
#
# Static dielectric constant tensor:
#      x y z
#    x 1.979400 0.038030 -0.040070 
#    y 0.038030 2.086980 0.039850 
#    z -0.040070 0.039850 1.998100 
# 
# From -- ./inp_files/14871.got.cif
#   From: 2010.05.17/outbox.cif.g08.bks.cpg/sg2_8_cif.got.tgz:14871.got - 2010.06.03 11:33:40.
