data_PCOD9019275
_publ_section_title
;
Structure prediction by ZEFSAII (Michael W. Deem and Ramdas Pophale) SiO2 
 PCOD9019275
Probable space group: P -1
;
_chemical_formula_sum "Si O2"
_cell_formula_units_Z 16
_cell_length_a 8.755297
_cell_length_b 13.246793
_cell_length_c 7.436120
_cell_angle_alpha 128.528127
_cell_angle_beta 100.526194
_cell_angle_gamma 66.339576
_cell_volume 615.242079
_symmetry_space_group_name_H-M "P -1"
_symmetry_group_IT_number 2
_symmetry_cell_setting 'triclinic'
loop_
_space_group_symop_operation_xyz
x,y,z
-x,-y,-z
loop_
_atom_site_type_symbol
_atom_site_label
_atom_site_fract_x
_atom_site_fract_y
_atom_site_fract_z
Si Si1 0.533940 0.727083 0.467809
Si Si2 0.111132 0.296577 0.871547
Si Si3 0.382486 0.652555 0.692944
Si Si4 0.664512 0.942166 0.840758
Si Si5 0.130437 0.739010 0.476021
Si Si6 0.322233 0.843287 0.205637
Si Si7 0.243916 0.503628 0.973972
Si Si8 0.923257 0.941546 0.181351
O O1 0.436296 0.737817 0.645226
O O2 0.626659 0.572586 0.236600
O O3 0.670142 0.792605 0.617273
O O4 0.414105 0.819997 0.389290
O O5 0.156119 0.149642 0.816392
O O6 0.233514 0.377684 0.956129
O O7 0.040347 0.272838 0.637181
O O8 0.942836 0.411346 0.050639
O O9 0.500000 0.500000 0.500000
O O10 0.191056 0.688186 0.632239
O O11 0.398081 0.703404 0.948752
O O12 0.642294 0.039738 0.771426
O O13 0.500000 0.000000 0.000000
O O14 0.113834 0.896044 0.614184
O O15 0.260364 0.623621 0.239696
O O16 0.122787 0.875765 0.188703
O O17 0.164884 0.061817 0.031542
#
# Coordination Sequence:
#
# PCOD9019275 Si02
#       8
#     2   2   2   2   2   2   2   2
#     4  12  27  50  78 109 156 209 255 316 394 463
#     4   9  22  42  69 115 148 197 260 313 381 469
#     4  12  27  46  74 110 155 198 264 322 375 464
#     4  12  27  50  74 115 160 197 258 323 390 458
#     4  10  21  44  70 106 151 192 251 318 379 456
#     4  12  28  49  77 117 151 209 256 318 394 467
#     4   9  23  43  72 108 151 203 257 311 388 467
#     4  12  25  44  81 112 158 200 258 325 393 453
#
# _framework density 26.006022000000002
#
# number of rings (size 3 to 8) (size 9 to 14) (size 15 to 20)
#    0.750    0.250    2.500    2.625    5.250    3.000 
#    0.000    0.625    0.000    0.000    0.000    0.000 
#    0.000    0.000    0.000    0.000    0.000    0.000 
#
# Total GULP energy -89492.438792 kJ/mol
# GULP energy per Si atom -5593.277425 kJ/mol
# Density = 2.594683 g / cm^3
# Si number density = 26.006022 Si / 1000 Ang^3
#
#
#
# Elastic Constant Matrix: (Units=GPa)
#
#
# Indices 1 2 3 4 5 6 
#
# 1 100.9577 25.3170 46.1994 5.7262 -3.5396 -7.5783
# 2 25.3170 109.8709 19.5249 22.9723 14.2916 11.6748
# 3 46.1994 19.5249 112.0015 20.9752 13.1876 -2.7502
# 4 5.7262 22.9723 20.9752 50.2519 3.6285 4.9119
# 5 -3.5396 14.2916 13.1876 3.6285 45.4862 0.9665
# 6 -7.5783 11.6748 -2.7502 4.9119 0.9665 37.2363
#
#
#
# Elastic Compliance Matrix: (Units=1/GPa)
#
#
# Indices 1 2 3 4 5 6 
#
# 1 0.013590 -0.003272 -0.005710 0.001778 0.003534 0.003044
# 2 -0.003272 0.011555 0.000518 -0.004517 -0.003599 -0.003561
# 3 -0.005710 0.000518 0.012511 -0.004558 -0.003877 0.000302
# 4 0.001778 -0.004517 -0.004558 0.023759 0.001020 -0.001719
# 5 0.003534 -0.003599 -0.003877 0.001020 0.024416 0.000793
# 6 0.003044 -0.003561 0.000302 -0.001719 0.000793 0.028820
#
#
# Mechanical properties :
#
#
# Convention : Reuss Voigt Hill
#
# Bulk Modulus (GPa) = 48.24440 56.10143 52.17292
# Shear Modulus (GPa) = 36.10442 42.04747 39.07594
#
# Velocity S-wave (km/s) = 3.73005 4.02535 3.88051
# Velocity P-wave (km/s) = 6.09446 6.57449 6.33902
#
# Compressibility (1/GPa) = 0.02072779
#
# Stress axis : x y z
#
# Youngs Moduli (GPa) = 73.58384 86.54614 79.93081
#
# Poissons Ratio (x) = 0.28315 0.45638
# Poissons Ratio (y) = 0.24074 -0.04137
# Poissons Ratio (z) = 0.42014 -0.04479
#
# Static dielectric constant tensor:
#      x y z
#    x 2.090400 0.003300 -0.057000 
#    y 0.003300 2.055140 -0.016350 
#    z -0.057000 -0.016350 2.064430 
# 
# From -- ./inp_files/265869.got.cif
#   From: 2010.05.17/outbox.cif.g08.bks.cpg/sg2_133_cif.got.tgz:265869.got - 2010.06.03 11:33:40.
