data_PCOD9019343
_publ_section_title
;
Structure prediction by ZEFSAII (Michael W. Deem and Ramdas Pophale) SiO2 
 PCOD9019343
Probable space group: P -1
;
_chemical_formula_sum "Si O2"
_cell_formula_units_Z 16
_cell_length_a 7.920184
_cell_length_b 11.556436
_cell_length_c 21.878387
_cell_angle_alpha 152.286446
_cell_angle_beta 44.524865
_cell_angle_gamma 130.139196
_cell_volume 652.465086
_symmetry_space_group_name_H-M "P -1"
_symmetry_group_IT_number 2
_symmetry_cell_setting 'triclinic'
loop_
_space_group_symop_operation_xyz
x,y,z
-x,-y,-z
loop_
_atom_site_type_symbol
_atom_site_label
_atom_site_fract_x
_atom_site_fract_y
_atom_site_fract_z
Si Si1 0.473850 0.154500 0.200901
Si Si2 0.774127 0.418155 0.874490
Si Si3 0.069536 0.771892 0.633193
Si Si4 0.499807 0.045072 0.597437
Si Si5 0.202531 0.050354 0.417816
Si Si6 0.308779 0.411740 0.740638
Si Si7 0.171387 0.229648 0.088042
Si Si8 0.223628 0.636954 0.663255
O O1 0.191133 0.117007 0.245826
O O2 0.582486 0.371964 0.229693
O O3 0.583294 0.237490 0.278977
O O4 0.576505 0.893162 0.032490
O O5 0.825569 0.547805 0.856445
O O6 0.041159 0.479613 0.864664
O O7 0.796219 0.123074 0.722801
O O8 0.500000 0.500000 0.000000
O O9 0.000000 0.500000 0.500000
O O10 0.211240 0.732480 0.641917
O O11 0.236391 0.913038 0.606604
O O12 0.484264 0.324319 0.707878
O O13 0.574525 0.051041 0.650371
O O14 0.667179 0.850303 0.427443
O O15 0.235763 0.339182 0.527491
O O16 0.000000 0.000000 0.500000
O O17 0.041996 0.306246 0.217884
O O18 0.000000 0.000000 0.000000
#
# Coordination Sequence:
#
# PCOD9019343 Si02
#       8
#     2   2   2   2   2   2   2   2
#     4  11  23  46  75 100 143 192 234 298 370 426
#     4  12  26  42  72 110 138 190 241 293 364 423
#     4  12  27  42  68 112 141 184 243 306 362 418
#     4  11  25  43  68 106 143 179 241 299 352 426
#     4  12  22  44  73 101 139 189 242 289 353 434
#     4  11  22  46  68  99 142 184 234 285 361 431
#     4  10  21  44  71 100 145 190 243 291 364 438
#     4  11  24  45  74 104 141 191 247 294 355 442
#
# _framework density 24.522383999999999
#
# number of rings (size 3 to 8) (size 9 to 14) (size 15 to 20)
#    0.000    0.750    7.500    0.000    5.250    4.500 
#    0.000    0.625    0.000    0.000    0.000    0.000 
#    0.000    0.000    0.000    0.000    0.000    0.000 
#
# Total GULP energy -89246.519976 kJ/mol
# GULP energy per Si atom -5577.907499 kJ/mol
# Density = 2.446657 g / cm^3
# Si number density = 24.522384 Si / 1000 Ang^3
#
#
#
# Elastic Constant Matrix: (Units=GPa)
#
#
# Indices 1 2 3 4 5 6 
#
# 1 91.5023 40.7122 19.4149 -2.5708 -21.4274 -12.3690
# 2 40.7122 104.4812 14.0357 -2.9470 3.2790 -4.7691
# 3 19.4149 14.0357 105.3298 1.0283 -25.7853 5.1908
# 4 -2.5708 -2.9470 1.0283 37.9262 3.1388 -13.7276
# 5 -21.4274 3.2790 -25.7853 3.1388 34.7719 -5.4764
# 6 -12.3690 -4.7691 5.1908 -13.7276 -5.4764 41.9871
#
#
#
# Elastic Compliance Matrix: (Units=1/GPa)
#
#
# Indices 1 2 3 4 5 6 
#
# 1 0.018025 -0.007125 0.000455 0.002044 0.013005 0.006809
# 2 -0.007125 0.012847 -0.002180 0.000800 -0.007461 -0.001081
# 3 0.000455 -0.002180 0.012070 -0.001568 0.009438 -0.000887
# 4 0.002044 0.000800 -0.001568 0.030588 -0.001046 0.010751
# 5 0.013005 -0.007461 0.009438 -0.001046 0.045742 0.007441
# 6 0.006809 -0.001081 -0.000887 0.010751 0.007441 0.030295
#
#
# Mechanical properties :
#
#
# Convention : Reuss Voigt Hill
#
# Bulk Modulus (GPa) = 39.61270 49.95990 44.78630
# Shear Modulus (GPa) = 28.46052 38.08042 33.27047
#
# Velocity S-wave (km/s) = 3.41044 3.94494 3.68739
# Velocity P-wave (km/s) = 5.63000 6.41619 6.03591
#
# Compressibility (1/GPa) = 0.02524443
#
# Stress axis : x y z
#
# Youngs Moduli (GPa) = 55.47737 77.83653 82.84871
#
# Poissons Ratio (x) = 0.55455 -0.03770
# Poissons Ratio (y) = 0.39525 0.18059
# Poissons Ratio (z) = -0.02524 0.16966
#
# Static dielectric constant tensor:
#      x y z
#    x 2.037630 -0.075990 0.094560 
#    y -0.075990 1.776360 0.126870 
#    z 0.094560 0.126870 1.896560 
# 
# From -- ./inp_files/607638.got.cif
#   From: 2010.05.17/outbox.cif.g08.bks.cpg/sg2_304_cif.got.tgz:607638.got - 2010.06.03 11:33:40.
