data_PCOD9019167
_publ_section_title
;
Structure prediction by ZEFSAII (Michael W. Deem and Ramdas Pophale) SiO2 
 PCOD9019167
Probable space group: P -1
;
_chemical_formula_sum "Si O2"
_cell_formula_units_Z 16
_cell_length_a 9.591707
_cell_length_b 24.782385
_cell_length_c 21.562110
_cell_angle_alpha 160.150699
_cell_angle_beta 27.570672
_cell_angle_gamma 150.684526
_cell_volume 781.389267
_symmetry_space_group_name_H-M "P -1"
_symmetry_group_IT_number 2
_symmetry_cell_setting 'triclinic'
loop_
_space_group_symop_operation_xyz
x,y,z
-x,-y,-z
loop_
_atom_site_type_symbol
_atom_site_label
_atom_site_fract_x
_atom_site_fract_y
_atom_site_fract_z
Si Si1 0.319594 0.443482 0.322095
Si Si2 0.342875 0.112579 0.501284
Si Si3 0.444458 0.404200 0.483053
Si Si4 0.327194 0.343273 0.983757
Si Si5 0.274544 0.696718 0.332624
Si Si6 0.672113 0.539678 0.170466
Si Si7 0.189632 0.866413 0.964160
Si Si8 0.828230 0.932804 0.058852
O O1 0.460297 0.466900 0.360034
O O2 0.554172 0.552254 0.299381
O O3 0.000000 0.500000 0.500000
O O4 0.301257 0.259137 0.109861
O O5 0.504730 0.161755 0.558714
O O6 0.324083 0.290457 0.678945
O O7 0.576278 0.033003 0.283942
O O8 0.000000 0.000000 0.500000
O O9 0.500000 0.500000 0.500000
O O10 0.689428 0.293373 0.273701
O O11 0.087941 0.300539 0.518803
O O12 0.571267 0.296874 0.789442
O O13 0.258947 0.510840 0.163635
O O14 0.459884 0.398290 0.059194
O O15 0.036014 0.192748 0.951756
O O16 0.000000 0.500000 0.000000
O O17 0.034363 0.934731 0.041174
O O18 0.500000 0.000000 0.000000
O O19 0.000000 0.000000 0.000000
#
# Coordination Sequence:
#
# PCOD9019167 Si02
#       8
#     2   2   2   2   2   2   2   2
#     4  12  24  44  73 101 134 187 244 290 348 423
#     4  11  26  45  68 104 144 186 235 296 363 423
#     4  12  25  45  73 107 139 186 241 297 353 432
#     4  10  21  44  69 101 139 183 241 293 346 431
#     4  10  23  43  72 102 139 187 238 292 357 426
#     4  11  22  43  73  99 136 183 241 294 345 427
#     4  12  26  45  69 104 147 186 231 298 365 420
#     4  12  27  45  69 102 146 185 236 298 361 421
#
# _framework density 20.47635
#
# number of rings (size 3 to 8) (size 9 to 14) (size 15 to 20)
#    0.000    0.750    3.750    3.000    5.250    3.000 
#    0.000    1.250    0.000    0.000    0.000    0.000 
#    0.000    0.000    0.000    0.000    0.000    0.000 
#
# Total GULP energy -89318.571056 kJ/mol
# GULP energy per Si atom -5582.410691 kJ/mol
# Density = 2.042974 g / cm^3
# Si number density = 20.476350 Si / 1000 Ang^3
#
#
#
# Elastic Constant Matrix: (Units=GPa)
#
#
# Indices 1 2 3 4 5 6 
#
# 1 118.4309 53.2646 31.1427 -15.4597 13.2589 2.8302
# 2 53.2646 125.1726 28.4396 -21.4104 8.3277 2.9252
# 3 31.1427 28.4396 99.1736 -26.6210 -2.0395 7.0990
# 4 -15.4597 -21.4104 -26.6210 44.2783 8.9100 6.6317
# 5 13.2589 8.3277 -2.0395 8.9100 38.8101 -1.1396
# 6 2.8302 2.9252 7.0990 6.6317 -1.1396 33.3611
#
#
#
# Elastic Compliance Matrix: (Units=1/GPa)
#
#
# Indices 1 2 3 4 5 6 
#
# 1 0.011333 -0.003816 -0.002033 0.001706 -0.003571 -0.000655
# 2 -0.003816 0.010615 -0.000733 0.003949 -0.001958 -0.001303
# 3 -0.002033 -0.000733 0.013254 0.007582 -0.000313 -0.004101
# 4 0.001706 0.003949 0.007582 0.032757 -0.008814 -0.008917
# 5 -0.003571 -0.001958 -0.000313 -0.008814 0.029510 0.003301
# 6 -0.000655 -0.001303 -0.004101 -0.008917 0.003301 0.032903
#
#
# Mechanical properties :
#
#
# Convention : Reuss Voigt Hill
#
# Bulk Modulus (GPa) = 45.37414 63.16343 54.26878
# Shear Modulus (GPa) = 33.13843 38.61858 35.87850
#
# Velocity S-wave (km/s) = 4.02727 4.34753 4.19046
# Velocity P-wave (km/s) = 6.62062 7.49102 7.06923
#
# Compressibility (1/GPa) = 0.02203899
#
# Stress axis : x y z
#
# Youngs Moduli (GPa) = 88.24094 94.20292 75.44785
#
# Poissons Ratio (x) = 0.35946 0.15339
# Poissons Ratio (y) = 0.33671 0.05529
# Poissons Ratio (z) = 0.17940 0.06903
#
# Static dielectric constant tensor:
#      x y z
#    x 1.772410 0.015100 0.018540 
#    y 0.015100 1.933400 0.094650 
#    z 0.018540 0.094650 1.790690 
# 
# From -- ./inp_files/500773.got.cif
#   From: 2010.05.17/outbox.cif.g08.bks.cpg/sg2_251_cif.got.tgz:500773.got - 2010.06.03 11:33:40.
