data_PCOD9019934
_publ_section_title
;
Structure prediction by ZEFSAII (Michael W. Deem and Ramdas Pophale) SiO2 
 PCOD9019934
Probable space group: P -1
;
_chemical_formula_sum "Si O2"
_cell_formula_units_Z 16
_cell_length_a 9.001669
_cell_length_b 11.870166
_cell_length_c 13.670351
_cell_angle_alpha 147.944366
_cell_angle_beta 105.551928
_cell_angle_gamma 81.355857
_cell_volume 738.365816
_symmetry_space_group_name_H-M "P -1"
_symmetry_group_IT_number 2
_symmetry_cell_setting 'triclinic'
loop_
_space_group_symop_operation_xyz
x,y,z
-x,-y,-z
loop_
_atom_site_type_symbol
_atom_site_label
_atom_site_fract_x
_atom_site_fract_y
_atom_site_fract_z
Si Si1 0.419200 0.811673 0.916552
Si Si2 0.951508 0.227518 0.194786
Si Si3 0.397428 0.570360 0.309907
Si Si4 0.471881 0.285715 0.773378
Si Si5 0.892460 0.804259 0.389385
Si Si6 0.099715 0.097480 0.308609
Si Si7 0.557005 0.972497 0.713145
Si Si8 0.040378 0.392337 0.127842
O O1 0.233890 0.778927 0.844342
O O2 0.495588 0.599046 0.757879
O O3 0.500000 0.000000 0.000000
O O4 0.452576 0.883405 0.087536
O O5 0.022080 0.384772 0.236963
O O6 0.016469 0.243404 0.327561
O O7 0.000000 0.000000 0.000000
O O8 0.462791 0.659548 0.282478
O O9 0.417687 0.774954 0.535566
O O10 0.221566 0.456840 0.183945
O O11 0.287739 0.203063 0.675330
O O12 0.555128 0.113941 0.719476
O O13 0.500000 0.500000 0.000000
O O14 0.946291 0.575562 0.206126
O O15 0.908154 0.838023 0.533295
O O16 0.000000 0.000000 0.500000
O O17 0.279306 0.115937 0.321000
O O18 0.026007 0.845864 0.097636
#
# Coordination Sequence:
#
# PCOD9019934 Si02
#       8
#     2   2   2   2   2   2   2   2
#     4  12  25  46  73 104 143 184 232 286 348 419
#     4  10  21  45  72  99 136 181 227 281 341 409
#     4  12  27  44  72 107 139 185 234 285 356 408
#     4  12  25  47  73 100 143 186 230 291 351 411
#     4  12  28  46  69 107 137 179 240 282 341 417
#     4  11  25  46  74  97 140 186 226 285 350 404
#     4  12  25  46  73 102 143 182 235 289 344 417
#     4  11  25  46  71 102 140 181 230 284 348 411
#
# _framework density 21.669476
#
# number of rings (size 3 to 8) (size 9 to 14) (size 15 to 20)
#    0.000    0.500    5.000    4.125    3.500    4.500 
#    0.000    0.000    0.000    0.000    0.000    0.000 
#    0.000    0.000    0.000    0.000    0.000    0.000 
#
# Total GULP energy -89600.311915 kJ/mol
# GULP energy per Si atom -5600.019495 kJ/mol
# Density = 2.162015 g / cm^3
# Si number density = 21.669476 Si / 1000 Ang^3
#
#
#
# Elastic Constant Matrix: (Units=GPa)
#
#
# Indices 1 2 3 4 5 6 
#
# 1 88.9887 13.0030 1.0208 0.5767 23.4207 0.7614
# 2 13.0030 96.2551 7.2203 9.6772 11.4798 -8.5397
# 3 1.0208 7.2203 77.4509 -3.7593 8.0078 -4.1143
# 4 0.5767 9.6772 -3.7593 34.9038 -5.7660 6.2023
# 5 23.4207 11.4798 8.0078 -5.7660 33.2593 9.7198
# 6 0.7614 -8.5397 -4.1143 6.2023 9.7198 32.2416
#
#
#
# Elastic Compliance Matrix: (Units=1/GPa)
#
#
# Indices 1 2 3 4 5 6 
#
# 1 0.014380 0.000054 0.001129 -0.002838 -0.012080 0.004007
# 2 0.000054 0.012427 -0.000355 -0.005826 -0.007158 0.006524
# 3 0.001129 -0.000355 0.013596 0.000217 -0.004790 0.003016
# 4 -0.002838 -0.005826 0.000217 0.034746 0.013552 -0.012218
# 5 -0.012080 -0.007158 -0.004790 0.013552 0.050398 -0.020022
# 6 0.004007 0.006524 0.003016 -0.012218 -0.020022 0.041421
#
#
# Mechanical properties :
#
#
# Convention : Reuss Voigt Hill
#
# Bulk Modulus (GPa) = 23.77621 33.90922 28.84272
# Shear Modulus (GPa) = 27.88166 36.17764 32.02965
#
# Velocity S-wave (km/s) = 3.59092 4.09041 3.84878
# Velocity P-wave (km/s) = 5.30933 6.16368 5.75239
#
# Compressibility (1/GPa) = 0.04205884
#
# Stress axis : x y z
#
# Youngs Moduli (GPa) = 69.54178 80.47221 73.55288
#
# Poissons Ratio (x) = -0.00436 -0.08307
# Poissons Ratio (y) = -0.00377 0.02613
# Poissons Ratio (z) = -0.07854 0.02859
#
# Static dielectric constant tensor:
#      x y z
#    x 1.748980 -0.009910 -0.039190 
#    y -0.009910 1.766490 -0.008910 
#    z -0.039190 -0.008910 1.829720 
# 
# From -- ./inp_files/187960.got.cif
#   From: 2010.05.17/outbox.cif.g08.bks.cpg/sg2_94_cif.got.tgz:187960.got - 2010.06.03 11:33:40.
