data_PCOD9019966
_publ_section_title
;
Structure prediction by ZEFSAII (Michael W. Deem and Ramdas Pophale) SiO2 
 PCOD9019966
Probable space group: P -1
;
_chemical_formula_sum "Si O2"
_cell_formula_units_Z 10
_cell_length_a 10.707568
_cell_length_b 12.210526
_cell_length_c 11.593118
_cell_angle_alpha 144.197420
_cell_angle_beta 135.792821
_cell_angle_gamma 23.968127
_cell_volume 358.318024
_symmetry_space_group_name_H-M "P -1"
_symmetry_group_IT_number 2
_symmetry_cell_setting 'triclinic'
loop_
_space_group_symop_operation_xyz
x,y,z
-x,-y,-z
loop_
_atom_site_type_symbol
_atom_site_label
_atom_site_fract_x
_atom_site_fract_y
_atom_site_fract_z
Si Si1 0.352620 0.156676 0.906946
Si Si2 0.837120 0.219929 0.427719
Si Si3 0.419805 0.506440 0.186258
Si Si4 0.857829 0.329275 0.197702
Si Si5 0.918586 0.503606 0.618815
O O1 0.555034 0.838666 0.694178
O O2 0.418238 0.287932 0.987852
O O3 0.000000 0.500000 0.000000
O O4 0.500000 0.000000 0.000000
O O5 0.500000 0.500000 0.500000
O O6 0.716342 0.277933 0.269596
O O7 0.995367 0.288746 0.586591
O O8 0.092679 0.851386 0.317243
O O9 0.498845 0.579629 0.196919
O O10 0.975787 0.347944 0.403097
O O11 0.922455 0.427743 0.224666
O O12 0.000000 0.000000 0.000000
#
# Coordination Sequence:
#
# PCOD9019966 Si02
#       5
#     2   2   2   2   2
#     4  12  25  44  71 107 145 187 240 297 360 436
#     4  11  23  42  68 102 140 181 236 288 353 428
#     4  11  23  42  67  98 140 183 228 297 353 410
#     4  10  21  45  74 103 147 186 247 301 353 426
#     4  10  23  42  74 107 139 195 241 292 366 427
#
# _framework density 27.908168
#
# number of rings (size 3 to 8) (size 9 to 14) (size 15 to 20)
#    0.000    1.200    2.000    4.200    0.000    5.600 
#    0.000    8.000    0.000    0.000    0.000    0.000 
#    0.000    0.000    0.000    0.000    0.000    0.000 
#
# Total GULP energy -55748.393360 kJ/mol
# GULP energy per Si atom -5574.839336 kJ/mol
# Density = 2.784465 g / cm^3
# Si number density = 27.908168 Si / 1000 Ang^3
#
#
#
# Elastic Constant Matrix: (Units=GPa)
#
#
# Indices 1 2 3 4 5 6 
#
# 1 139.7221 16.2600 48.0529 -8.5525 31.1765 -16.6645
# 2 16.2600 137.2700 23.2257 28.2759 -4.0531 19.3049
# 3 48.0529 23.2257 152.9913 34.1593 19.6557 6.1274
# 4 -8.5525 28.2759 34.1593 35.9254 0.1838 0.9344
# 5 31.1765 -4.0531 19.6557 0.1838 60.4338 2.6831
# 6 -16.6645 19.3049 6.1274 0.9344 2.6831 33.8003
#
#
#
# Elastic Compliance Matrix: (Units=1/GPa)
#
#
# Indices 1 2 3 4 5 6 
#
# 1 0.012782 -0.004558 -0.005637 0.011758 -0.005548 0.010042
# 2 -0.004558 0.011234 0.002412 -0.012001 0.002756 -0.008988
# 3 -0.005637 0.002412 0.011301 -0.013833 -0.000306 -0.005799
# 4 0.011758 -0.012001 -0.013833 0.052886 -0.003151 0.013947
# 5 -0.005548 0.002756 -0.000306 -0.003151 0.019958 -0.005751
# 6 0.010042 -0.008988 -0.005799 0.013947 -0.005751 0.040792
#
#
# Mechanical properties :
#
#
# Convention : Reuss Voigt Hill
#
# Bulk Modulus (GPa) = 50.63603 67.22895 58.93249
# Shear Modulus (GPa) = 29.22186 48.86155 39.04170
#
# Velocity S-wave (km/s) = 3.23936 4.18879 3.74429
# Velocity P-wave (km/s) = 5.67225 6.89466 6.31311
#
# Compressibility (1/GPa) = 0.01974878
#
# Stress axis : x y z
#
# Youngs Moduli (GPa) = 78.23745 89.01397 88.48758
#
# Poissons Ratio (x) = 0.40575 0.49883
# Poissons Ratio (y) = 0.35663 -0.21339
# Poissons Ratio (z) = 0.44105 -0.21466
#
# Static dielectric constant tensor:
#      x y z
#    x 2.743140 -0.102600 -0.141190 
#    y -0.102600 2.244670 -0.173310 
#    z -0.141190 -0.173310 2.366780 
# 
# From -- ./inp_files/22103.got.cif
#   From: 2010.05.17/outbox.cif.g08.bks.cpg/sg2_12_cif.got.tgz:22103.got - 2010.06.03 11:33:40.
