data_PCOD9019909
_publ_section_title
;
Structure prediction by ZEFSAII (Michael W. Deem and Ramdas Pophale) SiO2 
 PCOD9019909
Probable space group: P -1
;
_chemical_formula_sum "Si O2"
_cell_formula_units_Z 16
_cell_length_a 12.835030
_cell_length_b 13.887779
_cell_length_c 8.394845
_cell_angle_alpha 109.861666
_cell_angle_beta 148.001362
_cell_angle_gamma 69.258788
_cell_volume 739.192175
_symmetry_space_group_name_H-M "P -1"
_symmetry_group_IT_number 2
_symmetry_cell_setting 'triclinic'
loop_
_space_group_symop_operation_xyz
x,y,z
-x,-y,-z
loop_
_atom_site_type_symbol
_atom_site_label
_atom_site_fract_x
_atom_site_fract_y
_atom_site_fract_z
Si Si1 0.297691 0.343712 0.929281
Si Si2 0.877888 0.855279 0.545272
Si Si3 0.718481 0.462297 0.197278
Si Si4 0.273272 0.744708 0.474199
Si Si5 0.996677 0.596623 0.165864
Si Si6 0.708144 0.034711 0.229382
Si Si7 0.698942 0.251490 0.864010
Si Si8 0.515383 0.909157 0.341019
O O1 0.203386 0.245521 0.688101
O O2 0.230046 0.442287 0.787599
O O3 0.218178 0.368496 0.018022
O O4 0.534011 0.314758 0.220544
O O5 0.723884 0.896235 0.509131
O O6 0.866375 0.940007 0.437342
O O7 0.096530 0.822161 0.874888
O O8 0.863913 0.435005 0.518637
O O9 0.500000 0.500000 0.000000
O O10 0.713044 0.361207 0.025538
O O11 0.085367 0.688849 0.243722
O O12 0.250747 0.862032 0.570391
O O13 0.316589 0.739183 0.340098
O O14 0.000000 0.500000 0.000000
O O15 0.658540 0.061283 0.997618
O O16 0.500000 0.000000 0.000000
O O17 0.523900 0.196594 0.684342
O O18 0.500000 0.000000 0.500000
#
# Coordination Sequence:
#
# PCOD9019909 Si02
#       8
#     2   2   2   2   2   2   2   2
#     4  12  25  46  75  97 142 188 230 288 354 409
#     4  11  25  46  72 102 141 183 232 288 346 418
#     4  12  25  47  74 101 142 184 231 293 350 413
#     4  12  26  47  71 104 141 183 234 289 349 419
#     4  12  28  46  70 107 139 184 240 286 350 419
#     4  10  21  45  72 100 141 180 228 288 344 414
#     4  12  27  45  71 106 139 182 237 287 349 416
#     4  11  24  44  73 104 142 184 229 284 355 414
#
# _framework density 21.645249
#
# number of rings (size 3 to 8) (size 9 to 14) (size 15 to 20)
#    0.000    0.500    5.000    4.125    3.500    4.500 
#    0.000    0.000    0.000    0.000    0.000    0.000 
#    0.000    0.000    0.000    0.000    0.000    0.000 
#
# Total GULP energy -89602.619000 kJ/mol
# GULP energy per Si atom -5600.163688 kJ/mol
# Density = 2.159598 g / cm^3
# Si number density = 21.645249 Si / 1000 Ang^3
#
#
#
# Elastic Constant Matrix: (Units=GPa)
#
#
# Indices 1 2 3 4 5 6 
#
# 1 95.7771 39.4907 10.0811 14.9789 -13.5418 5.4219
# 2 39.4907 150.5364 31.4286 24.2626 -23.0503 7.9109
# 3 10.0811 31.4286 55.7615 7.9040 -20.9634 -4.6639
# 4 14.9789 24.2626 7.9040 50.5184 -10.6217 -5.8206
# 5 -13.5418 -23.0503 -20.9634 -10.6217 49.6851 -1.3396
# 6 5.4219 7.9109 -4.6639 -5.8206 -1.3396 46.1974
#
#
#
# Elastic Compliance Matrix: (Units=1/GPa)
#
#
# Indices 1 2 3 4 5 6 
#
# 1 0.012119 -0.002523 0.000063 -0.002182 0.001660 -0.001211
# 2 -0.002523 0.008850 -0.003865 -0.002886 0.001118 -0.001941
# 3 0.000063 -0.003865 0.023443 0.000287 0.008266 0.003297
# 4 -0.002182 -0.002886 0.000287 0.022884 0.003181 0.003755
# 5 0.001660 0.001118 0.008266 0.003181 0.025308 0.001583
# 6 -0.001211 -0.001941 0.003297 0.003755 0.001583 0.022973
#
#
# Mechanical properties :
#
#
# Convention : Reuss Voigt Hill
#
# Bulk Modulus (GPa) = 31.48344 51.56399 41.52372
# Shear Modulus (GPa) = 36.01946 44.01848 40.01897
#
# Velocity S-wave (km/s) = 4.08374 4.51447 4.30450
# Velocity P-wave (km/s) = 6.06735 7.14479 6.62800
#
# Compressibility (1/GPa) = 0.03176273
#
# Stress axis : x y z
#
# Youngs Moduli (GPa) = 82.51502 112.99394 42.65681
#
# Poissons Ratio (x) = 0.28507 -0.00269
# Poissons Ratio (y) = 0.20818 0.16486
# Poissons Ratio (z) = -0.00521 0.43670
#
# Static dielectric constant tensor:
#      x y z
#    x 1.581820 -0.008520 0.048620 
#    y -0.008520 1.753420 -0.026300 
#    z 0.048620 -0.026300 1.755390 
# 
# From -- ./inp_files/223718.got.cif
#   From: 2010.05.17/outbox.cif.g08.bks.cpg/sg2_112_cif.got.tgz:223718.got - 2010.06.03 11:33:40.
