data_PCOD9019608
_publ_section_title
;
Structure prediction by ZEFSAII (Michael W. Deem and Ramdas Pophale) SiO2 
 PCOD9019608
Probable space group: P -1
;
_chemical_formula_sum "Si O2"
_cell_formula_units_Z 12
_cell_length_a 8.151781
_cell_length_b 7.981080
_cell_length_c 8.034443
_cell_angle_alpha 75.910696
_cell_angle_beta 61.620756
_cell_angle_gamma 98.562985
_cell_volume 424.080452
_symmetry_space_group_name_H-M "P -1"
_symmetry_group_IT_number 2
_symmetry_cell_setting 'triclinic'
loop_
_space_group_symop_operation_xyz
x,y,z
-x,-y,-z
loop_
_atom_site_type_symbol
_atom_site_label
_atom_site_fract_x
_atom_site_fract_y
_atom_site_fract_z
Si Si1 0.555934 0.153975 0.796869
Si Si2 0.393966 0.291013 0.537027
Si Si3 0.183795 0.544593 0.274536
Si Si4 0.964741 0.100545 0.658613
Si Si5 0.906268 0.733397 0.880765
Si Si6 0.741197 0.344592 0.145931
O O1 0.438621 0.153503 0.685731
O O2 0.594947 0.359727 0.794613
O O3 0.787625 0.173150 0.669589
O O4 0.500000 0.000000 0.000000
O O5 0.500000 0.500000 0.500000
O O6 0.164519 0.230406 0.614081
O O7 0.516197 0.268021 0.319411
O O8 0.000000 0.500000 0.500000
O O9 0.186656 0.664644 0.075657
O O10 0.172698 0.355625 0.236332
O O11 0.881370 0.928095 0.867313
O O12 0.000000 0.000000 0.500000
O O13 0.134457 0.747575 0.777780
O O14 0.809949 0.563758 0.090615
#
# Coordination Sequence:
#
# PCOD9019608 Si02
#       6
#     2   2   2   2   2   2
#     4  12  32  51  79 123 170 210 275 349 410 486
#     4  12  31  51  83 120 166 224 277 330 418 497
#     4  10  21  44  79 110 159 214 260 330 413 481
#     4  12  29  49  86 118 163 212 280 345 412 483
#     4   9  22  42  79 110 153 213 269 331 407 476
#     4   9  22  44  77 112 161 209 275 332 402 488
#
# _framework density 28.296516
#
# number of rings (size 3 to 8) (size 9 to 14) (size 15 to 20)
#    1.000    0.333    0.000    3.000   14.000    2.000 
#    0.000    2.500    0.000    0.000    0.000    0.000 
#    0.000    0.000    0.000    0.000    0.000    0.000 
#
# Total GULP energy -66977.755529 kJ/mol
# GULP energy per Si atom -5581.479627 kJ/mol
# Density = 2.823211 g / cm^3
# Si number density = 28.296516 Si / 1000 Ang^3
#
#
#
# Elastic Constant Matrix: (Units=GPa)
#
#
# Indices 1 2 3 4 5 6 
#
# 1 191.6827 46.5010 57.7479 -5.2774 25.7150 -15.9179
# 2 46.5010 73.7450 30.4407 -25.6433 2.0452 3.3353
# 3 57.7479 30.4407 175.0040 7.5906 10.3729 -6.9437
# 4 -5.2774 -25.6433 7.5906 44.4309 -7.3874 5.2612
# 5 25.7150 2.0452 10.3729 -7.3874 48.6117 -8.7558
# 6 -15.9179 3.3353 -6.9437 5.2612 -8.7558 56.0457
#
#
#
# Elastic Compliance Matrix: (Units=1/GPa)
#
#
# Indices 1 2 3 4 5 6 
#
# 1 0.007351 -0.005089 -0.001140 -0.002680 -0.003486 0.001956
# 2 -0.005089 0.023304 -0.003397 0.014553 0.003926 -0.004006
# 3 -0.001140 -0.003397 0.006938 -0.003573 -0.001116 0.000899
# 4 -0.002680 0.014553 -0.003573 0.032659 0.005768 -0.004235
# 5 -0.003486 0.003926 -0.001116 0.005768 0.023689 0.001797
# 6 0.001956 -0.004006 0.000899 -0.004235 0.001797 0.019426
#
#
# Mechanical properties :
#
#
# Convention : Reuss Voigt Hill
#
# Bulk Modulus (GPa) = 54.52166 78.86788 66.69477
# Shear Modulus (GPa) = 36.04036 50.20044 43.12040
#
# Velocity S-wave (km/s) = 3.57272 4.21656 3.90792
# Velocity P-wave (km/s) = 6.02735 7.18598 6.63201
#
# Compressibility (1/GPa) = 0.01834133
#
# Stress axis : x y z
#
# Youngs Moduli (GPa) = 136.03059 42.91082 144.13149
#
# Poissons Ratio (x) = 0.21836 0.16433
# Poissons Ratio (y) = 0.69221 0.48966
# Poissons Ratio (z) = 0.15509 0.14578
#
# Static dielectric constant tensor:
#      x y z
#    x 2.445390 0.762160 0.041510 
#    y 0.762160 4.762220 -0.048030 
#    z 0.041510 -0.048030 2.402950 
# 
# From -- ./inp_files/183965.got.cif
#   From: 2010.05.17/outbox.cif.g08.bks.cpg/sg2_92_cif.got.tgz:183965.got - 2010.06.03 11:33:40.
