data_PCOD9019943
_publ_section_title
;
Structure prediction by ZEFSAII (Michael W. Deem and Ramdas Pophale) SiO2 
 PCOD9019943
Probable space group: P -1
;
_chemical_formula_sum "Si O2"
_cell_formula_units_Z 16
_cell_length_a 8.568237
_cell_length_b 11.967120
_cell_length_c 7.701553
_cell_angle_alpha 80.591136
_cell_angle_beta 51.311504
_cell_angle_gamma 75.543744
_cell_volume 596.856140
_symmetry_space_group_name_H-M "P -1"
_symmetry_group_IT_number 2
_symmetry_cell_setting 'triclinic'
loop_
_space_group_symop_operation_xyz
x,y,z
-x,-y,-z
loop_
_atom_site_type_symbol
_atom_site_label
_atom_site_fract_x
_atom_site_fract_y
_atom_site_fract_z
Si Si1 0.580183 0.618044 0.408392
Si Si2 0.893832 0.603013 0.913506
Si Si3 0.752344 0.556089 0.667856
Si Si4 0.304238 0.781691 0.779166
Si Si5 0.094199 0.923841 0.292773
Si Si6 0.338406 0.679007 0.112641
Si Si7 0.118396 0.142707 0.035281
Si Si8 0.337114 0.115186 0.545154
O O1 0.500000 0.500000 0.500000
O O2 0.672330 0.625543 0.154247
O O3 0.730472 0.610324 0.475771
O O4 0.388205 0.716062 0.564518
O O5 0.914449 0.562807 0.708301
O O6 0.936548 0.734276 0.858037
O O7 0.000000 0.500000 0.000000
O O8 0.725863 0.424159 0.713474
O O9 0.558877 0.626522 0.892675
O O10 0.508065 0.824160 0.689370
O O11 0.106030 0.877151 0.863233
O O12 0.226855 0.699832 0.994854
O O13 0.260368 0.804724 0.220364
O O14 0.882541 0.890074 0.379281
O O15 0.199850 0.019344 0.096953
O O16 0.000000 0.000000 0.500000
O O17 0.267373 0.164131 0.772058
O O18 0.500000 0.000000 0.500000
#
# Coordination Sequence:
#
# PCOD9019943 Si02
#       8
#     2   2   2   2   2   2   2   2
#     4  11  23  43  72 110 146 199 257 308 383 460
#     4  12  26  45  73 112 153 202 262 314 390 464
#     4  10  24  44  76 109 152 206 249 326 387 454
#     4  11  22  43  76 103 142 194 255 308 371 456
#     4  12  28  45  73 112 153 195 252 318 382 461
#     4  10  21  45  73 105 151 195 244 317 389 444
#     4  12  25  48  72 107 149 195 251 318 370 452
#     4  12  24  46  76 101 140 200 248 297 381 450
#
# _framework density 26.807130000000001
#
# number of rings (size 3 to 8) (size 9 to 14) (size 15 to 20)
#    0.000    0.750    3.750    4.875    0.000    6.500 
#    0.000    1.875    0.000    2.250    0.000    0.000 
#    0.000    0.000    0.000    0.000    0.000    0.000 
#
# Total GULP energy -89168.616267 kJ/mol
# GULP energy per Si atom -5573.038517 kJ/mol
# Density = 2.674612 g / cm^3
# Si number density = 26.807130 Si / 1000 Ang^3
#
#
#
# Elastic Constant Matrix: (Units=GPa)
#
#
# Indices 1 2 3 4 5 6 
#
# 1 53.6673 21.9448 14.6494 -1.1588 10.9871 4.4561
# 2 21.9448 147.3900 10.9127 -16.6603 -2.7436 -20.8368
# 3 14.6494 10.9127 111.1121 -21.1555 1.2302 -6.5362
# 4 -1.1588 -16.6603 -21.1555 41.7680 -5.5559 -5.2001
# 5 10.9871 -2.7436 1.2302 -5.5559 53.5384 7.2498
# 6 4.4561 -20.8368 -6.5362 -5.2001 7.2498 43.5702
#
#
#
# Elastic Compliance Matrix: (Units=1/GPa)
#
#
# Indices 1 2 3 4 5 6 
#
# 1 0.022594 -0.004300 -0.003553 -0.004072 -0.004572 -0.004626
# 2 -0.004300 0.008606 0.000868 0.004526 0.001090 0.005044
# 3 -0.003553 0.000868 0.010722 0.006153 0.000760 0.002995
# 4 -0.004072 0.004526 0.006153 0.029986 0.003150 0.006559
# 5 -0.004572 0.001090 0.000760 0.003150 0.020237 -0.001888
# 6 -0.004626 0.005044 0.002995 0.006559 -0.001888 0.027383
#
#
# Mechanical properties :
#
#
# Convention : Reuss Voigt Hill
#
# Bulk Modulus (GPa) = 35.77677 45.24258 40.50967
# Shear Modulus (GPa) = 35.01007 45.41949 40.21478
#
# Velocity S-wave (km/s) = 3.61778 4.12066 3.87738
# Velocity P-wave (km/s) = 5.55212 6.28916 5.93210
#
# Compressibility (1/GPa) = 0.02795110
#
# Stress axis : x y z
#
# Youngs Moduli (GPa) = 44.26011 116.20156 93.26332
#
# Poissons Ratio (x) = 0.49969 0.33139
# Poissons Ratio (y) = 0.19033 -0.08097
# Poissons Ratio (z) = 0.15727 -0.10088
#
# Static dielectric constant tensor:
#      x y z
#    x 2.516230 -0.109450 -0.185280 
#    y -0.109450 2.236340 0.211680 
#    z -0.185280 0.211680 1.739420 
# 
# From -- ./inp_files/186384.got.cif
#   From: 2010.05.17/outbox.cif.g08.bks.cpg/sg2_94_cif.got.tgz:186384.got - 2010.06.03 11:33:40.
