data_PCOD9019192
_publ_section_title
;
Structure prediction by ZEFSAII (Michael W. Deem and Ramdas Pophale) SiO2 
 PCOD9019192
Probable space group: P -1
;
_chemical_formula_sum "Si O2"
_cell_formula_units_Z 15
_cell_length_a 12.058852
_cell_length_b 14.588860
_cell_length_c 11.333743
_cell_angle_alpha 138.358028
_cell_angle_beta 24.882750
_cell_angle_gamma 130.899908
_cell_volume 555.540205
_symmetry_space_group_name_H-M "P -1"
_symmetry_group_IT_number 2
_symmetry_cell_setting 'triclinic'
loop_
_space_group_symop_operation_xyz
x,y,z
-x,-y,-z
loop_
_atom_site_type_symbol
_atom_site_label
_atom_site_fract_x
_atom_site_fract_y
_atom_site_fract_z
Si Si1 0.974414 0.764301 0.127884
Si Si2 0.249102 0.370909 0.574914
Si Si3 0.000000 0.500000 0.500000
Si Si4 0.474410 0.757328 0.460143
Si Si5 0.861019 0.231978 0.634426
Si Si6 0.679954 0.118727 0.915266
Si Si7 0.920495 0.162468 0.260207
Si Si8 0.414616 0.468967 0.275969
O O1 0.900854 0.631430 0.154952
O O2 0.715505 0.813251 0.350699
O O3 0.065048 0.870313 0.240066
O O4 0.217688 0.754514 0.791313
O O5 0.369447 0.479504 0.471978
O O6 0.050744 0.306291 0.611330
O O7 0.500988 0.262336 0.249142
O O8 0.996177 0.322125 0.308522
O O9 0.841581 0.531266 0.558893
O O10 0.377513 0.823176 0.494379
O O11 0.563433 0.595253 0.201814
O O12 0.741650 0.118624 0.719406
O O13 0.991283 0.164584 0.331019
O O14 0.615862 0.336648 0.933070
O O15 0.500000 0.000000 0.000000
O O16 0.000000 0.000000 0.000000
#
# Coordination Sequence:
#
# PCOD9019192 Si02
#       8
#     2   2   1   2   2   2   2   2
#     4  11  24  48  69 113 159 207 266 337 407 489
#     4  10  21  44  69 109 148 207 264 332 405 480
#     4  10  22  48  74 106 166 204 272 332 398 490
#     4  11  27  46  76 114 165 209 263 334 411 486
#     4  10  23  45  76 112 153 200 280 331 402 492
#     4  10  23  45  77 104 148 215 265 333 414 479
#     4  11  26  49  79 120 161 217 273 343 410 490
#     4  10  23  42  75 111 147 220 262 326 414 481
#
# _framework density 27.000745999999999
#
# number of rings (size 3 to 8) (size 9 to 14) (size 15 to 20)
#    0.000    1.600    2.667    0.000    1.867    9.600 
#    0.000    1.333    0.000    0.000    0.000    0.000 
#    0.000    0.000    0.000    0.000    0.000    0.000 
#
# Total GULP energy -83525.011213 kJ/mol
# GULP energy per Si atom -5568.334081 kJ/mol
# Density = 2.693929 g / cm^3
# Si number density = 27.000746 Si / 1000 Ang^3
#
#
#
# Elastic Constant Matrix: (Units=GPa)
#
#
# Indices 1 2 3 4 5 6 
#
# 1 131.5623 30.5804 25.6758 11.1738 -26.9949 24.7607
# 2 30.5804 137.4164 34.7898 16.6153 -10.7411 15.7806
# 3 25.6758 34.7898 79.5031 11.8480 -22.5114 9.2755
# 4 11.1738 16.6153 11.8480 51.5413 0.6380 -3.3557
# 5 -26.9949 -10.7411 -22.5114 0.6380 46.4295 -1.5967
# 6 24.7607 15.7806 9.2755 -3.3557 -1.5967 24.9129
#
#
#
# Elastic Compliance Matrix: (Units=1/GPa)
#
#
# Indices 1 2 3 4 5 6 
#
# 1 0.011284 -0.000396 0.000015 -0.003114 0.006141 -0.010996
# 2 -0.000396 0.008912 -0.002776 -0.002448 0.000364 -0.004525
# 3 0.000015 -0.002776 0.016938 -0.003390 0.007469 -0.004540
# 4 -0.003114 -0.002448 -0.003390 0.022258 -0.004029 0.008648
# 5 0.006141 0.000364 0.007469 -0.004029 0.028600 -0.007824
# 6 -0.010996 -0.004525 -0.004540 0.008648 -0.007824 0.056288
#
#
# Mechanical properties :
#
#
# Convention : Reuss Voigt Hill
#
# Bulk Modulus (GPa) = 32.44689 58.95265 45.69977
# Shear Modulus (GPa) = 31.08114 41.73911 36.41013
#
# Velocity S-wave (km/s) = 3.39650 3.93600 3.67616
# Velocity P-wave (km/s) = 5.23686 6.52205 5.91447
#
# Compressibility (1/GPa) = 0.03081960
#
# Stress axis : x y z
#
# Youngs Moduli (GPa) = 88.62045 112.20650 59.03863
#
# Poissons Ratio (x) = 0.04438 -0.00086
# Poissons Ratio (y) = 0.03505 0.16392
# Poissons Ratio (z) = -0.00130 0.31153
#
# Static dielectric constant tensor:
#      x y z
#    x 2.090320 0.002990 0.077940 
#    y 0.002990 2.306680 -0.037960 
#    z 0.077940 -0.037960 2.301830 
# 
# From -- ./inp_files/433290.got.cif
#   From: 2010.05.17/outbox.cif.g08.bks.cpg/sg2_217_cif.got.tgz:433290.got - 2010.06.03 11:33:40.
