data_PCOD9019766
_publ_section_title
;
Structure prediction by ZEFSAII (Michael W. Deem and Ramdas Pophale) SiO2 
 PCOD9019766
Probable space group: P -1
;
_chemical_formula_sum "Si O2"
_cell_formula_units_Z 14
_cell_length_a 4.902674
_cell_length_b 13.087177
_cell_length_c 8.226555
_cell_angle_alpha 75.655058
_cell_angle_beta 89.904139
_cell_angle_gamma 94.894117
_cell_volume 509.369873
_symmetry_space_group_name_H-M "P -1"
_symmetry_group_IT_number 2
_symmetry_cell_setting 'triclinic'
loop_
_space_group_symop_operation_xyz
x,y,z
-x,-y,-z
loop_
_atom_site_type_symbol
_atom_site_label
_atom_site_fract_x
_atom_site_fract_y
_atom_site_fract_z
Si Si1 0.265157 0.726094 0.618936
Si Si2 0.587889 0.344562 0.695883
Si Si3 0.857353 0.527624 0.782370
Si Si4 0.841181 0.981104 0.243066
Si Si5 0.764442 0.869197 0.602195
Si Si6 0.877587 0.161532 0.953600
Si Si7 0.185620 0.354310 0.983766
O O1 0.432116 0.694720 0.471423
O O2 0.105509 0.614902 0.714430
O O3 0.499000 0.795636 0.690621
O O4 0.014455 0.800853 0.570726
O O5 0.719641 0.246212 0.822648
O O6 0.338045 0.359308 0.810379
O O7 0.738343 0.464301 0.651312
O O8 0.938000 0.426201 0.922862
O O9 0.671758 0.591837 0.878886
O O10 0.103528 0.043369 0.307424
O O11 0.673932 0.928108 0.413966
O O12 0.718773 0.068361 0.093844
O O13 0.936870 0.893875 0.154058
O O14 0.061638 0.234908 0.051195
#
# Coordination Sequence:
#
# PCOD9019766 Si02
#       7
#     2   2   2   2   2   2   2
#     4  12  26  47  75 108 148 191 239 302 362 436
#     4  11  23  42  74 107 146 185 243 298 360 434
#     4  10  24  43  70 102 145 189 239 288 373 426
#     4  10  22  46  73  99 146 191 244 298 364 422
#     4  11  26  48  72 107 147 189 248 298 362 431
#     4  10  21  45  68 106 140 189 242 297 362 427
#     4  10  22  44  68 104 143 188 239 299 353 444
#
# _framework density 27.484938
#
# number of rings (size 3 to 8) (size 9 to 14) (size 15 to 20)
#    0.000    1.429    1.429    2.571    4.000    2.857 
#   18.000    2.143    0.000    0.000    0.000    0.000 
#    0.000    0.000    0.000    0.000    0.000    0.000 
#
# Total GULP energy -78313.519588 kJ/mol
# GULP energy per Si atom -5593.822828 kJ/mol
# Density = 2.742238 g / cm^3
# Si number density = 27.484938 Si / 1000 Ang^3
#
#
#
# Elastic Constant Matrix: (Units=GPa)
#
#
# Indices 1 2 3 4 5 6 
#
# 1 81.1461 41.1076 12.2365 3.4675 -15.3430 8.7110
# 2 41.1076 197.0822 47.9093 13.0379 -5.2104 4.0257
# 3 12.2365 47.9093 73.2537 18.0059 -11.0224 -9.1517
# 4 3.4675 13.0379 18.0059 68.6156 -1.2994 -9.3678
# 5 -15.3430 -5.2104 -11.0224 -1.2994 32.8941 7.3489
# 6 8.7110 4.0257 -9.1517 -9.3678 7.3489 40.3759
#
#
#
# Elastic Compliance Matrix: (Units=1/GPa)
#
#
# Indices 1 2 3 4 5 6 
#
# 1 0.015867 -0.002974 0.000091 -0.000756 0.007989 -0.004736
# 2 -0.002974 0.006691 -0.004167 -0.000156 -0.001569 -0.000721
# 3 0.000091 -0.004167 0.018300 -0.003535 0.004735 0.002862
# 4 -0.000756 -0.000156 -0.003535 0.016001 -0.001689 0.003397
# 5 0.007989 -0.001569 0.004735 -0.001689 0.037105 -0.007639
# 6 -0.004736 -0.000721 0.002862 0.003397 -0.007639 0.028688
#
#
# Mechanical properties :
#
#
# Convention : Reuss Voigt Hill
#
# Bulk Modulus (GPa) = 37.37184 61.55431 49.46308
# Shear Modulus (GPa) = 34.32362 45.05904 39.69133
#
# Velocity S-wave (km/s) = 3.53769 4.05335 3.80427
# Velocity P-wave (km/s) = 5.50579 6.65962 6.11000
#
# Compressibility (1/GPa) = 0.02675811
#
# Stress axis : x y z
#
# Youngs Moduli (GPa) = 63.02233 149.45922 54.64410
#
# Poissons Ratio (x) = 0.44445 -0.00495
# Poissons Ratio (y) = 0.18741 0.22770
# Poissons Ratio (z) = -0.00570 0.62279
#
# Static dielectric constant tensor:
#      x y z
#    x 2.233830 0.026190 0.062130 
#    y 0.026190 2.111410 0.022440 
#    z 0.062130 0.022440 2.239320 
# 
# From -- ./inp_files/131621.got.cif
#   From: 2010.05.17/outbox.cif.g08.bks.cpg/sg2_66_cif.got.tgz:131621.got - 2010.06.03 11:33:40.
