data_PCOD9019556
_publ_section_title
;
Structure prediction by ZEFSAII (Michael W. Deem and Ramdas Pophale) SiO2 
 PCOD9019556
Probable space group: P -1
;
_chemical_formula_sum "Si O2"
_cell_formula_units_Z 11
_cell_length_a 5.318487
_cell_length_b 5.325958
_cell_length_c 14.826080
_cell_angle_alpha 69.993347
_cell_angle_beta 90.143602
_cell_angle_gamma 91.323907
_cell_volume 394.508639
_symmetry_space_group_name_H-M "P -1"
_symmetry_group_IT_number 2
_symmetry_cell_setting 'triclinic'
loop_
_space_group_symop_operation_xyz
x,y,z
-x,-y,-z
loop_
_atom_site_type_symbol
_atom_site_label
_atom_site_fract_x
_atom_site_fract_y
_atom_site_fract_z
Si Si1 0.944839 0.920799 0.408817
Si Si2 0.254400 0.571086 0.936031
Si Si3 0.918091 0.892146 0.113163
Si Si4 0.662992 0.095939 0.734036
Si Si5 0.592000 0.363578 0.316754
Si Si6 0.500000 0.500000 0.500000
O O1 0.732319 0.691044 0.438037
O O2 0.183835 0.804607 0.369184
O O3 0.849323 0.196343 0.329705
O O4 0.000000 0.000000 0.500000
O O5 0.206487 0.394936 0.869944
O O6 0.271070 0.884583 0.882735
O O7 0.500000 0.500000 0.000000
O O8 0.000000 0.500000 0.000000
O O9 0.144434 0.900785 0.182696
O O10 0.000000 0.000000 0.000000
O O11 0.463121 0.321319 0.728322
O O12 0.579208 0.802423 0.735521
O O13 0.508914 0.317440 0.426657
#
# Coordination Sequence:
#
# PCOD9019556 Si02
#       6
#     2   2   2   2   2   1
#     4  12  27  49  77 107 156 197 254 318 389 469
#     4  10  21  44  74 106 143 196 256 315 388 461
#     4  10  23  48  73 108 147 198 252 319 380 457
#     4  12  27  49  74 109 154 199 258 312 390 455
#     4  12  26  48  72 113 147 198 255 315 379 464
#     4  12  24  50  72 112 144 200 252 306 388 458
#
# _framework density 27.882787
#
# number of rings (size 3 to 8) (size 9 to 14) (size 15 to 20)
#    0.000    0.727    3.636    3.273    2.545    1.455 
#   19.636    0.000    0.000    0.000    0.000    0.000 
#    0.000    0.000    0.000    0.000    0.000    0.000 
#
# Total GULP energy -61433.981356 kJ/mol
# GULP energy per Si atom -5584.907396 kJ/mol
# Density = 2.781932 g / cm^3
# Si number density = 27.882787 Si / 1000 Ang^3
#
#
#
# Elastic Constant Matrix: (Units=GPa)
#
#
# Indices 1 2 3 4 5 6 
#
# 1 115.2049 54.6170 30.6529 19.5889 -0.8723 1.8764
# 2 54.6170 266.3290 60.0763 15.4888 14.8374 17.8232
# 3 30.6529 60.0763 150.6051 49.0467 13.9421 12.2332
# 4 19.5889 15.4888 49.0467 74.7791 0.4738 1.7344
# 5 -0.8723 14.8374 13.9421 0.4738 77.0503 14.7704
# 6 1.8764 17.8232 12.2332 1.7344 14.7704 57.4060
#
#
#
# Elastic Compliance Matrix: (Units=1/GPa)
#
#
# Indices 1 2 3 4 5 6 
#
# 1 0.010061 -0.001827 -0.000838 -0.001719 0.000566 0.000323
# 2 -0.001827 0.004521 -0.001493 0.000546 -0.000447 -0.000928
# 3 -0.000838 -0.001493 0.009434 -0.005627 -0.001195 -0.001042
# 4 -0.001719 0.000546 -0.005627 0.017387 0.000715 0.000377
# 5 0.000566 -0.000447 -0.001195 0.000715 0.013901 -0.003223
# 6 0.000323 -0.000928 -0.001042 0.000377 -0.003223 0.018737
#
#
# Mechanical properties :
#
#
# Convention : Reuss Voigt Hill
#
# Bulk Modulus (GPa) = 63.69337 91.42569 77.55953
# Shear Modulus (GPa) = 57.08432 67.63328 62.35880
#
# Velocity S-wave (km/s) = 4.52961 4.93041 4.73426
# Velocity P-wave (km/s) = 7.08868 8.07913 7.60006
#
# Compressibility (1/GPa) = 0.01570022
#
# Stress axis : x y z
#
# Youngs Moduli (GPa) = 99.39686 221.16826 106.00487
#
# Poissons Ratio (x) = 0.40417 0.08880
# Poissons Ratio (y) = 0.18164 0.15822
# Poissons Ratio (z) = 0.08326 0.33012
#
# Static dielectric constant tensor:
#      x y z
#    x 2.003880 0.042430 -0.092230 
#    y 0.042430 2.120760 0.089750 
#    z -0.092230 0.089750 1.981970 
# 
# From -- ./inp_files/478032.got.cif
#   From: 2010.05.17/outbox.cif.g08.bks.cpg/sg2_240_cif.got.tgz:478032.got - 2010.06.03 11:33:40.
