data_PCOD9019040
_publ_section_title
;
Structure prediction by ZEFSAII (Michael W. Deem and Ramdas Pophale) SiO2 
 PCOD9019040
Probable space group: P -1
;
_chemical_formula_sum "Si O2"
_cell_formula_units_Z 15
_cell_length_a 8.291910
_cell_length_b 27.945541
_cell_length_c 6.538117
_cell_angle_alpha 48.081639
_cell_angle_beta 119.243382
_cell_angle_gamma 142.812200
_cell_volume 678.164568
_symmetry_space_group_name_H-M "P -1"
_symmetry_group_IT_number 2
_symmetry_cell_setting 'triclinic'
loop_
_space_group_symop_operation_xyz
x,y,z
-x,-y,-z
loop_
_atom_site_type_symbol
_atom_site_label
_atom_site_fract_x
_atom_site_fract_y
_atom_site_fract_z
Si Si1 0.500000 0.500000 0.000000
Si Si2 0.260118 0.088084 0.785741
Si Si3 0.935598 0.341891 0.892086
Si Si4 0.691861 0.005397 0.245026
Si Si5 0.856231 0.809030 0.774874
Si Si6 0.339774 0.849870 0.799616
Si Si7 0.870697 0.562562 0.663042
Si Si8 0.294339 0.612956 0.103395
O O1 0.640197 0.525020 0.784111
O O2 0.209435 0.403146 0.009821
O O3 0.252872 0.046094 0.693372
O O4 0.247615 0.160058 0.523674
O O5 0.514972 0.131946 0.951822
O O6 0.000000 0.000000 0.000000
O O7 0.008140 0.357473 0.653056
O O8 0.725189 0.232662 0.122873
O O9 0.809705 0.378621 0.779087
O O10 0.534447 0.945866 0.521751
O O11 0.960662 0.111044 0.166971
O O12 0.500000 0.000000 0.000000
O O13 0.603663 0.707363 0.995395
O O14 0.059294 0.814151 0.766435
O O15 0.116136 0.598983 0.850912
O O16 0.761994 0.476560 0.699496
#
# Coordination Sequence:
#
# PCOD9019040 Si02
#       8
#     1   2   2   2   2   2   2   2
#     4  10  22  40  66  94 134 172 220 280 340 402
#     4  12  25  43  71  94 134 185 226 289 347 403
#     4  11  23  42  68  98 137 180 229 282 346 412
#     4  12  25  47  68  99 141 183 230 293 346 408
#     4  12  24  45  68 101 139 180 235 285 346 418
#     4  12  26  46  68 103 139 181 236 286 344 417
#     4  10  21  44  67  97 138 176 230 282 347 410
#     4  10  23  41  66 100 133 179 229 285 342 414
#
# _framework density 22.118528000000001
#
# number of rings (size 3 to 8) (size 9 to 14) (size 15 to 20)
#    0.000    0.800    2.667    4.800    1.867    1.067 
#    4.800    0.000    0.000    0.000    0.000    0.000 
#    0.000    0.000    0.000    0.000    0.000    0.000 
#
# Total GULP energy -83684.996671 kJ/mol
# GULP energy per Si atom -5578.999778 kJ/mol
# Density = 2.206818 g / cm^3
# Si number density = 22.118528 Si / 1000 Ang^3
#
#
#
# Elastic Constant Matrix: (Units=GPa)
#
#
# Indices 1 2 3 4 5 6 
#
# 1 106.5978 23.0428 23.7013 -3.5261 -19.0634 -4.0026
# 2 23.0428 109.6322 29.7304 -18.6580 -14.5658 13.6252
# 3 23.7013 29.7304 62.3493 -3.1969 4.9325 -0.3793
# 4 -3.5261 -18.6580 -3.1969 30.7715 9.5854 -6.1789
# 5 -19.0634 -14.5658 4.9325 9.5854 32.3125 2.2579
# 6 -4.0026 13.6252 -0.3793 -6.1789 2.2579 29.5640
#
#
#
# Elastic Compliance Matrix: (Units=1/GPa)
#
#
# Indices 1 2 3 4 5 6 
#
# 1 0.012041 -0.000476 -0.005083 -0.001819 0.008150 0.000782
# 2 -0.000476 0.013159 -0.006361 0.004321 0.005742 -0.005746
# 3 -0.005083 -0.006361 0.021900 0.001667 -0.009958 0.003633
# 4 -0.001819 0.004321 0.001667 0.040178 -0.011793 0.007082
# 5 0.008150 0.005742 -0.009958 -0.011793 0.043886 -0.007487
# 6 0.000782 -0.005746 0.003633 0.007082 -0.007487 0.038678
#
#
# Mechanical properties :
#
#
# Convention : Reuss Voigt Hill
#
# Bulk Modulus (GPa) = 42.99616 47.94760 45.47188
# Shear Modulus (GPa) = 24.82183 32.00325 28.41254
#
# Velocity S-wave (km/s) = 3.35359 3.80794 3.58796
# Velocity P-wave (km/s) = 5.87168 6.40769 6.14553
#
# Compressibility (1/GPa) = 0.02325789
#
# Stress axis : x y z
#
# Youngs Moduli (GPa) = 83.04973 75.99418 45.66263
#
# Poissons Ratio (x) = 0.03618 0.23212
# Poissons Ratio (y) = 0.03954 0.29047
# Poissons Ratio (z) = 0.42218 0.48342
#
# Static dielectric constant tensor:
#      x y z
#    x 1.838070 -0.020580 0.010080 
#    y -0.020580 1.764900 0.024460 
#    z 0.010080 0.024460 1.799800 
# 
# From -- ./inp_files/56799.got.cif
#   From: 2010.05.17/outbox.cif.g08.bks.cpg/sg2_29_cif.got.tgz:56799.got - 2010.06.03 11:33:40.
