data_PCOD9019084
_publ_section_title
;
Structure prediction by ZEFSAII (Michael W. Deem and Ramdas Pophale) SiO2 
 PCOD9019084
Probable space group: P -1
;
_chemical_formula_sum "Si O2"
_cell_formula_units_Z 12
_cell_length_a 6.605395
_cell_length_b 23.440809
_cell_length_c 11.799510
_cell_angle_alpha 19.169511
_cell_angle_beta 58.115939
_cell_angle_gamma 60.061224
_cell_volume 509.400422
_symmetry_space_group_name_H-M "P -1"
_symmetry_group_IT_number 2
_symmetry_cell_setting 'triclinic'
loop_
_space_group_symop_operation_xyz
x,y,z
-x,-y,-z
loop_
_atom_site_type_symbol
_atom_site_label
_atom_site_fract_x
_atom_site_fract_y
_atom_site_fract_z
Si Si1 0.523883 0.715231 0.293274
Si Si2 0.987034 0.796705 0.364943
Si Si3 0.039117 0.056079 0.252711
Si Si4 0.558118 0.209066 0.079440
Si Si5 0.715681 0.555487 0.749140
Si Si6 0.885071 0.717598 0.795532
O O1 0.635761 0.573550 0.609606
O O2 0.252896 0.737354 0.369213
O O3 0.690290 0.883026 0.952722
O O4 0.521518 0.708580 0.170691
O O5 0.811509 0.738373 0.426884
O O6 0.902120 0.713221 0.664043
O O7 0.000000 0.000000 0.000000
O O8 0.843745 0.209248 0.004406
O O9 0.000000 0.000000 0.500000
O O10 0.978344 0.900666 0.476267
O O11 0.387570 0.296710 0.057265
O O12 0.500000 0.000000 0.500000
O O13 0.500000 0.500000 0.000000
O O14 0.936752 0.425666 0.940048
#
# Coordination Sequence:
#
# PCOD9019084 Si02
#       6
#     2   2   2   2   2   2
#     4  12  24  46  74 103 149 188 245 297 358 438
#     4  12  27  47  75 105 145 194 249 303 358 426
#     4  11  23  45  76 108 143 189 250 294 358 438
#     4  10  21  44  68 106 142 187 242 304 351 427
#     4  12  28  48  70 110 154 191 242 294 368 439
#     4  11  24  45  74 104 147 193 234 309 361 418
#
# _framework density 23.557105
#
# number of rings (size 3 to 8) (size 9 to 14) (size 15 to 20)
#    0.000    0.667    5.000    4.500    2.333    2.000 
#    0.000    1.667    0.000    0.000    0.000    0.000 
#    0.000    0.000    0.000    0.000    0.000    0.000 
#
# Total GULP energy -67185.087006 kJ/mol
# GULP energy per Si atom -5598.757251 kJ/mol
# Density = 2.350349 g / cm^3
# Si number density = 23.557105 Si / 1000 Ang^3
#
#
#
# Elastic Constant Matrix: (Units=GPa)
#
#
# Indices 1 2 3 4 5 6 
#
# 1 120.1037 40.3339 41.8725 10.7402 -5.7385 11.9096
# 2 40.3339 123.4154 37.5988 26.1717 -3.2774 -0.0833
# 3 41.8725 37.5988 79.6654 13.2914 12.3179 3.3274
# 4 10.7402 26.1717 13.2914 37.7700 10.3547 13.6261
# 5 -5.7385 -3.2774 12.3179 10.3547 51.1432 6.3012
# 6 11.9096 -0.0833 3.3274 13.6261 6.3012 34.7400
#
#
#
# Elastic Compliance Matrix: (Units=1/GPa)
#
#
# Indices 1 2 3 4 5 6 
#
# 1 0.011413 -0.002236 -0.005354 0.000980 0.002757 -0.004290
# 2 -0.002236 0.011765 -0.003537 -0.008406 0.002568 0.003965
# 3 -0.005354 -0.003537 0.018010 -0.001570 -0.005049 0.001633
# 4 0.000980 -0.008406 -0.001570 0.039552 -0.006262 -0.014584
# 5 0.002757 0.002568 -0.005049 -0.006262 0.022773 -0.002130
# 6 -0.004290 0.003965 0.001633 -0.014584 -0.002130 0.036215
#
#
# Mechanical properties :
#
#
# Convention : Reuss Voigt Hill
#
# Bulk Modulus (GPa) = 52.81816 62.53277 57.67547
# Shear Modulus (GPa) = 29.70974 38.28926 33.99950
#
# Velocity S-wave (km/s) = 3.55516 4.03597 3.80317
# Velocity P-wave (km/s) = 6.27074 6.95137 6.61981
#
# Compressibility (1/GPa) = 0.01893288
#
# Stress axis : x y z
#
# Youngs Moduli (GPa) = 87.61762 85.00021 55.52381
#
# Poissons Ratio (x) = 0.19010 0.29727
# Poissons Ratio (y) = 0.19595 0.19640
# Poissons Ratio (z) = 0.46910 0.30067
#
# Static dielectric constant tensor:
#      x y z
#    x 1.878220 0.009680 -0.015520 
#    y 0.009680 1.864480 -0.001810 
#    z -0.015520 -0.001810 1.949510 
# 
# From -- ./inp_files/263657.got.cif
#   From: 2010.05.17/outbox.cif.g08.bks.cpg/sg2_132_cif.got.tgz:263657.got - 2010.06.03 11:33:40.
