data_PCOD9019684
_publ_section_title
;
Structure prediction by ZEFSAII (Michael W. Deem and Ramdas Pophale) SiO2 
 PCOD9019684
Probable space group: P -1
;
_chemical_formula_sum "Si O2"
_cell_formula_units_Z 16
_cell_length_a 8.774513
_cell_length_b 9.214356
_cell_length_c 12.150597
_cell_angle_alpha 50.628362
_cell_angle_beta 98.165776
_cell_angle_gamma 87.835715
_cell_volume 741.168115
_symmetry_space_group_name_H-M "P -1"
_symmetry_group_IT_number 2
_symmetry_cell_setting 'triclinic'
loop_
_space_group_symop_operation_xyz
x,y,z
-x,-y,-z
loop_
_atom_site_type_symbol
_atom_site_label
_atom_site_fract_x
_atom_site_fract_y
_atom_site_fract_z
Si Si1 0.615236 0.266711 0.350825
Si Si2 0.405450 0.620188 0.267777
Si Si3 0.773635 0.687233 0.553798
Si Si4 0.698709 0.785811 0.267944
Si Si5 0.144246 0.907758 0.981800
Si Si6 0.654557 0.901801 0.664487
Si Si7 0.081295 0.302992 0.049376
Si Si8 0.125349 0.512604 0.731588
O O1 0.510502 0.471521 0.268173
O O2 0.514521 0.160832 0.307467
O O3 0.780633 0.317945 0.308853
O O4 0.638647 0.125871 0.527648
O O5 0.330554 0.476080 0.406737
O O6 0.518223 0.757896 0.260098
O O7 0.257065 0.740823 0.135542
O O8 0.758875 0.812611 0.383391
O O9 0.711865 0.800143 0.603068
O O10 0.948148 0.591958 0.645696
O O11 0.795352 0.594188 0.316262
O O12 0.744715 0.950521 0.117508
O O13 0.054193 0.822765 0.915488
O O14 0.000000 0.000000 0.000000
O O15 0.775822 0.813405 0.811651
O O16 0.133582 0.364860 0.904488
O O17 0.000000 0.500000 0.000000
#
# Coordination Sequence:
#
# PCOD9019684 Si02
#       8
#     2   2   2   2   2   2   2   2
#     4   9  22  42  64  94 132 172 222 271 328 395
#     4  10  21  45  66  92 138 172 218 274 333 396
#     4  11  21  41  65  96 136 172 221 273 329 398
#     4  11  24  40  65 100 130 177 220 275 335 391
#     4  12  24  45  68 100 134 171 226 276 326 397
#     4  10  22  43  64  94 134 174 220 269 329 400
#     4  12  23  43  70  95 134 177 215 273 338 385
#     4  11  22  41  65  97 131 175 224 272 334 389
#
# _framework density 21.587544999999999
#
# number of rings (size 3 to 8) (size 9 to 14) (size 15 to 20)
#    0.000    1.250    3.750    1.875    1.750    2.000 
#    9.000    0.000    0.000    0.000    0.000    0.000 
#    0.000    0.000    0.000    0.000    0.000    0.000 
#
# Total GULP energy -89354.062349 kJ/mol
# GULP energy per Si atom -5584.628897 kJ/mol
# Density = 2.153841 g / cm^3
# Si number density = 21.587545 Si / 1000 Ang^3
#
#
#
# Elastic Constant Matrix: (Units=GPa)
#
#
# Indices 1 2 3 4 5 6 
#
# 1 119.7041 25.4302 36.2780 -7.3313 16.3589 17.4315
# 2 25.4302 58.2997 14.7544 -4.0878 7.3198 5.6600
# 3 36.2780 14.7544 92.5045 -1.1744 21.6081 6.4927
# 4 -7.3313 -4.0878 -1.1744 33.9757 4.4493 -6.6839
# 5 16.3589 7.3198 21.6081 4.4493 43.0169 -2.4415
# 6 17.4315 5.6600 6.4927 -6.6839 -2.4415 31.1000
#
#
#
# Elastic Compliance Matrix: (Units=1/GPa)
#
#
# Indices 1 2 3 4 5 6 
#
# 1 0.011057 -0.003201 -0.002844 0.001274 -0.002645 -0.004955
# 2 -0.003201 0.019322 -0.001339 0.001558 -0.001629 -0.001236
# 3 -0.002844 -0.001339 0.013545 0.000151 -0.005589 -0.001396
# 4 0.001274 0.001558 0.000151 0.031464 -0.003771 0.005437
# 5 -0.002645 -0.001629 -0.005589 -0.003771 0.027973 0.004331
# 6 -0.004955 -0.001236 -0.001396 0.005437 0.004331 0.036956
#
#
# Mechanical properties :
#
#
# Convention : Reuss Voigt Hill
#
# Bulk Modulus (GPa) = 34.29986 47.04818 40.67402
# Shear Modulus (GPa) = 30.33923 34.55489 32.44706
#
# Velocity S-wave (km/s) = 3.75294 4.00520 3.88112
# Velocity P-wave (km/s) = 5.89089 6.57497 6.24231
#
# Compressibility (1/GPa) = 0.02915464
#
# Stress axis : x y z
#
# Youngs Moduli (GPa) = 90.44212 51.75541 73.82935
#
# Poissons Ratio (x) = 0.16566 0.20997
# Poissons Ratio (y) = 0.28949 0.09889
# Poissons Ratio (z) = 0.25722 0.06933
#
# Static dielectric constant tensor:
#      x y z
#    x 1.793500 0.004820 -0.027200 
#    y 0.004820 1.899280 -0.054420 
#    z -0.027200 -0.054420 1.774790 
# 
# From -- ./inp_files/218571.got.cif
#   From: 2010.05.17/outbox.cif.g08.bks.cpg/sg2_110_cif.got.tgz:218571.got - 2010.06.03 11:33:40.
