data_PCOD9019379
_publ_section_title
;
Structure prediction by ZEFSAII (Michael W. Deem and Ramdas Pophale) SiO2 
 PCOD9019379
Probable space group: P -1
;
_chemical_formula_sum "Si O2"
_cell_formula_units_Z 14
_cell_length_a 10.924224
_cell_length_b 8.440840
_cell_length_c 10.469839
_cell_angle_alpha 95.114263
_cell_angle_beta 103.916599
_cell_angle_gamma 139.751384
_cell_volume 545.213566
_symmetry_space_group_name_H-M "P -1"
_symmetry_group_IT_number 2
_symmetry_cell_setting 'triclinic'
loop_
_space_group_symop_operation_xyz
x,y,z
-x,-y,-z
loop_
_atom_site_type_symbol
_atom_site_label
_atom_site_fract_x
_atom_site_fract_y
_atom_site_fract_z
Si Si1 0.338449 0.396227 0.698170
Si Si2 0.002465 0.285099 0.730710
Si Si3 0.434993 0.861170 0.273631
Si Si4 0.341454 0.624555 0.491433
Si Si5 0.860701 0.143161 0.405006
Si Si6 0.183254 0.062681 0.089064
Si Si7 0.260229 0.799623 0.975142
O O1 0.216974 0.411096 0.746000
O O2 0.354139 0.472777 0.560839
O O3 0.188230 0.090275 0.651896
O O4 0.579269 0.616757 0.824017
O O5 0.883706 0.067938 0.796746
O O6 0.084242 0.533636 0.825804
O O7 0.625802 0.329914 0.647951
O O8 0.494611 0.086553 0.376487
O O9 0.664889 0.039579 0.289584
O O10 0.266859 0.720147 0.110255
O O11 0.139524 0.841920 0.440562
O O12 0.097260 0.432302 0.441425
O O13 0.212725 0.936708 0.997588
O O14 0.000000 0.000000 0.000000
O O15 0.500000 0.000000 0.000000
#
# Coordination Sequence:
#
# PCOD9019379 Si02
#       7
#     2   2   2   2   2   2   2
#     4  11  24  50  75 109 160 203 253 323 379 456
#     4  11  25  48  77 109 154 199 253 315 385 455
#     4  11  24  42  75 110 150 196 253 318 371 455
#     4  10  21  44  71 109 152 194 258 310 381 448
#     4  11  25  45  78 113 151 202 255 315 382 457
#     4  12  28  49  77 111 152 204 257 312 386 461
#     4  12  25  53  78 108 158 203 250 321 385 449
#
# _framework density 25.678011000000001
#
# number of rings (size 3 to 8) (size 9 to 14) (size 15 to 20)
#    0.000    0.857    2.857    4.286    4.000    5.143 
#    2.571    0.000    0.000    0.000    0.000    0.000 
#    0.000    0.000    0.000    0.000    0.000    0.000 
#
# Total GULP energy -78572.718759 kJ/mol
# GULP energy per Si atom -5612.337054 kJ/mol
# Density = 2.561957 g / cm^3
# Si number density = 25.678011 Si / 1000 Ang^3
#
#
#
# Elastic Constant Matrix: (Units=GPa)
#
#
# Indices 1 2 3 4 5 6 
#
# 1 148.5090 20.3647 58.8387 0.9193 14.4236 14.6285
# 2 20.3647 76.7728 15.4210 -2.6583 -10.0709 24.3556
# 3 58.8387 15.4210 101.2048 -1.9951 -3.5985 -12.3930
# 4 0.9193 -2.6583 -1.9951 25.6124 -5.4959 1.8790
# 5 14.4236 -10.0709 -3.5985 -5.4959 45.5233 2.9167
# 6 14.6285 24.3556 -12.3930 1.8790 2.9167 37.8607
#
#
#
# Elastic Compliance Matrix: (Units=1/GPa)
#
#
# Indices 1 2 3 4 5 6 
#
# 1 0.010435 0.000003 -0.006951 -0.001256 -0.003624 -0.005967
# 2 0.000003 0.019360 -0.004464 0.003870 0.005327 -0.014519
# 3 -0.006951 -0.004464 0.015982 0.000656 0.001878 0.010611
# 4 -0.001256 0.003870 0.000656 0.041269 0.006566 -0.004344
# 5 -0.003624 0.005327 0.001878 0.006566 0.025472 -0.003700
# 6 -0.005967 -0.014519 0.010611 -0.004344 -0.003700 0.042032
#
#
# Mechanical properties :
#
#
# Convention : Reuss Voigt Hill
#
# Bulk Modulus (GPa) = 43.57006 57.30392 50.43699
# Shear Modulus (GPa) = 27.02334 37.25676 32.14005
#
# Velocity S-wave (km/s) = 3.24758 3.81323 3.54171
# Velocity P-wave (km/s) = 5.57378 6.46161 6.03405
#
# Compressibility (1/GPa) = 0.02295154
#
# Stress axis : x y z
#
# Youngs Moduli (GPa) = 95.83146 51.65279 62.57176
#
# Poissons Ratio (x) = -0.00013 0.43496
# Poissons Ratio (y) = -0.00024 0.27930
# Poissons Ratio (z) = 0.66617 0.23056
#
# Static dielectric constant tensor:
#      x y z
#    x 2.039020 0.031440 -0.001610 
#    y 0.031440 2.020400 -0.046550 
#    z -0.001610 -0.046550 1.966200 
# 
# From -- ./inp_files/493435.got.cif
#   From: 2010.05.17/outbox.cif.g08.bks.cpg/sg2_247_cif.got.tgz:493435.got - 2010.06.03 11:33:40.
