data_PCOD9019267
_publ_section_title
;
Structure prediction by ZEFSAII (Michael W. Deem and Ramdas Pophale) SiO2 
 PCOD9019267
Probable space group: P -1
;
_chemical_formula_sum "Si O2"
_cell_formula_units_Z 16
_cell_length_a 9.126985
_cell_length_b 14.740780
_cell_length_c 9.576997
_cell_angle_alpha 38.381579
_cell_angle_beta 63.311909
_cell_angle_gamma 73.500686
_cell_volume 709.380296
_symmetry_space_group_name_H-M "P -1"
_symmetry_group_IT_number 2
_symmetry_cell_setting 'triclinic'
loop_
_space_group_symop_operation_xyz
x,y,z
-x,-y,-z
loop_
_atom_site_type_symbol
_atom_site_label
_atom_site_fract_x
_atom_site_fract_y
_atom_site_fract_z
Si Si1 0.325392 0.520838 0.977491
Si Si2 0.911235 0.272718 0.062401
Si Si3 0.359257 0.928297 0.748958
Si Si4 0.131619 0.225916 0.277607
Si Si5 0.109316 0.113971 0.717925
Si Si6 0.497225 0.603272 0.544798
Si Si7 0.123063 0.377955 0.596553
Si Si8 0.564300 0.738164 0.076601
O O1 0.198245 0.592422 0.042608
O O2 0.384702 0.630482 0.692025
O O3 0.500000 0.500000 0.000000
O O4 0.229943 0.370258 0.137310
O O5 0.788123 0.146656 0.194372
O O6 0.980508 0.251493 0.212369
O O7 0.068571 0.298527 0.861822
O O8 0.500000 0.000000 0.500000
O O9 0.289987 0.058709 0.707599
O O10 0.421754 0.803003 0.970929
O O11 0.069598 0.125667 0.556788
O O12 0.270388 0.179528 0.166190
O O13 0.095315 0.268042 0.611797
O O14 0.000000 0.000000 0.000000
O O15 0.682447 0.575974 0.538596
O O16 0.516447 0.733930 0.265596
O O17 0.421354 0.437782 0.730386
O O18 0.000000 0.500000 0.500000
#
# Coordination Sequence:
#
# PCOD9019267 Si02
#       8
#     2   2   2   2   2   2   2   2
#     4  11  23  42  72 108 144 187 237 297 365 436
#     4  12  25  44  70 103 139 191 240 296 370 424
#     4  12  26  47  72  96 142 203 244 290 370 440
#     4  11  23  45  71 103 147 184 236 305 360 430
#     4  12  27  47  70 104 145 187 245 299 363 441
#     4  10  22  39  72 104 141 179 244 297 354 423
#     4  12  24  44  71 106 145 186 238 299 364 428
#     4  10  21  44  70 103 141 186 235 301 359 429
#
# _framework density 22.554897
#
# number of rings (size 3 to 8) (size 9 to 14) (size 15 to 20)
#    0.000    0.750    3.750    4.875    1.750    1.500 
#    2.250    0.625    0.000    0.000    0.000    0.000 
#    0.000    0.000    0.000    0.000    0.000    0.000 
#
# Total GULP energy -89302.695140 kJ/mol
# GULP energy per Si atom -5581.418446 kJ/mol
# Density = 2.250356 g / cm^3
# Si number density = 22.554897 Si / 1000 Ang^3
#
#
#
# Elastic Constant Matrix: (Units=GPa)
#
#
# Indices 1 2 3 4 5 6 
#
# 1 105.8391 21.5856 35.1073 5.6156 20.0743 1.8147
# 2 21.5856 84.3085 32.0890 13.2044 10.2786 -21.2652
# 3 35.1073 32.0890 144.7115 44.4169 16.2646 -1.9095
# 4 5.6156 13.2044 44.4169 44.3776 -4.6419 -5.3925
# 5 20.0743 10.2786 16.2646 -4.6419 45.4128 11.7817
# 6 1.8147 -21.2652 -1.9095 -5.3925 11.7817 30.0990
#
#
#
# Elastic Compliance Matrix: (Units=1/GPa)
#
#
# Indices 1 2 3 4 5 6 
#
# 1 0.011184 -0.001913 -0.002183 0.000898 -0.003470 -0.000645
# 2 -0.001913 0.017981 -0.001965 -0.002019 -0.006596 0.014915
# 3 -0.002183 -0.001965 0.011797 -0.011469 -0.003698 -0.001116
# 4 0.000898 -0.002019 -0.011469 0.035429 0.007474 0.001214
# 5 -0.003470 -0.006596 -0.003698 0.007474 0.031169 -0.015547
# 6 -0.000645 0.014915 -0.001116 0.001214 -0.015547 0.050032
#
#
# Mechanical properties :
#
#
# Convention : Reuss Voigt Hill
#
# Bulk Modulus (GPa) = 34.67498 56.93588 45.80543
# Shear Modulus (GPa) = 27.88182 40.38303 34.13242
#
# Velocity S-wave (km/s) = 3.51974 4.23594 3.89434
# Velocity P-wave (km/s) = 5.65023 7.01586 6.36975
#
# Compressibility (1/GPa) = 0.02883924
#
# Stress axis : x y z
#
# Youngs Moduli (GPa) = 89.41221 55.61322 84.76904
#
# Poissons Ratio (x) = 0.10638 0.18507
# Poissons Ratio (y) = 0.17103 0.16661
# Poissons Ratio (z) = 0.19520 0.10931
#
# Static dielectric constant tensor:
#      x y z
#    x 3.086940 0.854710 -0.301220 
#    y 0.854710 2.439100 -0.212240 
#    z -0.301220 -0.212240 2.020640 
# 
# From -- ./inp_files/205066.got.cif
#   From: 2010.05.17/outbox.cif.g08.bks.cpg/sg2_103_cif.got.tgz:205066.got - 2010.06.03 11:33:40.
