data_PCOD9019872
_publ_section_title
;
Structure prediction by ZEFSAII (Michael W. Deem and Ramdas Pophale) SiO2 
 PCOD9019872
Probable space group: P -1
;
_chemical_formula_sum "Si O2"
_cell_formula_units_Z 14
_cell_length_a 7.122619
_cell_length_b 16.653965
_cell_length_c 12.612348
_cell_angle_alpha 25.158264
_cell_angle_beta 97.190762
_cell_angle_gamma 82.826029
_cell_volume 520.765077
_symmetry_space_group_name_H-M "P -1"
_symmetry_group_IT_number 2
_symmetry_cell_setting 'triclinic'
loop_
_space_group_symop_operation_xyz
x,y,z
-x,-y,-z
loop_
_atom_site_type_symbol
_atom_site_label
_atom_site_fract_x
_atom_site_fract_y
_atom_site_fract_z
Si Si1 0.159674 0.675156 0.826664
Si Si2 0.380894 0.142481 0.018945
Si Si3 0.235513 0.604388 0.375621
Si Si4 0.737985 0.166459 0.707032
Si Si5 0.475919 0.853436 0.582731
Si Si6 0.189946 0.537206 0.219845
Si Si7 0.096930 0.169066 0.585245
O O1 0.113373 0.826579 0.384588
O O2 0.305431 0.783006 0.691460
O O3 0.952626 0.796370 0.584761
O O4 0.306882 0.402857 0.130632
O O5 0.287266 0.044209 0.045678
O O6 0.393232 0.019581 0.275964
O O7 0.644006 0.048768 0.123795
O O8 0.234330 0.411840 0.672250
O O9 0.500000 0.500000 0.500000
O O10 0.168435 0.804007 0.212421
O O11 0.128777 0.648002 0.199310
O O12 0.469266 0.382208 0.416465
O O13 0.500000 0.000000 0.500000
O O14 0.104586 0.372035 0.395021
O O15 0.097954 0.697029 0.919740
#
# Coordination Sequence:
#
# PCOD9019872 Si02
#       7
#     2   2   2   2   2   2   2
#     4  11  21  45  67  99 147 173 220 282 357 393
#     4  11  24  46  69 106 135 178 239 276 347 409
#     4  10  25  45  73  98 138 187 228 285 338 406
#     4  10  21  45  70  98 135 184 221 285 344 393
#     4  11  24  39  73 102 135 185 227 284 337 415
#     4  10  22  42  67  99 134 184 220 274 341 407
#     4  11  22  41  75 102 134 185 221 287 349 405
#
# _framework density 26.883524000000001
#
# number of rings (size 3 to 8) (size 9 to 14) (size 15 to 20)
#    0.000    1.429    4.286    1.286    6.000    5.714 
#    0.000   15.714    0.000    0.000    0.000    0.000 
#    0.000    0.000    0.000    0.000    0.000    0.000 
#
# Total GULP energy -78567.130489 kJ/mol
# GULP energy per Si atom -5611.937892 kJ/mol
# Density = 2.682234 g / cm^3
# Si number density = 26.883524 Si / 1000 Ang^3
#
#
#
# Elastic Constant Matrix: (Units=GPa)
#
#
# Indices 1 2 3 4 5 6 
#
# 1 152.7844 43.5036 62.9207 -0.7063 -16.5063 12.1360
# 2 43.5036 212.1272 93.1118 -9.5447 -16.1611 24.3475
# 3 62.9207 93.1118 146.0828 -11.3358 -24.0216 -0.3007
# 4 -0.7063 -9.5447 -11.3358 43.8671 -1.3569 -6.1322
# 5 -16.5063 -16.1611 -24.0216 -1.3569 38.1873 4.1050
# 6 12.1360 24.3475 -0.3007 -6.1322 4.1050 48.5252
#
#
#
# Elastic Compliance Matrix: (Units=1/GPa)
#
#
# Indices 1 2 3 4 5 6 
#
# 1 0.008310 0.000207 -0.003516 -0.001024 0.001697 -0.002477
# 2 0.000207 0.007142 -0.004552 -0.000121 0.000645 -0.003733
# 3 -0.003516 -0.004552 0.012120 0.002659 0.003923 0.003243
# 4 -0.001024 -0.000121 0.002659 0.023942 0.001684 0.003216
# 5 0.001697 0.000645 0.003923 0.001684 0.030049 -0.003053
# 6 -0.002477 -0.003733 0.003243 0.003216 -0.003053 0.023785
#
#
# Mechanical properties :
#
#
# Convention : Reuss Voigt Hill
#
# Bulk Modulus (GPa) = 84.40348 101.11849 92.76098
# Shear Modulus (GPa) = 39.99279 46.87981 43.43630
#
# Velocity S-wave (km/s) = 3.86117 4.18043 4.02397
# Velocity P-wave (km/s) = 7.16535 7.81003 7.49463
#
# Compressibility (1/GPa) = 0.01184785
#
# Stress axis : x y z
#
# Youngs Moduli (GPa) = 120.33950 140.01230 82.50881
#
# Poissons Ratio (x) = -0.02896 0.29014
# Poissons Ratio (y) = -0.02489 0.37562
# Poissons Ratio (z) = 0.42317 0.63740
#
# Static dielectric constant tensor:
#      x y z
#    x 2.095700 -0.039110 0.039560 
#    y -0.039110 2.078110 -0.017010 
#    z 0.039560 -0.017010 2.103400 
# 
# From -- ./inp_files/506931.got.cif
#   From: 2010.05.17/outbox.cif.g08.bks.cpg/sg2_254_cif.got.tgz:506931.got - 2010.06.03 11:33:40.
