data_PCOD9019448
_publ_section_title
;
Structure prediction by ZEFSAII (Michael W. Deem and Ramdas Pophale) SiO2 
 PCOD9019448
Probable space group: P -1
;
_chemical_formula_sum "Si O2"
_cell_formula_units_Z 14
_cell_length_a 5.364367
_cell_length_b 19.748566
_cell_length_c 5.094619
_cell_angle_alpha 83.672934
_cell_angle_beta 85.450330
_cell_angle_gamma 110.419476
_cell_volume 498.687150
_symmetry_space_group_name_H-M "P -1"
_symmetry_group_IT_number 2
_symmetry_cell_setting 'triclinic'
loop_
_space_group_symop_operation_xyz
x,y,z
-x,-y,-z
loop_
_atom_site_type_symbol
_atom_site_label
_atom_site_fract_x
_atom_site_fract_y
_atom_site_fract_z
Si Si1 0.254906 0.451395 0.858327
Si Si2 0.747974 0.797513 0.238692
Si Si3 0.895231 0.913551 0.603311
Si Si4 0.425914 0.946800 0.780923
Si Si5 0.287163 0.314338 0.081498
Si Si6 0.780542 0.411547 0.343349
Si Si7 0.142550 0.720710 0.461190
O O1 0.317852 0.377892 0.837809
O O2 0.241277 0.510476 0.619030
O O3 0.500000 0.500000 0.000000
O O4 0.996683 0.429734 0.080816
O O5 0.876030 0.874623 0.343218
O O6 0.670012 0.758754 0.978130
O O7 0.450337 0.770993 0.399473
O O8 0.959671 0.757889 0.312120
O O9 0.614102 0.899476 0.777472
O O10 0.113365 0.900499 0.782004
O O11 0.000000 0.000000 0.500000
O O12 0.500000 0.000000 0.500000
O O13 0.500000 0.000000 0.000000
O O14 0.501251 0.357178 0.266432
O O15 0.990755 0.289248 0.237109
O O16 0.863238 0.361509 0.567518
#
# Coordination Sequence:
#
# PCOD9019448 Si02
#       7
#     2   2   2   2   2   2   2
#     4   8  16  32  65  93 129 183 225 280 346 398
#     4  12  26  44  68  99 139 176 234 277 356 422
#     4  10  23  47  68 102 135 177 229 295 355 433
#     4  10  21  44  72 103 140 180 228 292 358 429
#     4  10  22  42  68  93 138 185 224 286 348 405
#     4   9  17  38  64  94 133 179 230 281 345 398
#     4  11  24  43  63 100 135 175 226 282 337 412
#
# _framework density 28.073716000000001
#
# number of rings (size 3 to 8) (size 9 to 14) (size 15 to 20)
#    0.000    2.000    1.429    1.286    4.000    0.000 
#   15.429    1.429    0.000    0.000    0.000    0.000 
#    0.000    0.000    0.000    0.000    0.000    0.000 
#
# Total GULP energy -78302.903012 kJ/mol
# GULP energy per Si atom -5593.064501 kJ/mol
# Density = 2.800982 g / cm^3
# Si number density = 28.073716 Si / 1000 Ang^3
#
#
#
# Elastic Constant Matrix: (Units=GPa)
#
#
# Indices 1 2 3 4 5 6 
#
# 1 201.0775 23.8426 23.2564 9.8891 -5.3646 -0.3538
# 2 23.8426 161.3418 14.4879 40.9581 -12.8513 -16.2777
# 3 23.2564 14.4879 88.9935 30.7886 -5.7022 3.3680
# 4 9.8891 40.9581 30.7886 35.6417 -13.0112 -0.9652
# 5 -5.3646 -12.8513 -5.7022 -13.0112 38.2270 1.3165
# 6 -0.3538 -16.2777 3.3680 -0.9652 1.3165 43.0747
#
#
#
# Elastic Compliance Matrix: (Units=1/GPa)
#
#
# Indices 1 2 3 4 5 6 
#
# 1 0.005220 -0.000890 -0.001570 0.001143 0.000594 -0.000163
# 2 -0.000890 0.009924 0.003436 -0.014525 -0.001330 0.003189
# 3 -0.001570 0.003436 0.017866 -0.020141 -0.003240 -0.000464
# 4 0.001143 -0.014525 -0.020141 0.067334 0.015290 -0.002863
# 5 0.000594 -0.001330 -0.003240 0.015290 0.030546 -0.000835
# 6 -0.000163 0.003189 -0.000464 -0.002863 -0.000835 0.024417
#
#
# Mechanical properties :
#
#
# Convention : Reuss Voigt Hill
#
# Bulk Modulus (GPa) = 28.60301 63.84294 46.22298
# Shear Modulus (GPa) = 30.30154 49.37707 39.83930
#
# Velocity S-wave (km/s) = 3.28892 4.19840 3.77118
# Velocity P-wave (km/s) = 4.96320 6.80387 5.95508
#
# Compressibility (1/GPa) = 0.03496135
#
# Stress axis : x y z
#
# Youngs Moduli (GPa) = 191.58286 100.76530 55.97254
#
# Poissons Ratio (x) = 0.08965 0.08790
# Poissons Ratio (y) = 0.17045 -0.19232
# Poissons Ratio (z) = 0.30087 -0.34623
#
# Static dielectric constant tensor:
#      x y z
#    x 2.374580 0.038050 0.011370 
#    y 0.038050 2.192120 -0.053260 
#    z 0.011370 -0.053260 2.429270 
# 
# From -- ./inp_files/9670.got.cif
#   From: 2010.05.17/outbox.cif.g08.bks.cpg/sg2_5_cif.got.tgz:9670.got - 2010.06.03 11:33:40.
