data_PCOD9019724
_publ_section_title
;
Structure prediction by ZEFSAII (Michael W. Deem and Ramdas Pophale) SiO2 
 PCOD9019724
Probable space group: P -1
;
_chemical_formula_sum "Si O2"
_cell_formula_units_Z 14
_cell_length_a 8.263053
_cell_length_b 9.777081
_cell_length_c 11.869119
_cell_angle_alpha 141.241915
_cell_angle_beta 92.153885
_cell_angle_gamma 71.166492
_cell_volume 529.750435
_symmetry_space_group_name_H-M "P -1"
_symmetry_group_IT_number 2
_symmetry_cell_setting 'triclinic'
loop_
_space_group_symop_operation_xyz
x,y,z
-x,-y,-z
loop_
_atom_site_type_symbol
_atom_site_label
_atom_site_fract_x
_atom_site_fract_y
_atom_site_fract_z
Si Si1 0.050096 0.077422 0.934206
Si Si2 0.672276 0.054436 0.526745
Si Si3 0.516414 0.572635 0.734342
Si Si4 0.002682 0.568971 0.195508
Si Si5 0.632833 0.838763 0.076163
Si Si6 0.068607 0.179454 0.420018
Si Si7 0.339846 0.345114 0.444124
O O1 0.249907 0.064516 0.934018
O O2 0.029388 0.922315 0.731612
O O3 0.930254 0.369181 0.086664
O O4 0.000000 0.000000 0.000000
O O5 0.841354 0.830497 0.320452
O O6 0.767535 0.032961 0.637828
O O7 0.500000 0.000000 0.500000
O O8 0.616866 0.314161 0.636944
O O9 0.348610 0.545471 0.656023
O O10 0.623115 0.596344 0.643073
O O11 0.500816 0.773791 0.954810
O O12 0.046699 0.637376 0.364729
O O13 0.196288 0.417342 0.039710
O O14 0.509788 0.072270 0.298899
O O15 0.163274 0.312499 0.437929
#
# Coordination Sequence:
#
# PCOD9019724 Si02
#       7
#     2   2   2   2   2   2   2
#     4  10  22  41  68 100 136 173 222 276 330 399
#     4  10  21  45  67  92 135 185 219 264 337 408
#     4  11  23  43  67  95 138 174 219 281 332 396
#     4   8  23  42  64  98 134 174 221 269 335 403
#     4  10  24  42  65 100 134 171 216 290 330 390
#     4  10  22  44  70  98 131 180 225 266 335 406
#     4  11  24  40  72 103 124 172 233 277 337 379
#
# _framework density 26.427537999999998
#
# number of rings (size 3 to 8) (size 9 to 14) (size 15 to 20)
#    1.714    0.286    1.429    1.286    2.000    6.857 
#    2.571    2.857    0.000    0.000    0.000    0.000 
#    0.000    0.000    0.000    0.000    0.000    0.000 
#
# Total GULP energy -78304.555020 kJ/mol
# GULP energy per Si atom -5593.182501 kJ/mol
# Density = 2.636739 g / cm^3
# Si number density = 26.427538 Si / 1000 Ang^3
#
#
#
# Elastic Constant Matrix: (Units=GPa)
#
#
# Indices 1 2 3 4 5 6 
#
# 1 76.5807 35.4663 35.0637 4.6654 15.0891 -7.6290
# 2 35.4663 120.9773 34.8039 5.7093 3.4279 1.3484
# 3 35.0637 34.8039 152.1178 -13.7837 38.7278 -7.8646
# 4 4.6654 5.7093 -13.7837 43.6732 -7.4370 -0.1291
# 5 15.0891 3.4279 38.7278 -7.4370 52.9495 7.2527
# 6 -7.6290 1.3484 -7.8646 -0.1291 7.2527 42.5296
#
#
#
# Elastic Compliance Matrix: (Units=1/GPa)
#
#
# Indices 1 2 3 4 5 6 
#
# 1 0.017272 -0.004281 -0.002035 -0.002599 -0.004006 0.003533
# 2 -0.004281 0.010136 -0.002089 -0.001161 0.002182 -0.001851
# 3 -0.002035 -0.002089 0.009449 0.002424 -0.006199 0.002513
# 4 -0.002599 -0.001161 0.002424 0.024522 0.002533 -0.000339
# 5 -0.004006 0.002182 -0.006199 0.002533 0.025639 -0.006299
# 6 0.003533 -0.001851 0.002513 -0.000339 -0.006299 0.025743
#
#
# Mechanical properties :
#
#
# Convention : Reuss Voigt Hill
#
# Bulk Modulus (GPa) = 49.88282 62.26040 56.07161
# Shear Modulus (GPa) = 36.69647 44.11991 40.40819
#
# Velocity S-wave (km/s) = 3.73039 4.09034 3.91451
# Velocity P-wave (km/s) = 6.12134 6.77628 6.45712
#
# Compressibility (1/GPa) = 0.02004698
#
# Stress axis : x y z
#
# Youngs Moduli (GPa) = 57.89658 98.66209 105.83544
#
# Poissons Ratio (x) = 0.42241 0.21535
# Poissons Ratio (y) = 0.24788 0.22104
# Poissons Ratio (z) = 0.11781 0.20606
#
# Static dielectric constant tensor:
#      x y z
#    x 2.062000 -0.101520 -0.038650 
#    y -0.101520 2.135150 0.055190 
#    z -0.038650 0.055190 2.031170 
# 
# From -- ./inp_files/501214.got.cif
#   From: 2010.05.17/outbox.cif.g08.bks.cpg/sg2_251_cif.got.tgz:501214.got - 2010.06.03 11:33:40.
