data_PCOD9019975
_publ_section_title
;
Structure prediction by ZEFSAII (Michael W. Deem and Ramdas Pophale) SiO2 
 PCOD9019975
Probable space group: P -1
;
_chemical_formula_sum "Si O2"
_cell_formula_units_Z 14
_cell_length_a 5.052448
_cell_length_b 8.854664
_cell_length_c 15.604355
_cell_angle_alpha 89.793446
_cell_angle_beta 72.992645
_cell_angle_gamma 122.922913
_cell_volume 548.748568
_symmetry_space_group_name_H-M "P -1"
_symmetry_group_IT_number 2
_symmetry_cell_setting 'triclinic'
loop_
_space_group_symop_operation_xyz
x,y,z
-x,-y,-z
loop_
_atom_site_type_symbol
_atom_site_label
_atom_site_fract_x
_atom_site_fract_y
_atom_site_fract_z
Si Si1 0.951906 0.913176 0.099922
Si Si2 0.026766 0.966704 0.621419
Si Si3 0.830408 0.500879 0.290957
Si Si4 0.563895 0.692200 0.521050
Si Si5 0.297143 0.488944 0.938435
Si Si6 0.190839 0.333375 0.241810
Si Si7 0.651232 0.069984 0.777797
O O1 0.818561 0.700191 0.097759
O O2 0.689204 0.943050 0.172120
O O3 0.250296 0.973478 0.139416
O O4 0.000000 0.000000 0.000000
O O5 0.881444 0.832170 0.552636
O O6 0.078790 0.860313 0.690145
O O7 0.733565 0.975926 0.694343
O O8 0.349613 0.167678 0.565048
O O9 0.758476 0.390794 0.387013
O O10 0.475071 0.448112 0.288277
O O11 0.017356 0.428427 0.220358
O O12 0.076888 0.716345 0.271929
O O13 0.500000 0.500000 0.500000
O O14 0.567430 0.657470 0.853505
O O15 0.500000 0.500000 0.000000
O O16 0.000000 0.500000 0.000000
#
# Coordination Sequence:
#
# PCOD9019975 Si02
#       7
#     2   2   2   2   2   2   2
#     4  12  28  46  71 104 144 191 243 307 369 426
#     4  10  25  41  75 111 142 198 248 293 367 445
#     4  11  21  44  71  95 141 190 227 293 361 421
#     4  10  21  45  74 109 154 187 242 304 365 430
#     4  12  25  42  68  99 137 182 235 299 363 425
#     4  11  24  44  67 101 140 183 241 291 358 431
#     4  12  23  47  70 104 145 192 245 297 366 440
#
# _framework density 25.512595999999998
#
# number of rings (size 3 to 8) (size 9 to 14) (size 15 to 20)
#    0.000    0.857    4.286    2.143    4.000    2.857 
#    0.000    5.714    0.000    0.000    0.000    0.000 
#    0.000    0.000    0.000    0.000    0.000    0.000 
#
# Total GULP energy -78200.074786 kJ/mol
# GULP energy per Si atom -5585.719628 kJ/mol
# Density = 2.545453 g / cm^3
# Si number density = 25.512596 Si / 1000 Ang^3
#
#
#
# Elastic Constant Matrix: (Units=GPa)
#
#
# Indices 1 2 3 4 5 6 
#
# 1 124.9061 22.8238 9.2603 18.4844 -15.5650 -13.4456
# 2 22.8238 157.9416 44.8183 -2.5763 15.3323 -18.6234
# 3 9.2603 44.8183 111.6540 -8.0880 3.5929 -5.9567
# 4 18.4844 -2.5763 -8.0880 59.6996 -9.9194 0.2399
# 5 -15.5650 15.3323 3.5929 -9.9194 23.3479 0.9305
# 6 -13.4456 -18.6234 -5.9567 0.2399 0.9305 23.4994
#
#
#
# Elastic Compliance Matrix: (Units=1/GPa)
#
#
# Indices 1 2 3 4 5 6 
#
# 1 0.009884 -0.001514 -0.000356 -0.002097 0.006583 0.004126
# 2 -0.001514 0.008671 -0.002892 -0.000697 -0.006776 0.005548
# 3 -0.000356 -0.002892 0.010234 0.001491 0.000718 0.000056
# 4 -0.002097 -0.000697 0.001491 0.018718 0.006856 -0.001837
# 5 0.006583 -0.006776 0.000718 0.006856 0.054617 -0.003654
# 6 0.004126 0.005548 0.000056 -0.001837 -0.003654 0.049490
#
#
# Mechanical properties :
#
#
# Convention : Reuss Voigt Hill
#
# Bulk Modulus (GPa) = 51.90249 60.92295 56.41272
# Shear Modulus (GPa) = 29.84027 42.48266 36.16146
#
# Velocity S-wave (km/s) = 3.42369 4.08507 3.76892
# Velocity P-wave (km/s) = 6.00141 6.79572 6.41088
#
# Compressibility (1/GPa) = 0.01926690
#
# Stress axis : x y z
#
# Youngs Moduli (GPa) = 101.17595 115.32123 97.71085
#
# Poissons Ratio (x) = 0.17461 0.03474
# Poissons Ratio (y) = 0.15320 0.28254
# Poissons Ratio (z) = 0.03597 0.33346
#
# Static dielectric constant tensor:
#      x y z
#    x 1.891080 -0.001160 -0.012390 
#    y -0.001160 2.055380 0.024980 
#    z -0.012390 0.024980 2.100110 
# 
# From -- ./inp_files/548150.got.cif
#   From: 2010.05.17/outbox.cif.g08.bks.cpg/sg2_275_cif.got.tgz:548150.got - 2010.06.03 11:33:40.
