data_PCOD9019028
_publ_section_title
;
Structure prediction by ZEFSAII (Michael W. Deem and Ramdas Pophale) SiO2 
 PCOD9019028
Probable space group: P -1
;
_chemical_formula_sum "Si O2"
_cell_formula_units_Z 16
_cell_length_a 11.983782
_cell_length_b 11.614248
_cell_length_c 8.998567
_cell_angle_alpha 119.002790
_cell_angle_beta 124.836517
_cell_angle_gamma 52.532841
_cell_volume 797.571631
_symmetry_space_group_name_H-M "P -1"
_symmetry_group_IT_number 2
_symmetry_cell_setting 'triclinic'
loop_
_space_group_symop_operation_xyz
x,y,z
-x,-y,-z
loop_
_atom_site_type_symbol
_atom_site_label
_atom_site_fract_x
_atom_site_fract_y
_atom_site_fract_z
Si Si1 0.844668 0.506122 0.946536
Si Si2 0.682894 0.015582 0.439044
Si Si3 0.588690 0.781819 0.101198
Si Si4 0.705398 0.180508 0.282939
Si Si5 0.644546 0.491232 0.514502
Si Si6 0.160228 0.752935 0.029341
Si Si7 0.998661 0.070544 0.268165
Si Si8 0.516603 0.262641 0.691941
O O1 0.759102 0.490825 0.725782
O O2 0.871747 0.371469 0.994609
O O3 0.729511 0.658174 0.037937
O O4 0.000000 0.500000 0.000000
O O5 0.680881 0.141809 0.407113
O O6 0.593073 0.099084 0.571704
O O7 0.610870 0.926318 0.240158
O O8 0.861221 0.909997 0.544416
O O9 0.572158 0.726824 0.217912
O O10 0.431099 0.818106 0.918543
O O11 0.704393 0.338206 0.376464
O O12 0.873117 0.068668 0.283358
O O13 0.500000 0.500000 0.500000
O O14 0.592135 0.624615 0.442911
O O15 0.341755 0.702581 0.142459
O O16 0.091398 0.804050 0.845063
O O17 0.080376 0.907604 0.155251
#
# Coordination Sequence:
#
# PCOD9019028 Si02
#       8
#     2   2   2   2   2   2   2   2
#     4  12  28  45  65  96 136 170 210 272 329 381
#     4  11  24  42  63  98 139 166 212 269 327 377
#     4  12  26  42  67 100 128 175 215 264 329 381
#     4  12  23  41  70  96 128 173 223 264 311 392
#     4  12  22  44  69  95 125 169 221 265 321 378
#     4  10  21  44  67  96 131 168 219 269 317 379
#     4  10  23  39  69  96 126 177 216 263 321 383
#     4  11  22  44  71  95 130 170 219 270 313 387
#
# _framework density 20.060894000000001
#
# number of rings (size 3 to 8) (size 9 to 14) (size 15 to 20)
#    0.000    0.750    5.000    1.875    5.250    2.000 
#    0.000    1.250    0.000    0.000    0.000    0.000 
#    0.000    0.000    0.000    0.000    0.000    0.000 
#
# Total GULP energy -89432.919522 kJ/mol
# GULP energy per Si atom -5589.557470 kJ/mol
# Density = 2.001523 g / cm^3
# Si number density = 20.060894 Si / 1000 Ang^3
#
#
#
# Elastic Constant Matrix: (Units=GPa)
#
#
# Indices 1 2 3 4 5 6 
#
# 1 105.6044 23.3923 35.9445 5.4713 7.4530 -12.4674
# 2 23.3923 52.1542 25.9391 1.2191 8.7157 6.4551
# 3 35.9445 25.9391 119.9759 -0.8992 13.2180 -9.1497
# 4 5.4713 1.2191 -0.8992 27.1297 6.7139 -6.6859
# 5 7.4530 8.7157 13.2180 6.7139 27.3442 -1.0238
# 6 -12.4674 6.4551 -9.1497 -6.6859 -1.0238 28.5586
#
#
#
# Elastic Compliance Matrix: (Units=1/GPa)
#
#
# Indices 1 2 3 4 5 6 
#
# 1 0.011984 -0.004955 -0.002078 -0.000846 -0.000270 0.005478
# 2 -0.004955 0.025572 -0.004288 -0.001552 -0.004715 -0.009849
# 3 -0.002078 -0.004288 0.010626 0.002882 -0.003761 0.004006
# 4 -0.000846 -0.001552 0.002882 0.042418 -0.010691 0.010452
# 5 -0.000270 -0.004715 -0.003761 -0.010691 0.042544 -0.001235
# 6 0.005478 -0.009849 0.004006 0.010452 -0.001235 0.043320
#
#
# Mechanical properties :
#
#
# Convention : Reuss Voigt Hill
#
# Bulk Modulus (GPa) = 39.15215 49.80957 44.48086
# Shear Modulus (GPa) = 24.08278 29.43707 26.75993
#
# Velocity S-wave (km/s) = 3.46856 3.83480 3.65627
# Velocity P-wave (km/s) = 5.96659 6.67014 6.32815
#
# Compressibility (1/GPa) = 0.02554138
#
# Stress axis : x y z
#
# Youngs Moduli (GPa) = 83.44711 39.10538 94.10837
#
# Poissons Ratio (x) = 0.19375 0.19555
# Poissons Ratio (y) = 0.41345 0.40350
# Poissons Ratio (z) = 0.17340 0.16767
#
# Static dielectric constant tensor:
#      x y z
#    x 1.717190 -0.041600 -0.018330 
#    y -0.041600 1.741680 0.011030 
#    z -0.018330 0.011030 1.694150 
# 
# From -- ./inp_files/225958.got.cif
#   From: 2010.05.17/outbox.cif.g08.bks.cpg/sg2_113_cif.got.tgz:225958.got - 2010.06.03 11:33:40.
