data_PCOD9019942
_publ_section_title
;
Structure prediction by ZEFSAII (Michael W. Deem and Ramdas Pophale) SiO2 
 PCOD9019942
Probable space group: P -1
;
_chemical_formula_sum "Si O2"
_cell_formula_units_Z 13
_cell_length_a 13.655304
_cell_length_b 9.540428
_cell_length_c 8.670918
_cell_angle_alpha 49.037840
_cell_angle_beta 127.566856
_cell_angle_gamma 142.590713
_cell_volume 508.380623
_symmetry_space_group_name_H-M "P -1"
_symmetry_group_IT_number 2
_symmetry_cell_setting 'triclinic'
loop_
_space_group_symop_operation_xyz
x,y,z
-x,-y,-z
loop_
_atom_site_type_symbol
_atom_site_label
_atom_site_fract_x
_atom_site_fract_y
_atom_site_fract_z
Si Si1 0.308494 0.663469 0.343598
Si Si2 0.948700 0.276902 0.222624
Si Si3 0.412677 0.539497 0.263071
Si Si4 0.500000 0.000000 0.500000
Si Si5 0.187499 0.239112 0.024662
Si Si6 0.175224 0.659747 0.642311
Si Si7 0.315774 0.108807 0.979492
O O1 0.365419 0.673166 0.220159
O O2 0.126848 0.400423 0.371289
O O3 0.419050 0.720667 0.552529
O O4 0.332764 0.913882 0.205744
O O5 0.841272 0.238486 0.290374
O O6 0.842450 0.045018 0.174906
O O7 0.000000 0.500000 0.000000
O O8 0.500000 0.500000 0.500000
O O9 0.529324 0.700836 0.116171
O O10 0.254826 0.278395 0.233009
O O11 0.665625 0.133805 0.451772
O O12 0.195810 0.466616 0.846433
O O13 0.287560 0.220184 0.010458
O O14 0.000000 0.000000 0.000000
O O15 0.000000 0.500000 0.500000
#
# Coordination Sequence:
#
# PCOD9019942 Si02
#       7
#     2   2   2   1   2   2   2
#     4  11  23  43  72 101 148 194 252 301 380 449
#     4  10  21  45  73 105 143 195 250 307 375 453
#     4  12  28  46  71 109 152 196 257 314 381 456
#     4  12  26  42  78 110 152 194 262 312 378 460
#     4  12  27  49  74 110 153 198 254 321 392 455
#     4  12  26  48  78 114 154 204 260 318 387 466
#     4  11  24  45  74 102 146 197 247 312 383 452
#
# _framework density 25.571390000000001
#
# number of rings (size 3 to 8) (size 9 to 14) (size 15 to 20)
#    0.000    0.615    1.538    7.385    4.308    1.231 
#    0.000    2.308    0.000    0.000    0.000    0.000 
#    0.000    0.000    0.000    0.000    0.000    0.000 
#
# Total GULP energy -72669.069628 kJ/mol
# GULP energy per Si atom -5589.928433 kJ/mol
# Density = 2.551319 g / cm^3
# Si number density = 25.571390 Si / 1000 Ang^3
#
#
#
# Elastic Constant Matrix: (Units=GPa)
#
#
# Indices 1 2 3 4 5 6 
#
# 1 165.0507 28.4906 39.3777 7.8372 -36.0396 -7.0277
# 2 28.4906 114.0167 22.9191 38.9211 -7.4387 8.7848
# 3 39.3777 22.9191 85.4373 7.6031 -5.0768 -3.4611
# 4 7.8372 38.9211 7.6031 43.3552 -5.4906 -8.5781
# 5 -36.0396 -7.4387 -5.0768 -5.4906 43.7107 3.9112
# 6 -7.0277 8.7848 -3.4611 -8.5781 3.9112 61.4263
#
#
#
# Elastic Compliance Matrix: (Units=1/GPa)
#
#
# Indices 1 2 3 4 5 6 
#
# 1 0.008471 -0.001615 -0.003184 0.001455 0.006450 0.000813
# 2 -0.001615 0.014375 -0.002138 -0.013114 -0.000408 -0.004166
# 3 -0.003184 -0.002138 0.013685 0.000071 -0.001464 0.000816
# 4 0.001455 -0.013114 0.000071 0.036303 0.002916 0.006930
# 5 0.006450 -0.000408 -0.001464 0.002916 0.028384 -0.000686
# 6 0.000813 -0.004166 0.000816 0.006930 -0.000686 0.018026
#
#
# Mechanical properties :
#
#
# Convention : Reuss Voigt Hill
#
# Bulk Modulus (GPa) = 44.13652 60.67550 52.40601
# Shear Modulus (GPa) = 35.54394 47.94628 41.74511
#
# Velocity S-wave (km/s) = 3.73230 4.33482 4.04480
# Velocity P-wave (km/s) = 5.98924 6.98811 6.50787
#
# Compressibility (1/GPa) = 0.02265698
#
# Stress axis : x y z
#
# Youngs Moduli (GPa) = 118.04795 69.56534 73.07083
#
# Poissons Ratio (x) = 0.11236 0.23268
# Poissons Ratio (y) = 0.19067 0.15621
# Poissons Ratio (z) = 0.37590 0.14872
#
# Static dielectric constant tensor:
#      x y z
#    x 2.025930 0.029070 0.152110 
#    y 0.029070 2.060050 -0.149420 
#    z 0.152110 -0.149420 1.718780 
# 
# From -- ./inp_files/242340.got.cif
#   From: 2010.05.17/outbox.cif.g08.bks.cpg/sg2_122_cif.got.tgz:242340.got - 2010.06.03 11:33:40.
