data_PCOD9019666
_publ_section_title
;
Structure prediction by ZEFSAII (Michael W. Deem and Ramdas Pophale) SiO2 
 PCOD9019666
Probable space group: P -1
;
_chemical_formula_sum "Si O2"
_cell_formula_units_Z 16
_cell_length_a 19.395903
_cell_length_b 9.006914
_cell_length_c 7.407318
_cell_angle_alpha 96.695375
_cell_angle_beta 144.658267
_cell_angle_gamma 73.368357
_cell_volume 701.094095
_symmetry_space_group_name_H-M "P -1"
_symmetry_group_IT_number 2
_symmetry_cell_setting 'triclinic'
loop_
_space_group_symop_operation_xyz
x,y,z
-x,-y,-z
loop_
_atom_site_type_symbol
_atom_site_label
_atom_site_fract_x
_atom_site_fract_y
_atom_site_fract_z
Si Si1 0.782237 0.456008 0.866229
Si Si2 0.306202 0.929786 0.786521
Si Si3 0.321374 0.226463 0.718858
Si Si4 0.903729 0.700201 0.002789
Si Si5 0.889677 0.121698 0.904436
Si Si6 0.473709 0.371499 0.796797
Si Si7 0.855868 0.539144 0.397695
Si Si8 0.913498 0.849632 0.407803
O O1 0.835538 0.314338 0.817929
O O2 0.631044 0.527098 0.552529
O O3 0.829647 0.595811 0.921015
O O4 0.836712 0.429477 0.180308
O O5 0.233680 0.908242 0.445198
O O6 0.375572 0.056395 0.902721
O O7 0.205851 0.016428 0.738900
O O8 0.399906 0.759627 0.022399
O O9 0.407195 0.269228 0.760882
O O10 0.278682 0.367759 0.791392
O O11 0.181861 0.235476 0.344106
O O12 0.903308 0.831035 0.168725
O O13 0.045562 0.579214 0.272072
O O14 0.964940 0.111512 0.253668
O O15 0.000000 0.000000 0.000000
O O16 0.500000 0.500000 0.000000
O O17 0.908068 0.679099 0.454530
#
# Coordination Sequence:
#
# PCOD9019666 Si02
#       8
#     2   2   2   2   2   2   2   2
#     4  10  18  33  58  86 107 145 193 224 264 327
#     4  10  21  37  56  80 118 148 179 229 279 318
#     4  10  23  36  54  84 112 146 184 226 286 326
#     4  10  17  32  58  84 114 143 182 226 273 333
#     4  10  17  30  56  84 112 144 182 219 274 327
#     4  11  22  39  60  79 105 149 197 230 262 328
#     4  10  17  33  56  84 118 143 175 234 280 322
#     4   9  17  32  57  87 110 146 185 221 272 331
#
# _framework density 22.821470999999999
#
# number of rings (size 3 to 8) (size 9 to 14) (size 15 to 20)
#    0.000    2.000    3.750    1.500    0.000    0.000 
#    0.000   12.500    2.750    0.000    0.000    0.000 
#    0.000    0.000    0.000    0.000    0.000    0.000 
#
# Total GULP energy -89121.234332 kJ/mol
# GULP energy per Si atom -5570.077146 kJ/mol
# Density = 2.276953 g / cm^3
# Si number density = 22.821471 Si / 1000 Ang^3
#
#
#
# Elastic Constant Matrix: (Units=GPa)
#
#
# Indices 1 2 3 4 5 6 
#
# 1 19.9046 22.5399 1.8501 3.6689 -0.1939 -13.7675
# 2 22.5399 159.5568 45.0680 -1.4126 4.2754 -30.3662
# 3 1.8501 45.0680 73.6295 -9.2872 6.7025 -12.8184
# 4 3.6689 -1.4126 -9.2872 37.8530 -10.4300 0.4428
# 5 -0.1939 4.2754 6.7025 -10.4300 21.9929 3.0090
# 6 -13.7675 -30.3662 -12.8184 0.4428 3.0090 28.5771
#
#
#
# Elastic Compliance Matrix: (Units=1/GPa)
#
#
# Indices 1 2 3 4 5 6 
#
# 1 0.086190 -0.006943 0.008643 -0.009867 -0.010579 0.039289
# 2 -0.006943 0.009545 -0.004777 -0.000584 -0.001396 0.004811
# 3 0.008643 -0.004777 0.018329 0.002111 -0.004642 0.007765
# 4 -0.009867 -0.000584 0.002111 0.032237 0.015570 -0.006566
# 5 -0.010579 -0.001396 -0.004642 0.015570 0.056478 -0.014850
# 6 0.039289 0.004811 0.007765 -0.006566 -0.014850 0.064182
#
#
# Mechanical properties :
#
#
# Convention : Reuss Voigt Hill
#
# Bulk Modulus (GPa) = 9.26710 43.55631 26.41170
# Shear Modulus (GPa) = 16.17666 29.92681 23.05173
#
# Velocity S-wave (km/s) = 2.66528 3.62518 3.18164
# Velocity P-wave (km/s) = 3.67983 6.05390 5.00953
#
# Compressibility (1/GPa) = 0.10790867
#
# Stress axis : x y z
#
# Youngs Moduli (GPa) = 11.60227 104.76178 54.55782
#
# Poissons Ratio (x) = 0.72741 -0.47153
# Poissons Ratio (y) = 0.08056 0.26063
# Poissons Ratio (z) = -0.10027 0.50047
#
# Static dielectric constant tensor:
#      x y z
#    x 1.855370 0.014440 -0.011280 
#    y 0.014440 1.880260 -0.023570 
#    z -0.011280 -0.023570 1.915760 
# 
# From -- ./inp_files/178802.got.cif
#   From: 2010.05.17/outbox.cif.g08.bks.cpg/sg2_90_cif.got.tgz:178802.got - 2010.06.03 11:33:40.
