data_PCOD9019055
_publ_section_title
;
Structure prediction by ZEFSAII (Michael W. Deem and Ramdas Pophale) SiO2 
 PCOD9019055
Probable space group: P -1
;
_chemical_formula_sum "Si O2"
_cell_formula_units_Z 16
_cell_length_a 7.679148
_cell_length_b 6.507169
_cell_length_c 15.483216
_cell_angle_alpha 76.177645
_cell_angle_beta 99.176874
_cell_angle_gamma 65.310408
_cell_volume 652.463383
_symmetry_space_group_name_H-M "P -1"
_symmetry_group_IT_number 2
_symmetry_cell_setting 'triclinic'
loop_
_space_group_symop_operation_xyz
x,y,z
-x,-y,-z
loop_
_atom_site_type_symbol
_atom_site_label
_atom_site_fract_x
_atom_site_fract_y
_atom_site_fract_z
Si Si1 0.490127 0.682365 0.344582
Si Si2 0.701245 0.972728 0.564568
Si Si3 0.756067 0.624700 0.903245
Si Si4 0.466780 0.141151 0.853160
Si Si5 0.184347 0.578700 0.902467
Si Si6 0.088987 0.083786 0.765994
Si Si7 0.142984 0.233765 0.570429
Si Si8 0.304976 0.427053 0.283307
O O1 0.454808 0.793249 0.234794
O O2 0.669723 0.726814 0.387539
O O3 0.484538 0.435805 0.350093
O O4 0.333286 0.812593 0.396307
O O5 0.835660 0.921023 0.497219
O O6 0.764068 0.744797 0.655892
O O7 0.500000 0.000000 0.500000
O O8 0.636789 0.654789 0.802075
O O9 0.981645 0.551996 0.897811
O O10 0.649631 0.881763 0.918730
O O11 0.756499 0.433613 0.990598
O O12 0.368290 0.366033 0.887492
O O13 0.275881 0.104972 0.818110
O O14 0.116728 0.828585 0.823907
O O15 0.092661 0.121965 0.660083
O O16 0.881604 0.305994 0.758926
O O17 0.000000 0.500000 0.500000
#
# Coordination Sequence:
#
# PCOD9019055 Si02
#       8
#     2   2   2   2   2   2   2   2
#     4  10  24  40  71  99 136 182 225 280 356 401
#     4  10  22  42  68  95 139 174 231 285 340 415
#     4  11  25  48  73 101 145 185 234 294 350 414
#     4  11  23  46  70 103 142 184 230 295 347 418
#     4  11  26  48  70 105 140 186 237 292 350 419
#     4  11  25  43  71 104 140 183 233 290 359 413
#     4  10  21  44  68 100 139 178 230 293 337 413
#     4  12  23  45  69 101 140 185 232 286 352 425
#
# _framework density 24.522448000000001
#
# number of rings (size 3 to 8) (size 9 to 14) (size 15 to 20)
#    0.000    1.250    3.750    1.125    1.750    3.000 
#    2.250    1.875    0.000    0.000    0.000    0.000 
#    0.000    0.000    0.000    0.000    0.000    0.000 
#
# Total GULP energy -89421.022574 kJ/mol
# GULP energy per Si atom -5588.813911 kJ/mol
# Density = 2.446663 g / cm^3
# Si number density = 24.522448 Si / 1000 Ang^3
#
#
#
# Elastic Constant Matrix: (Units=GPa)
#
#
# Indices 1 2 3 4 5 6 
#
# 1 79.2354 13.9523 26.8279 9.3266 1.0743 -0.7162
# 2 13.9523 92.7355 67.1852 3.4040 -12.5152 -19.1624
# 3 26.8279 67.1852 140.7335 -11.5929 -30.7654 8.3478
# 4 9.3266 3.4040 -11.5929 34.8001 2.5123 5.6800
# 5 1.0743 -12.5152 -30.7654 2.5123 26.5941 -0.7148
# 6 -0.7162 -19.1624 8.3478 5.6800 -0.7148 36.5267
#
#
#
# Elastic Compliance Matrix: (Units=1/GPa)
#
#
# Indices 1 2 3 4 5 6 
#
# 1 0.015121 0.002318 -0.006005 -0.006481 -0.005753 0.003780
# 2 0.002318 0.025257 -0.015503 -0.010934 -0.004613 0.018449
# 3 -0.006005 -0.015503 0.020855 0.011307 0.015615 -0.014470
# 4 -0.006481 -0.010934 0.011307 0.037311 0.004292 -0.014166
# 5 -0.005753 -0.004613 0.015615 0.004292 0.053169 -0.005729
# 6 0.003780 0.018449 -0.014470 -0.014166 -0.005729 0.042527
#
#
# Mechanical properties :
#
#
# Convention : Reuss Voigt Hill
#
# Bulk Modulus (GPa) = 43.75788 58.73724 51.24756
# Shear Modulus (GPa) = 20.81277 33.23345 27.02311
#
# Velocity S-wave (km/s) = 2.91645 3.68533 3.32320
# Velocity P-wave (km/s) = 5.40589 6.48948 5.97231
#
# Compressibility (1/GPa) = 0.02285303
#
# Stress axis : x y z
#
# Youngs Moduli (GPa) = 66.13510 39.59268 47.95074
#
# Poissons Ratio (x) = -0.09178 0.28793
# Poissons Ratio (y) = -0.15330 0.74338
# Poissons Ratio (z) = 0.39712 0.61381
#
# Static dielectric constant tensor:
#      x y z
#    x 1.985420 0.014650 -0.023950 
#    y 0.014650 1.955980 0.024330 
#    z -0.023950 0.024330 1.917720 
# 
# From -- ./inp_files/488297.got.cif
#   From: 2010.05.17/outbox.cif.g08.bks.cpg/sg2_245_cif.got.tgz:488297.got - 2010.06.03 11:33:40.
