data_PCOD9019626
_publ_section_title
;
Structure prediction by ZEFSAII (Michael W. Deem and Ramdas Pophale) SiO2 
 PCOD9019626
Probable space group: P -1
;
_chemical_formula_sum "Si O2"
_cell_formula_units_Z 14
_cell_length_a 14.422598
_cell_length_b 8.246513
_cell_length_c 5.265984
_cell_angle_alpha 62.980286
_cell_angle_beta 77.362957
_cell_angle_gamma 82.633353
_cell_volume 544.137969
_symmetry_space_group_name_H-M "P -1"
_symmetry_group_IT_number 2
_symmetry_cell_setting 'triclinic'
loop_
_space_group_symop_operation_xyz
x,y,z
-x,-y,-z
loop_
_atom_site_type_symbol
_atom_site_label
_atom_site_fract_x
_atom_site_fract_y
_atom_site_fract_z
Si Si1 0.852301 0.533211 0.976329
Si Si2 0.714325 0.414862 0.769236
Si Si3 0.021641 0.337221 0.789807
Si Si4 0.126036 0.880872 0.182873
Si Si5 0.173641 0.093555 0.493002
Si Si6 0.633457 0.802055 0.590819
Si Si7 0.552550 0.130457 0.072105
O O1 0.751682 0.449081 0.016826
O O2 0.934897 0.376277 0.020448
O O3 0.862197 0.695619 0.646335
O O4 0.880283 0.641132 0.136149
O O5 0.808118 0.304269 0.688416
O O6 0.677573 0.617969 0.566829
O O7 0.629897 0.279336 0.859511
O O8 0.981057 0.166490 0.790501
O O9 0.000000 0.500000 0.500000
O O10 0.127270 0.986291 0.370082
O O11 0.167902 0.993134 0.838930
O O12 0.284308 0.121542 0.333455
O O13 0.534738 0.761673 0.813835
O O14 0.607115 0.977240 0.314459
O O15 0.500000 0.000000 0.000000
#
# Coordination Sequence:
#
# PCOD9019626 Si02
#       7
#     2   2   2   2   2   2   2
#     4   9  23  42  65  94 135 178 225 277 339 400
#     4  10  21  45  63  96 130 182 219 276 339 400
#     4  10  23  41  64  96 133 181 224 281 334 400
#     4  11  25  42  70  96 137 178 225 281 333 396
#     4  11  24  45  67 101 132 178 228 277 335 400
#     4  10  23  41  65  95 133 176 221 278 334 402
#     4  11  22  40  66  97 134 169 225 280 332 405
#
# _framework density 25.728770999999998
#
# number of rings (size 3 to 8) (size 9 to 14) (size 15 to 20)
#    0.000    1.714    1.429    1.286    8.000    1.714 
#    2.571    0.000    0.000    0.000    0.000    0.000 
#    0.000    0.000    0.000    0.000    0.000    0.000 
#
# Total GULP energy -78128.759378 kJ/mol
# GULP energy per Si atom -5580.625670 kJ/mol
# Density = 2.567021 g / cm^3
# Si number density = 25.728771 Si / 1000 Ang^3
#
#
#
# Elastic Constant Matrix: (Units=GPa)
#
#
# Indices 1 2 3 4 5 6 
#
# 1 141.8787 55.0675 14.8800 -7.4503 0.4214 21.9591
# 2 55.0675 144.6304 20.7910 -3.0073 10.7675 5.8433
# 3 14.8800 20.7910 58.0585 -5.4724 -1.6774 2.2116
# 4 -7.4503 -3.0073 -5.4724 38.8256 9.4632 11.5266
# 5 0.4214 10.7675 -1.6774 9.4632 34.1736 -6.3815
# 6 21.9591 5.8433 2.2116 11.5266 -6.3815 65.5949
#
#
#
# Elastic Compliance Matrix: (Units=1/GPa)
#
#
# Indices 1 2 3 4 5 6 
#
# 1 0.008947 -0.003073 -0.000859 0.002402 -0.000439 -0.003157
# 2 -0.003073 0.008652 -0.002350 0.000476 -0.002941 -0.000033
# 3 -0.000859 -0.002350 0.018532 0.002145 0.000990 -0.000409
# 4 0.002402 0.000476 0.002145 0.031210 -0.010096 -0.007385
# 5 -0.000439 -0.002941 0.000990 -0.010096 0.034059 0.005463
# 6 -0.003157 -0.000033 -0.000409 -0.007385 0.005463 0.018148
#
#
# Mechanical properties :
#
#
# Convention : Reuss Voigt Hill
#
# Bulk Modulus (GPa) = 42.42928 58.44940 50.43934
# Shear Modulus (GPa) = 35.72278 44.64076 40.18177
#
# Velocity S-wave (km/s) = 3.73022 4.16991 3.95618
# Velocity P-wave (km/s) = 5.92279 6.77872 6.36516
#
# Compressibility (1/GPa) = 0.02356863
#
# Stress axis : x y z
#
# Youngs Moduli (GPa) = 111.76725 115.57792 53.96106
#
# Poissons Ratio (x) = 0.35517 0.04633
# Poissons Ratio (y) = 0.34346 0.12679
# Poissons Ratio (z) = 0.09597 0.27157
#
# Static dielectric constant tensor:
#      x y z
#    x 2.151650 -0.101940 -0.039320 
#    y -0.101940 2.164270 0.050770 
#    z -0.039320 0.050770 2.123280 
# 
# From -- ./inp_files/31957.got.cif
#   From: 2010.05.17/outbox.cif.g08.bks.cpg/sg2_16_cif.got.tgz:31957.got - 2010.06.03 11:33:40.
