data_PCOD9019515
_publ_section_title
;
Structure prediction by ZEFSAII (Michael W. Deem and Ramdas Pophale) SiO2 
 PCOD9019515
Probable space group: P -1
;
_chemical_formula_sum "Si O2"
_cell_formula_units_Z 14
_cell_length_a 22.328774
_cell_length_b 5.392606
_cell_length_c 5.563008
_cell_angle_alpha 86.233616
_cell_angle_beta 127.762556
_cell_angle_gamma 103.180042
_cell_volume 513.214534
_symmetry_space_group_name_H-M "P -1"
_symmetry_group_IT_number 2
_symmetry_cell_setting 'triclinic'
loop_
_space_group_symop_operation_xyz
x,y,z
-x,-y,-z
loop_
_atom_site_type_symbol
_atom_site_label
_atom_site_fract_x
_atom_site_fract_y
_atom_site_fract_z
Si Si1 0.020333 0.723730 0.339528
Si Si2 0.734043 0.495659 0.649355
Si Si3 0.873727 0.884766 0.085234
Si Si4 0.306935 0.918946 0.062459
Si Si5 0.599357 0.682216 0.058852
Si Si6 0.448036 0.851626 0.165075
Si Si7 0.836045 0.275308 0.593016
O O1 0.076095 0.636977 0.289788
O O2 0.000000 0.500000 0.500000
O O3 0.938197 0.792260 0.086332
O O4 0.076145 0.977045 0.578155
O O5 0.699866 0.212078 0.687233
O O6 0.664604 0.624498 0.400698
O O7 0.790126 0.477727 0.564667
O O8 0.798305 0.661346 0.977589
O O9 0.842184 0.089998 0.841336
O O10 0.359198 0.759734 0.053674
O O11 0.221668 0.874747 0.742955
O O12 0.356659 0.197837 0.088604
O O13 0.538166 0.416763 0.869260
O O14 0.561994 0.913246 0.042935
O O15 0.500000 0.000000 0.500000
#
# Coordination Sequence:
#
# PCOD9019515 Si02
#       7
#     2   2   2   2   2   2   2
#     4  11  26  45  61  99 132 185 235 291 366 429
#     4  12  24  45  71 104 138 186 240 294 355 425
#     4  11  24  42  68  93 138 179 236 298 358 423
#     4  10  24  41  70 104 139 188 232 295 351 427
#     4  10  22  46  68 106 145 187 235 293 351 425
#     4  10  21  44  73 103 149 191 231 292 357 419
#     4  12  23  44  66  98 136 184 234 294 358 423
#
# _framework density 27.279043999999999
#
# number of rings (size 3 to 8) (size 9 to 14) (size 15 to 20)
#    0.857    0.286    2.857    3.429    0.000    8.000 
#    2.571    1.429    0.000    0.000    0.000    0.000 
#    0.000    0.000    0.000    0.000    0.000    0.000 
#
# Total GULP energy -78316.707346 kJ/mol
# GULP energy per Si atom -5594.050525 kJ/mol
# Density = 2.721696 g / cm^3
# Si number density = 27.279044 Si / 1000 Ang^3
#
#
#
# Elastic Constant Matrix: (Units=GPa)
#
#
# Indices 1 2 3 4 5 6 
#
# 1 72.2301 33.1281 3.6090 -10.4297 0.8940 10.6590
# 2 33.1281 160.1003 55.6102 6.0023 3.4256 7.9423
# 3 3.6090 55.6102 122.9427 3.1980 35.4757 5.8461
# 4 -10.4297 6.0023 3.1980 53.2039 -1.4474 4.7306
# 5 0.8940 3.4256 35.4757 -1.4474 37.5244 -2.4405
# 6 10.6590 7.9423 5.8461 4.7306 -2.4405 57.1155
#
#
#
# Elastic Compliance Matrix: (Units=1/GPa)
#
#
# Indices 1 2 3 4 5 6 
#
# 1 0.016657 -0.004075 0.001963 0.003834 -0.001937 -0.003143
# 2 -0.004075 0.008766 -0.004968 -0.001411 0.003961 0.000336
# 3 0.001963 -0.004968 0.014194 -0.000116 -0.013126 -0.001680
# 4 0.003834 -0.001411 -0.000116 0.019923 0.000777 -0.002124
# 5 -0.001937 0.003961 -0.013126 0.000777 0.038952 0.002754
# 6 -0.003143 0.000336 -0.001680 -0.002124 0.002754 0.018514
#
#
# Mechanical properties :
#
#
# Convention : Reuss Voigt Hill
#
# Bulk Modulus (GPa) = 39.28133 59.99641 49.63887
# Shear Modulus (GPa) = 35.80346 47.09713 41.45030
#
# Velocity S-wave (km/s) = 3.62676 4.15962 3.90230
# Velocity P-wave (km/s) = 5.65411 6.71649 6.20807
#
# Compressibility (1/GPa) = 0.02545738
#
# Stress axis : x y z
#
# Youngs Moduli (GPa) = 60.03536 114.07355 70.45394
#
# Poissons Ratio (x) = 0.46483 -0.13829
# Poissons Ratio (y) = 0.24463 0.35000
# Poissons Ratio (z) = -0.11784 0.56669
#
# Static dielectric constant tensor:
#      x y z
#    x 2.221180 -0.092820 -0.083370 
#    y -0.092820 2.175410 0.061950 
#    z -0.083370 0.061950 2.142510 
# 
# From -- ./inp_files/121700.got.cif
#   From: 2010.05.17/outbox.cif.g08.bks.cpg/sg2_61_cif.got.tgz:121700.got - 2010.06.03 11:33:40.
