data_PCOD9019297
_publ_section_title
;
Structure prediction by ZEFSAII (Michael W. Deem and Ramdas Pophale) SiO2 
 PCOD9019297
Probable space group: P -1
;
_chemical_formula_sum "Si O2"
_cell_formula_units_Z 14
_cell_length_a 12.982885
_cell_length_b 9.168384
_cell_length_c 9.348727
_cell_angle_alpha 120.940910
_cell_angle_beta 89.842281
_cell_angle_gamma 47.771575
_cell_volume 590.971951
_symmetry_space_group_name_H-M "P -1"
_symmetry_group_IT_number 2
_symmetry_cell_setting 'triclinic'
loop_
_space_group_symop_operation_xyz
x,y,z
-x,-y,-z
loop_
_atom_site_type_symbol
_atom_site_label
_atom_site_fract_x
_atom_site_fract_y
_atom_site_fract_z
Si Si1 0.256029 0.069732 0.794045
Si Si2 0.533122 0.907479 0.237710
Si Si3 0.124789 0.987994 0.936963
Si Si4 0.393240 0.795096 0.351781
Si Si5 0.917631 0.792818 0.651774
Si Si6 0.744961 0.449915 0.488135
Si Si7 0.515968 0.684819 0.856367
O O1 0.096257 0.175115 0.910094
O O2 0.329067 0.886636 0.560492
O O3 0.379128 0.891440 0.839312
O O4 0.290533 0.222492 0.830293
O O5 0.505507 0.810283 0.315669
O O6 0.380309 0.239313 0.405675
O O7 0.513681 0.826390 0.050873
O O8 0.256604 0.700801 0.703070
O O9 0.148399 0.065511 0.120946
O O10 0.000000 0.000000 0.000000
O O11 0.489710 0.496261 0.173291
O O12 0.231425 0.009713 0.359879
O O13 0.000000 0.500000 0.500000
O O14 0.068645 0.724229 0.585206
O O15 0.684517 0.477457 0.659272
#
# Coordination Sequence:
#
# PCOD9019297 Si02
#       7
#     2   2   2   2   2   2   2
#     4  11  23  44  69  97 136 175 219 276 332 398
#     4  11  24  41  71 102 137 175 224 270 337 393
#     4  10  23  44  71  95 128 185 225 266 338 393
#     4  12  24  44  66 106 133 178 221 277 336 395
#     4  11  24  44  72  93 135 174 228 277 330 393
#     4  10  21  44  70  95 133 183 222 270 332 399
#     4  11  24  43  71  99 137 177 224 271 335 397
#
# _framework density 23.689788
#
# number of rings (size 3 to 8) (size 9 to 14) (size 15 to 20)
#    0.000    1.143    2.857    3.857    4.000    0.571 
#    2.571    0.714    0.000    0.000    0.000    0.000 
#    0.000    0.000    0.000    0.000    0.000    0.000 
#
# Total GULP energy -78177.560070 kJ/mol
# GULP energy per Si atom -5584.111434 kJ/mol
# Density = 2.363587 g / cm^3
# Si number density = 23.689788 Si / 1000 Ang^3
#
#
#
# Elastic Constant Matrix: (Units=GPa)
#
#
# Indices 1 2 3 4 5 6 
#
# 1 131.5550 38.3356 56.2925 -6.6268 -13.1623 28.4651
# 2 38.3356 59.5142 44.8223 0.5380 -10.6284 19.6634
# 3 56.2925 44.8223 180.8648 -19.9993 19.6891 1.0084
# 4 -6.6268 0.5380 -19.9993 38.0591 15.6822 -7.0205
# 5 -13.1623 -10.6284 19.6891 15.6822 55.0701 -8.4203
# 6 28.4651 19.6634 1.0084 -7.0205 -8.4203 39.9831
#
#
#
# Elastic Compliance Matrix: (Units=1/GPa)
#
#
# Indices 1 2 3 4 5 6 
#
# 1 0.011410 -0.001485 -0.003831 -0.002754 0.003518 -0.007038
# 2 -0.001485 0.032304 -0.010135 -0.013286 0.011058 -0.014578
# 3 -0.003831 -0.010135 0.011289 0.010372 -0.008728 0.007410
# 4 -0.002754 -0.013286 0.010372 0.040476 -0.016647 0.011834
# 5 0.003518 0.011058 -0.008728 -0.016647 0.028278 -0.004690
# 6 -0.007038 -0.014578 0.007410 0.011834 -0.004690 0.038094
#
#
# Mechanical properties :
#
#
# Convention : Reuss Voigt Hill
#
# Bulk Modulus (GPa) = 41.49499 72.31495 56.90497
# Shear Modulus (GPa) = 24.90211 42.12138 33.51175
#
# Velocity S-wave (km/s) = 3.24570 4.22126 3.76521
# Velocity P-wave (km/s) = 5.62140 7.37229 6.55556
#
# Compressibility (1/GPa) = 0.02409930
#
# Stress axis : x y z
#
# Youngs Moduli (GPa) = 87.64320 30.95610 88.58336
#
# Poissons Ratio (x) = 0.04598 0.33939
# Poissons Ratio (y) = 0.13018 0.89778
# Poissons Ratio (z) = 0.33579 0.31374
#
# Static dielectric constant tensor:
#      x y z
#    x 2.084570 0.052550 -0.040930 
#    y 0.052550 1.896460 0.003410 
#    z -0.040930 0.003410 1.866300 
# 
# From -- ./inp_files/299478.got.cif
#   From: 2010.05.17/outbox.cif.g08.bks.cpg/sg2_150_cif.got.tgz:299478.got - 2010.06.03 11:33:40.
