data_PCOD9019148
_publ_section_title
;
Structure prediction by ZEFSAII (Michael W. Deem and Ramdas Pophale) SiO2 
 PCOD9019148
Probable space group: P -1
;
_chemical_formula_sum "Si O2"
_cell_formula_units_Z 14
_cell_length_a 13.757828
_cell_length_b 6.183846
_cell_length_c 15.306300
_cell_angle_alpha 90.134396
_cell_angle_beta 26.350341
_cell_angle_gamma 82.231175
_cell_volume 549.653310
_symmetry_space_group_name_H-M "P -1"
_symmetry_group_IT_number 2
_symmetry_cell_setting 'triclinic'
loop_
_space_group_symop_operation_xyz
x,y,z
-x,-y,-z
loop_
_atom_site_type_symbol
_atom_site_label
_atom_site_fract_x
_atom_site_fract_y
_atom_site_fract_z
Si Si1 0.216897 0.922459 0.646791
Si Si2 0.568861 0.097017 0.265425
Si Si3 0.985146 0.685730 0.939599
Si Si4 0.103413 0.145674 0.351517
Si Si5 0.238688 0.544419 0.489041
Si Si6 0.879575 0.385321 0.875929
Si Si7 0.565714 0.145666 0.067389
O O1 0.410453 0.034693 0.467226
O O2 0.213199 0.768319 0.565899
O O3 0.988722 0.140805 0.834137
O O4 0.214031 0.745036 0.725781
O O5 0.808807 0.928157 0.103517
O O6 0.485259 0.370208 0.320352
O O7 0.544975 0.040175 0.180511
O O8 0.882608 0.583357 0.939828
O O9 0.000000 0.500000 0.000000
O O10 0.315976 0.202681 0.226190
O O11 0.877612 0.351058 0.507410
O O12 0.000000 0.000000 0.500000
O O13 0.238225 0.013397 0.155256
O O14 0.065694 0.404181 0.655450
O O15 0.649377 0.367185 0.017167
#
# Coordination Sequence:
#
# PCOD9019148 Si02
#       7
#     2   2   2   2   2   2   2
#     4  10  21  44  68  98 140 179 226 281 349 410
#     4  11  24  42  70  96 135 186 227 277 359 408
#     4  11  25  45  72 104 137 176 232 290 341 419
#     4  11  24  45  68 103 145 178 238 290 328 405
#     4  10  22  42  68  96 141 182 224 290 339 406
#     4  10  21  44  71  96 136 184 230 283 343 408
#     4  11  23  42  68  99 134 186 233 278 342 401
#
# _framework density 25.470603000000001
#
# number of rings (size 3 to 8) (size 9 to 14) (size 15 to 20)
#    0.000    1.429    2.857    1.714    4.000    2.286 
#    5.143    6.429    0.000    0.000    0.000    0.000 
#    0.000    0.000    0.000    0.000    0.000    0.000 
#
# Total GULP energy -78065.608134 kJ/mol
# GULP energy per Si atom -5576.114867 kJ/mol
# Density = 2.541263 g / cm^3
# Si number density = 25.470603 Si / 1000 Ang^3
#
#
#
# Elastic Constant Matrix: (Units=GPa)
#
#
# Indices 1 2 3 4 5 6 
#
# 1 73.2865 29.8410 21.4716 17.6410 6.1709 1.1054
# 2 29.8410 138.0068 37.7391 6.0455 1.6954 -21.3610
# 3 21.4716 37.7391 88.0692 10.5936 -1.3447 -2.6662
# 4 17.6410 6.0455 10.5936 45.6715 -6.1236 4.5394
# 5 6.1709 1.6954 -1.3447 -6.1236 26.4349 -2.8095
# 6 1.1054 -21.3610 -2.6662 4.5394 -2.8095 55.5687
#
#
#
# Elastic Compliance Matrix: (Units=1/GPa)
#
#
# Indices 1 2 3 4 5 6 
#
# 1 0.017629 -0.003030 -0.002348 -0.006489 -0.005691 -0.001386
# 2 -0.003030 0.009284 -0.003175 0.000388 0.000409 0.003466
# 3 -0.002348 -0.003175 0.013489 -0.001630 0.001024 -0.000342
# 4 -0.006489 0.000388 -0.001630 0.025852 0.007231 -0.001546
# 5 -0.005691 0.000409 0.001024 0.007231 0.041050 0.001804
# 6 -0.001386 0.003466 -0.000342 -0.001546 0.001804 0.019557
#
#
# Mechanical properties :
#
#
# Convention : Reuss Voigt Hill
#
# Bulk Modulus (GPa) = 42.92641 53.05176 47.98909
# Shear Modulus (GPa) = 32.95296 39.55574 36.25435
#
# Velocity S-wave (km/s) = 3.60080 3.94508 3.77686
# Velocity P-wave (km/s) = 5.84616 6.45178 6.15642
#
# Compressibility (1/GPa) = 0.02329568
#
# Stress axis : x y z
#
# Youngs Moduli (GPa) = 56.72537 107.71370 74.13400
#
# Poissons Ratio (x) = 0.32639 0.17405
# Poissons Ratio (y) = 0.17189 0.23538
# Poissons Ratio (z) = 0.13318 0.34200
#
# Static dielectric constant tensor:
#      x y z
#    x 2.063410 0.002240 0.015400 
#    y 0.002240 1.960120 0.013020 
#    z 0.015400 0.013020 2.171920 
# 
# From -- ./inp_files/525663.got.cif
#   From: 2010.05.17/outbox.cif.g08.bks.cpg/sg2_263_cif.got.tgz:525663.got - 2010.06.03 11:33:40.
