data_PCOD9019575
_publ_section_title
;
Structure prediction by ZEFSAII (Michael W. Deem and Ramdas Pophale) SiO2 
 PCOD9019575
Probable space group: P -1
;
_chemical_formula_sum "Si O2"
_cell_formula_units_Z 12
_cell_length_a 12.815376
_cell_length_b 19.881015
_cell_length_c 12.392416
_cell_angle_alpha 157.190880
_cell_angle_beta 32.917377
_cell_angle_gamma 158.393251
_cell_volume 447.287808
_symmetry_space_group_name_H-M "P -1"
_symmetry_group_IT_number 2
_symmetry_cell_setting 'triclinic'
loop_
_space_group_symop_operation_xyz
x,y,z
-x,-y,-z
loop_
_atom_site_type_symbol
_atom_site_label
_atom_site_fract_x
_atom_site_fract_y
_atom_site_fract_z
Si Si1 0.516479 0.037940 0.709739
Si Si2 0.140917 0.247114 0.808850
Si Si3 0.902510 0.978100 0.284174
Si Si4 0.249951 0.743306 0.718845
Si Si5 0.596857 0.482458 0.237262
Si Si6 0.890689 0.674628 0.666146
O O1 0.724708 0.025932 0.473143
O O2 0.472087 0.971117 0.778213
O O3 0.620119 0.303012 0.994455
O O4 0.210611 0.816533 0.587349
O O5 0.329182 0.468983 0.883578
O O6 0.264700 0.230973 0.781705
O O7 0.000000 0.000000 0.500000
O O8 0.897801 0.211897 0.013080
O O9 0.192679 0.247709 0.483499
O O10 0.935224 0.848628 0.977532
O O11 0.315778 0.620501 0.553133
O O12 0.000000 0.500000 0.500000
O O13 0.275102 0.342793 0.312100
#
# Coordination Sequence:
#
# PCOD9019575 Si02
#       6
#     2   2   2   2   2   2
#     4  11  24  46  73 106 142 190 237 297 361 420
#     4  10  22  46  71 107 142 189 242 293 352 433
#     4  11  24  48  73 102 146 192 235 294 362 426
#     4  10  21  44  75 102 141 194 238 289 360 430
#     4  11  26  46  71 109 145 183 242 302 353 422
#     4  11  25  47  74 104 144 191 240 292 357 432
#
# _framework density 26.828365000000002
#
# number of rings (size 3 to 8) (size 9 to 14) (size 15 to 20)
#    0.000    1.333    3.333    2.000    4.667    2.667 
#    9.000    5.000    0.000    0.000    0.000    0.000 
#    0.000    0.000    0.000    0.000    0.000    0.000 
#
# Total GULP energy -67293.377381 kJ/mol
# GULP energy per Si atom -5607.781448 kJ/mol
# Density = 2.676730 g / cm^3
# Si number density = 26.828365 Si / 1000 Ang^3
#
#
#
# Elastic Constant Matrix: (Units=GPa)
#
#
# Indices 1 2 3 4 5 6 
#
# 1 139.5772 38.5633 62.0622 0.4755 -30.4832 -7.3924
# 2 38.5633 78.3540 38.3206 -4.4847 -4.1431 10.9623
# 3 62.0622 38.3206 171.9701 0.2057 -28.9640 9.4918
# 4 0.4755 -4.4847 0.2057 54.9457 2.7680 -10.8696
# 5 -30.4832 -4.1431 -28.9640 2.7680 58.9566 9.4292
# 6 -7.3924 10.9623 9.4918 -10.8696 9.4292 60.3909
#
#
#
# Elastic Compliance Matrix: (Units=1/GPa)
#
#
# Indices 1 2 3 4 5 6 
#
# 1 0.010138 -0.003943 -0.002270 -0.000244 0.003588 0.001709
# 2 -0.003943 0.016169 -0.002316 0.000927 -0.001664 -0.002627
# 3 -0.002270 -0.002316 0.007701 -0.000655 0.002736 -0.001613
# 4 -0.000244 0.000927 -0.000655 0.019092 -0.001860 0.003632
# 5 0.003588 -0.001664 0.002736 -0.001860 0.020650 -0.003248
# 6 0.001709 -0.002627 -0.001613 0.003632 -0.003248 0.018659
#
#
# Mechanical properties :
#
#
# Convention : Reuss Voigt Hill
#
# Bulk Modulus (GPa) = 58.99952 74.19928 66.59940
# Shear Modulus (GPa) = 43.43408 51.58897 47.51152
#
# Velocity S-wave (km/s) = 4.02800 4.38988 4.21282
# Velocity P-wave (km/s) = 6.60850 7.30833 6.96721
#
# Compressibility (1/GPa) = 0.01694929
#
# Stress axis : x y z
#
# Youngs Moduli (GPa) = 98.63815 61.84837 129.85614
#
# Poissons Ratio (x) = 0.24386 0.29477
# Poissons Ratio (y) = 0.38892 0.30078
# Poissons Ratio (z) = 0.22390 0.14326
#
# Static dielectric constant tensor:
#      x y z
#    x 2.115660 -0.030590 -0.075220 
#    y -0.030590 2.200010 0.041180 
#    z -0.075220 0.041180 1.920060 
# 
# From -- ./inp_files/530453.got.cif
#   From: 2010.05.17/outbox.cif.g08.bks.cpg/sg2_266_cif.got.tgz:530453.got - 2010.06.03 11:33:40.
