data_PCOD9019256
_publ_section_title
;
Structure prediction by ZEFSAII (Michael W. Deem and Ramdas Pophale) SiO2 
 PCOD9019256
Probable space group: P -1
;
_chemical_formula_sum "Si O2"
_cell_formula_units_Z 15
_cell_length_a 7.087127
_cell_length_b 8.240504
_cell_length_c 14.543344
_cell_angle_alpha 117.143489
_cell_angle_beta 48.439468
_cell_angle_gamma 120.531348
_cell_volume 537.973202
_symmetry_space_group_name_H-M "P -1"
_symmetry_group_IT_number 2
_symmetry_cell_setting 'triclinic'
loop_
_space_group_symop_operation_xyz
x,y,z
-x,-y,-z
loop_
_atom_site_type_symbol
_atom_site_label
_atom_site_fract_x
_atom_site_fract_y
_atom_site_fract_z
Si Si1 0.072048 0.098880 0.709227
Si Si2 0.736281 0.673079 0.679098
Si Si3 0.791660 0.370836 0.248397
Si Si4 0.034228 0.647558 0.396760
Si Si5 0.828946 0.422354 0.945748
Si Si6 0.352773 0.113486 0.009329
Si Si7 0.000000 0.000000 0.500000
Si Si8 0.717814 0.955951 0.197519
O O1 0.927077 0.256144 0.822376
O O2 0.876260 0.879184 0.731291
O O3 0.152764 0.083463 0.572916
O O4 0.305661 0.144184 0.721125
O O5 0.425711 0.618883 0.752466
O O6 0.828791 0.500267 0.644163
O O7 0.848843 0.712331 0.547435
O O8 0.692715 0.165763 0.271736
O O9 0.843950 0.526853 0.350145
O O10 0.069172 0.404860 0.114735
O O11 0.199189 0.864484 0.375065
O O12 0.518326 0.332428 0.041301
O O13 0.000000 0.500000 0.000000
O O14 0.398184 0.116301 0.884199
O O15 0.041363 0.002836 0.089742
O O16 0.500000 0.000000 0.000000
#
# Coordination Sequence:
#
# PCOD9019256 Si02
#       8
#     2   2   2   2   2   2   1   2
#     4  11  22  46  71 106 143 197 244 304 366 442
#     4  10  23  43  75  97 141 189 240 299 362 437
#     4  12  24  43  66 108 138 186 240 306 362 435
#     4  10  21  44  70 102 137 185 245 294 363 439
#     4  12  27  43  70 103 154 190 239 309 376 429
#     4  11  24  48  73 103 146 200 245 308 364 450
#     4  10  22  44  74 102 152 182 238 312 370 434
#     4  11  25  43  77 105 139 196 261 292 375 447
#
# _framework density 27.882428999999998
#
# number of rings (size 3 to 8) (size 9 to 14) (size 15 to 20)
#    0.000    1.067    4.000    2.000    3.733    0.533 
#    2.400    0.667    0.000    0.000    0.000    0.000 
#    0.000    0.000    0.000    0.000    0.000    0.000 
#
# Total GULP energy -83627.446545 kJ/mol
# GULP energy per Si atom -5575.163103 kJ/mol
# Density = 2.781897 g / cm^3
# Si number density = 27.882429 Si / 1000 Ang^3
#
#
#
# Elastic Constant Matrix: (Units=GPa)
#
#
# Indices 1 2 3 4 5 6 
#
# 1 194.4017 12.9795 41.7873 19.2084 35.0425 4.2301
# 2 12.9795 85.8072 8.8701 15.2324 1.0717 21.4894
# 3 41.7873 8.8701 125.6141 29.0271 46.8202 2.2604
# 4 19.2084 15.2324 29.0271 48.6661 -1.8315 0.0507
# 5 35.0425 1.0717 46.8202 -1.8315 61.0651 6.2990
# 6 4.2301 21.4894 2.2604 0.0507 6.2990 40.6744
#
#
#
# Elastic Compliance Matrix: (Units=1/GPa)
#
#
# Indices 1 2 3 4 5 6 
#
# 1 0.006050 -0.000498 -0.000195 -0.002244 -0.003398 0.000174
# 2 -0.000498 0.014397 0.000028 -0.004293 0.000672 -0.007655
# 3 -0.000195 0.000028 0.014195 -0.008818 -0.011134 0.000952
# 4 -0.002244 -0.004293 -0.008818 0.028367 0.008811 0.001592
# 5 -0.003398 0.000672 -0.011134 0.008811 0.027492 -0.003651
# 6 0.000174 -0.007655 0.000952 0.001592 -0.003651 0.029122
#
#
# Mechanical properties :
#
#
# Convention : Reuss Voigt Hill
#
# Bulk Modulus (GPa) = 30.01921 59.23297 44.62609
# Shear Modulus (GPa) = 37.86248 52.89353 45.37800
#
# Velocity S-wave (km/s) = 3.68901 4.36020 4.03858
# Velocity P-wave (km/s) = 5.37911 6.82924 6.14708
#
# Compressibility (1/GPa) = 0.03331200
#
# Stress axis : x y z
#
# Youngs Moduli (GPa) = 165.29771 69.45753 70.44927
#
# Poissons Ratio (x) = 0.03457 0.01377
# Poissons Ratio (y) = 0.08227 -0.00199
# Poissons Ratio (z) = 0.03230 -0.00197
#
# Static dielectric constant tensor:
#      x y z
#    x 2.517140 -0.053590 -0.170960 
#    y -0.053590 1.654510 0.028340 
#    z -0.170960 0.028340 2.239950 
# 
# From -- ./inp_files/480837.got.cif
#   From: 2010.05.17/outbox.cif.g08.bks.cpg/sg2_241_cif.got.tgz:480837.got - 2010.06.03 11:33:40.
