data_PCOD9019935
_publ_section_title
;
Structure prediction by ZEFSAII (Michael W. Deem and Ramdas Pophale) SiO2 
 PCOD9019935
Probable space group: P -1
;
_chemical_formula_sum "Si O2"
_cell_formula_units_Z 14
_cell_length_a 9.170169
_cell_length_b 16.290272
_cell_length_c 9.530931
_cell_angle_alpha 121.185674
_cell_angle_beta 120.129502
_cell_angle_gamma 26.160362
_cell_volume 534.394711
_symmetry_space_group_name_H-M "P -1"
_symmetry_group_IT_number 2
_symmetry_cell_setting 'triclinic'
loop_
_space_group_symop_operation_xyz
x,y,z
-x,-y,-z
loop_
_atom_site_type_symbol
_atom_site_label
_atom_site_fract_x
_atom_site_fract_y
_atom_site_fract_z
Si Si1 0.041589 0.749990 0.553243
Si Si2 0.884276 0.508431 0.093193
Si Si3 0.705390 0.075772 0.857384
Si Si4 0.584095 0.419957 0.152932
Si Si5 0.242393 0.046283 0.960308
Si Si6 0.220713 0.437828 0.430967
Si Si7 0.831609 0.214721 0.646953
O O1 0.348426 0.638127 0.701253
O O2 0.081103 0.614970 0.478134
O O3 0.043063 0.780039 0.417899
O O4 0.769033 0.951988 0.677881
O O5 0.548017 0.731014 0.172526
O O6 0.159043 0.394856 0.237858
O O7 0.739360 0.475704 0.964049
O O8 0.000000 0.500000 0.000000
O O9 0.563078 0.106829 0.961618
O O10 0.000000 0.000000 0.000000
O O11 0.479097 0.580799 0.244393
O O12 0.917439 0.238678 0.066096
O O13 0.092043 0.073330 0.771177
O O14 0.500000 0.000000 0.000000
O O15 0.611208 0.244096 0.488243
O O16 0.000000 0.500000 0.500000
#
# Coordination Sequence:
#
# PCOD9019935 Si02
#       7
#     2   2   2   2   2   2   2
#     4  10  22  46  72  98 142 194 230 295 364 411
#     4  12  24  43  76 106 137 189 245 289 354 436
#     4  11  25  49  73  99 147 191 244 295 358 425
#     4  10  21  45  73 101 144 188 237 294 344 431
#     4  11  25  43  70 106 140 191 233 293 356 423
#     4  11  25  42  70 109 145 180 234 295 359 416
#     4  11  23  47  73 105 142 184 242 295 358 423
#
# _framework density 26.197865
#
# number of rings (size 3 to 8) (size 9 to 14) (size 15 to 20)
#    0.000    1.143    2.857    4.714    4.000    2.857 
#    5.143    0.714    0.000    0.000    0.000    0.000 
#    0.000    0.000    0.000    0.000    0.000    0.000 
#
# Total GULP energy -78150.537544 kJ/mol
# GULP energy per Si atom -5582.181253 kJ/mol
# Density = 2.613824 g / cm^3
# Si number density = 26.197865 Si / 1000 Ang^3
#
#
#
# Elastic Constant Matrix: (Units=GPa)
#
#
# Indices 1 2 3 4 5 6 
#
# 1 107.9743 -3.5293 27.6696 14.3215 -12.8263 -19.2417
# 2 -3.5293 75.7717 40.2659 3.0483 6.6837 -0.5508
# 3 27.6696 40.2659 151.9802 -6.2197 -8.5095 -6.9506
# 4 14.3215 3.0483 -6.2197 57.7157 0.0750 8.6698
# 5 -12.8263 6.6837 -8.5095 0.0750 50.7987 -11.1154
# 6 -19.2417 -0.5508 -6.9506 8.6698 -11.1154 32.1679
#
#
#
# Elastic Compliance Matrix: (Units=1/GPa)
#
#
# Indices 1 2 3 4 5 6 
#
# 1 0.013030 0.001653 -0.002264 -0.005139 0.004986 0.010441
# 2 0.001653 0.016114 -0.004792 -0.001748 -0.002542 -0.000178
# 3 -0.002264 -0.004792 0.008440 0.001649 0.001577 0.000488
# 4 -0.005139 -0.001748 0.001649 0.020255 -0.002831 -0.009185
# 5 0.004986 -0.002542 0.001577 -0.002831 0.024267 0.012428
# 6 0.010441 -0.000178 0.000488 -0.009185 0.012428 0.044205
#
#
# Mechanical properties :
#
#
# Convention : Reuss Voigt Hill
#
# Bulk Modulus (GPa) = 37.34431 51.61540 44.47985
# Shear Modulus (GPa) = 34.23640 46.22446 40.23043
#
# Velocity S-wave (km/s) = 3.61895 4.20508 3.92297
# Velocity P-wave (km/s) = 5.63454 6.58193 6.12657
#
# Compressibility (1/GPa) = 0.02677784
#
# Stress axis : x y z
#
# Youngs Moduli (GPa) = 76.74430 62.05608 118.48689
#
# Poissons Ratio (x) = -0.10257 0.26824
# Poissons Ratio (y) = -0.12685 0.56783
# Poissons Ratio (z) = 0.17374 0.29739
#
# Static dielectric constant tensor:
#      x y z
#    x 2.254970 0.054680 0.083070 
#    y 0.054680 2.196420 0.008740 
#    z 0.083070 0.008740 2.106750 
# 
# From -- ./inp_files/218381.got.cif
#   From: 2010.05.17/outbox.cif.g08.bks.cpg/sg2_110_cif.got.tgz:218381.got - 2010.06.03 11:33:40.
