data_PCOD9019373
_publ_section_title
;
Structure prediction by ZEFSAII (Michael W. Deem and Ramdas Pophale) SiO2 
 PCOD9019373
Probable space group: P -1
;
_chemical_formula_sum "Si O2"
_cell_formula_units_Z 11
_cell_length_a 17.830602
_cell_length_b 11.661623
_cell_length_c 9.583351
_cell_angle_alpha 123.161159
_cell_angle_beta 27.274286
_cell_angle_gamma 144.502123
_cell_volume 396.585112
_symmetry_space_group_name_H-M "P -1"
_symmetry_group_IT_number 2
_symmetry_cell_setting 'triclinic'
loop_
_space_group_symop_operation_xyz
x,y,z
-x,-y,-z
loop_
_atom_site_type_symbol
_atom_site_label
_atom_site_fract_x
_atom_site_fract_y
_atom_site_fract_z
Si Si1 0.445841 0.944180 0.215506
Si Si2 0.525338 0.330430 0.082642
Si Si3 0.500000 0.500000 0.000000
Si Si4 0.840027 0.945441 0.905671
Si Si5 0.691841 0.867925 0.395505
Si Si6 0.159314 0.749223 0.969324
O O1 0.219482 0.907742 0.600839
O O2 0.743289 0.183465 0.984315
O O3 0.352383 0.720161 0.225407
O O4 0.500000 0.000000 0.000000
O O5 0.147397 0.080086 0.528629
O O6 0.554020 0.340073 0.211309
O O7 0.645740 0.544818 0.939006
O O8 0.645986 0.754035 0.968161
O O9 0.610766 0.788203 0.314336
O O10 0.985766 0.201662 0.789078
O O11 0.000000 0.000000 0.000000
O O12 0.500000 0.000000 0.500000
O O13 0.000000 0.500000 0.000000
#
# Coordination Sequence:
#
# PCOD9019373 Si02
#       6
#     2   2   1   2   2   2
#     4  10  21  44  71 106 150 197 255 314 387 455
#     4  10  23  41  67  99 144 188 246 304 376 450
#     4  12  24  38  68 104 144 188 246 306 374 446
#     4  11  24  42  68 103 145 194 250 303 383 448
#     4   9  20  43  70  98 144 192 250 307 378 451
#     4  12  27  46  76 114 156 200 260 320 387 461
#
# _framework density 27.736796999999999
#
# number of rings (size 3 to 8) (size 9 to 14) (size 15 to 20)
#    0.000    1.455    3.636    0.545    2.545    0.727 
#    0.000   10.000    0.000    0.000    0.000    0.000 
#    0.000    0.000    0.000    0.000    0.000    0.000 
#
# Total GULP energy -61304.137567 kJ/mol
# GULP energy per Si atom -5573.103415 kJ/mol
# Density = 2.767367 g / cm^3
# Si number density = 27.736797 Si / 1000 Ang^3
#
#
#
# Elastic Constant Matrix: (Units=GPa)
#
#
# Indices 1 2 3 4 5 6 
#
# 1 182.9982 63.3513 32.2216 8.4418 31.6014 1.1686
# 2 63.3513 162.2879 52.4876 6.5573 12.3480 15.3837
# 3 32.2216 52.4876 66.8680 11.5953 -0.2372 5.1672
# 4 8.4418 6.5573 11.5953 54.0985 -3.4382 -1.8723
# 5 31.6014 12.3480 -0.2372 -3.4382 58.8158 19.3883
# 6 1.1686 15.3837 5.1672 -1.8723 19.3883 62.0848
#
#
#
# Elastic Compliance Matrix: (Units=1/GPa)
#
#
# Indices 1 2 3 4 5 6 
#
# 1 0.007234 -0.002031 -0.001928 -0.000668 -0.004096 0.001787
# 2 -0.002031 0.009086 -0.006109 0.000451 -0.000287 -0.001602
# 3 -0.001928 -0.006109 0.021368 -0.003414 0.002580 -0.001137
# 4 -0.000668 0.000451 -0.003414 0.019359 0.001258 0.000376
# 5 -0.004096 -0.000287 0.002580 0.001258 0.021578 -0.006767
# 6 0.001787 -0.001602 -0.001137 0.000376 -0.006767 0.018690
#
#
# Mechanical properties :
#
#
# Convention : Reuss Voigt Hill
#
# Bulk Modulus (GPa) = 56.97450 78.69725 67.83587
# Shear Modulus (GPa) = 40.55121 52.60606 46.57863
#
# Velocity S-wave (km/s) = 3.82776 4.35974 4.10238
# Velocity P-wave (km/s) = 6.33414 7.33332 6.85197
#
# Compressibility (1/GPa) = 0.01755171
#
# Stress axis : x y z
#
# Youngs Moduli (GPa) = 138.23835 110.06251 46.79860
#
# Poissons Ratio (x) = 0.22352 0.09025
# Poissons Ratio (y) = 0.28074 0.28588
# Poissons Ratio (z) = 0.26659 0.67234
#
# Static dielectric constant tensor:
#      x y z
#    x 1.803290 -0.220140 -0.025360 
#    y -0.220140 2.125660 0.164530 
#    z -0.025360 0.164530 2.125910 
# 
# From -- ./inp_files/20973.got.cif
#   From: 2010.05.17/outbox.cif.g08.bks.cpg/sg2_11_cif.got.tgz:20973.got - 2010.06.03 11:33:40.
