data_PCOD9019333
_publ_section_title
;
Structure prediction by ZEFSAII (Michael W. Deem and Ramdas Pophale) SiO2 
 PCOD9019333
Probable space group: P -1
;
_chemical_formula_sum "Si O2"
_cell_formula_units_Z 15
_cell_length_a 8.610419
_cell_length_b 17.525522
_cell_length_c 8.913303
_cell_angle_alpha 121.323369
_cell_angle_beta 131.473838
_cell_angle_gamma 38.009554
_cell_volume 620.577768
_symmetry_space_group_name_H-M "P -1"
_symmetry_group_IT_number 2
_symmetry_cell_setting 'triclinic'
loop_
_space_group_symop_operation_xyz
x,y,z
-x,-y,-z
loop_
_atom_site_type_symbol
_atom_site_label
_atom_site_fract_x
_atom_site_fract_y
_atom_site_fract_z
Si Si1 0.255919 0.579797 0.727085
Si Si2 0.215447 0.034088 0.797024
Si Si3 0.000000 0.500000 0.500000
Si Si4 0.332396 0.706258 0.692480
Si Si5 0.221056 0.676680 0.123554
Si Si6 0.062436 0.429328 0.125553
Si Si7 0.721682 0.099246 0.021862
Si Si8 0.308425 0.076895 0.601707
O O1 0.364817 0.600067 0.675772
O O2 0.456645 0.430106 0.710892
O O3 0.951118 0.623894 0.574634
O O4 0.267618 0.639754 0.939869
O O5 0.278977 0.006235 0.632764
O O6 0.949486 0.182049 0.806933
O O7 0.500000 0.000000 0.000000
O O8 0.201917 0.952376 0.811337
O O9 0.060703 0.496995 0.722413
O O10 0.598193 0.659196 0.718485
O O11 0.016592 0.802502 0.522176
O O12 0.341150 0.778019 0.901687
O O13 0.043622 0.641881 0.031216
O O14 0.000000 0.500000 0.000000
O O15 0.464700 0.113885 0.817429
O O16 0.000000 0.000000 0.000000
O O17 0.500000 0.000000 0.500000
#
# Coordination Sequence:
#
# PCOD9019333 Si02
#       8
#     2   2   1   2   2   2   2   2
#     4  10  23  43  70 103 144 183 233 297 359 435
#     4  10  23  42  72  97 138 190 232 295 358 429
#     4  10  26  44  64 106 142 182 246 290 356 438
#     4  12  25  45  73 106 146 191 237 299 369 432
#     4  10  21  44  70  99 139 186 238 288 363 430
#     4  11  23  45  71 101 146 188 236 298 365 441
#     4  11  23  47  73 103 138 192 242 294 369 431
#     4  11  25  46  67 106 144 186 247 300 354 433
#
# _framework density 24.171023999999999
#
# number of rings (size 3 to 8) (size 9 to 14) (size 15 to 20)
#    0.000    1.333    2.667    2.400    3.733    3.200 
#    2.400    0.000    0.000    0.000    0.000    0.000 
#    0.000    0.000    0.000    0.000    0.000    0.000 
#
# Total GULP energy -83540.357986 kJ/mol
# GULP energy per Si atom -5569.357199 kJ/mol
# Density = 2.411601 g / cm^3
# Si number density = 24.171024 Si / 1000 Ang^3
#
#
#
# Elastic Constant Matrix: (Units=GPa)
#
#
# Indices 1 2 3 4 5 6 
#
# 1 122.4867 31.1462 20.2649 -17.0885 -15.4090 -4.0980
# 2 31.1462 86.4808 13.0881 -8.6369 -12.4616 -9.9054
# 3 20.2649 13.0881 92.0222 3.8654 -12.4093 -7.1721
# 4 -17.0885 -8.6369 3.8654 26.4316 -5.0968 9.4812
# 5 -15.4090 -12.4616 -12.4093 -5.0968 24.8437 -0.7985
# 6 -4.0980 -9.9054 -7.1721 9.4812 -0.7985 39.7698
#
#
#
# Elastic Compliance Matrix: (Units=1/GPa)
#
#
# Indices 1 2 3 4 5 6 
#
# 1 0.010929 -0.002065 -0.001705 0.008477 0.006579 -0.001585
# 2 -0.002065 0.013941 -0.000658 0.003655 0.006210 0.002394
# 3 -0.001705 -0.000658 0.012246 -0.003291 0.004142 0.002737
# 4 0.008477 0.003655 -0.003291 0.051928 0.015751 -0.010873
# 5 0.006579 0.006210 0.004142 0.015751 0.052757 0.000276
# 6 -0.001585 0.002394 0.002737 -0.010873 0.000276 0.028669
#
#
# Mechanical properties :
#
#
# Convention : Reuss Voigt Hill
#
# Bulk Modulus (GPa) = 35.38563 47.77644 41.58104
# Shear Modulus (GPa) = 26.49092 33.97504 30.23298
#
# Velocity S-wave (km/s) = 3.31415 3.75321 3.54049
# Velocity P-wave (km/s) = 5.41445 6.21217 5.82698
#
# Compressibility (1/GPa) = 0.02826006
#
# Stress axis : x y z
#
# Youngs Moduli (GPa) = 91.50242 71.73309 81.65834
#
# Poissons Ratio (x) = 0.14811 0.13926
# Poissons Ratio (y) = 0.18893 0.05369
# Poissons Ratio (z) = 0.15605 0.04717
#
# Static dielectric constant tensor:
#      x y z
#    x 1.847150 0.026570 -0.108760 
#    y 0.026570 1.941440 -0.026710 
#    z -0.108760 -0.026710 1.923120 
# 
# From -- ./inp_files/215591.got.cif
#   From: 2010.05.17/outbox.cif.g08.bks.cpg/sg2_108_cif.got.tgz:215591.got - 2010.06.03 11:33:40.
