data_PCOD9019587
_publ_section_title
;
Structure prediction by ZEFSAII (Michael W. Deem and Ramdas Pophale) SiO2 
 PCOD9019587
Probable space group: P -1
;
_chemical_formula_sum "Si O2"
_cell_formula_units_Z 12
_cell_length_a 11.398493
_cell_length_b 8.697800
_cell_length_c 4.961637
_cell_angle_alpha 94.422714
_cell_angle_beta 69.129647
_cell_angle_gamma 116.728635
_cell_volume 408.477051
_symmetry_space_group_name_H-M "P -1"
_symmetry_group_IT_number 2
_symmetry_cell_setting 'triclinic'
loop_
_space_group_symop_operation_xyz
x,y,z
-x,-y,-z
loop_
_atom_site_type_symbol
_atom_site_label
_atom_site_fract_x
_atom_site_fract_y
_atom_site_fract_z
Si Si1 0.516516 0.159551 0.312379
Si Si2 0.240620 0.123096 0.226527
Si Si3 0.780358 0.314186 0.793224
Si Si4 0.975332 0.847758 0.193438
Si Si5 0.365867 0.471575 0.928999
Si Si6 0.963009 0.395359 0.219745
O O1 0.371024 0.131731 0.289829
O O2 0.636002 0.167839 0.009906
O O3 0.500000 0.000000 0.500000
O O4 0.584720 0.378259 0.328922
O O5 0.293751 0.260142 0.950906
O O6 0.142445 0.180615 0.497727
O O7 0.130099 0.925096 0.215172
O O8 0.731265 0.465743 0.808256
O O9 0.816428 0.262228 0.466580
O O10 0.000000 0.500000 0.500000
O O11 0.893248 0.399882 0.972338
O O12 0.951916 0.700845 0.982689
O O13 0.000000 0.000000 0.000000
O O14 0.500000 0.500000 0.000000
#
# Coordination Sequence:
#
# PCOD9019587 Si02
#       6
#     2   2   2   2   2   2
#     4   9  20  42  79 115 154 207 260 326 407 463
#     4  10  21  44  75 115 159 197 266 333 386 474
#     4   9  21  41  72 112 153 195 260 324 393 471
#     4  11  25  43  75 113 156 208 265 319 399 473
#     4   8  16  37  75 107 143 194 252 323 382 450
#     4  11  23  43  73 111 154 202 257 319 401 469
#
# _framework density 29.377414000000002
#
# number of rings (size 3 to 8) (size 9 to 14) (size 15 to 20)
#    1.000    1.333    0.000    2.000    0.000    5.333 
#    0.000    3.333    0.000    4.000    0.000    1.167 
#    0.000    0.000    0.000    0.000    0.000    0.000 
#
# Total GULP energy -66817.876851 kJ/mol
# GULP energy per Si atom -5568.156404 kJ/mol
# Density = 2.931055 g / cm^3
# Si number density = 29.377414 Si / 1000 Ang^3
#
#
#
# Elastic Constant Matrix: (Units=GPa)
#
#
# Indices 1 2 3 4 5 6 
#
# 1 204.3684 32.4208 74.0064 -10.6733 1.3653 5.9759
# 2 32.4208 208.2328 90.6851 -26.6033 21.2078 -4.1831
# 3 74.0064 90.6851 236.5855 -27.6352 15.6636 13.3203
# 4 -10.6733 -26.6033 -27.6352 66.9559 -12.7806 14.2965
# 5 1.3653 21.2078 15.6636 -12.7806 46.0719 -20.4108
# 6 5.9759 -4.1831 13.3203 14.2965 -20.4108 53.0178
#
#
#
# Elastic Compliance Matrix: (Units=1/GPa)
#
#
# Indices 1 2 3 4 5 6 
#
# 1 0.005535 -0.000156 -0.001672 0.000246 0.000505 -0.000088
# 2 -0.000156 0.006034 -0.002006 0.001210 -0.001757 -0.000005
# 3 -0.001672 -0.002006 0.005969 0.001617 -0.001750 -0.002579
# 4 0.000246 0.001210 0.001617 0.017390 0.001788 -0.004339
# 5 0.000505 -0.001757 -0.001750 0.001788 0.028314 0.010662
# 6 -0.000088 -0.000005 -0.002579 -0.004339 0.010662 0.024794
#
#
# Mechanical properties :
#
#
# Convention : Reuss Voigt Hill
#
# Bulk Modulus (GPa) = 101.30822 115.93460 108.62141
# Shear Modulus (GPa) = 50.50890 63.34741 56.92815
#
# Velocity S-wave (km/s) = 4.15096 4.64867 4.40684
# Velocity P-wave (km/s) = 7.58511 8.26819 7.93400
#
# Compressibility (1/GPa) = 0.00987087
#
# Stress axis : x y z
#
# Youngs Moduli (GPa) = 180.66306 165.73630 167.54477
#
# Poissons Ratio (x) = 0.02579 0.28006
# Poissons Ratio (y) = 0.02812 0.33610
# Poissons Ratio (z) = 0.30199 0.33248
#
# Static dielectric constant tensor:
#      x y z
#    x 4.879990 2.199580 -1.854080 
#    y 2.199580 4.317460 -1.846320 
#    z -1.854080 -1.846320 3.573130 
# 
# From -- ./inp_files/60581.got.cif
#   From: 2010.05.17/outbox.cif.g08.bks.cpg/sg2_31_cif.got.tgz:60581.got - 2010.06.03 11:33:40.
