data_PCOD9019875
_publ_section_title
;
Structure prediction by ZEFSAII (Michael W. Deem and Ramdas Pophale) SiO2 
 PCOD9019875
Probable space group: P -1
;
_chemical_formula_sum "Si O2"
_cell_formula_units_Z 16
_cell_length_a 18.302774
_cell_length_b 5.173879
_cell_length_c 14.618642
_cell_angle_alpha 80.681068
_cell_angle_beta 29.819780
_cell_angle_gamma 76.189186
_cell_volume 665.557477
_symmetry_space_group_name_H-M "P -1"
_symmetry_group_IT_number 2
_symmetry_cell_setting 'triclinic'
loop_
_space_group_symop_operation_xyz
x,y,z
-x,-y,-z
loop_
_atom_site_type_symbol
_atom_site_label
_atom_site_fract_x
_atom_site_fract_y
_atom_site_fract_z
Si Si1 0.258069 0.018367 0.458082
Si Si2 0.215574 0.769236 0.023603
Si Si3 0.109913 0.879889 0.802708
Si Si4 0.826564 0.029811 0.654709
Si Si5 0.131294 0.353181 0.001529
Si Si6 0.572883 0.581126 0.664569
Si Si7 0.162353 0.509412 0.280427
Si Si8 0.656589 0.871766 0.380024
O O1 0.134384 0.037066 0.672473
O O2 0.188959 0.007204 0.433711
O O3 0.371806 0.734945 0.366229
O O4 0.346350 0.258679 0.358920
O O5 0.144228 0.662151 0.196219
O O6 0.164991 0.608131 0.002366
O O7 0.394081 0.676977 0.850484
O O8 0.171779 0.086516 0.036012
O O9 0.268234 0.888825 0.676913
O O10 0.036027 0.641465 0.855890
O O11 0.000000 0.000000 0.000000
O O12 0.754441 0.323674 0.751141
O O13 0.761542 0.800444 0.790507
O O14 0.000000 0.000000 0.500000
O O15 0.239623 0.287465 0.801248
O O16 0.631471 0.679287 0.499959
O O17 0.000000 0.500000 0.500000
O O18 0.500000 0.000000 0.500000
#
# Coordination Sequence:
#
# PCOD9019875 Si02
#       8
#     2   2   2   2   2   2   2   2
#     4  11  24  44  72  98 144 181 231 287 349 414
#     4  12  25  43  69 103 137 180 234 284 345 422
#     4   9  23  42  66 106 139 177 231 286 345 401
#     4  10  22  42  68  99 129 175 227 281 352 409
#     4  11  25  41  70 102 142 180 228 293 344 400
#     4  11  25  44  68 102 140 188 233 275 347 420
#     4  10  23  40  66  98 135 165 230 283 344 408
#     4  10  21  45  70  99 144 187 233 278 339 419
#
# _framework density 24.039995000000001
#
# number of rings (size 3 to 8) (size 9 to 14) (size 15 to 20)
#    0.000    1.500    1.250    2.250    8.750    5.500 
#    0.000   10.000    0.000    0.000    0.000    0.000 
#    0.000    0.000    0.000    0.000    0.000    0.000 
#
# Total GULP energy -89483.529973 kJ/mol
# GULP energy per Si atom -5592.720623 kJ/mol
# Density = 2.398528 g / cm^3
# Si number density = 24.039995 Si / 1000 Ang^3
#
#
#
# Elastic Constant Matrix: (Units=GPa)
#
#
# Indices 1 2 3 4 5 6 
#
# 1 153.1349 15.4523 30.2224 -0.5118 2.8163 8.1658
# 2 15.4523 115.6182 8.2924 -9.7366 1.0759 4.5935
# 3 30.2224 8.2924 76.9143 -3.8804 -7.0340 -11.9293
# 4 -0.5118 -9.7366 -3.8804 28.2559 -14.3220 0.0154
# 5 2.8163 1.0759 -7.0340 -14.3220 43.7321 -9.4369
# 6 8.1658 4.5935 -11.9293 0.0154 -9.4369 54.8781
#
#
#
# Elastic Compliance Matrix: (Units=1/GPa)
#
#
# Indices 1 2 3 4 5 6 
#
# 1 0.007431 -0.000780 -0.003431 -0.001618 -0.002001 -0.002130
# 2 -0.000780 0.009098 -0.000535 0.003413 0.000720 -0.000639
# 3 -0.003431 -0.000535 0.015901 0.004663 0.005384 0.004936
# 4 -0.001618 0.003413 0.004663 0.045541 0.016503 0.003794
# 5 -0.002001 0.000720 0.005384 0.016503 0.030690 0.006681
# 6 -0.002130 -0.000639 0.004936 0.003794 0.006681 0.020813
#
#
# Mechanical properties :
#
#
# Convention : Reuss Voigt Hill
#
# Bulk Modulus (GPa) = 43.59801 50.40019 46.99910
# Shear Modulus (GPa) = 34.10368 44.81991 39.46179
#
# Velocity S-wave (km/s) = 3.77055 4.32254 4.05595
# Velocity P-wave (km/s) = 6.09352 6.77666 6.44415
#
# Compressibility (1/GPa) = 0.02293683
#
# Stress axis : x y z
#
# Youngs Moduli (GPa) = 134.57245 109.91546 62.89109
#
# Poissons Ratio (x) = 0.08575 0.21576
# Poissons Ratio (y) = 0.10498 0.03367
# Poissons Ratio (z) = 0.46168 0.05885
#
# Static dielectric constant tensor:
#      x y z
#    x 1.906730 0.010570 0.028400 
#    y 0.010570 1.858360 -0.148920 
#    z 0.028400 -0.148920 1.747810 
# 
# From -- ./inp_files/536275.got.cif
#   From: 2010.05.17/outbox.cif.g08.bks.cpg/sg2_269_cif.got.tgz:536275.got - 2010.06.03 11:33:40.
