data_PCOD9019156
_publ_section_title
;
Structure prediction by ZEFSAII (Michael W. Deem and Ramdas Pophale) SiO2 
 PCOD9019156
Probable space group: P -1
;
_chemical_formula_sum "Si O2"
_cell_formula_units_Z 12
_cell_length_a 21.241617
_cell_length_b 5.873910
_cell_length_c 6.275107
_cell_angle_alpha 75.294178
_cell_angle_beta 124.204475
_cell_angle_gamma 129.211541
_cell_volume 495.381364
_symmetry_space_group_name_H-M "P -1"
_symmetry_group_IT_number 2
_symmetry_cell_setting 'triclinic'
loop_
_space_group_symop_operation_xyz
x,y,z
-x,-y,-z
loop_
_atom_site_type_symbol
_atom_site_label
_atom_site_fract_x
_atom_site_fract_y
_atom_site_fract_z
Si Si1 0.798952 0.405193 0.207096
Si Si2 0.379663 0.230818 0.087914
Si Si3 0.320200 0.447060 0.258135
Si Si4 0.144078 0.839142 0.263926
Si Si5 0.969990 0.616877 0.226526
Si Si6 0.454364 0.756937 0.785496
O O1 0.830810 0.343569 0.501426
O O2 0.893045 0.640244 0.187791
O O3 0.731463 0.504939 0.040431
O O4 0.728664 0.074858 0.049410
O O5 0.389833 0.393864 0.286799
O O6 0.456979 0.177089 0.196641
O O7 0.399017 0.444259 0.877936
O O8 0.377356 0.708171 0.480503
O O9 0.238339 0.152233 0.297884
O O10 0.088184 0.637871 0.000410
O O11 0.071009 0.872077 0.248078
O O12 0.000000 0.500000 0.500000
O O13 0.500000 0.000000 0.000000
#
# Coordination Sequence:
#
# PCOD9019156 Si02
#       6
#     2   2   2   2   2   2
#     4  11  23  41  70 104 134 182 234 278 343 411
#     4  11  24  45  68 101 142 178 232 291 341 410
#     4  12  25  43  75 102 137 187 231 282 349 412
#     4  10  21  44  68  99 143 180 226 287 337 408
#     4   9  20  41  70  98 141 181 223 286 342 402
#     4  11  26  46  70 101 139 185 232 287 350 410
#
# _framework density 24.223758
#
# number of rings (size 3 to 8) (size 9 to 14) (size 15 to 20)
#    0.000    1.333    3.333    1.500    0.000    8.667 
#    0.000    7.500    0.000    0.000    0.000    0.000 
#    0.000    0.000    0.000    0.000    0.000    0.000 
#
# Total GULP energy -67067.182568 kJ/mol
# GULP energy per Si atom -5588.931881 kJ/mol
# Density = 2.416862 g / cm^3
# Si number density = 24.223758 Si / 1000 Ang^3
#
#
#
# Elastic Constant Matrix: (Units=GPa)
#
#
# Indices 1 2 3 4 5 6 
#
# 1 137.7168 35.8125 43.2106 3.6948 2.4263 19.1982
# 2 35.8125 63.5335 46.7596 -15.0898 -5.9864 16.8682
# 3 43.2106 46.7596 156.0401 18.1321 3.8113 7.9933
# 4 3.6948 -15.0898 18.1321 37.2537 2.8663 -12.9116
# 5 2.4263 -5.9864 3.8113 2.8663 26.6247 -4.1524
# 6 19.1982 16.8682 7.9933 -12.9116 -4.1524 33.7457
#
#
#
# Elastic Compliance Matrix: (Units=1/GPa)
#
#
# Indices 1 2 3 4 5 6 
#
# 1 0.009499 -0.005131 -0.000293 -0.004336 -0.002244 -0.004705
# 2 -0.005131 0.031234 -0.009822 0.016279 0.006626 -0.003323
# 3 -0.000293 -0.009822 0.010670 -0.009406 -0.002916 -0.001408
# 4 -0.004336 0.016279 -0.009406 0.042834 0.002865 0.013299
# 5 -0.002244 0.006626 -0.002916 0.002865 0.040093 0.004685
# 6 -0.004705 -0.003323 -0.001408 0.013299 0.004685 0.039970
#
#
# Mechanical properties :
#
#
# Convention : Reuss Voigt Hill
#
# Bulk Modulus (GPa) = 47.82324 67.65065 57.73695
# Shear Modulus (GPa) = 23.61142 34.95865 29.28504
#
# Velocity S-wave (km/s) = 3.12544 3.80301 3.48075
# Velocity P-wave (km/s) = 5.72797 6.87545 6.32778
#
# Compressibility (1/GPa) = 0.02091034
#
# Stress axis : x y z
#
# Youngs Moduli (GPa) = 105.27091 32.01663 93.72398
#
# Poissons Ratio (x) = 0.16426 0.02750
# Poissons Ratio (y) = 0.54010 0.92057
# Poissons Ratio (z) = 0.03089 0.31447
#
# Static dielectric constant tensor:
#      x y z
#    x 1.968690 -0.006860 0.019430 
#    y -0.006860 1.914470 -0.007450 
#    z 0.019430 -0.007450 1.901540 
# 
# From -- ./inp_files/102829.got.cif
#   From: 2010.05.17/outbox.cif.g08.bks.cpg/sg2_52_cif.got.tgz:102829.got - 2010.06.03 11:33:40.
