data_PCOD9019678
_publ_section_title
;
Structure prediction by ZEFSAII (Michael W. Deem and Ramdas Pophale) SiO2 
 PCOD9019678
Probable space group: P -1
;
_chemical_formula_sum "Si O2"
_cell_formula_units_Z 16
_cell_length_a 9.629737
_cell_length_b 13.213851
_cell_length_c 18.776612
_cell_angle_alpha 22.849476
_cell_angle_beta 55.161133
_cell_angle_gamma 67.953548
_cell_volume 670.483343
_symmetry_space_group_name_H-M "P -1"
_symmetry_group_IT_number 2
_symmetry_cell_setting 'triclinic'
loop_
_space_group_symop_operation_xyz
x,y,z
-x,-y,-z
loop_
_atom_site_type_symbol
_atom_site_label
_atom_site_fract_x
_atom_site_fract_y
_atom_site_fract_z
Si Si1 0.479628 0.173336 0.538111
Si Si2 0.946068 0.129643 0.332330
Si Si3 0.557788 0.604457 0.739813
Si Si4 0.387764 0.521634 0.453628
Si Si5 0.966904 0.200084 0.746136
Si Si6 0.598272 0.117257 0.970589
Si Si7 0.646414 0.790254 0.812678
Si Si8 0.028150 0.765878 0.911983
O O1 0.527285 0.264873 0.380925
O O2 0.473989 0.438849 0.412358
O O3 0.593522 0.040734 0.636800
O O4 0.255818 0.922150 0.762006
O O5 0.125831 0.101504 0.330330
O O6 0.987276 0.192351 0.194694
O O7 0.948197 0.421339 0.174833
O O8 0.732968 0.851412 0.574078
O O9 0.646044 0.437835 0.773923
O O10 0.409698 0.353315 0.998234
O O11 0.500000 0.500000 0.500000
O O12 0.165880 0.297400 0.663966
O O13 0.432090 0.859156 0.231032
O O14 0.796328 0.108301 0.911276
O O15 0.000000 0.500000 0.500000
O O16 0.936535 0.937638 0.871333
O O17 0.500000 0.000000 0.000000
O O18 0.500000 0.500000 0.000000
#
# Coordination Sequence:
#
# PCOD9019678 Si02
#       8
#     2   2   2   2   2   2   2   2
#     4  10  21  45  66 104 142 178 235 292 342 425
#     4  10  22  45  68 100 142 184 233 295 348 420
#     4  11  26  46  73 102 144 187 236 293 353 426
#     4  11  24  42  68 101 146 181 228 298 348 407
#     4  11  22  40  70 101 138 186 231 289 354 416
#     4  12  23  43  71 105 136 181 242 282 347 431
#     4  12  26  46  73 104 141 184 239 291 359 419
#     4   9  20  41  68 100 141 180 234 290 345 420
#
# _framework density 23.863382999999999
#
# number of rings (size 3 to 8) (size 9 to 14) (size 15 to 20)
#    0.000    1.250    3.750    2.250    1.750    4.500 
#    2.250    2.500    0.000    0.000    0.000    0.000 
#    0.000    0.000    0.000    0.000    0.000    0.000 
#
# Total GULP energy -89370.865574 kJ/mol
# GULP energy per Si atom -5585.679098 kJ/mol
# Density = 2.380907 g / cm^3
# Si number density = 23.863383 Si / 1000 Ang^3
#
#
#
# Elastic Constant Matrix: (Units=GPa)
#
#
# Indices 1 2 3 4 5 6 
#
# 1 153.3903 37.1803 47.0443 -2.0811 -9.0389 -8.3487
# 2 37.1803 91.3066 49.9319 -15.9480 -6.6789 -9.4886
# 3 47.0443 49.9319 116.9414 -21.0328 -2.1964 -4.5361
# 4 -2.0811 -15.9480 -21.0328 49.9194 4.4708 2.5546
# 5 -9.0389 -6.6789 -2.1964 4.4708 21.7971 -1.3144
# 6 -8.3487 -9.4886 -4.5361 2.5546 -1.3144 35.4528
#
#
#
# Elastic Compliance Matrix: (Units=1/GPa)
#
#
# Indices 1 2 3 4 5 6 
#
# 1 0.007978 -0.001734 -0.002664 -0.001673 0.002930 0.001303
# 2 -0.001734 0.015521 -0.005359 0.002184 0.003231 0.003022
# 3 -0.002664 -0.005359 0.012500 0.003691 -0.002293 -0.000813
# 4 -0.001673 0.002184 0.003691 0.022665 -0.004370 -0.001132
# 5 0.002930 0.003231 -0.002293 -0.004370 0.048952 0.003391
# 6 0.001303 0.003022 -0.000813 -0.001132 0.003391 0.029425
#
#
# Mechanical properties :
#
#
# Convention : Reuss Voigt Hill
#
# Bulk Modulus (GPa) = 60.66234 69.99459 65.32847
# Shear Modulus (GPa) = 30.85469 36.59930 33.72700
#
# Velocity S-wave (km/s) = 3.59969 3.92050 3.76352
# Velocity P-wave (km/s) = 6.53857 7.06320 6.80594
#
# Compressibility (1/GPa) = 0.01648469
#
# Stress axis : x y z
#
# Youngs Moduli (GPa) = 125.35054 64.43049 79.99771
#
# Poissons Ratio (x) = 0.11172 0.21313
# Poissons Ratio (y) = 0.21736 0.42868
# Poissons Ratio (z) = 0.33397 0.34526
#
# Static dielectric constant tensor:
#      x y z
#    x 1.895390 -0.002810 0.042410 
#    y -0.002810 1.919380 0.020820 
#    z 0.042410 0.020820 1.901140 
# 
# From -- ./inp_files/590400.got.cif
#   From: 2010.05.17/outbox.cif.g08.bks.cpg/sg2_296_cif.got.tgz:590400.got - 2010.06.03 11:33:40.
