data_PCOD9019042
_publ_section_title
;
Structure prediction by ZEFSAII (Michael W. Deem and Ramdas Pophale) SiO2 
 PCOD9019042
Probable space group: P -1
;
_chemical_formula_sum "Si O2"
_cell_formula_units_Z 14
_cell_length_a 12.058006
_cell_length_b 29.903673
_cell_length_c 5.088323
_cell_angle_alpha 116.069197
_cell_angle_beta 69.250316
_cell_angle_gamma 158.450002
_cell_volume 597.061167
_symmetry_space_group_name_H-M "P -1"
_symmetry_group_IT_number 2
_symmetry_cell_setting 'triclinic'
loop_
_space_group_symop_operation_xyz
x,y,z
-x,-y,-z
loop_
_atom_site_type_symbol
_atom_site_label
_atom_site_fract_x
_atom_site_fract_y
_atom_site_fract_z
Si Si1 0.762881 0.142923 0.945867
Si Si2 0.807155 0.941989 0.262921
Si Si3 0.792840 0.335878 0.746272
Si Si4 0.336755 0.486199 0.483984
Si Si5 0.404087 0.373146 0.878652
Si Si6 0.585963 0.966635 0.558766
Si Si7 0.736392 0.409426 0.693371
O O1 0.511524 0.058982 0.723110
O O2 0.081917 0.275998 0.879915
O O3 0.765496 0.084011 0.824008
O O4 0.694914 0.142883 0.278526
O O5 0.466866 0.785787 0.158881
O O6 0.758013 0.981734 0.438179
O O7 0.000000 0.000000 0.500000
O O8 0.000000 0.000000 0.000000
O O9 0.633828 0.316127 0.644938
O O10 0.983992 0.364277 0.529911
O O11 0.061274 0.474709 0.997020
O O12 0.500000 0.500000 0.500000
O O13 0.380027 0.512585 0.206910
O O14 0.530396 0.599845 0.794477
O O15 0.456134 0.336119 0.651881
O O16 0.000000 0.500000 0.500000
#
# Coordination Sequence:
#
# PCOD9019042 Si02
#       7
#     2   2   2   2   2   2   2
#     4  10  22  41  70  94 128 178 222 285 327 398
#     4  12  29  47  69 104 137 188 230 279 350 408
#     4  10  25  43  69  97 139 179 225 286 335 407
#     4  11  24  42  62 102 132 168 216 270 346 405
#     4  11  23  38  67  97 126 170 223 266 336 401
#     4  10  23  46  64  96 133 174 230 274 339 387
#     4  10  21  44  67  98 132 180 225 278 341 397
#
# _framework density 23.448181999999999
#
# number of rings (size 3 to 8) (size 9 to 14) (size 15 to 20)
#    0.000    1.429    1.429    2.143    8.000    0.000 
#    0.000    0.000    0.000    0.000    0.000    0.000 
#    0.000    0.000    0.000    0.000    0.000    0.000 
#
# Total GULP energy -78025.144007 kJ/mol
# GULP energy per Si atom -5573.224572 kJ/mol
# Density = 2.339481 g / cm^3
# Si number density = 23.448182 Si / 1000 Ang^3
#
#
#
# Elastic Constant Matrix: (Units=GPa)
#
#
# Indices 1 2 3 4 5 6 
#
# 1 147.5847 24.2997 48.8928 -19.0506 -32.7610 -0.4106
# 2 24.2997 95.5223 26.3976 -35.1347 -16.3493 -3.9013
# 3 48.8928 26.3976 96.0527 -34.9203 -13.2108 -3.8961
# 4 -19.0506 -35.1347 -34.9203 43.5386 8.3838 -2.8405
# 5 -32.7610 -16.3493 -13.2108 8.3838 42.9186 -4.7806
# 6 -0.4106 -3.9013 -3.8961 -2.8405 -4.7806 25.6940
#
#
#
# Elastic Compliance Matrix: (Units=1/GPa)
#
#
# Indices 1 2 3 4 5 6 
#
# 1 0.009442 -0.000466 -0.004063 -0.000618 0.005956 0.000504
# 2 -0.000466 0.016031 0.001489 0.013452 0.004128 0.004908
# 3 -0.004063 0.001489 0.017199 0.013381 0.000632 0.004366
# 4 -0.000618 0.013452 0.013381 0.044680 0.001069 0.009200
# 5 0.005956 0.004128 0.000632 0.001069 0.030134 0.006543
# 6 0.000504 0.004908 0.004366 0.009200 0.006543 0.042569
#
#
# Mechanical properties :
#
#
# Convention : Reuss Voigt Hill
#
# Bulk Modulus (GPa) = 27.32897 59.81553 43.57225
# Shear Modulus (GPa) = 28.03744 38.40154 33.21949
#
# Velocity S-wave (km/s) = 3.46167 4.05127 3.76802
# Velocity P-wave (km/s) = 5.25908 6.88830 6.12807
#
# Compressibility (1/GPa) = 0.03659121
#
# Stress axis : x y z
#
# Youngs Moduli (GPa) = 105.90480 62.38016 58.14364
#
# Poissons Ratio (x) = 0.02909 0.23625
# Poissons Ratio (y) = 0.04939 -0.08658
# Poissons Ratio (z) = 0.43031 -0.09289
#
# Static dielectric constant tensor:
#      x y z
#    x 2.020080 0.059790 0.051250 
#    y 0.059790 2.135960 0.215360 
#    z 0.051250 0.215360 2.223440 
# 
# From -- ./inp_files/85426.got.cif
#   From: 2010.05.17/outbox.cif.g08.bks.cpg/sg2_43_cif.got.tgz:85426.got - 2010.06.03 11:33:40.
