data_PCOD9019746
_publ_section_title
;
Structure prediction by ZEFSAII (Michael W. Deem and Ramdas Pophale) SiO2 
 PCOD9019746
Probable space group: P -1
;
_chemical_formula_sum "Si O2"
_cell_formula_units_Z 14
_cell_length_a 15.707870
_cell_length_b 10.981782
_cell_length_c 7.139614
_cell_angle_alpha 135.062103
_cell_angle_beta 125.626175
_cell_angle_gamma 46.170699
_cell_volume 617.187006
_symmetry_space_group_name_H-M "P -1"
_symmetry_group_IT_number 2
_symmetry_cell_setting 'triclinic'
loop_
_space_group_symop_operation_xyz
x,y,z
-x,-y,-z
loop_
_atom_site_type_symbol
_atom_site_label
_atom_site_fract_x
_atom_site_fract_y
_atom_site_fract_z
Si Si1 0.368796 0.004802 0.683205
Si Si2 0.397089 0.007480 0.139052
Si Si3 0.961565 0.332902 0.274516
Si Si4 0.262060 0.480479 0.082826
Si Si5 0.569339 0.592323 0.081852
Si Si6 0.219932 0.998580 0.149319
Si Si7 0.221757 0.610847 0.601307
O O1 0.508787 0.916243 0.708326
O O2 0.294646 0.949878 0.384600
O O3 0.306031 0.245759 0.862784
O O4 0.367654 0.949457 0.836371
O O5 0.273564 0.108269 0.206438
O O6 0.479109 0.817197 0.162726
O O7 0.904534 0.334291 0.404426
O O8 0.000000 0.500000 0.500000
O O9 0.080763 0.131504 0.161802
O O10 0.858463 0.389929 0.048822
O O11 0.367276 0.503229 0.138865
O O12 0.240458 0.539417 0.335288
O O13 0.500000 0.500000 0.000000
O O14 0.678125 0.554863 0.316876
O O15 0.238525 0.802450 0.856642
#
# Coordination Sequence:
#
# PCOD9019746 Si02
#       7
#     2   2   2   2   2   2   2
#     4  10  23  43  66 101 139 175 227 272 335 409
#     4  10  23  40  68 102 134 181 224 274 331 405
#     4  11  25  46  72  97 133 181 230 280 341 401
#     4  10  24  44  71 100 133 177 229 277 336 405
#     4  10  21  45  67  99 140 178 216 273 340 406
#     4  12  24  44  69  99 138 179 224 282 338 393
#     4  11  26  44  68 101 139 175 223 287 338 398
#
# _framework density 22.683561999999998
#
# number of rings (size 3 to 8) (size 9 to 14) (size 15 to 20)
#    0.000    1.429    2.857    0.857    2.000    8.571 
#    0.000    0.000    0.000    0.000    0.000    0.000 
#    0.000    0.000    0.000    0.000    0.000    0.000 
#
# Total GULP energy -78315.016362 kJ/mol
# GULP energy per Si atom -5593.929740 kJ/mol
# Density = 2.263193 g / cm^3
# Si number density = 22.683562 Si / 1000 Ang^3
#
#
#
# Elastic Constant Matrix: (Units=GPa)
#
#
# Indices 1 2 3 4 5 6 
#
# 1 156.8230 29.9713 49.1788 -3.9977 -31.4721 -16.1795
# 2 29.9713 59.2914 18.7005 0.3316 -17.4408 -15.4410
# 3 49.1788 18.7005 119.0904 -4.8316 -31.3272 -3.4076
# 4 -3.9977 0.3316 -4.8316 38.3035 10.5494 -0.2269
# 5 -31.4721 -17.4408 -31.3272 10.5494 44.3151 2.6584
# 6 -16.1795 -15.4410 -3.4076 -0.2269 2.6584 44.6312
#
#
#
# Elastic Compliance Matrix: (Units=1/GPa)
#
#
# Indices 1 2 3 4 5 6 
#
# 1 0.008342 -0.001967 -0.002147 -0.000363 0.003601 0.001963
# 2 -0.001967 0.021762 -0.000721 -0.002329 0.006832 0.006342
# 3 -0.002147 -0.000721 0.010964 -0.000518 0.006099 -0.000557
# 4 -0.000363 -0.002329 -0.000518 0.028296 -0.008256 -0.000341
# 5 0.003601 0.006832 0.006099 -0.008256 0.033965 0.002070
# 6 0.001963 0.006342 -0.000557 -0.000341 0.002070 0.025144
#
#
# Mechanical properties :
#
#
# Convention : Reuss Voigt Hill
#
# Bulk Modulus (GPa) = 31.84910 58.98956 45.41933
# Shear Modulus (GPa) = 33.64542 41.27357 37.45950
#
# Velocity S-wave (km/s) = 3.85548 4.27023 4.06814
# Velocity P-wave (km/s) = 5.82157 7.09754 6.49098
#
# Compressibility (1/GPa) = 0.03139806
#
# Stress axis : x y z
#
# Youngs Moduli (GPa) = 119.87751 45.95211 91.20529
#
# Poissons Ratio (x) = 0.09039 0.19584
# Poissons Ratio (y) = 0.23579 0.06573
# Poissons Ratio (z) = 0.25741 0.03312
#
# Static dielectric constant tensor:
#      x y z
#    x 1.871470 -0.001290 0.006770 
#    y -0.001290 1.878310 0.061360 
#    z 0.006770 0.061360 1.846060 
# 
# From -- ./inp_files/27488.got.cif
#   From: 2010.05.17/outbox.cif.g08.bks.cpg/sg2_14_cif.got.tgz:27488.got - 2010.06.03 11:33:40.
