data_PCOD9019404
_publ_section_title
;
Structure prediction by ZEFSAII (Michael W. Deem and Ramdas Pophale) SiO2 
 PCOD9019404
Probable space group: P -1
;
_chemical_formula_sum "Si O2"
_cell_formula_units_Z 16
_cell_length_a 18.645887
_cell_length_b 9.856981
_cell_length_c 9.879004
_cell_angle_alpha 42.125310
_cell_angle_beta 69.139679
_cell_angle_gamma 50.053719
_cell_volume 907.852035
_symmetry_space_group_name_H-M "P -1"
_symmetry_group_IT_number 2
_symmetry_cell_setting 'triclinic'
loop_
_space_group_symop_operation_xyz
x,y,z
-x,-y,-z
loop_
_atom_site_type_symbol
_atom_site_label
_atom_site_fract_x
_atom_site_fract_y
_atom_site_fract_z
Si Si1 0.906729 0.535033 0.879066
Si Si2 0.128014 0.166364 0.048430
Si Si3 0.906933 0.746345 0.447068
Si Si4 0.805553 0.295993 0.024307
Si Si5 0.736429 0.405198 0.675269
Si Si6 0.623634 0.337943 0.126424
Si Si7 0.761888 0.816523 0.289299
Si Si8 0.525574 0.723066 0.678595
O O1 0.874334 0.685763 0.929475
O O2 0.908596 0.704002 0.636490
O O3 0.838302 0.460065 0.935280
O O4 0.017233 0.284356 0.005655
O O5 0.197280 0.864000 0.243681
O O6 0.172018 0.212947 0.855294
O O7 0.818547 0.763689 0.429884
O O8 0.000000 0.500000 0.500000
O O9 0.890208 0.001159 0.218815
O O10 0.711014 0.337602 0.122170
O O11 0.779153 0.348525 0.843150
O O12 0.740635 0.615620 0.446033
O O13 0.623452 0.535341 0.668155
O O14 0.562481 0.282517 0.301599
O O15 0.671611 0.109083 0.152561
O O16 0.553261 0.601863 0.900209
O O17 0.500000 0.000000 0.500000
#
# Coordination Sequence:
#
# PCOD9019404 Si02
#       8
#     2   2   2   2   2   2   2   2
#     4  11  24  38  56  79 116 160 186 232 285 329
#     4  11  24  39  51  83 121 147 192 235 280 335
#     4  11  20  34  57  83 105 146 196 236 268 330
#     4  10  21  35  56  82 109 146 193 234 276 330
#     4  11  20  34  59  85 111 150 186 236 286 331
#     4   9  19  32  51  88 114 135 186 237 276 331
#     4  11  19  34  56  83 113 145 188 234 273 328
#     4  10  17  30  55  87 117 140 176 240 289 328
#
# _framework density 17.624018
#
# number of rings (size 3 to 8) (size 9 to 14) (size 15 to 20)
#    0.000    1.500    7.500    0.000    1.750    2.000 
#    0.000    2.500    0.000    0.750    0.000    7.875 
#    0.000    0.000    0.000    0.000    0.000    0.000 
#
# Total GULP energy -89136.838432 kJ/mol
# GULP energy per Si atom -5571.052402 kJ/mol
# Density = 1.758391 g / cm^3
# Si number density = 17.624018 Si / 1000 Ang^3
#
#
#
# Elastic Constant Matrix: (Units=GPa)
#
#
# Indices 1 2 3 4 5 6 
#
# 1 87.5554 48.5133 27.4960 -5.0202 -19.8713 -5.7741
# 2 48.5133 93.8409 32.3516 -9.2525 -3.6437 -12.0906
# 3 27.4960 32.3516 74.9981 -19.9921 -15.1511 -0.9867
# 4 -5.0202 -9.2525 -19.9921 26.0016 2.6908 4.5834
# 5 -19.8713 -3.6437 -15.1511 2.6908 29.3219 -2.5747
# 6 -5.7741 -12.0906 -0.9867 4.5834 -2.5747 16.6765
#
#
#
# Elastic Compliance Matrix: (Units=1/GPa)
#
#
# Indices 1 2 3 4 5 6 
#
# 1 0.019645 -0.009084 -0.001448 -0.002235 0.011867 0.002577
# 2 -0.009084 0.018209 -0.005815 -0.000701 -0.006046 0.008972
# 3 -0.001448 -0.005815 0.021749 0.014692 0.007633 -0.006290
# 4 -0.002235 -0.000701 0.014692 0.051654 -0.000034 -0.014615
# 5 0.011867 -0.006046 0.007633 -0.000034 0.045982 0.007286
# 6 0.002577 0.008972 -0.006290 -0.014615 0.007286 0.072131
#
#
# Mechanical properties :
#
#
# Convention : Reuss Voigt Hill
#
# Bulk Modulus (GPa) = 37.16254 52.56845 44.86549
# Shear Modulus (GPa) = 18.44793 24.26892 21.35843
#
# Velocity S-wave (km/s) = 3.23886 3.71487 3.48500
# Velocity P-wave (km/s) = 5.92613 6.94930 6.45801
#
# Compressibility (1/GPa) = 0.02690882
#
# Stress axis : x y z
#
# Youngs Moduli (GPa) = 50.90447 54.91719 45.98011
#
# Poissons Ratio (x) = 0.49888 0.06658
# Poissons Ratio (y) = 0.46242 0.26735
# Poissons Ratio (z) = 0.07372 0.31932
#
# Static dielectric constant tensor:
#      x y z
#    x 1.648350 -0.053200 0.001180 
#    y -0.053200 1.611580 -0.035290 
#    z 0.001180 -0.035290 1.639950 
# 
# From -- ./inp_files/214954.got.cif
#   From: 2010.05.17/outbox.cif.g08.bks.cpg/sg2_108_cif.got.tgz:214954.got - 2010.06.03 11:33:40.
