data_PCOD9019996
_publ_section_title
;
Structure prediction by ZEFSAII (Michael W. Deem and Ramdas Pophale) SiO2 
 PCOD9019996
Probable space group: P -1
;
_chemical_formula_sum "Si O2"
_cell_formula_units_Z 12
_cell_length_a 17.187454
_cell_length_b 8.540496
_cell_length_c 11.552287
_cell_angle_alpha 146.173673
_cell_angle_beta 31.385633
_cell_angle_gamma 131.864140
_cell_volume 486.484958
_symmetry_space_group_name_H-M "P -1"
_symmetry_group_IT_number 2
_symmetry_cell_setting 'triclinic'
loop_
_space_group_symop_operation_xyz
x,y,z
-x,-y,-z
loop_
_atom_site_type_symbol
_atom_site_label
_atom_site_fract_x
_atom_site_fract_y
_atom_site_fract_z
Si Si1 0.117719 0.504497 0.958253
Si Si2 0.955788 0.705218 0.831129
Si Si3 0.663716 0.079556 0.364678
Si Si4 0.279943 0.556482 0.260039
Si Si5 0.406624 0.023268 0.253029
Si Si6 0.673544 0.094729 0.119683
O O1 0.192722 0.793157 0.049246
O O2 0.251355 0.241416 0.598975
O O3 0.049519 0.469107 0.150792
O O4 0.000000 0.500000 0.000000
O O5 0.099031 0.611504 0.510228
O O6 0.788132 0.799928 0.052279
O O7 0.000000 0.000000 0.000000
O O8 0.674549 0.267602 0.577966
O O9 0.690109 0.244821 0.315145
O O10 0.500000 0.000000 0.500000
O O11 0.365236 0.710393 0.146745
O O12 0.312320 0.233732 0.064083
O O13 0.518196 0.142086 0.277153
O O14 0.500000 0.000000 0.000000
#
# Coordination Sequence:
#
# PCOD9019996 Si02
#       6
#     2   2   2   2   2   2
#     4  12  26  50  76 112 154 201 248 310 384 448
#     4  10  21  45  77 102 147 199 250 308 370 446
#     4  11  22  44  78 105 147 201 252 307 370 447
#     4  11  25  50  75 113 148 199 258 305 377 454
#     4  12  28  50  76 111 157 198 255 313 373 455
#     4  12  28  45  78 113 151 196 250 315 377 445
#
# _framework density 24.666746
#
# number of rings (size 3 to 8) (size 9 to 14) (size 15 to 20)
#    0.000    0.667    5.000    3.000    4.667    2.667 
#    0.000    0.000    0.000    0.000    0.000    0.000 
#    0.000    0.000    0.000    0.000    0.000    0.000 
#
# Total GULP energy -67065.677351 kJ/mol
# GULP energy per Si atom -5588.806446 kJ/mol
# Density = 2.461060 g / cm^3
# Si number density = 24.666746 Si / 1000 Ang^3
#
#
#
# Elastic Constant Matrix: (Units=GPa)
#
#
# Indices 1 2 3 4 5 6 
#
# 1 136.6746 40.2926 13.7098 -21.8717 -40.9696 12.7461
# 2 40.2926 202.8618 43.4602 -33.2077 -4.4995 -2.0681
# 3 13.7098 43.4602 87.8222 -9.7080 -17.3700 6.8798
# 4 -21.8717 -33.2077 -9.7080 46.9308 -0.3220 6.8558
# 5 -40.9696 -4.4995 -17.3700 -0.3220 54.0698 -16.5167
# 6 12.7461 -2.0681 6.8798 6.8558 -16.5167 40.0751
#
#
#
# Elastic Compliance Matrix: (Units=1/GPa)
#
#
# Indices 1 2 3 4 5 6 
#
# 1 0.010942 -0.001538 0.001271 0.004498 0.008247 -0.001148
# 2 -0.001538 0.006328 -0.002851 0.003138 -0.001489 0.000155
# 3 0.001271 -0.002851 0.013827 0.001648 0.004803 -0.001228
# 4 0.004498 0.003138 0.001648 0.026708 0.002847 -0.004947
# 5 0.008247 -0.001489 0.004803 0.002847 0.028548 0.007755
# 6 -0.001148 0.000155 -0.001228 -0.004947 0.007755 0.029579
#
#
# Mechanical properties :
#
#
# Convention : Reuss Voigt Hill
#
# Bulk Modulus (GPa) = 40.22277 69.14265 54.68271
# Shear Modulus (GPa) = 38.32719 50.20821 44.26770
#
# Velocity S-wave (km/s) = 3.94610 4.51650 4.24090
# Velocity P-wave (km/s) = 6.09132 7.43572 6.79684
#
# Compressibility (1/GPa) = 0.02486154
#
# Stress axis : x y z
#
# Youngs Moduli (GPa) = 91.39406 158.02691 72.32046
#
# Poissons Ratio (x) = 0.24305 -0.09195
# Poissons Ratio (y) = 0.14057 0.20619
# Poissons Ratio (z) = -0.11620 0.45055
#
# Static dielectric constant tensor:
#      x y z
#    x 1.977610 0.033560 0.044110 
#    y 0.033560 1.940190 0.039510 
#    z 0.044110 0.039510 2.105490 
# 
# From -- ./inp_files/462534.got.cif
#   From: 2010.05.17/outbox.cif.g08.bks.cpg/sg2_232_cif.got.tgz:462534.got - 2010.06.03 11:33:40.
