data_PCOD9019535
_publ_section_title
;
Structure prediction by ZEFSAII (Michael W. Deem and Ramdas Pophale) SiO2 
 PCOD9019535
Probable space group: P -1
;
_chemical_formula_sum "Si O2"
_cell_formula_units_Z 14
_cell_length_a 10.615241
_cell_length_b 6.748230
_cell_length_c 15.133107
_cell_angle_alpha 66.015633
_cell_angle_beta 142.154971
_cell_angle_gamma 101.422387
_cell_volume 592.868536
_symmetry_space_group_name_H-M "P -1"
_symmetry_group_IT_number 2
_symmetry_cell_setting 'triclinic'
loop_
_space_group_symop_operation_xyz
x,y,z
-x,-y,-z
loop_
_atom_site_type_symbol
_atom_site_label
_atom_site_fract_x
_atom_site_fract_y
_atom_site_fract_z
Si Si1 0.493821 0.749124 0.981724
Si Si2 0.778029 0.973065 0.843805
Si Si3 0.254514 0.599172 0.337805
Si Si4 0.898510 0.891592 0.383204
Si Si5 0.353197 0.886045 0.070425
Si Si6 0.281453 0.484489 0.178401
Si Si7 0.219734 0.541736 0.519404
O O1 0.285305 0.916955 0.795779
O O2 0.683482 0.858583 0.030513
O O3 0.500000 0.500000 0.000000
O O4 0.485505 0.770009 0.079378
O O5 0.761506 0.730407 0.852621
O O6 0.755554 0.137895 0.718851
O O7 0.611509 0.068894 0.812857
O O8 0.000000 0.000000 0.000000
O O9 0.500000 0.500000 0.500000
O O10 0.190445 0.523487 0.220194
O O11 0.157088 0.526931 0.385030
O O12 0.813999 0.679935 0.411075
O O13 0.079009 0.768649 0.438901
O O14 0.000000 0.000000 0.500000
O O15 0.209916 0.705737 0.038864
O O16 0.535049 0.453188 0.333530
#
# Coordination Sequence:
#
# PCOD9019535 Si02
#       7
#     2   2   2   2   2   2   2
#     4  11  24  43  70 101 132 181 231 277 343 405
#     4  11  25  42  69 102 135 173 228 286 338 403
#     4   9  22  42  68 100 132 177 226 274 341 415
#     4  11  26  41  69 104 138 178 225 285 337 399
#     4  10  23  42  69  95 136 175 230 272 345 407
#     4  10  21  44  73  95 136 183 220 280 345 404
#     4  10  23  44  68 101 141 176 231 277 338 411
#
# _framework density 23.614003
#
# number of rings (size 3 to 8) (size 9 to 14) (size 15 to 20)
#    0.000    1.714    1.429    0.857    6.000    6.857 
#    2.571    0.000    0.000    0.000    0.000    0.000 
#    0.000    0.000    0.000    0.000    0.000    0.000 
#
# Total GULP energy -78042.863223 kJ/mol
# GULP energy per Si atom -5574.490230 kJ/mol
# Density = 2.356026 g / cm^3
# Si number density = 23.614003 Si / 1000 Ang^3
#
#
#
# Elastic Constant Matrix: (Units=GPa)
#
#
# Indices 1 2 3 4 5 6 
#
# 1 103.5888 43.0637 44.4407 -0.2495 -23.5289 -16.5507
# 2 43.0637 235.3590 55.5473 -4.9074 -9.3085 -9.2379
# 3 44.4407 55.5473 111.3775 -10.5975 -1.8818 -0.3516
# 4 -0.2495 -4.9074 -10.5975 42.7907 -0.6749 -2.7135
# 5 -23.5289 -9.3085 -1.8818 -0.6749 44.8680 -2.1129
# 6 -16.5507 -9.2379 -0.3516 -2.7135 -2.1129 34.3495
#
#
#
# Elastic Compliance Matrix: (Units=1/GPa)
#
#
# Indices 1 2 3 4 5 6 
#
# 1 0.015490 -0.000902 -0.005647 -0.000803 0.008045 0.007595
# 2 -0.000902 0.004967 -0.002095 0.000112 0.000515 0.000920
# 3 -0.005647 -0.002095 0.012461 0.002567 -0.002983 -0.003138
# 4 -0.000803 0.000112 0.002567 0.024116 0.000147 0.001583
# 5 0.008045 0.000515 -0.002983 0.000147 0.026756 0.005641
# 6 0.007595 0.000920 -0.003138 0.001583 0.005641 0.033459
#
#
# Mechanical properties :
#
#
# Convention : Reuss Voigt Hill
#
# Bulk Modulus (GPa) = 63.98371 81.82542 72.90457
# Shear Modulus (GPa) = 35.77880 44.88654 40.33267
#
# Velocity S-wave (km/s) = 3.89672 4.36460 4.13728
# Velocity P-wave (km/s) = 6.88479 7.75410 7.33234
#
# Compressibility (1/GPa) = 0.01562898
#
# Stress axis : x y z
#
# Youngs Moduli (GPa) = 64.55792 201.32321 80.25238
#
# Poissons Ratio (x) = 0.18156 0.45322
# Poissons Ratio (y) = 0.05822 0.16814
# Poissons Ratio (z) = 0.36458 0.42180
#
# Static dielectric constant tensor:
#      x y z
#    x 2.007960 0.002900 0.085690 
#    y 0.002900 1.845650 -0.029300 
#    z 0.085690 -0.029300 1.978190 
# 
# From -- ./inp_files/69495.got.cif
#   From: 2010.05.17/outbox.cif.g08.bks.cpg/sg2_35_cif.got.tgz:69495.got - 2010.06.03 11:33:40.
