data_PCOD9019439
_publ_section_title
;
Structure prediction by ZEFSAII (Michael W. Deem and Ramdas Pophale) SiO2 
 PCOD9019439
Probable space group: P -1
;
_chemical_formula_sum "Si O2"
_cell_formula_units_Z 16
_cell_length_a 11.880110
_cell_length_b 16.699261
_cell_length_c 12.319703
_cell_angle_alpha 139.214684
_cell_angle_beta 73.846257
_cell_angle_gamma 137.214290
_cell_volume 846.275155
_symmetry_space_group_name_H-M "P -1"
_symmetry_group_IT_number 2
_symmetry_cell_setting 'triclinic'
loop_
_space_group_symop_operation_xyz
x,y,z
-x,-y,-z
loop_
_atom_site_type_symbol
_atom_site_label
_atom_site_fract_x
_atom_site_fract_y
_atom_site_fract_z
Si Si1 0.262650 0.841870 0.874803
Si Si2 0.147602 0.679945 0.495321
Si Si3 0.548580 0.417687 0.048838
Si Si4 0.336523 0.468570 0.116421
Si Si5 0.071313 0.115745 0.481908
Si Si6 0.139316 0.916322 0.149514
Si Si7 0.419570 0.084940 0.439716
Si Si8 0.744494 0.031146 0.403954
O O1 0.205315 0.789207 0.708847
O O2 0.069665 0.588550 0.714396
O O3 0.250301 0.964449 0.060638
O O4 0.500000 0.000000 0.000000
O O5 0.362556 0.792948 0.522937
O O6 0.127641 0.765350 0.496329
O O7 0.370996 0.367906 0.058786
O O8 0.737660 0.621339 0.284922
O O9 0.637924 0.517826 0.005910
O O10 0.452990 0.198736 0.846671
O O11 0.516742 0.716571 0.363580
O O12 0.108178 0.325623 0.049808
O O13 0.879411 0.029828 0.400482
O O14 0.136982 0.057349 0.329966
O O15 0.000000 0.000000 0.500000
O O16 0.243483 0.929347 0.233319
O O17 0.333625 0.975735 0.469770
#
# Coordination Sequence:
#
# PCOD9019439 Si02
#       8
#     2   2   2   2   2   2   2   2
#     4  11  25  45  67  82 111 167 220 258 286 350
#     4  11  25  44  62  88 120 164 209 248 304 356
#     4  10  18  31  54  87 129 163 181 233 306 367
#     4  10  17  30  55  90 122 154 199 236 289 360
#     4  12  19  34  59  94 128 162 196 240 305 369
#     4  12  20  35  63  91 115 155 211 250 291 351
#     4  11  20  36  62  94 126 157 194 247 305 367
#     4  11  23  37  60  96 135 154 187 250 311 374
#
# _framework density 18.906382000000001
#
# number of rings (size 3 to 8) (size 9 to 14) (size 15 to 20)
#    0.000    1.000    7.500    1.125    0.000    1.000 
#    0.000    1.250    0.000    1.500    0.000    0.000 
#    0.000    0.000    0.000    0.000    0.000    0.000 
#
# Total GULP energy -89181.813379 kJ/mol
# GULP energy per Si atom -5573.863336 kJ/mol
# Density = 1.886335 g / cm^3
# Si number density = 18.906382 Si / 1000 Ang^3
#
#
#
# Elastic Constant Matrix: (Units=GPa)
#
#
# Indices 1 2 3 4 5 6 
#
# 1 54.1805 37.9419 3.2335 -7.4867 6.2497 18.4138
# 2 37.9419 86.9929 29.1758 -9.4389 -3.3053 12.0253
# 3 3.2335 29.1758 81.7579 -10.4930 5.8459 10.2432
# 4 -7.4867 -9.4389 -10.4930 29.3600 15.1080 -3.5889
# 5 6.2497 -3.3053 5.8459 15.1080 25.8749 2.2772
# 6 18.4138 12.0253 10.2432 -3.5889 2.2772 34.9213
#
#
#
# Elastic Compliance Matrix: (Units=1/GPa)
#
#
# Indices 1 2 3 4 5 6 
#
# 1 0.041618 -0.018640 0.011235 0.019728 -0.025157 -0.015154
# 2 -0.018640 0.022036 -0.009509 -0.007687 0.013659 0.003349
# 3 0.011235 -0.009509 0.018824 0.013996 -0.015852 -0.005699
# 4 0.019728 -0.007687 0.013996 0.065558 -0.047006 -0.002058
# 5 -0.025157 0.013659 -0.015852 -0.047006 0.077202 0.003346
# 6 -0.015154 0.003349 -0.005699 -0.002058 0.003346 0.036715
#
#
# Mechanical properties :
#
#
# Convention : Reuss Voigt Hill
#
# Bulk Modulus (GPa) = 20.55527 40.40374 30.47950
# Shear Modulus (GPa) = 16.02572 28.20325 22.11448
#
# Velocity S-wave (km/s) = 2.91458 3.86648 3.42377
# Velocity P-wave (km/s) = 4.71403 6.43038 5.63790
#
# Compressibility (1/GPa) = 0.04864933
#
# Stress axis : x y z
#
# Youngs Moduli (GPa) = 24.02818 45.37949 53.12358
#
# Poissons Ratio (x) = 0.84588 -0.59685
# Poissons Ratio (y) = 0.44789 0.50517
# Poissons Ratio (z) = -0.26996 0.43153
#
# Static dielectric constant tensor:
#      x y z
#    x 1.674660 0.039640 -0.005840 
#    y 0.039640 1.659020 0.005530 
#    z -0.005840 0.005530 1.696220 
# 
# From -- ./inp_files/425586.got.cif
#   From: 2010.05.17/outbox.cif.g08.bks.cpg/sg2_213_cif.got.tgz:425586.got - 2010.06.03 11:33:40.
