data_PCOD9019080
_publ_section_title
;
Structure prediction by ZEFSAII (Michael W. Deem and Ramdas Pophale) SiO2 
 PCOD9019080
Probable space group: P -1
;
_chemical_formula_sum "Si O2"
_cell_formula_units_Z 10
_cell_length_a 14.798139
_cell_length_b 5.351780
_cell_length_c 5.406420
_cell_angle_alpha 78.704325
_cell_angle_beta 99.409316
_cell_angle_gamma 84.794283
_cell_volume 410.877799
_symmetry_space_group_name_H-M "P -1"
_symmetry_group_IT_number 2
_symmetry_cell_setting 'triclinic'
loop_
_space_group_symop_operation_xyz
x,y,z
-x,-y,-z
loop_
_atom_site_type_symbol
_atom_site_label
_atom_site_fract_x
_atom_site_fract_y
_atom_site_fract_z
Si Si1 0.661910 0.374656 0.349905
Si Si2 0.988369 0.727246 0.155265
Si Si3 0.481356 0.164579 0.202271
Si Si4 0.305413 0.208045 0.346966
Si Si5 0.155978 0.461130 0.563890
O O1 0.563126 0.343008 0.198942
O O2 0.643047 0.620939 0.470153
O O3 0.762571 0.417887 0.280075
O O4 0.687823 0.096993 0.551715
O O5 0.889737 0.732254 0.244509
O O6 0.070356 0.662149 0.404040
O O7 0.000000 0.500000 0.000000
O O8 0.000000 0.000000 0.000000
O O9 0.370086 0.249466 0.134262
O O10 0.500000 0.000000 0.500000
O O11 0.500000 0.000000 0.000000
O O12 0.202729 0.329413 0.359929
#
# Coordination Sequence:
#
# PCOD9019080 Si02
#       5
#     2   2   2   2   2
#     4   9  20  40  69  98 137 190 234 283 362 418
#     4  11  26  43  70 104 134 185 237 298 373 426
#     4  10  21  44  68 104 146 192 234 295 353 425
#     4   9  20  40  69  98 137 190 234 283 362 418
#     4   9  24  45  70  94 154 175 240 301 356 428
#
# _framework density 24.338141
#
# number of rings (size 3 to 8) (size 9 to 14) (size 15 to 20)
#    1.200    1.200    0.000    0.600    5.600    1.600 
#   14.400   16.000    0.000    0.000    0.000    1.400 
#    0.000    0.000    0.000    0.000    0.000    0.000 
#
# Total GULP energy -55668.403159 kJ/mol
# GULP energy per Si atom -5566.840316 kJ/mol
# Density = 2.428275 g / cm^3
# Si number density = 24.338141 Si / 1000 Ang^3
#
#
#
# Elastic Constant Matrix: (Units=GPa)
#
#
# Indices 1 2 3 4 5 6 
#
# 1 204.7697 53.6417 46.9725 -20.2385 -43.2495 42.6184
# 2 53.6417 109.7605 46.6062 -15.6394 -9.5202 35.4775
# 3 46.9725 46.6062 78.5529 0.8073 -19.1701 17.4492
# 4 -20.2385 -15.6394 0.8073 44.6553 -0.0838 -14.8558
# 5 -43.2495 -9.5202 -19.1701 -0.0838 54.9640 -7.4899
# 6 42.6184 35.4775 17.4492 -14.8558 -7.4899 38.7670
#
#
#
# Elastic Compliance Matrix: (Units=1/GPa)
#
#
# Indices 1 2 3 4 5 6 
#
# 1 0.007774 -0.000491 -0.001981 0.001480 0.004559 -0.005757
# 2 -0.000491 0.015914 -0.007271 0.002066 -0.001561 -0.010261
# 3 -0.001981 -0.007271 0.019356 -0.004012 0.003834 -0.000677
# 4 0.001480 0.002066 -0.004012 0.026798 0.001366 0.008821
# 5 0.004559 -0.001561 0.003834 0.001366 0.022798 -0.000381
# 6 -0.005757 -0.010261 -0.000677 0.008821 -0.000381 0.045126
#
#
# Mechanical properties :
#
#
# Convention : Reuss Voigt Hill
#
# Bulk Modulus (GPa) = 42.44882 76.39156 59.42019
# Shear Modulus (GPa) = 30.28377 44.06810 37.17594
#
# Velocity S-wave (km/s) = 3.53128 4.25980 3.91253
# Velocity P-wave (km/s) = 5.84001 7.45991 6.69910
#
# Compressibility (1/GPa) = 0.02355778
#
# Stress axis : x y z
#
# Youngs Moduli (GPa) = 128.63307 62.83937 51.66259
#
# Poissons Ratio (x) = 0.03084 0.10236
# Poissons Ratio (y) = 0.06312 0.37564
# Poissons Ratio (z) = 0.25486 0.45691
#
# Static dielectric constant tensor:
#      x y z
#    x 2.049430 -0.105990 0.148310 
#    y -0.105990 0.980170 1.118260 
#    z 0.148310 1.118260 0.534520 
# 
# From -- ./inp_files/85614.got.cif
#   From: 2010.05.17/outbox.cif.g08.bks.cpg/sg2_43_cif.got.tgz:85614.got - 2010.06.03 11:33:40.
