data_PCOD9019314
_publ_section_title
;
Structure prediction by ZEFSAII (Michael W. Deem and Ramdas Pophale) SiO2 
 PCOD9019314
Probable space group: P -1
;
_chemical_formula_sum "Si O2"
_cell_formula_units_Z 16
_cell_length_a 8.743950
_cell_length_b 25.858664
_cell_length_c 5.055148
_cell_angle_alpha 104.751276
_cell_angle_beta 82.132318
_cell_angle_gamma 145.786833
_cell_volume 615.766387
_symmetry_space_group_name_H-M "P -1"
_symmetry_group_IT_number 2
_symmetry_cell_setting 'triclinic'
loop_
_space_group_symop_operation_xyz
x,y,z
-x,-y,-z
loop_
_atom_site_type_symbol
_atom_site_label
_atom_site_fract_x
_atom_site_fract_y
_atom_site_fract_z
Si Si1 0.247603 0.228285 0.982369
Si Si2 0.207938 0.412557 0.819310
Si Si3 0.146268 0.770630 0.557929
Si Si4 0.870538 0.007425 0.231799
Si Si5 0.630327 0.840917 0.378901
Si Si6 0.940505 0.567782 0.638454
Si Si7 0.712609 0.124288 0.840477
Si Si8 0.450003 0.643314 0.436041
O O1 0.357736 0.199173 0.906351
O O2 0.415903 0.306203 0.811658
O O3 0.921599 0.136857 0.878793
O O4 0.318710 0.280820 0.297979
O O5 0.194588 0.443965 0.600356
O O6 0.133453 0.332254 0.630762
O O7 0.500000 0.500000 0.000000
O O8 0.015309 0.379555 0.057936
O O9 0.342047 0.774061 0.485150
O O10 0.240170 0.844455 0.432723
O O11 0.177216 0.797792 0.886194
O O12 0.732636 0.928583 0.377056
O O13 0.615324 0.971007 0.155158
O O14 0.134903 0.113176 0.418979
O O15 0.000000 0.000000 0.000000
O O16 0.730526 0.461986 0.650579
O O17 0.220525 0.621578 0.542184
#
# Coordination Sequence:
#
# PCOD9019314 Si02
#       8
#     2   2   2   2   2   2   2   2
#     4  12  26  42  68 103 133 176 223 282 334 398
#     4  12  26  40  68  99 136 176 230 285 327 390
#     4  11  23  43  66  95 133 180 225 269 337 401
#     4  10  21  44  70  98 133 175 218 270 340 400
#     4  10  23  41  71  98 130 175 226 273 323 413
#     4  11  24  45  65  97 127 182 230 280 335 394
#     4  11  25  42  67  99 137 175 215 278 341 400
#     4  11  25  44  70  90 139 176 224 279 339 401
#
# _framework density 25.983877
#
# number of rings (size 3 to 8) (size 9 to 14) (size 15 to 20)
#    0.000    1.000    1.250    4.875    7.000    3.500 
#    0.000    0.625    0.000    0.000    0.000    0.000 
#    0.000    0.000    0.000    0.000    0.000    0.000 
#
# Total GULP energy -89585.907187 kJ/mol
# GULP energy per Si atom -5599.119199 kJ/mol
# Density = 2.592474 g / cm^3
# Si number density = 25.983877 Si / 1000 Ang^3
#
#
#
# Elastic Constant Matrix: (Units=GPa)
#
#
# Indices 1 2 3 4 5 6 
#
# 1 79.4023 15.0976 7.3430 -3.8638 -6.8752 20.5823
# 2 15.0976 76.0774 9.4094 -6.1947 19.9640 12.2191
# 3 7.3430 9.4094 125.4483 -9.3704 -10.5511 -9.0409
# 4 -3.8638 -6.1947 -9.3704 41.6177 4.3600 9.6700
# 5 -6.8752 19.9640 -10.5511 4.3600 40.1381 -4.7009
# 6 20.5823 12.2191 -9.0409 9.6700 -4.7009 48.6620
#
#
#
# Elastic Compliance Matrix: (Units=1/GPa)
#
#
# Indices 1 2 3 4 5 6 
#
# 1 0.015018 -0.002466 -0.000754 0.001972 0.002683 -0.006005
# 2 -0.002466 0.018184 -0.002255 0.004526 -0.011245 -0.005928
# 3 -0.000754 -0.002255 0.008721 0.000550 0.003546 0.002739
# 4 0.001972 0.004526 0.000550 0.027431 -0.005670 -0.007867
# 5 0.002683 -0.011245 0.003546 -0.005670 0.033298 0.006691
# 6 -0.006005 -0.005928 0.002739 -0.007867 0.006691 0.027297
#
#
# Mechanical properties :
#
#
# Convention : Reuss Voigt Hill
#
# Bulk Modulus (GPa) = 32.28488 38.29201 35.28845
# Shear Modulus (GPa) = 33.06375 42.68876 37.87625
#
# Velocity S-wave (km/s) = 3.57104 4.05766 3.82210
# Velocity P-wave (km/s) = 5.42725 6.05984 5.75225
#
# Compressibility (1/GPa) = 0.03097425
#
# Stress axis : x y z
#
# Youngs Moduli (GPa) = 66.58816 54.99251 114.66134
#
# Poissons Ratio (x) = 0.13561 0.08645
# Poissons Ratio (y) = 0.16421 0.25851
# Poissons Ratio (z) = 0.05020 0.12398
#
# Static dielectric constant tensor:
#      x y z
#    x 2.110520 0.060250 0.031300 
#    y 0.060250 2.087390 -0.000760 
#    z 0.031300 -0.000760 2.005000 
# 
# From -- ./inp_files/56955.got.cif
#   From: 2010.05.17/outbox.cif.g08.bks.cpg/sg2_29_cif.got.tgz:56955.got - 2010.06.03 11:33:40.
