data_PCOD9019701
_publ_section_title
;
Structure prediction by ZEFSAII (Michael W. Deem and Ramdas Pophale) SiO2 
 PCOD9019701
Probable space group: P -1
;
_chemical_formula_sum "Si O2"
_cell_formula_units_Z 16
_cell_length_a 14.089043
_cell_length_b 9.393229
_cell_length_c 14.714719
_cell_angle_alpha 119.119448
_cell_angle_beta 28.255442
_cell_angle_gamma 99.942455
_cell_volume 632.546594
_symmetry_space_group_name_H-M "P -1"
_symmetry_group_IT_number 2
_symmetry_cell_setting 'triclinic'
loop_
_space_group_symop_operation_xyz
x,y,z
-x,-y,-z
loop_
_atom_site_type_symbol
_atom_site_label
_atom_site_fract_x
_atom_site_fract_y
_atom_site_fract_z
Si Si1 0.319424 0.190914 0.521935
Si Si2 0.664440 0.520542 0.295477
Si Si3 0.293751 0.802712 0.198460
Si Si4 0.911061 0.388015 0.777034
Si Si5 0.333442 0.806144 0.903828
Si Si6 0.514247 0.209985 0.644017
Si Si7 0.262155 0.364191 0.336776
Si Si8 0.854263 0.228716 0.496316
O O1 0.193715 0.415915 0.742791
O O2 0.574917 0.128984 0.237704
O O3 0.132494 0.223932 0.609629
O O4 0.393598 0.016991 0.478351
O O5 0.500000 0.500000 0.500000
O O6 0.769906 0.317071 0.082593
O O7 0.518552 0.710475 0.406036
O O8 0.294637 0.647189 0.082074
O O9 0.315884 0.740468 0.264792
O O10 0.520711 0.801594 0.969690
O O11 0.000000 0.000000 0.500000
O O12 0.050014 0.353095 0.553531
O O13 0.751811 0.616535 0.025205
O O14 0.586667 0.659131 0.705692
O O15 0.130280 0.006510 0.196611
O O16 0.727798 0.216546 0.510198
O O17 0.132092 0.585612 0.469491
#
# Coordination Sequence:
#
# PCOD9019701 Si02
#       8
#     2   2   2   2   2   2   2   2
#     4  10  24  44  68 101 136 176 228 289 338 405
#     4  10  22  45  73  98 136 179 226 281 351 409
#     4  12  24  44  67 101 138 184 229 278 342 405
#     4  11  26  46  70 100 140 183 228 282 341 402
#     4  10  21  45  66  99 136 181 227 280 345 405
#     4  12  24  43  69 102 140 176 232 281 340 411
#     4  11  23  45  68  98 140 180 231 284 334 404
#     4  12  24  41  72  96 140 183 226 282 341 401
#
# _framework density 25.294578999999999
#
# number of rings (size 3 to 8) (size 9 to 14) (size 15 to 20)
#    0.000    1.000    3.750    2.250    1.750    1.500 
#    4.500    1.250    0.000    0.000    0.000    0.000 
#    0.000    0.000    0.000    0.000    0.000    0.000 
#
# Total GULP energy -89494.672156 kJ/mol
# GULP energy per Si atom -5593.417010 kJ/mol
# Density = 2.523701 g / cm^3
# Si number density = 25.294579 Si / 1000 Ang^3
#
#
#
# Elastic Constant Matrix: (Units=GPa)
#
#
# Indices 1 2 3 4 5 6 
#
# 1 90.0966 22.8910 -7.9634 2.4768 -4.4773 -15.5246
# 2 22.8910 150.0058 43.5006 -12.5322 5.8977 -27.0053
# 3 -7.9634 43.5006 99.6808 -6.0779 12.4802 -6.7618
# 4 2.4768 -12.5322 -6.0779 54.3611 -11.3861 8.1006
# 5 -4.4773 5.8977 12.4802 -11.3861 31.9344 -1.3743
# 6 -15.5246 -27.0053 -6.7618 8.1006 -1.3743 41.4063
#
#
#
# Elastic Compliance Matrix: (Units=1/GPa)
#
#
# Indices 1 2 3 4 5 6 
#
# 1 0.012526 -0.001869 0.001879 -0.001158 0.001128 0.004048
# 2 -0.001869 0.008876 -0.003680 0.001107 0.000116 0.004275
# 3 0.001879 -0.003680 0.012280 -0.000438 -0.004001 0.000263
# 4 -0.001158 0.001107 -0.000438 0.020659 0.007016 -0.003593
# 5 0.001128 0.000116 -0.004001 0.007016 0.035501 -0.000349
# 6 0.004048 0.004275 0.000263 -0.003593 -0.000349 0.029191
#
#
# Mechanical properties :
#
#
# Convention : Reuss Voigt Hill
#
# Bulk Modulus (GPa) = 37.96124 50.73773 44.34949
# Shear Modulus (GPa) = 36.99507 44.29736 40.64621
#
# Velocity S-wave (km/s) = 3.82850 4.18934 4.01298
# Velocity P-wave (km/s) = 5.88077 6.59569 6.24846
#
# Compressibility (1/GPa) = 0.02634266
#
# Stress axis : x y z
#
# Youngs Moduli (GPa) = 79.83710 112.66060 81.43303
#
# Poissons Ratio (x) = 0.21051 -0.15300
# Poissons Ratio (y) = 0.14918 0.29966
# Poissons Ratio (z) = -0.15000 0.41457
#
# Static dielectric constant tensor:
#      x y z
#    x 1.985030 -0.008870 0.037170 
#    y -0.008870 2.013320 0.030390 
#    z 0.037170 0.030390 2.024280 
# 
# From -- ./inp_files/529955.got.cif
#   From: 2010.05.17/outbox.cif.g08.bks.cpg/sg2_265_cif.got.tgz:529955.got - 2010.06.03 11:33:40.
