data_PCOD9019517
_publ_section_title
;
Structure prediction by ZEFSAII (Michael W. Deem and Ramdas Pophale) SiO2 
 PCOD9019517
Probable space group: P -1
;
_chemical_formula_sum "Si O2"
_cell_formula_units_Z 12
_cell_length_a 15.251404
_cell_length_b 6.761690
_cell_length_c 5.123179
_cell_angle_alpha 104.856441
_cell_angle_beta 73.816846
_cell_angle_gamma 103.407238
_cell_volume 483.054873
_symmetry_space_group_name_H-M "P -1"
_symmetry_group_IT_number 2
_symmetry_cell_setting 'triclinic'
loop_
_space_group_symop_operation_xyz
x,y,z
-x,-y,-z
loop_
_atom_site_type_symbol
_atom_site_label
_atom_site_fract_x
_atom_site_fract_y
_atom_site_fract_z
Si Si1 0.939604 0.914990 0.272579
Si Si2 0.816500 0.608486 0.548116
Si Si3 0.776761 0.951632 0.087572
Si Si4 0.640878 0.604836 0.322156
Si Si5 0.446234 0.060453 0.315101
Si Si6 0.716880 0.261807 0.855831
O O1 0.901471 0.671410 0.296656
O O2 0.841861 0.985421 0.299473
O O3 0.000000 0.000000 0.500000
O O4 0.000000 0.000000 0.000000
O O5 0.721926 0.591253 0.457782
O O6 0.823703 0.805544 0.802767
O O7 0.797472 0.407436 0.678443
O O8 0.679632 0.801400 0.171218
O O9 0.760611 0.156138 0.024559
O O10 0.644634 0.404706 0.074470
O O11 0.561652 0.696373 0.572662
O O12 0.500000 0.000000 0.500000
O O13 0.344479 0.918405 0.322348
O O14 0.500000 0.000000 0.000000
#
# Coordination Sequence:
#
# PCOD9019517 Si02
#       6
#     2   2   2   2   2   2
#     4  11  22  42  72 108 153 187 227 307 368 412
#     4  10  22  42  75 103 137 196 250 282 356 438
#     4  10  21  44  73 104 139 200 240 293 356 433
#     4  10  24  44  71 103 144 190 256 288 358 443
#     4  12  28  47  71 107 149 187 236 309 377 420
#     4  11  25  45  76 103 143 195 255 296 349 445
#
# _framework density 24.841898
#
# number of rings (size 3 to 8) (size 9 to 14) (size 15 to 20)
#    0.000    1.333    3.333    1.000    7.000    1.333 
#    0.000    1.667    0.000    0.000    0.000    0.000 
#    0.000    0.000    0.000    0.000    0.000    0.000 
#
# Total GULP energy -67040.121951 kJ/mol
# GULP energy per Si atom -5586.676829 kJ/mol
# Density = 2.478536 g / cm^3
# Si number density = 24.841898 Si / 1000 Ang^3
#
#
#
# Elastic Constant Matrix: (Units=GPa)
#
#
# Indices 1 2 3 4 5 6 
#
# 1 84.5331 35.5709 20.3167 -4.3238 26.7691 7.0607
# 2 35.5709 171.3114 55.1172 -10.0326 2.0478 -0.0110
# 3 20.3167 55.1172 120.7632 -5.5523 13.9314 9.5699
# 4 -4.3238 -10.0326 -5.5523 66.3206 -1.9680 4.8118
# 5 26.7691 2.0478 13.9314 -1.9680 49.0633 -10.0988
# 6 7.0607 -0.0110 9.5699 4.8118 -10.0988 19.8835
#
#
#
# Elastic Compliance Matrix: (Units=1/GPa)
#
#
# Indices 1 2 3 4 5 6 
#
# 1 0.018738 -0.004131 0.001494 0.001377 -0.013409 -0.014519
# 2 -0.004131 0.007882 -0.003779 0.000345 0.004101 0.005290
# 3 0.001494 -0.003779 0.011161 0.000946 -0.005641 -0.008998
# 4 0.001377 0.000345 0.000946 0.015654 -0.001542 -0.005515
# 5 -0.013409 0.004101 -0.005641 -0.001542 0.034265 0.025255
# 6 -0.014519 0.005290 -0.008998 -0.005515 0.025255 0.073944
#
#
# Mechanical properties :
#
#
# Convention : Reuss Voigt Hill
#
# Bulk Modulus (GPa) = 40.08148 66.51302 53.29725
# Shear Modulus (GPa) = 27.35320 44.76036 36.05678
#
# Velocity S-wave (km/s) = 3.32187 4.24938 3.81392
# Velocity P-wave (km/s) = 5.55722 7.13505 6.39499
#
# Compressibility (1/GPa) = 0.02494918
#
# Stress axis : x y z
#
# Youngs Moduli (GPa) = 53.36638 126.86331 89.59478
#
# Poissons Ratio (x) = 0.52413 -0.13384
# Poissons Ratio (y) = 0.22048 0.33858
# Poissons Ratio (z) = -0.07972 0.47941
#
# Static dielectric constant tensor:
#      x y z
#    x 1.968610 0.027640 -0.113810 
#    y 0.027640 1.978220 -0.009510 
#    z -0.113810 -0.009510 2.137030 
# 
# From -- ./inp_files/101992.got.cif
#   From: 2010.05.17/outbox.cif.g08.bks.cpg/sg2_51_cif.got.tgz:101992.got - 2010.06.03 11:33:40.
