data_PCOD9019633
_publ_section_title
;
Structure prediction by ZEFSAII (Michael W. Deem and Ramdas Pophale) SiO2 
 PCOD9019633
Probable space group: P -1
;
_chemical_formula_sum "Si O2"
_cell_formula_units_Z 14
_cell_length_a 7.868812
_cell_length_b 13.750875
_cell_length_c 7.786270
_cell_angle_alpha 91.127741
_cell_angle_beta 131.940448
_cell_angle_gamma 105.697215
_cell_volume 579.178899
_symmetry_space_group_name_H-M "P -1"
_symmetry_group_IT_number 2
_symmetry_cell_setting 'triclinic'
loop_
_space_group_symop_operation_xyz
x,y,z
-x,-y,-z
loop_
_atom_site_type_symbol
_atom_site_label
_atom_site_fract_x
_atom_site_fract_y
_atom_site_fract_z
Si Si1 0.570996 0.152494 0.998240
Si Si2 0.433703 0.100085 0.504705
Si Si3 0.964418 0.686861 0.565536
Si Si4 0.245786 0.345669 0.238184
Si Si5 0.804133 0.472516 0.589479
Si Si6 0.897882 0.011807 0.243439
Si Si7 0.911643 0.273264 0.708547
O O1 0.499642 0.135806 0.749306
O O2 0.324097 0.100854 0.942767
O O3 0.753720 0.269382 0.172967
O O4 0.749376 0.088810 0.151498
O O5 0.627573 0.194793 0.529137
O O6 0.500000 0.000000 0.500000
O O7 0.137022 0.057919 0.286330
O O8 0.967903 0.741122 0.389031
O O9 0.792487 0.704774 0.598349
O O10 0.878622 0.561129 0.495538
O O11 0.523696 0.393505 0.366387
O O12 0.184886 0.449710 0.240777
O O13 0.060326 0.267665 0.977245
O O14 0.935438 0.393730 0.717038
O O15 0.000000 0.000000 0.500000
#
# Coordination Sequence:
#
# PCOD9019633 Si02
#       7
#     2   2   2   2   2   2   2
#     4  10  21  45  64  90 130 163 212 267 313 373
#     4  11  25  41  61  96 127 166 216 259 318 375
#     4  10  22  40  64  96 126 161 210 260 311 386
#     4   9  21  42  61  92 129 159 206 261 309 373
#     4   9  21  43  63  93 127 160 212 255 316 377
#     4   9  22  40  67  86 121 169 214 256 315 371
#     4  12  23  39  66  90 127 170 204 259 317 374
#
# _framework density 24.172152000000001
#
# number of rings (size 3 to 8) (size 9 to 14) (size 15 to 20)
#    0.857    1.143    1.429    0.857    8.000    1.143 
#    2.571    1.429    0.000    0.000    0.000    0.000 
#    0.000    0.000    0.000    0.000    0.000    0.000 
#
# Total GULP energy -78123.791651 kJ/mol
# GULP energy per Si atom -5580.270832 kJ/mol
# Density = 2.411714 g / cm^3
# Si number density = 24.172152 Si / 1000 Ang^3
#
#
#
# Elastic Constant Matrix: (Units=GPa)
#
#
# Indices 1 2 3 4 5 6 
#
# 1 88.5370 49.7641 51.3912 11.5182 8.5497 33.3805
# 2 49.7641 97.2705 14.6722 8.9084 13.1724 29.3766
# 3 51.3912 14.6722 71.2781 11.3419 7.5704 23.3978
# 4 11.5182 8.9084 11.3419 38.0565 12.1223 14.3570
# 5 8.5497 13.1724 7.5704 12.1223 34.4550 8.1168
# 6 33.3805 29.3766 23.3978 14.3570 8.1168 43.2557
#
#
#
# Elastic Compliance Matrix: (Units=1/GPa)
#
#
# Indices 1 2 3 4 5 6 
#
# 1 0.029715 -0.010871 -0.017268 0.000636 0.001951 -0.006785
# 2 -0.010871 0.017277 0.006705 0.001053 -0.004213 -0.006530
# 3 -0.017268 0.006705 0.027263 -0.001832 -0.002469 -0.004904
# 4 0.000636 0.001053 -0.001832 0.032957 -0.009548 -0.009362
# 5 0.001951 -0.004213 -0.002469 -0.009548 0.034182 -0.000554
# 6 -0.006785 -0.006530 -0.004904 -0.009362 -0.000554 0.038653
#
#
# Mechanical properties :
#
#
# Convention : Reuss Voigt Hill
#
# Bulk Modulus (GPa) = 31.85991 54.30449 43.08220
# Shear Modulus (GPa) = 21.42452 32.57064 26.99758
#
# Velocity S-wave (km/s) = 2.98036 3.67474 3.34561
# Velocity P-wave (km/s) = 5.00524 6.36549 5.72590
#
# Compressibility (1/GPa) = 0.03138741
#
# Stress axis : x y z
#
# Youngs Moduli (GPa) = 33.65286 57.87968 36.67990
#
# Poissons Ratio (x) = 0.62922 0.63339
# Poissons Ratio (y) = 0.36584 -0.24594
# Poissons Ratio (z) = 0.58112 -0.38809
#
# Static dielectric constant tensor:
#      x y z
#    x 1.980370 0.019160 -0.025450 
#    y 0.019160 1.952410 -0.007240 
#    z -0.025450 -0.007240 1.927670 
# 
# From -- ./inp_files/201658.got.cif
#   From: 2010.05.17/outbox.cif.g08.bks.cpg/sg2_101_cif.got.tgz:201658.got - 2010.06.03 11:33:40.
