data_PCOD9019112
_publ_section_title
;
Structure prediction by ZEFSAII (Michael W. Deem and Ramdas Pophale) SiO2 
 PCOD9019112
Probable space group: P -1
;
_chemical_formula_sum "Si O2"
_cell_formula_units_Z 16
_cell_length_a 7.491372
_cell_length_b 6.730893
_cell_length_c 16.557976
_cell_angle_alpha 80.899473
_cell_angle_beta 51.664304
_cell_angle_gamma 87.001365
_cell_volume 645.522683
_symmetry_space_group_name_H-M "P -1"
_symmetry_group_IT_number 2
_symmetry_cell_setting 'triclinic'
loop_
_space_group_symop_operation_xyz
x,y,z
-x,-y,-z
loop_
_atom_site_type_symbol
_atom_site_label
_atom_site_fract_x
_atom_site_fract_y
_atom_site_fract_z
Si Si1 0.861578 0.681173 0.696620
Si Si2 0.206653 0.414420 0.026172
Si Si3 0.784163 0.097010 0.511007
Si Si4 0.420336 0.384709 0.613683
Si Si5 0.382675 0.089082 0.112120
Si Si6 0.249826 0.783690 0.892994
Si Si7 0.498329 0.755051 0.666430
Si Si8 0.066406 0.696151 0.195154
O O1 0.751981 0.834134 0.777966
O O2 0.716890 0.674772 0.656205
O O3 0.109195 0.781592 0.601365
O O4 0.861190 0.464088 0.748864
O O5 0.364130 0.271273 0.041542
O O6 0.015715 0.268853 0.044754
O O7 0.089805 0.569955 0.112040
O O8 0.325456 0.563177 0.916956
O O9 0.634775 0.258384 0.588044
O O10 0.599886 0.912587 0.562501
O O11 0.000000 0.000000 0.500000
O O12 0.500000 0.500000 0.500000
O O13 0.370638 0.565821 0.675480
O O14 0.183159 0.251804 0.702860
O O15 0.634976 0.070355 0.080657
O O16 0.240901 0.891533 0.133673
O O17 0.351326 0.843124 0.773618
#
# Coordination Sequence:
#
# PCOD9019112 Si02
#       8
#     2   2   2   2   2   2   2   2
#     4   9  21  41  61  91 132 174 214 276 328 395
#     4  10  22  44  69  93 136 171 223 278 337 401
#     4  10  23  40  62  93 126 173 222 267 326 398
#     4  12  25  40  64  95 134 178 220 281 334 392
#     4  10  23  40  66  96 132 173 221 274 336 403
#     4  10  21  44  68  95 130 179 219 278 338 394
#     4  10  23  41  65  91 130 176 225 269 332 403
#     4  11  23  42  64 101 134 171 223 277 335 398
#
# _framework density 24.786116
#
# number of rings (size 3 to 8) (size 9 to 14) (size 15 to 20)
#    0.000    1.750    2.500    0.375    3.500    6.000 
#    0.000    3.750    0.000    0.000    0.000    0.000 
#    0.000    0.000    0.000    0.000    0.000    0.000 
#
# Total GULP energy -89288.065371 kJ/mol
# GULP energy per Si atom -5580.504086 kJ/mol
# Density = 2.472970 g / cm^3
# Si number density = 24.786116 Si / 1000 Ang^3
#
#
#
# Elastic Constant Matrix: (Units=GPa)
#
#
# Indices 1 2 3 4 5 6 
#
# 1 107.9148 39.0241 29.0628 5.6800 -6.4433 3.2598
# 2 39.0241 90.4784 29.8922 -5.5004 -5.4423 1.6767
# 3 29.0628 29.8922 83.2508 0.4641 -15.0460 2.0828
# 4 5.6800 -5.5004 0.4641 33.6304 -4.1779 -5.7047
# 5 -6.4433 -5.4423 -15.0460 -4.1779 35.8789 -6.7043
# 6 3.2598 1.6767 2.0828 -5.7047 -6.7043 36.7797
#
#
#
# Elastic Compliance Matrix: (Units=1/GPa)
#
#
# Indices 1 2 3 4 5 6 
#
# 1 0.011702 -0.004386 -0.002494 -0.002879 -0.000164 -0.001172
# 2 -0.004386 0.014339 -0.003583 0.003267 0.000360 0.000510
# 3 -0.002494 -0.003583 0.015150 0.000413 0.005521 0.000597
# 4 -0.002879 0.003267 0.000413 0.032400 0.005051 0.006029
# 5 -0.000164 0.000360 0.005521 0.005051 0.031977 0.006298
# 6 -0.001172 0.000510 0.000597 0.006029 0.006298 0.029319
#
#
# Mechanical properties :
#
#
# Convention : Reuss Voigt Hill
#
# Bulk Modulus (GPa) = 49.35115 53.06689 51.20902
# Shear Modulus (GPa) = 30.75643 33.50213 32.12928
#
# Velocity S-wave (km/s) = 3.52642 3.68047 3.60427
# Velocity P-wave (km/s) = 6.04441 6.28630 6.16654
#
# Compressibility (1/GPa) = 0.02026295
#
# Stress axis : x y z
#
# Youngs Moduli (GPa) = 85.45889 69.74132 66.00680
#
# Poissons Ratio (x) = 0.30588 0.16465
# Poissons Ratio (y) = 0.37482 0.23651
# Poissons Ratio (z) = 0.21317 0.24990
#
# Static dielectric constant tensor:
#      x y z
#    x 2.055950 0.026900 -0.016340 
#    y 0.026900 1.963700 -0.014820 
#    z -0.016340 -0.014820 1.958450 
# 
# From -- ./inp_files/47813.got.cif
#   From: 2010.05.17/outbox.cif.g08.bks.cpg/sg2_24_cif.got.tgz:47813.got - 2010.06.03 11:33:40.
