data_PCOD9019745
_publ_section_title
;
Structure prediction by ZEFSAII (Michael W. Deem and Ramdas Pophale) SiO2 
 PCOD9019745
Probable space group: P -1
;
_chemical_formula_sum "Si O2"
_cell_formula_units_Z 14
_cell_length_a 10.853416
_cell_length_b 16.414433
_cell_length_c 8.945327
_cell_angle_alpha 69.492545
_cell_angle_beta 109.433556
_cell_angle_gamma 158.441867
_cell_volume 548.353182
_symmetry_space_group_name_H-M "P -1"
_symmetry_group_IT_number 2
_symmetry_cell_setting 'triclinic'
loop_
_space_group_symop_operation_xyz
x,y,z
-x,-y,-z
loop_
_atom_site_type_symbol
_atom_site_label
_atom_site_fract_x
_atom_site_fract_y
_atom_site_fract_z
Si Si1 0.535183 0.762200 0.158913
Si Si2 0.670509 0.409143 0.334252
Si Si3 0.534371 0.623016 0.469141
Si Si4 0.837063 0.155705 0.515024
Si Si5 0.994631 0.827079 0.107436
Si Si6 0.698165 0.503504 0.986513
Si Si7 0.587186 0.192978 0.642769
O O1 0.709606 0.794239 0.313885
O O2 0.247194 0.530170 0.105342
O O3 0.416595 0.762548 0.227901
O O4 0.774735 0.957965 0.012633
O O5 0.422042 0.324404 0.375548
O O6 0.615426 0.283631 0.468719
O O7 0.082296 0.664158 0.326553
O O8 0.571551 0.361908 0.156023
O O9 0.500000 0.500000 0.500000
O O10 0.140161 0.407254 0.448432
O O11 0.899142 0.139274 0.703937
O O12 0.500000 0.000000 0.500000
O O13 0.768042 0.065104 0.386909
O O14 0.616181 0.629840 0.100697
O O15 0.960346 0.728201 0.031966
#
# Coordination Sequence:
#
# PCOD9019745 Si02
#       7
#     2   2   2   2   2   2   2
#     4  11  26  43  68 110 142 178 237 301 346 407
#     4  10  21  45  67  99 139 193 227 285 359 425
#     4  11  24  43  71 105 139 180 238 291 347 412
#     4  12  23  47  75  99 140 195 239 282 356 436
#     4  11  25  45  71 103 140 190 236 285 362 425
#     4  11  23  44  71  96 149 189 227 287 361 425
#     4  10  23  42  70 103 140 185 243 285 351 422
#
# _framework density 25.530989999999999
#
# number of rings (size 3 to 8) (size 9 to 14) (size 15 to 20)
#    0.000    1.143    2.857    2.143    4.000    1.714 
#    2.571    6.429    0.000    0.000    0.000    0.000 
#    0.000    0.000    0.000    0.000    0.000    0.000 
#
# Total GULP energy -78042.966762 kJ/mol
# GULP energy per Si atom -5574.497626 kJ/mol
# Density = 2.547288 g / cm^3
# Si number density = 25.530990 Si / 1000 Ang^3
#
#
#
# Elastic Constant Matrix: (Units=GPa)
#
#
# Indices 1 2 3 4 5 6 
#
# 1 110.2158 11.6174 47.4313 11.2599 -10.7882 -20.4565
# 2 11.6174 80.1770 18.8448 5.0067 1.2354 -28.3612
# 3 47.4313 18.8448 165.0155 1.9596 -4.2957 -13.0681
# 4 11.2599 5.0067 1.9596 43.6865 -14.3472 -0.3742
# 5 -10.7882 1.2354 -4.2957 -14.3472 48.8308 18.6511
# 6 -20.4565 -28.3612 -13.0681 -0.3742 18.6511 26.7672
#
#
#
# Elastic Compliance Matrix: (Units=1/GPa)
#
#
# Indices 1 2 3 4 5 6 
#
# 1 0.013507 0.006642 -0.003107 -0.006310 -0.007261 0.020814
# 2 0.006642 0.033135 -0.001706 -0.013159 -0.025001 0.056587
# 3 -0.003107 -0.001706 0.007059 0.000901 0.000707 -0.001216
# 4 -0.006310 -0.013159 0.000901 0.032608 0.021017 -0.032513
# 5 -0.007261 -0.025001 0.000707 0.021017 0.051424 -0.067232
# 6 0.020814 0.056587 -0.001216 -0.032513 -0.067232 0.159022
#
#
# Mechanical properties :
#
#
# Convention : Reuss Voigt Hill
#
# Bulk Modulus (GPa) = 17.43418 56.79949 37.11684
# Shear Modulus (GPa) = 16.01451 42.35788 29.18620
#
# Velocity S-wave (km/s) = 2.50723 4.07760 3.38474
# Velocity P-wave (km/s) = 3.90193 6.66818 5.46304
#
# Compressibility (1/GPa) = 0.05735858
#
# Stress axis : x y z
#
# Youngs Moduli (GPa) = 74.03532 30.17984 141.65765
#
# Poissons Ratio (x) = -0.20044 0.44008
# Poissons Ratio (y) = -0.49172 0.24171
# Poissons Ratio (z) = 0.23000 0.05150
#
# Static dielectric constant tensor:
#      x y z
#    x 2.179130 -0.066550 -0.085810 
#    y -0.066550 2.065760 0.065330 
#    z -0.085810 0.065330 2.038350 
# 
# From -- ./inp_files/279322.got.cif
#   From: 2010.05.17/outbox.cif.g08.bks.cpg/sg2_140_cif.got.tgz:279322.got - 2010.06.03 11:33:40.
