data_PCOD9019787
_publ_section_title
;
Structure prediction by ZEFSAII (Michael W. Deem and Ramdas Pophale) SiO2 
 PCOD9019787
Probable space group: P -1
;
_chemical_formula_sum "Si O2"
_cell_formula_units_Z 14
_cell_length_a 14.463267
_cell_length_b 5.143435
_cell_length_c 12.713526
_cell_angle_alpha 115.442036
_cell_angle_beta 40.492798
_cell_angle_gamma 113.730487
_cell_volume 549.934752
_symmetry_space_group_name_H-M "P -1"
_symmetry_group_IT_number 2
_symmetry_cell_setting 'triclinic'
loop_
_space_group_symop_operation_xyz
x,y,z
-x,-y,-z
loop_
_atom_site_type_symbol
_atom_site_label
_atom_site_fract_x
_atom_site_fract_y
_atom_site_fract_z
Si Si1 0.307888 0.866387 0.156376
Si Si2 0.878938 0.739664 0.519371
Si Si3 0.482175 0.091120 0.851463
Si Si4 0.204743 0.335862 0.060258
Si Si5 0.094995 0.929560 0.654209
Si Si6 0.444927 0.805403 0.613926
Si Si7 0.170573 0.039295 0.839611
O O1 0.376891 0.765037 0.186334
O O2 0.256493 0.171255 0.283132
O O3 0.178256 0.639133 0.185483
O O4 0.415141 0.884378 0.967915
O O5 0.887233 0.395999 0.458598
O O6 0.864236 0.827099 0.425484
O O7 0.000000 0.000000 0.500000
O O8 0.355188 0.275966 0.966811
O O9 0.505352 0.937793 0.695282
O O10 0.217830 0.322186 0.920359
O O11 0.074146 0.103257 0.172659
O O12 0.182395 0.016681 0.700440
O O13 0.500000 0.500000 0.500000
O O14 0.500000 0.000000 0.500000
O O15 0.271774 0.814886 0.761927
O O16 0.000000 0.000000 0.000000
#
# Coordination Sequence:
#
# PCOD9019787 Si02
#       7
#     2   2   2   2   2   2   2
#     4  11  24  41  70  97 141 183 240 280 360 421
#     4  12  25  43  68 102 142 185 228 295 351 418
#     4  10  25  44  66 102 134 189 233 290 350 432
#     4  10  21  45  68  97 137 184 234 290 351 424
#     4  11  25  44  70 103 141 182 237 291 356 419
#     4  11  27  48  75 106 147 189 243 303 368 424
#     4   9  23  48  73 106 142 195 243 300 361 440
#
# _framework density 25.457564000000001
#
# number of rings (size 3 to 8) (size 9 to 14) (size 15 to 20)
#    0.000    1.429    1.429    1.714   10.000    0.000 
#    2.571    2.857    0.000    0.000    0.000    0.000 
#    0.000    0.000    0.000    0.000    0.000    0.000 
#
# Total GULP energy -78237.418236 kJ/mol
# GULP energy per Si atom -5588.387017 kJ/mol
# Density = 2.539962 g / cm^3
# Si number density = 25.457564 Si / 1000 Ang^3
#
#
#
# Elastic Constant Matrix: (Units=GPa)
#
#
# Indices 1 2 3 4 5 6 
#
# 1 145.7870 38.9338 44.9552 17.0813 30.5575 5.2484
# 2 38.9338 92.1018 44.2187 12.0360 6.9768 -13.7493
# 3 44.9552 44.2187 134.9076 19.5759 16.0862 -2.9093
# 4 17.0813 12.0360 19.5759 47.8723 -0.6471 7.1077
# 5 30.5575 6.9768 16.0862 -0.6471 54.5979 9.4241
# 6 5.2484 -13.7493 -2.9093 7.1077 9.4241 28.7354
#
#
#
# Elastic Compliance Matrix: (Units=1/GPa)
#
#
# Indices 1 2 3 4 5 6 
#
# 1 0.009189 -0.002867 -0.001390 -0.001842 -0.004152 -0.001374
# 2 -0.002867 0.015397 -0.003410 -0.002728 -0.000858 0.008502
# 3 -0.001390 -0.003410 0.009624 -0.002735 -0.001804 0.000865
# 4 -0.001842 -0.002728 -0.002735 0.024689 0.003972 -0.008655
# 5 -0.004152 -0.000858 -0.001804 0.003972 0.022757 -0.008281
# 6 -0.001374 0.008502 0.000865 -0.008655 -0.008281 0.044063
#
#
# Mechanical properties :
#
#
# Convention : Reuss Voigt Hill
#
# Bulk Modulus (GPa) = 52.97511 69.89019 61.43265
# Shear Modulus (GPa) = 33.93407 42.55369 38.24388
#
# Velocity S-wave (km/s) = 3.65494 4.09290 3.88010
# Velocity P-wave (km/s) = 6.21818 7.06038 6.65262
#
# Compressibility (1/GPa) = 0.01887679
#
# Stress axis : x y z
#
# Youngs Moduli (GPa) = 108.82553 64.94638 103.90945
#
# Poissons Ratio (x) = 0.18621 0.14439
# Poissons Ratio (y) = 0.31202 0.35432
# Poissons Ratio (z) = 0.15122 0.22146
#
# Static dielectric constant tensor:
#      x y z
#    x 2.069540 0.056730 -0.095730 
#    y 0.056730 2.029350 -0.031040 
#    z -0.095730 -0.031040 2.095580 
# 
# From -- ./inp_files/84830.got.cif
#   From: 2010.05.17/outbox.cif.g08.bks.cpg/sg2_43_cif.got.tgz:84830.got - 2010.06.03 11:33:40.
