data_PCOD9019665
_publ_section_title
;
Structure prediction by ZEFSAII (Michael W. Deem and Ramdas Pophale) SiO2 
 PCOD9019665
Probable space group: P -1
;
_chemical_formula_sum "Si O2"
_cell_formula_units_Z 13
_cell_length_a 16.012668
_cell_length_b 11.861903
_cell_length_c 6.799095
_cell_angle_alpha 74.871012
_cell_angle_beta 75.276148
_cell_angle_gamma 142.191500
_cell_volume 480.207684
_symmetry_space_group_name_H-M "P -1"
_symmetry_group_IT_number 2
_symmetry_cell_setting 'triclinic'
loop_
_space_group_symop_operation_xyz
x,y,z
-x,-y,-z
loop_
_atom_site_type_symbol
_atom_site_label
_atom_site_fract_x
_atom_site_fract_y
_atom_site_fract_z
Si Si1 0.000000 0.000000 0.000000
Si Si2 0.499402 0.018177 0.759794
Si Si3 0.674886 0.035305 0.402289
Si Si4 0.108325 0.344509 0.675120
Si Si5 0.553109 0.414330 0.798694
Si Si6 0.897759 0.262207 0.557052
Si Si7 0.604515 0.526766 0.173961
O O1 0.062841 0.931807 0.962504
O O2 0.839143 0.798403 0.995640
O O3 0.513035 0.912324 0.690768
O O4 0.313978 0.865384 0.838297
O O5 0.728694 0.369799 0.437091
O O6 0.500000 0.000000 0.000000
O O7 0.561626 0.777998 0.513409
O O8 0.864602 0.240540 0.351397
O O9 0.238386 0.383342 0.526635
O O10 0.029961 0.315185 0.541472
O O11 0.476342 0.443064 0.755003
O O12 0.611505 0.511084 0.944312
O O13 0.349320 0.073540 0.073208
O O14 0.000000 0.500000 0.500000
#
# Coordination Sequence:
#
# PCOD9019665 Si02
#       7
#     1   2   2   2   2   2   2
#     4  12  24  44  68 102 140 184 246 292 346 426
#     4  11  22  42  72 102 135 184 238 285 362 429
#     4  10  22  42  69  97 145 187 220 304 362 406
#     4  12  25  44  72 103 138 189 241 292 356 426
#     4  10  24  44  70  96 143 189 229 295 356 421
#     4  11  22  43  71 103 144 184 236 293 358 429
#     4  10  21  45  65  99 140 184 235 291 359 416
#
# _framework density 27.071619999999999
#
# number of rings (size 3 to 8) (size 9 to 14) (size 15 to 20)
#    0.000    1.231    4.615    1.846    0.000    1.231 
#    0.000    0.769    0.000    0.000    0.000    0.000 
#    0.000    0.000    0.000    0.000    0.000    0.000 
#
# Total GULP energy -72608.256937 kJ/mol
# GULP energy per Si atom -5585.250534 kJ/mol
# Density = 2.701000 g / cm^3
# Si number density = 27.071620 Si / 1000 Ang^3
#
#
#
# Elastic Constant Matrix: (Units=GPa)
#
#
# Indices 1 2 3 4 5 6 
#
# 1 225.5169 96.4360 35.0518 -2.8695 21.9074 21.3650
# 2 96.4360 189.6616 58.7383 -33.4502 4.3206 34.8644
# 3 35.0518 58.7383 78.2550 -12.5167 -5.0270 4.0949
# 4 -2.8695 -33.4502 -12.5167 62.9574 -1.2715 5.6271
# 5 21.9074 4.3206 -5.0270 -1.2715 42.0400 -1.2417
# 6 21.3650 34.8644 4.0949 5.6271 -1.2417 73.4411
#
#
#
# Elastic Compliance Matrix: (Units=1/GPa)
#
#
# Indices 1 2 3 4 5 6 
#
# 1 0.006165 -0.002999 -0.000941 -0.001539 -0.003071 -0.000252
# 2 -0.002999 0.009897 -0.005176 0.004438 -0.000054 -0.003879
# 3 -0.000941 -0.005176 0.017283 0.000548 0.003158 0.001779
# 4 -0.001539 0.004438 0.000548 0.018575 0.000882 -0.003098
# 5 -0.003071 -0.000054 0.003158 0.000882 0.025830 0.001112
# 6 -0.000252 -0.003879 0.001779 -0.003098 0.001112 0.015688
#
#
# Mechanical properties :
#
#
# Convention : Reuss Voigt Hill
#
# Bulk Modulus (GPa) = 66.16566 97.09841 81.63203
# Shear Modulus (GPa) = 42.84155 55.90154 49.37154
#
# Velocity S-wave (km/s) = 3.98241 4.54910 4.27516
# Velocity P-wave (km/s) = 6.75575 7.97104 7.38843
#
# Compressibility (1/GPa) = 0.01511358
#
# Stress axis : x y z
#
# Youngs Moduli (GPa) = 162.19541 101.03694 57.86004
#
# Poissons Ratio (x) = 0.30297 0.05445
# Poissons Ratio (y) = 0.48636 0.29951
# Poissons Ratio (z) = 0.15264 0.52301
#
# Static dielectric constant tensor:
#      x y z
#    x 5.782230 -1.418980 10.614580 
#    y -1.418980 2.573960 -4.098710 
#    z 10.614580 -4.098710 32.841360 
# 
# From -- ./inp_files/302845.got.cif
#   From: 2010.05.17/outbox.cif.g08.bks.cpg/sg2_152_cif.got.tgz:302845.got - 2010.06.03 11:33:40.
