data_PCOD9019315
_publ_section_title
;
Structure prediction by ZEFSAII (Michael W. Deem and Ramdas Pophale) SiO2 
 PCOD9019315
Probable space group: P -1
;
_chemical_formula_sum "Si O2"
_cell_formula_units_Z 14
_cell_length_a 22.080893
_cell_length_b 16.672407
_cell_length_c 13.580776
_cell_angle_alpha 25.481134
_cell_angle_beta 28.381715
_cell_angle_gamma 17.160610
_cell_volume 628.735878
_symmetry_space_group_name_H-M "P -1"
_symmetry_group_IT_number 2
_symmetry_cell_setting 'triclinic'
loop_
_space_group_symop_operation_xyz
x,y,z
-x,-y,-z
loop_
_atom_site_type_symbol
_atom_site_label
_atom_site_fract_x
_atom_site_fract_y
_atom_site_fract_z
Si Si1 0.629167 0.266505 0.379207
Si Si2 0.966521 0.910023 0.742694
Si Si3 0.654144 0.747016 0.140430
Si Si4 0.417025 0.867230 0.028620
Si Si5 0.685471 0.231930 0.107688
Si Si6 0.069086 0.789197 0.350090
Si Si7 0.499120 0.930361 0.467614
O O1 0.459609 0.298832 0.594943
O O2 0.555003 0.540537 0.237447
O O3 0.646119 0.308018 0.194776
O O4 0.851635 0.946048 0.458028
O O5 0.146821 0.552089 0.871078
O O6 0.754316 0.043340 0.888345
O O7 0.965135 0.042693 0.692115
O O8 0.000000 0.000000 0.500000
O O9 0.500000 0.000000 0.000000
O O10 0.687446 0.876379 0.026192
O O11 0.536199 0.866598 0.785254
O O12 0.681469 0.013962 0.345822
O O13 0.500000 0.500000 0.000000
O O14 0.872661 0.138059 0.903331
O O15 0.270423 0.426399 0.483080
O O16 0.500000 0.000000 0.500000
#
# Coordination Sequence:
#
# PCOD9019315 Si02
#       7
#     2   2   2   2   2   2   2
#     4  12  25  47  70 104 145 180 225 289 355 409
#     4  12  25  45  71 100 138 190 239 278 339 413
#     4  12  28  45  69 104 142 186 232 286 344 407
#     4  12  24  45  71  99 138 184 239 283 336 408
#     4  10  21  44  70  98 136 176 229 280 343 412
#     4  11  25  43  71 101 144 183 222 292 355 401
#     4  11  22  42  70 104 133 179 236 283 337 419
#
# _framework density 22.266902000000002
#
# number of rings (size 3 to 8) (size 9 to 14) (size 15 to 20)
#    0.000    0.571    2.857    6.857    4.000    1.143 
#    2.571    1.429    0.000    0.000    0.000    0.000 
#    0.000    0.000    0.000    0.000    0.000    0.000 
#
# Total GULP energy -78293.418733 kJ/mol
# GULP energy per Si atom -5592.387052 kJ/mol
# Density = 2.221622 g / cm^3
# Si number density = 22.266902 Si / 1000 Ang^3
#
#
#
# Elastic Constant Matrix: (Units=GPa)
#
#
# Indices 1 2 3 4 5 6 
#
# 1 82.9420 22.9277 -10.9823 -3.9545 -4.0303 22.0623
# 2 22.9277 76.2473 -9.0986 -11.9353 2.4045 13.9143
# 3 -10.9823 -9.0986 70.6286 -4.4988 -1.5757 3.6050
# 4 -3.9545 -11.9353 -4.4988 34.0881 -0.3784 -3.6638
# 5 -4.0303 2.4045 -1.5757 -0.3784 37.2702 3.4883
# 6 22.0623 13.9143 3.6050 -3.6638 3.4883 46.1620
#
#
#
# Elastic Compliance Matrix: (Units=1/GPa)
#
#
# Indices 1 2 3 4 5 6 
#
# 1 0.015134 -0.003086 0.002372 0.000301 0.002562 -0.006657
# 2 -0.003086 0.015634 0.001984 0.005053 -0.000934 -0.002920
# 3 0.002372 0.001984 0.015119 0.002678 0.001055 -0.002779
# 4 0.000301 0.005053 0.002678 0.031561 0.000082 0.000623
# 5 0.002562 -0.000934 0.001055 0.000082 0.027504 -0.003097
# 6 -0.006657 -0.002920 -0.002779 0.000623 -0.003097 0.026225
#
#
# Mechanical properties :
#
#
# Convention : Reuss Voigt Hill
#
# Bulk Modulus (GPa) = 20.65061 26.16794 23.40928
# Shear Modulus (GPa) = 34.53535 38.63547 36.58541
#
# Velocity S-wave (km/s) = 3.94251 4.16998 4.05784
# Velocity P-wave (km/s) = 5.47894 5.91291 5.70005
#
# Compressibility (1/GPa) = 0.04842471
#
# Stress axis : x y z
#
# Youngs Moduli (GPa) = 66.07851 63.96512 66.14217
#
# Poissons Ratio (x) = 0.19743 -0.15687
# Poissons Ratio (y) = 0.20395 -0.13124
# Poissons Ratio (z) = -0.15672 -0.12692
#
# Static dielectric constant tensor:
#      x y z
#    x 1.871750 0.072000 0.038750 
#    y 0.072000 2.016200 -0.025400 
#    z 0.038750 -0.025400 1.957290 
# 
# From -- ./inp_files/131664.got.cif
#   From: 2010.05.17/outbox.cif.g08.bks.cpg/sg2_66_cif.got.tgz:131664.got - 2010.06.03 11:33:40.
