data_PCOD9019420
_publ_section_title
;
Structure prediction by ZEFSAII (Michael W. Deem and Ramdas Pophale) SiO2 
 PCOD9019420
Probable space group: P -1
;
_chemical_formula_sum "Si O2"
_cell_formula_units_Z 15
_cell_length_a 14.415493
_cell_length_b 6.879740
_cell_length_c 8.628973
_cell_angle_alpha 67.147673
_cell_angle_beta 83.581346
_cell_angle_gamma 59.875817
_cell_volume 678.378067
_symmetry_space_group_name_H-M "P -1"
_symmetry_group_IT_number 2
_symmetry_cell_setting 'triclinic'
loop_
_space_group_symop_operation_xyz
x,y,z
-x,-y,-z
loop_
_atom_site_type_symbol
_atom_site_label
_atom_site_fract_x
_atom_site_fract_y
_atom_site_fract_z
Si Si1 0.325968 0.082206 0.188234
Si Si2 0.451889 0.163116 0.609936
Si Si3 0.829508 0.555408 0.652760
Si Si4 0.013516 0.541763 0.803213
Si Si5 0.258283 0.159209 0.826637
Si Si6 0.000000 0.000000 0.500000
Si Si7 0.719394 0.320854 0.558826
Si Si8 0.182638 0.979166 0.657678
O O1 0.261763 0.320903 0.234765
O O2 0.450733 0.935821 0.257326
O O3 0.278053 0.907468 0.292163
O O4 0.305093 0.131644 0.997202
O O5 0.350752 0.152714 0.703096
O O6 0.397827 0.443173 0.481756
O O7 0.500000 0.000000 0.500000
O O8 0.806630 0.380327 0.601629
O O9 0.944096 0.448552 0.748685
O O10 0.816268 0.782281 0.482485
O O11 0.139871 0.397261 0.783140
O O12 0.971881 0.812541 0.662505
O O13 0.000000 0.500000 0.000000
O O14 0.230033 0.957873 0.826721
O O15 0.066370 0.017001 0.633384
O O16 0.744606 0.249327 0.396222
#
# Coordination Sequence:
#
# PCOD9019420 Si02
#       8
#     2   2   2   2   2   1   2   2
#     4  11  24  43  68 106 139 180 242 293 358 429
#     4  12  23  46  75  98 136 192 240 296 355 422
#     4  10  21  44  71  99 140 186 235 293 358 427
#     4  11  24  45  73 107 151 190 235 306 368 430
#     4  12  25  45  68 106 147 185 230 300 367 423
#     4  10  24  40  70 104 138 196 246 280 358 448
#     4  11  22  44  71  99 135 188 239 292 354 432
#     4  10  23  41  64 104 141 182 243 286 349 440
#
# _framework density 22.111564999999999
#
# number of rings (size 3 to 8) (size 9 to 14) (size 15 to 20)
#    0.000    1.067    4.000    2.400    1.867    2.133 
#    2.400    2.667    0.000    0.000    0.000    0.000 
#    0.000    0.000    0.000    0.000    0.000    0.000 
#
# Total GULP energy -83567.487115 kJ/mol
# GULP energy per Si atom -5571.165808 kJ/mol
# Density = 2.206124 g / cm^3
# Si number density = 22.111565 Si / 1000 Ang^3
#
#
#
# Elastic Constant Matrix: (Units=GPa)
#
#
# Indices 1 2 3 4 5 6 
#
# 1 144.2261 17.8599 30.8325 2.8988 8.2310 5.8275
# 2 17.8599 90.7617 20.9856 14.0266 -5.8538 -0.4251
# 3 30.8325 20.9856 77.4455 19.9041 9.1932 -9.8123
# 4 2.8988 14.0266 19.9041 25.9912 0.9760 3.8982
# 5 8.2310 -5.8538 9.1932 0.9760 33.0900 11.3419
# 6 5.8275 -0.4251 -9.8123 3.8982 11.3419 42.1374
#
#
#
# Elastic Compliance Matrix: (Units=1/GPa)
#
#
# Indices 1 2 3 4 5 6 
#
# 1 0.007956 -0.001187 -0.003845 0.003040 -0.000469 -0.002163
# 2 -0.001187 0.012773 -0.002184 -0.005117 0.003552 -0.000698
# 3 -0.003845 -0.002184 0.021136 -0.015632 -0.007930 0.009012
# 4 0.003040 -0.005117 -0.015632 0.054251 0.004639 -0.010380
# 5 -0.000469 0.003552 -0.007930 0.004639 0.037210 -0.012191
# 6 -0.002163 -0.000698 0.009012 -0.010380 -0.012191 0.030364
#
#
# Mechanical properties :
#
#
# Convention : Reuss Voigt Hill
#
# Bulk Modulus (GPa) = 36.45230 50.19881 43.32555
# Shear Modulus (GPa) = 26.70025 36.42742 31.56383
#
# Velocity S-wave (km/s) = 3.47871 4.06327 3.78230
# Velocity P-wave (km/s) = 5.71460 6.69069 6.22182
#
# Compressibility (1/GPa) = 0.02743311
#
# Stress axis : x y z
#
# Youngs Moduli (GPa) = 125.69794 78.29101 47.31360
#
# Poissons Ratio (x) = 0.09289 0.18194
# Poissons Ratio (y) = 0.14914 0.10331
# Poissons Ratio (z) = 0.48335 0.17096
#
# Static dielectric constant tensor:
#      x y z
#    x 1.852210 -0.034480 0.004550 
#    y -0.034480 1.865180 0.004700 
#    z 0.004550 0.004700 1.830070 
# 
# From -- ./inp_files/287732.got.cif
#   From: 2010.05.17/outbox.cif.g08.bks.cpg/sg2_144_cif.got.tgz:287732.got - 2010.06.03 11:33:40.
