data_PCOD9019184
_publ_section_title
;
Structure prediction by ZEFSAII (Michael W. Deem and Ramdas Pophale) SiO2 
 PCOD9019184
Probable space group: P -1
;
_chemical_formula_sum "Si O2"
_cell_formula_units_Z 16
_cell_length_a 21.575425
_cell_length_b 15.243544
_cell_length_c 8.875662
_cell_angle_alpha 66.702636
_cell_angle_beta 123.656784
_cell_angle_gamma 160.742463
_cell_volume 709.391009
_symmetry_space_group_name_H-M "P -1"
_symmetry_group_IT_number 2
_symmetry_cell_setting 'triclinic'
loop_
_space_group_symop_operation_xyz
x,y,z
-x,-y,-z
loop_
_atom_site_type_symbol
_atom_site_label
_atom_site_fract_x
_atom_site_fract_y
_atom_site_fract_z
Si Si1 0.087543 0.512989 0.027692
Si Si2 0.518029 0.146803 0.622851
Si Si3 0.114462 0.082539 0.454026
Si Si4 0.245511 0.704706 0.781117
Si Si5 0.398704 0.120878 0.192342
Si Si6 0.565261 0.627529 0.844157
Si Si7 0.881532 0.733771 0.879811
Si Si8 0.781341 0.539536 0.202562
O O1 0.096177 0.539304 0.842129
O O2 0.328615 0.763414 0.242926
O O3 0.870618 0.179906 0.994417
O O4 0.000000 0.500000 0.000000
O O5 0.436507 0.088404 0.394273
O O6 0.704924 0.446992 0.747851
O O7 0.297761 0.852816 0.633309
O O8 0.373345 0.357615 0.651354
O O9 0.135957 0.185211 0.278464
O O10 0.000000 0.000000 0.500000
O O11 0.952106 0.797190 0.377810
O O12 0.172796 0.516130 0.734165
O O13 0.500000 0.000000 0.000000
O O14 0.499953 0.340872 0.246493
O O15 0.524633 0.238971 0.131844
O O16 0.500000 0.500000 0.000000
O O17 0.839018 0.948802 0.960209
O O18 0.802821 0.625298 0.019586
#
# Coordination Sequence:
#
# PCOD9019184 Si02
#       8
#     2   2   2   2   2   2   2   2
#     4  11  24  43  71 101 139 181 238 292 351 422
#     4  11  23  44  73  98 146 186 232 293 353 417
#     4  12  24  45  71 105 140 186 238 290 349 419
#     4  10  21  44  69 103 142 185 230 292 356 415
#     4  12  24  42  69 104 136 187 237 281 354 421
#     4  12  24  43  73 100 137 184 238 292 346 416
#     4  12  23  45  70 103 143 184 233 296 354 416
#     4  12  24  42  72 102 146 188 232 291 356 417
#
# _framework density 22.554556999999999
#
# number of rings (size 3 to 8) (size 9 to 14) (size 15 to 20)
#    0.000    0.500    7.500    1.875    0.000    3.000 
#    0.000    2.500    0.000    0.000    0.000    0.000 
#    0.000    0.000    0.000    0.000    0.000    0.000 
#
# Total GULP energy -89414.981605 kJ/mol
# GULP energy per Si atom -5588.436350 kJ/mol
# Density = 2.250322 g / cm^3
# Si number density = 22.554557 Si / 1000 Ang^3
#
#
#
# Elastic Constant Matrix: (Units=GPa)
#
#
# Indices 1 2 3 4 5 6 
#
# 1 86.3814 47.5011 32.4270 1.1228 -16.6613 5.0806
# 2 47.5011 132.0090 36.6432 -14.7998 -6.6063 18.6155
# 3 32.4270 36.6432 91.9950 -11.0561 5.4048 10.5660
# 4 1.1228 -14.7998 -11.0561 46.3316 -6.5869 -11.8408
# 5 -16.6613 -6.6063 5.4048 -6.5869 27.9563 2.1028
# 6 5.0806 18.6155 10.5660 -11.8408 2.1028 51.2135
#
#
#
# Elastic Compliance Matrix: (Units=1/GPa)
#
#
# Indices 1 2 3 4 5 6 
#
# 1 0.018218 -0.004773 -0.005359 -0.001720 0.010345 0.000211
# 2 -0.004773 0.010496 -0.001970 0.002499 0.000785 -0.002390
# 3 -0.005359 -0.001970 0.014225 0.001792 -0.005910 -0.001030
# 4 -0.001720 0.002499 0.001792 0.024642 0.004694 0.004397
# 5 0.010345 0.000785 -0.005910 0.004694 0.044432 -0.000831
# 6 0.000211 -0.002390 -0.001030 0.004397 -0.000831 0.021637
#
#
# Mechanical properties :
#
#
# Convention : Reuss Voigt Hill
#
# Bulk Modulus (GPa) = 53.37530 60.39199 56.88364
# Shear Modulus (GPa) = 30.46948 38.02122 34.24535
#
# Velocity S-wave (km/s) = 3.67948 4.11024 3.90081
# Velocity P-wave (km/s) = 6.46280 7.02563 6.75008
#
# Compressibility (1/GPa) = 0.01873526
#
# Stress axis : x y z
#
# Youngs Moduli (GPa) = 54.89007 95.27579 70.30049
#
# Poissons Ratio (x) = 0.45473 0.37676
# Poissons Ratio (y) = 0.26198 0.13847
# Poissons Ratio (z) = 0.29417 0.18766
#
# Static dielectric constant tensor:
#      x y z
#    x 1.895520 -0.072170 -0.048750 
#    y -0.072170 1.950530 0.067260 
#    z -0.048750 0.067260 1.802020 
# 
# From -- ./inp_files/347576.got.cif
#   From: 2010.05.17/outbox.cif.g08.bks.cpg/sg2_174_cif.got.tgz:347576.got - 2010.06.03 11:33:40.
