data_PCOD9019913
_publ_section_title
;
Structure prediction by ZEFSAII (Michael W. Deem and Ramdas Pophale) SiO2 
 PCOD9019913
Probable space group: P -1
;
_chemical_formula_sum "Si O2"
_cell_formula_units_Z 16
_cell_length_a 11.936937
_cell_length_b 5.465636
_cell_length_c 13.283271
_cell_angle_alpha 59.306518
_cell_angle_beta 90.278219
_cell_angle_gamma 101.199487
_cell_volume 726.460010
_symmetry_space_group_name_H-M "P -1"
_symmetry_group_IT_number 2
_symmetry_cell_setting 'triclinic'
loop_
_space_group_symop_operation_xyz
x,y,z
-x,-y,-z
loop_
_atom_site_type_symbol
_atom_site_label
_atom_site_fract_x
_atom_site_fract_y
_atom_site_fract_z
Si Si1 0.321154 0.050669 0.948773
Si Si2 0.657239 0.504513 0.628641
Si Si3 0.908751 0.264136 0.491453
Si Si4 0.097718 0.341608 0.310907
Si Si5 0.473170 0.166557 0.106574
Si Si6 0.532436 0.415214 0.257107
Si Si7 0.342074 0.806381 0.513911
Si Si8 0.937125 0.270011 0.964111
O O1 0.191215 0.887246 0.968523
O O2 0.360622 0.031200 0.068707
O O3 0.411587 0.921383 0.911776
O O4 0.358025 0.383817 0.840635
O O5 0.786310 0.488984 0.666067
O O6 0.557796 0.408686 0.732616
O O7 0.625252 0.334890 0.559838
O O8 0.658116 0.850497 0.549526
O O9 0.791736 0.350892 0.443237
O O10 0.000000 0.500000 0.500000
O O11 0.978837 0.246741 0.392912
O O12 0.877361 0.984324 0.625257
O O13 0.076895 0.532430 0.175562
O O14 0.464219 0.195764 0.219820
O O15 0.500000 0.500000 0.000000
O O16 0.581607 0.264681 0.380557
O O17 0.000000 0.500000 0.000000
O O18 0.000000 0.000000 0.000000
#
# Coordination Sequence:
#
# PCOD9019913 Si02
#       8
#     2   2   2   2   2   2   2   2
#     4  10  25  46  71 104 142 193 250 289 371 447
#     4  11  25  44  66 106 135 190 235 298 362 434
#     4  10  21  45  72 104 133 195 243 295 364 428
#     4  10  25  44  74  99 143 186 249 299 358 445
#     4   9  22  43  70 102 133 192 242 295 348 446
#     4  11  25  40  72  99 148 186 232 306 368 432
#     4  11  25  41  67 103 147 176 239 300 366 430
#     4  12  32  50  74 112 151 196 246 312 373 431
#
# _framework density 22.024615000000001
#
# number of rings (size 3 to 8) (size 9 to 14) (size 15 to 20)
#    0.000    1.500    1.250    0.750   15.750    0.000 
#    0.000    0.000    0.000    0.000    0.000    0.000 
#    0.000    0.000    0.000    0.000    0.000    0.000 
#
# Total GULP energy -89210.743076 kJ/mol
# GULP energy per Si atom -5575.671442 kJ/mol
# Density = 2.197449 g / cm^3
# Si number density = 22.024615 Si / 1000 Ang^3
#
#
#
# Elastic Constant Matrix: (Units=GPa)
#
#
# Indices 1 2 3 4 5 6 
#
# 1 135.5706 37.6076 50.5198 11.4897 0.4861 14.8417
# 2 37.6076 112.1298 62.8976 25.9412 5.3093 -4.6585
# 3 50.5198 62.8976 149.0903 7.8147 19.6987 11.7726
# 4 11.4897 25.9412 7.8147 45.0785 7.5411 -3.1055
# 5 0.4861 5.3093 19.6987 7.5411 38.7968 -7.2624
# 6 14.8417 -4.6585 11.7726 -3.1055 -7.2624 19.3645
#
#
#
# Elastic Compliance Matrix: (Units=1/GPa)
#
#
# Indices 1 2 3 4 5 6 
#
# 1 0.009495 -0.002253 -0.001635 -0.001318 -0.000045 -0.007054
# 2 -0.002253 0.015297 -0.006723 -0.007142 0.004624 0.010083
# 3 -0.001635 -0.006723 0.011698 0.002817 -0.007380 -0.009792
# 4 -0.001318 -0.007142 0.002817 0.027086 -0.005745 -0.000231
# 5 -0.000045 0.004624 -0.007380 -0.005745 0.033221 0.017171
# 6 -0.007054 0.010083 -0.009792 -0.000231 0.017171 0.071828
#
#
# Mechanical properties :
#
#
# Convention : Reuss Voigt Hill
#
# Bulk Modulus (GPa) = 65.49526 77.64897 71.57212
# Shear Modulus (GPa) = 25.64940 37.03235 31.34088
#
# Velocity S-wave (km/s) = 3.41629 4.10495 3.77635
# Velocity P-wave (km/s) = 6.73523 7.60260 7.18202
#
# Compressibility (1/GPa) = 0.01526828
#
# Stress axis : x y z
#
# Youngs Moduli (GPa) = 105.32367 65.37063 85.48480
#
# Poissons Ratio (x) = 0.14731 0.13973
# Poissons Ratio (y) = 0.23734 0.57469
# Poissons Ratio (z) = 0.17216 0.43947
#
# Static dielectric constant tensor:
#      x y z
#    x 1.872860 -0.058340 -0.076640 
#    y -0.058340 2.015620 -0.060770 
#    z -0.076640 -0.060770 1.930110 
# 
# From -- ./inp_files/409876.got.cif
#   From: 2010.05.17/outbox.cif.g08.bks.cpg/sg2_205_cif.got.tgz:409876.got - 2010.06.03 11:33:40.
