data_PCOD9019825
_publ_section_title
;
Structure prediction by ZEFSAII (Michael W. Deem and Ramdas Pophale) SiO2 
 PCOD9019825
Probable space group: P -1
;
_chemical_formula_sum "Si O2"
_cell_formula_units_Z 16
_cell_length_a 11.698365
_cell_length_b 13.073211
_cell_length_c 8.422146
_cell_angle_alpha 130.338033
_cell_angle_beta 51.066444
_cell_angle_gamma 123.284866
_cell_volume 741.480563
_symmetry_space_group_name_H-M "P -1"
_symmetry_group_IT_number 2
_symmetry_cell_setting 'triclinic'
loop_
_space_group_symop_operation_xyz
x,y,z
-x,-y,-z
loop_
_atom_site_type_symbol
_atom_site_label
_atom_site_fract_x
_atom_site_fract_y
_atom_site_fract_z
Si Si1 0.303683 0.180227 0.069927
Si Si2 0.443045 0.135661 0.231842
Si Si3 0.625771 0.413122 0.275596
Si Si4 0.433152 0.614337 0.081482
Si Si5 0.883522 0.871859 0.389060
Si Si6 0.076068 0.903320 0.942443
Si Si7 0.115200 0.355455 0.579287
Si Si8 0.110407 0.633582 0.461363
O O1 0.384681 0.191558 0.178635
O O2 0.189901 0.280999 0.296733
O O3 0.430383 0.247036 0.899740
O O4 0.228622 0.017584 0.965134
O O5 0.580730 0.269364 0.271905
O O6 0.290311 0.110326 0.447640
O O7 0.500000 0.000000 0.000000
O O8 0.500000 0.500000 0.500000
O O9 0.779730 0.500932 0.309385
O O10 0.621645 0.407705 0.079327
O O11 0.281625 0.623621 0.309898
O O12 0.500000 0.500000 0.000000
O O13 0.889461 0.743683 0.366346
O O14 0.000000 0.000000 0.500000
O O15 0.959742 0.856662 0.140447
O O16 0.102744 0.772676 0.697745
O O17 0.000000 0.000000 0.000000
O O18 0.953357 0.360464 0.655958
O O19 0.000000 0.500000 0.500000
#
# Coordination Sequence:
#
# PCOD9019825 Si02
#       8
#     2   2   2   2   2   2   2   2
#     4  10  21  45  69  96 140 176 232 296 344 422
#     4  10  22  40  67 105 141 172 233 294 344 413
#     4  11  22  43  76 100 134 192 232 288 358 411
#     4  11  26  48  73 102 144 187 235 293 369 428
#     4  11  21  41  73  99 138 190 231 293 360 414
#     4  12  25  45  72 102 142 190 234 291 368 416
#     4  11  22  46  70 104 142 182 245 290 346 439
#     4  12  29  46  68 108 148 189 236 299 355 435
#
# _framework density 21.578448000000002
#
# number of rings (size 3 to 8) (size 9 to 14) (size 15 to 20)
#    0.000    1.000    7.500    0.750    1.750    6.000 
#    0.000    0.000    0.000    0.000    0.000    0.000 
#    0.000    0.000    0.000    0.000    0.000    0.000 
#
# Total GULP energy -89220.594178 kJ/mol
# GULP energy per Si atom -5576.287136 kJ/mol
# Density = 2.152933 g / cm^3
# Si number density = 21.578448 Si / 1000 Ang^3
#
#
#
# Elastic Constant Matrix: (Units=GPa)
#
#
# Indices 1 2 3 4 5 6 
#
# 1 73.1691 36.3500 53.0835 -4.8901 -15.1464 9.9815
# 2 36.3500 165.4070 78.7325 -0.5151 -11.0917 32.0809
# 3 53.0835 78.7325 124.2453 -0.9462 -18.1648 9.4934
# 4 -4.8901 -0.5151 -0.9462 35.9008 4.3927 2.3279
# 5 -15.1464 -11.0917 -18.1648 4.3927 33.7971 7.0157
# 6 9.9815 32.0809 9.4934 2.3279 7.0157 33.5508
#
#
#
# Elastic Compliance Matrix: (Units=1/GPa)
#
#
# Indices 1 2 3 4 5 6 
#
# 1 0.021691 0.000935 -0.008384 0.002366 0.006566 -0.006511
# 2 0.000935 0.010742 -0.006113 0.000416 0.002552 -0.009383
# 3 -0.008384 -0.006113 0.015508 -0.001299 0.001988 0.003626
# 4 0.002366 0.000416 -0.001299 0.028627 -0.002778 -0.002140
# 5 0.006566 0.002552 0.001988 -0.002778 0.037410 -0.012586
# 6 -0.006511 -0.009383 0.003626 -0.002140 -0.012586 0.042468
#
#
# Mechanical properties :
#
#
# Convention : Reuss Voigt Hill
#
# Bulk Modulus (GPa) = 48.04102 77.68371 62.86237
# Shear Modulus (GPa) = 26.24506 33.62674 29.93590
#
# Velocity S-wave (km/s) = 3.49128 3.95187 3.72870
# Velocity P-wave (km/s) = 6.20998 7.54333 6.90889
#
# Compressibility (1/GPa) = 0.02081554
#
# Stress axis : x y z
#
# Youngs Moduli (GPa) = 46.10247 93.08858 64.48165
#
# Poissons Ratio (x) = -0.08699 0.54062
# Poissons Ratio (y) = -0.04308 0.39420
# Poissons Ratio (z) = 0.38653 0.56909
#
# Static dielectric constant tensor:
#      x y z
#    x 1.700400 -0.109370 0.041250 
#    y -0.109370 1.636110 0.003520 
#    z 0.041250 0.003520 1.827370 
# 
# From -- ./inp_files/263310.got.cif
#   From: 2010.05.17/outbox.cif.g08.bks.cpg/sg2_132_cif.got.tgz:263310.got - 2010.06.03 11:33:40.
