data_PCOD9019473
_publ_section_title
;
Structure prediction by ZEFSAII (Michael W. Deem and Ramdas Pophale) SiO2 
 PCOD9019473
Probable space group: P -1
;
_chemical_formula_sum "Si O2"
_cell_formula_units_Z 16
_cell_length_a 14.961266
_cell_length_b 17.899841
_cell_length_c 7.917303
_cell_angle_alpha 50.792389
_cell_angle_beta 131.566753
_cell_angle_gamma 157.543361
_cell_volume 604.631721
_symmetry_space_group_name_H-M "P -1"
_symmetry_group_IT_number 2
_symmetry_cell_setting 'triclinic'
loop_
_space_group_symop_operation_xyz
x,y,z
-x,-y,-z
loop_
_atom_site_type_symbol
_atom_site_label
_atom_site_fract_x
_atom_site_fract_y
_atom_site_fract_z
Si Si1 0.586129 0.252216 0.105309
Si Si2 0.869356 0.307042 0.811701
Si Si3 0.951721 0.008584 0.618519
Si Si4 0.769024 0.685347 0.001889
Si Si5 0.484679 0.406401 0.753994
Si Si6 0.475568 0.793460 0.285644
Si Si7 0.008641 0.622339 0.785395
Si Si8 0.794309 0.134162 0.626056
O O1 0.870185 0.455228 0.222262
O O2 0.430915 0.092174 0.284008
O O3 0.504378 0.305577 0.896278
O O4 0.525218 0.166913 0.964382
O O5 0.818658 0.216128 0.707357
O O6 0.921725 0.282386 0.084501
O O7 0.645295 0.217145 0.719149
O O8 0.857345 0.852855 0.829667
O O9 0.738415 0.937220 0.450654
O O10 0.000000 0.000000 0.500000
O O11 0.201478 0.218495 0.716355
O O12 0.713677 0.589018 0.897778
O O13 0.500000 0.500000 0.000000
O O14 0.973026 0.770739 0.231709
O O15 0.500000 0.500000 0.500000
O O16 0.272792 0.564159 0.354841
O O17 0.182436 0.782059 0.628387
O O18 0.000000 0.500000 0.000000
#
# Coordination Sequence:
#
# PCOD9019473 Si02
#       8
#     2   2   2   2   2   2   2   2
#     4  11  22  44  73 113 154 199 271 319 384 480
#     4  10  24  48  78 110 160 206 256 317 404 461
#     4  12  22  44  75 111 153 198 264 314 381 472
#     4  12  26  45  71 115 160 199 254 325 396 459
#     4  12  24  43  78 109 149 210 254 319 389 456
#     4  10  21  44  72 109 156 201 252 324 382 469
#     4   9  22  46  75 112 155 201 261 321 386 469
#     4  12  24  46  80 112 158 210 256 328 392 468
#
# _framework density 26.462387
#
# number of rings (size 3 to 8) (size 9 to 14) (size 15 to 20)
#    0.000    1.000    5.000    1.875    0.000    4.000 
#    0.000   15.000    2.750    0.750    0.000    0.000 
#    0.000    0.000    0.000    0.000    0.000    0.000 
#
# Total GULP energy -89547.022789 kJ/mol
# GULP energy per Si atom -5596.688924 kJ/mol
# Density = 2.640216 g / cm^3
# Si number density = 26.462387 Si / 1000 Ang^3
#
#
#
# Elastic Constant Matrix: (Units=GPa)
#
#
# Indices 1 2 3 4 5 6 
#
# 1 123.3361 41.8775 62.0473 -6.3922 3.2958 28.0410
# 2 41.8775 157.8446 72.0892 -24.4203 11.2065 29.2938
# 3 62.0473 72.0892 165.6203 -31.3466 4.2988 17.9799
# 4 -6.3922 -24.4203 -31.3466 55.3613 20.5220 -1.1027
# 5 3.2958 11.2065 4.2988 20.5220 49.4631 12.0096
# 6 28.0410 29.2938 17.9799 -1.1027 12.0096 46.6946
#
#
#
# Elastic Compliance Matrix: (Units=1/GPa)
#
#
# Indices 1 2 3 4 5 6 
#
# 1 0.011324 -0.000711 -0.003756 -0.001927 0.001851 -0.005430
# 2 -0.000711 0.009033 -0.002619 0.003170 -0.002216 -0.003587
# 3 -0.003756 -0.002619 0.009393 0.004515 -0.002070 0.000921
# 4 -0.001927 0.003170 0.004515 0.026342 -0.012200 0.001190
# 5 0.001851 -0.002216 -0.002070 -0.012200 0.027354 -0.006248
# 6 -0.005430 -0.003587 0.000921 0.001190 -0.006248 0.028207
#
#
# Mechanical properties :
#
#
# Convention : Reuss Voigt Hill
#
# Bulk Modulus (GPa) = 64.18851 88.75878 76.47364
# Shear Modulus (GPa) = 38.16231 48.35628 43.25929
#
# Velocity S-wave (km/s) = 3.80166 4.27940 4.04759
# Velocity P-wave (km/s) = 6.60147 7.61787 7.12781
#
# Compressibility (1/GPa) = 0.01557911
#
# Stress axis : x y z
#
# Youngs Moduli (GPa) = 88.30730 110.70056 106.45681
#
# Poissons Ratio (x) = 0.07867 0.39990
# Poissons Ratio (y) = 0.06276 0.27879
# Poissons Ratio (z) = 0.33172 0.28990
#
# Static dielectric constant tensor:
#      x y z
#    x 2.338020 -0.065700 -0.054330 
#    y -0.065700 2.115020 0.043110 
#    z -0.054330 0.043110 2.015150 
# 
# From -- ./inp_files/338102.got.cif
#   From: 2010.05.17/outbox.cif.g08.bks.cpg/sg2_170_cif.got.tgz:338102.got - 2010.06.03 11:33:40.
