data_PCOD9019098
_publ_section_title
;
Structure prediction by ZEFSAII (Michael W. Deem and Ramdas Pophale) SiO2 
 PCOD9019098
Probable space group: P -1
;
_chemical_formula_sum "Si O2"
_cell_formula_units_Z 15
_cell_length_a 8.685400
_cell_length_b 21.582077
_cell_length_c 5.698870
_cell_angle_alpha 80.652212
_cell_angle_beta 95.200436
_cell_angle_gamma 145.513183
_cell_volume 595.036942
_symmetry_space_group_name_H-M "P -1"
_symmetry_group_IT_number 2
_symmetry_cell_setting 'triclinic'
loop_
_space_group_symop_operation_xyz
x,y,z
-x,-y,-z
loop_
_atom_site_type_symbol
_atom_site_label
_atom_site_fract_x
_atom_site_fract_y
_atom_site_fract_z
Si Si1 0.000000 0.000000 0.500000
Si Si2 0.969242 0.317753 0.430084
Si Si3 0.602212 0.747889 0.910083
Si Si4 0.141404 0.921950 0.589454
Si Si5 0.534115 0.835540 0.192658
Si Si6 0.686303 0.135410 0.114672
Si Si7 0.067291 0.554927 0.724330
Si Si8 0.150372 0.263222 0.718801
O O1 0.764303 0.977978 0.534339
O O2 0.194466 0.091130 0.678126
O O3 0.735016 0.252933 0.631061
O O4 0.828839 0.231033 0.256463
O O5 0.056146 0.416138 0.305751
O O6 0.193530 0.345018 0.551610
O O7 0.498858 0.772679 0.023675
O O8 0.621413 0.696484 0.125214
O O9 0.900270 0.863569 0.774627
O O10 0.397283 0.668288 0.718088
O O11 0.979936 0.826887 0.435527
O O12 0.355943 0.946116 0.720802
O O13 0.551998 0.909644 0.028240
O O14 0.917796 0.197861 0.918093
O O15 0.000000 0.500000 0.500000
O O16 0.000000 0.500000 0.000000
#
# Coordination Sequence:
#
# PCOD9019098 Si02
#       8
#     1   2   2   2   2   2   2   2
#     4  12  24  36  60 100 134 160 230 288 318 380
#     4  10  21  44  68  92 132 176 217 264 342 405
#     4  11  22  43  69  92 130 180 216 265 349 403
#     4  10  22  40  63  93 128 172 217 275 327 394
#     4  11  22  39  66  94 130 178 219 271 329 396
#     4   9  20  40  65  89 118 187 214 259 332 404
#     4  12  27  42  70 108 136 168 224 286 338 408
#     4   9  20  40  70  90 125 177 225 258 328 414
#
# _framework density 25.208521000000001
#
# number of rings (size 3 to 8) (size 9 to 14) (size 15 to 20)
#    0.000    1.600    2.667    1.600    3.733    1.067 
#    0.000    7.333    0.000    0.000    0.000    0.000 
#    0.000    0.000    0.000    0.000    0.000    0.000 
#
# Total GULP energy -83732.152598 kJ/mol
# GULP energy per Si atom -5582.143507 kJ/mol
# Density = 2.515115 g / cm^3
# Si number density = 25.208521 Si / 1000 Ang^3
#
#
#
# Elastic Constant Matrix: (Units=GPa)
#
#
# Indices 1 2 3 4 5 6 
#
# 1 156.9394 26.9828 53.1285 16.1462 32.7572 -38.4238
# 2 26.9828 63.1236 27.1009 23.4526 -3.7120 -12.4605
# 3 53.1285 27.1009 110.9169 16.3961 -7.2118 -17.3862
# 4 16.1462 23.4526 16.3961 44.4149 8.1067 -0.2787
# 5 32.7572 -3.7120 -7.2118 8.1067 67.0123 8.3734
# 6 -38.4238 -12.4605 -17.3862 -0.2787 8.3734 40.9633
#
#
#
# Elastic Compliance Matrix: (Units=1/GPa)
#
#
# Indices 1 2 3 4 5 6 
#
# 1 0.012553 -0.001563 -0.004321 -0.000613 -0.008000 0.011097
# 2 -0.001563 0.022460 -0.002376 -0.010865 0.002598 0.003753
# 3 -0.004321 -0.002376 0.012191 -0.002338 0.003620 -0.000358
# 4 -0.000613 -0.010865 -0.002338 0.029988 -0.003692 -0.003914
# 5 -0.008000 0.002598 0.003620 -0.003692 0.021000 -0.009495
# 6 0.011097 0.003753 -0.000358 -0.003914 -0.009495 0.037725
#
#
# Mechanical properties :
#
#
# Convention : Reuss Voigt Hill
#
# Bulk Modulus (GPa) = 32.58964 60.60047 46.59505
# Shear Modulus (GPa) = 30.73792 45.39596 38.06694
#
# Velocity S-wave (km/s) = 3.49570 4.24821 3.89019
# Velocity P-wave (km/s) = 5.40827 6.93937 6.22110
#
# Compressibility (1/GPa) = 0.03068460
#
# Stress axis : x y z
#
# Youngs Moduli (GPa) = 79.66088 44.52261 82.02761
#
# Poissons Ratio (x) = 0.06959 0.35445
# Poissons Ratio (y) = 0.12451 0.19489
# Poissons Ratio (z) = 0.34423 0.10578
#
# Static dielectric constant tensor:
#      x y z
#    x 0.641090 1.779580 -1.733490 
#    y 1.779580 -0.418600 2.255590 
#    z -1.733490 2.255590 -0.169310 
# 
# From -- ./inp_files/53109.got.cif
#   From: 2010.05.17/outbox.cif.g08.bks.cpg/sg2_27_cif.got.tgz:53109.got - 2010.06.03 11:33:40.
