data_PCOD9019155
_publ_section_title
;
Structure prediction by ZEFSAII (Michael W. Deem and Ramdas Pophale) SiO2 
 PCOD9019155
Probable space group: P -1
;
_chemical_formula_sum "Si O2"
_cell_formula_units_Z 16
_cell_length_a 12.334316
_cell_length_b 18.532303
_cell_length_c 16.375514
_cell_angle_alpha 29.989413
_cell_angle_beta 47.355968
_cell_angle_gamma 25.937077
_cell_volume 724.921125
_symmetry_space_group_name_H-M "P -1"
_symmetry_group_IT_number 2
_symmetry_cell_setting 'triclinic'
loop_
_space_group_symop_operation_xyz
x,y,z
-x,-y,-z
loop_
_atom_site_type_symbol
_atom_site_label
_atom_site_fract_x
_atom_site_fract_y
_atom_site_fract_z
Si Si1 0.770220 0.239796 0.064255
Si Si2 0.290460 0.769557 0.527743
Si Si3 0.752544 0.682474 0.152841
Si Si4 0.090601 0.772516 0.479940
Si Si5 0.958607 0.405378 0.772651
Si Si6 0.486979 0.079673 0.129365
Si Si7 0.679496 0.224185 0.950763
Si Si8 0.403888 0.913335 0.452583
O O1 0.500000 0.500000 0.000000
O O2 0.940777 0.247280 0.954541
O O3 0.625763 0.302670 0.994644
O O4 0.961108 0.958288 0.284816
O O5 0.242210 0.773911 0.453231
O O6 0.494050 0.476042 0.741019
O O7 0.418426 0.805840 0.467170
O O8 0.000000 0.000000 0.500000
O O9 0.743456 0.516314 0.337319
O O10 0.013744 0.530187 0.219500
O O11 0.732210 0.715533 0.033015
O O12 0.500000 0.000000 0.000000
O O13 0.840698 0.931811 0.513153
O O14 0.687026 0.666814 0.601597
O O15 0.233081 0.219591 0.762328
O O16 0.363094 0.101327 0.248675
O O17 0.608984 0.124462 0.058527
O O18 0.000000 0.000000 0.000000
#
# Coordination Sequence:
#
# PCOD9019155 Si02
#       8
#     2   2   2   2   2   2   2   2
#     4  12  24  44  72 104 140 180 229 292 357 416
#     4  10  21  44  68  99 142 175 234 286 342 420
#     4  10  25  46  64  95 141 181 229 283 346 413
#     4  11  24  44  69 101 138 183 230 278 352 420
#     4  11  23  45  66  98 141 175 228 290 346 410
#     4  11  24  44  67  97 136 183 227 285 345 406
#     4  12  23  45  72 100 137 181 241 288 337 419
#     4  11  23  42  69 103 133 178 228 281 349 415
#
# _framework density 22.071366999999999
#
# number of rings (size 3 to 8) (size 9 to 14) (size 15 to 20)
#    0.000    1.000    5.000    1.125    3.500    2.000 
#    2.250    3.125    0.000    0.000    0.000    0.000 
#    0.000    0.000    0.000    0.000    0.000    0.000 
#
# Total GULP energy -89299.875418 kJ/mol
# GULP energy per Si atom -5581.242214 kJ/mol
# Density = 2.202113 g / cm^3
# Si number density = 22.071367 Si / 1000 Ang^3
#
#
#
# Elastic Constant Matrix: (Units=GPa)
#
#
# Indices 1 2 3 4 5 6 
#
# 1 49.4671 -33.7814 -142.6438 14.1332 -28.1822 -35.8044
# 2 -33.7814 45.9245 -49.8726 1.6185 -18.2223 -18.6159
# 3 -142.6438 -49.8726 -146.3578 16.5360 -57.3844 -66.3347
# 4 14.1332 1.6185 16.5360 37.6213 7.1645 3.5463
# 5 -28.1822 -18.2223 -57.3844 7.1645 23.3452 -18.0609
# 6 -35.8044 -18.6159 -66.3347 3.5463 -18.0609 12.8808
#
#
#
# Elastic Compliance Matrix: (Units=1/GPa)
#
#
# Indices 1 2 3 4 5 6 
#
# 1 0.006429 -0.001224 -0.002956 -0.000108 -0.003227 -0.003617
# 2 -0.001224 0.016311 -0.004050 0.001530 0.000351 -0.000617
# 3 -0.002956 -0.004050 0.002943 0.001692 -0.005452 -0.007027
# 4 -0.000108 0.001530 0.001692 0.025731 -0.000785 0.002441
# 5 -0.003227 0.000351 -0.005452 -0.000785 0.024185 -0.002413
# 6 -0.003617 -0.000617 -0.007027 0.002441 -0.002413 0.026443
#
#
# Mechanical properties :
#
#
# Convention : Reuss Voigt Hill
#
# Bulk Modulus (GPa) = 108.44200 -55.95131 26.24534
# Shear Modulus (GPa) = 41.12585 26.45822 33.79204
#
# Velocity S-wave (km/s) = 4.32129 3.46606 3.91709
# Velocity P-wave (km/s) = 8.61030 3.06383 5.68991
#
# Compressibility (1/GPa) = 0.00922152
#
# Stress axis : x y z
#
# Youngs Moduli (GPa) = 155.54448 61.30751 339.81177
#
# Poissons Ratio (x) = 0.07505 1.00456
# Poissons Ratio (y) = 0.19041 1.37637
# Poissons Ratio (z) = 0.45982 0.24832
#
# Static dielectric constant tensor:
#      x y z
#    x 1.714030 -0.058040 -0.061230 
#    y -0.058040 1.787900 -0.072300 
#    z -0.061230 -0.072300 1.822960 
# 
# From -- ./inp_files/263365.got.cif
#   From: 2010.05.17/outbox.cif.g08.bks.cpg/sg2_132_cif.got.tgz:263365.got - 2010.06.03 11:33:40.
