data_PCOD9019279
_publ_section_title
;
Structure prediction by ZEFSAII (Michael W. Deem and Ramdas Pophale) SiO2 
 PCOD9019279
Probable space group: P -1
;
_chemical_formula_sum "Si O2"
_cell_formula_units_Z 14
_cell_length_a 17.590684
_cell_length_b 10.325118
_cell_length_c 8.435992
_cell_angle_alpha 62.349834
_cell_angle_beta 41.075065
_cell_angle_gamma 34.960021
_cell_volume 526.565669
_symmetry_space_group_name_H-M "P -1"
_symmetry_group_IT_number 2
_symmetry_cell_setting 'triclinic'
loop_
_space_group_symop_operation_xyz
x,y,z
-x,-y,-z
loop_
_atom_site_type_symbol
_atom_site_label
_atom_site_fract_x
_atom_site_fract_y
_atom_site_fract_z
Si Si1 0.901366 0.199765 0.406908
Si Si2 0.349798 0.018612 0.479278
Si Si3 0.940277 0.906307 0.296895
Si Si4 0.201610 0.136748 0.983202
Si Si5 0.077650 0.511392 0.518640
Si Si6 0.378376 0.488087 0.771595
Si Si7 0.537258 0.628854 0.921128
O O1 0.726959 0.470012 0.605175
O O2 0.069244 0.138507 0.123760
O O3 0.000000 0.000000 0.500000
O O4 0.837845 0.149598 0.402164
O O5 0.198788 0.053652 0.615321
O O6 0.296663 0.226290 0.361463
O O7 0.556281 0.729098 0.292939
O O8 0.310829 0.083467 0.688464
O O9 0.021160 0.727711 0.419930
O O10 0.144592 0.746255 0.987052
O O11 0.051894 0.386985 0.178565
O O12 0.358132 0.910949 0.988097
O O13 0.000000 0.500000 0.500000
O O14 0.500000 0.500000 0.500000
O O15 0.429726 0.411198 0.920345
O O16 0.500000 0.500000 0.000000
#
# Coordination Sequence:
#
# PCOD9019279 Si02
#       7
#     2   2   2   2   2   2   2
#     4  12  21  39  67  97 124 170 216 262 326 382
#     4  11  26  41  65  95 132 174 213 266 316 386
#     4  11  23  44  65  95 131 170 216 268 322 378
#     4  12  24  42  64  96 131 166 213 265 326 382
#     4  10  21  44  70  89 124 174 222 263 316 377
#     4  12  25  40  63  99 130 164 215 269 327 380
#     4  12  21  36  63  90 128 167 206 259 318 383
#
# _framework density 26.587378000000001
#
# number of rings (size 3 to 8) (size 9 to 14) (size 15 to 20)
#    0.000    0.571    4.286    4.714    0.000    5.143 
#    0.000    2.857    0.000    8.571    0.000    0.000 
#    0.000    0.000    0.000    0.000    0.000    0.000 
#
# Total GULP energy -78443.860246 kJ/mol
# GULP energy per Si atom -5603.132875 kJ/mol
# Density = 2.652686 g / cm^3
# Si number density = 26.587378 Si / 1000 Ang^3
#
#
#
# Elastic Constant Matrix: (Units=GPa)
#
#
# Indices 1 2 3 4 5 6 
#
# 1 106.8835 14.0263 24.5851 -0.1808 14.6717 3.7579
# 2 14.0263 106.8906 30.8770 19.7082 19.0381 0.1590
# 3 24.5851 30.8770 117.5562 16.8035 16.8802 -6.6202
# 4 -0.1808 19.7082 16.8035 48.3946 -6.5291 9.6873
# 5 14.6717 19.0381 16.8802 -6.5291 54.9884 7.8096
# 6 3.7579 0.1590 -6.6202 9.6873 7.8096 40.8788
#
#
#
# Elastic Compliance Matrix: (Units=1/GPa)
#
#
# Indices 1 2 3 4 5 6 
#
# 1 0.010150 -0.000674 -0.001925 0.001000 -0.001598 -0.001174
# 2 -0.000674 0.011565 -0.001449 -0.005145 -0.004248 0.001813
# 3 -0.001925 -0.001449 0.010553 -0.004218 -0.003223 0.003507
# 4 0.001000 -0.005145 -0.004218 0.026903 0.007212 -0.008508
# 5 -0.001598 -0.004248 -0.003223 0.007212 0.022842 -0.006431
# 6 -0.001174 0.001813 0.003507 -0.008508 -0.006431 0.028376
#
#
# Mechanical properties :
#
#
# Convention : Reuss Voigt Hill
#
# Bulk Modulus (GPa) = 41.37147 52.25635 46.81391
# Shear Modulus (GPa) = 39.51249 46.30848 42.91049
#
# Velocity S-wave (km/s) = 3.85923 4.17795 4.02175
# Velocity P-wave (km/s) = 5.95420 6.55522 6.26193
#
# Compressibility (1/GPa) = 0.02417125
#
# Stress axis : x y z
#
# Youngs Moduli (GPa) = 98.52613 86.46877 94.75906
#
# Poissons Ratio (x) = 0.05825 0.18243
# Poissons Ratio (y) = 0.06638 0.13733
# Poissons Ratio (z) = 0.18969 0.12531
#
# Static dielectric constant tensor:
#      x y z
#    x 2.123750 0.024790 -0.088620 
#    y 0.024790 2.076000 -0.000240 
#    z -0.088620 -0.000240 2.174700 
# 
# From -- ./inp_files/346023.got.cif
#   From: 2010.05.17/outbox.cif.g08.bks.cpg/sg2_174_cif.got.tgz:346023.got - 2010.06.03 11:33:40.
