data_PCOD9019287
_publ_section_title
;
Structure prediction by ZEFSAII (Michael W. Deem and Ramdas Pophale) SiO2 
 PCOD9019287
Probable space group: P -1
;
_chemical_formula_sum "Si O2"
_cell_formula_units_Z 14
_cell_length_a 8.631607
_cell_length_b 15.996561
_cell_length_c 8.049892
_cell_angle_alpha 147.155950
_cell_angle_beta 73.641737
_cell_angle_gamma 115.837795
_cell_volume 534.367531
_symmetry_space_group_name_H-M "P -1"
_symmetry_group_IT_number 2
_symmetry_cell_setting 'triclinic'
loop_
_space_group_symop_operation_xyz
x,y,z
-x,-y,-z
loop_
_atom_site_type_symbol
_atom_site_label
_atom_site_fract_x
_atom_site_fract_y
_atom_site_fract_z
Si Si1 0.270284 0.678901 0.484152
Si Si2 0.323683 0.527906 0.558361
Si Si3 0.950099 0.675078 0.146883
Si Si4 0.988857 0.223473 0.080207
Si Si5 0.882499 0.014075 0.210916
Si Si6 0.406958 0.302627 0.741356
Si Si7 0.467364 0.162831 0.829985
O O1 0.312931 0.579946 0.460092
O O2 0.457542 0.771710 0.498824
O O3 0.179755 0.791515 0.786601
O O4 0.136137 0.526578 0.159204
O O5 0.500000 0.500000 0.500000
O O6 0.148169 0.368462 0.370106
O O7 0.352782 0.690351 0.928926
O O8 0.785526 0.731241 0.320692
O O9 0.090993 0.798262 0.435719
O O10 0.014565 0.717923 0.008763
O O11 0.038361 0.063978 0.797358
O O12 0.677513 0.896457 0.078304
O O13 0.000000 0.000000 0.000000
O O14 0.394338 0.241732 0.833503
O O15 0.500000 0.500000 0.000000
O O16 0.500000 0.000000 0.500000
#
# Coordination Sequence:
#
# PCOD9019287 Si02
#       7
#     2   2   2   2   2   2   2
#     4  10  24  40  74 103 130 180 249 286 334 418
#     4  11  21  44  70  99 142 182 234 287 352 417
#     4  10  21  44  70  93 138 178 235 284 352 411
#     4  11  23  44  70 100 133 188 238 284 343 418
#     4  12  28  44  65 100 145 186 226 291 365 415
#     4  10  22  45  71 101 132 189 237 279 345 424
#     4  12  28  44  69 105 145 184 230 295 362 408
#
# _framework density 26.199196000000001
#
# number of rings (size 3 to 8) (size 9 to 14) (size 15 to 20)
#    0.000    1.143    2.857    3.857    8.000    2.286 
#    0.000    2.857    0.000    0.000    0.000    0.000 
#    0.000    0.000    0.000    0.000    0.000    0.000 
#
# Total GULP energy -78298.664971 kJ/mol
# GULP energy per Si atom -5592.761784 kJ/mol
# Density = 2.613957 g / cm^3
# Si number density = 26.199196 Si / 1000 Ang^3
#
#
#
# Elastic Constant Matrix: (Units=GPa)
#
#
# Indices 1 2 3 4 5 6 
#
# 1 72.9966 21.1092 10.7350 9.9905 -21.0009 7.6367
# 2 21.1092 96.0129 13.7879 -2.4334 -9.9366 15.6524
# 3 10.7350 13.7879 117.1309 15.4560 -7.4988 -1.6089
# 4 9.9905 -2.4334 15.4560 40.1021 8.1617 -18.2301
# 5 -21.0009 -9.9366 -7.4988 8.1617 36.3059 -5.0577
# 6 7.6367 15.6524 -1.6089 -18.2301 -5.0577 46.6011
#
#
#
# Elastic Compliance Matrix: (Units=1/GPa)
#
#
# Indices 1 2 3 4 5 6 
#
# 1 0.019863 -0.002602 0.000551 -0.010114 0.012473 -0.004965
# 2 -0.002602 0.011821 -0.001139 0.000025 0.001006 -0.003464
# 3 0.000551 -0.001139 0.009439 -0.004881 0.002918 -0.000974
# 4 -0.010114 0.000025 -0.004881 0.039035 -0.013498 0.015286
# 5 0.012473 0.001006 0.002918 -0.013498 0.038195 -0.003416
# 6 -0.004965 -0.003464 -0.000974 0.015286 -0.003416 0.029011
#
#
# Mechanical properties :
#
#
# Convention : Reuss Voigt Hill
#
# Bulk Modulus (GPa) = 28.78478 41.93384 35.35931
# Shear Modulus (GPa) = 30.24347 40.63571 35.43959
#
# Velocity S-wave (km/s) = 3.40128 3.94258 3.68189
# Velocity P-wave (km/s) = 5.14157 6.06348 5.62145
#
# Compressibility (1/GPa) = 0.03474058
#
# Stress axis : x y z
#
# Youngs Moduli (GPa) = 50.34497 84.59853 105.94814
#
# Poissons Ratio (x) = 0.22014 -0.05836
# Poissons Ratio (y) = 0.13101 0.12072
# Poissons Ratio (z) = -0.02773 0.09639
#
# Static dielectric constant tensor:
#      x y z
#    x 2.077350 -0.013720 -0.011830 
#    y -0.013720 2.050150 -0.022060 
#    z -0.011830 -0.022060 2.100210 
# 
# From -- ./inp_files/219023.got.cif
#   From: 2010.05.17/outbox.cif.g08.bks.cpg/sg2_110_cif.got.tgz:219023.got - 2010.06.03 11:33:40.
