data_PCOD9019136
_publ_section_title
;
Structure prediction by ZEFSAII (Michael W. Deem and Ramdas Pophale) SiO2 
 PCOD9019136
Probable space group: P -1
;
_chemical_formula_sum "Si O2"
_cell_formula_units_Z 16
_cell_length_a 5.069246
_cell_length_b 7.446029
_cell_length_c 19.999982
_cell_angle_alpha 79.802368
_cell_angle_beta 54.161401
_cell_angle_gamma 80.383601
_cell_volume 600.414455
_symmetry_space_group_name_H-M "P -1"
_symmetry_group_IT_number 2
_symmetry_cell_setting 'triclinic'
loop_
_space_group_symop_operation_xyz
x,y,z
-x,-y,-z
loop_
_atom_site_type_symbol
_atom_site_label
_atom_site_fract_x
_atom_site_fract_y
_atom_site_fract_z
Si Si1 0.575617 0.680254 0.437390
Si Si2 0.366140 0.386411 0.118641
Si Si3 0.127736 0.139146 0.804101
Si Si4 0.592113 0.983098 0.093522
Si Si5 0.951245 0.504029 0.286186
Si Si6 0.259353 0.954909 0.366862
Si Si7 0.603140 0.159028 0.408175
Si Si8 0.793727 0.674312 0.988855
O O1 0.500000 0.500000 0.500000
O O2 0.917866 0.628207 0.350561
O O3 0.525687 0.813475 0.499281
O O4 0.327497 0.762246 0.410604
O O5 0.451354 0.583791 0.064280
O O6 0.268178 0.406642 0.209132
O O7 0.610291 0.202183 0.084248
O O8 0.113625 0.329188 0.102800
O O9 0.203356 0.116715 0.871476
O O10 0.151221 0.348891 0.765122
O O11 0.783244 0.066319 0.839726
O O12 0.428321 0.033941 0.727548
O O13 0.728523 0.876928 0.014363
O O14 0.716066 0.346993 0.348006
O O15 0.315582 0.097785 0.408379
O O16 0.935511 0.022835 0.370043
O O17 0.000000 0.500000 0.000000
#
# Coordination Sequence:
#
# PCOD9019136 Si02
#       8
#     2   2   2   2   2   2   2   2
#     4   9  21  40  66  97 136 182 225 287 348 404
#     4  11  24  45  71 101 138 186 229 289 345 418
#     4  11  24  43  67 104 140 181 234 288 341 414
#     4  12  26  46  73 103 141 183 233 283 351 413
#     4  10  21  44  68  97 140 180 233 282 348 408
#     4  11  22  41  67  98 138 179 232 289 337 413
#     4  11  23  42  67 100 134 182 231 283 345 407
#     4  11  26  45  71 103 142 180 232 287 349 413
#
# _framework density 26.648258999999999
#
# number of rings (size 3 to 8) (size 9 to 14) (size 15 to 20)
#    0.000    1.250    1.250    4.125    3.500    1.500 
#    4.500   15.000    0.000    0.000    0.000    0.000 
#    0.000    0.000    0.000    0.000    0.000    0.000 
#
# Total GULP energy -89312.364974 kJ/mol
# GULP energy per Si atom -5582.022811 kJ/mol
# Density = 2.658761 g / cm^3
# Si number density = 26.648259 Si / 1000 Ang^3
#
#
#
# Elastic Constant Matrix: (Units=GPa)
#
#
# Indices 1 2 3 4 5 6 
#
# 1 45.4024 22.0604 20.8872 -6.2869 -3.8489 -9.2274
# 2 22.0604 175.0437 45.2806 -4.5651 -2.6010 8.4020
# 3 20.8872 45.2806 155.3415 24.1087 -3.9742 2.7941
# 4 -6.2869 -4.5651 24.1087 68.1564 3.4599 9.6916
# 5 -3.8489 -2.6010 -3.9742 3.4599 31.5593 6.1316
# 6 -9.2274 8.4020 2.7941 9.6916 6.1316 26.8827
#
#
#
# Elastic Compliance Matrix: (Units=1/GPa)
#
#
# Indices 1 2 3 4 5 6 
#
# 1 0.027313 -0.003002 -0.003279 0.002059 0.000543 0.009788
# 2 -0.003002 0.006734 -0.001675 0.001242 0.000527 -0.003529
# 3 -0.003279 -0.001675 0.007892 -0.003184 0.000898 -0.000479
# 4 0.002059 0.001242 -0.003184 0.016859 -0.000880 -0.005228
# 5 0.000543 0.000527 0.000898 -0.000880 0.033440 -0.007382
# 6 0.009788 -0.003529 -0.000479 -0.005228 -0.007382 0.045280
#
#
# Mechanical properties :
#
#
# Convention : Reuss Voigt Hill
#
# Bulk Modulus (GPa) = 38.42161 61.36046 49.89104
# Shear Modulus (GPa) = 30.84399 44.49031 37.66715
#
# Velocity S-wave (km/s) = 3.40582 4.09043 3.76372
# Velocity P-wave (km/s) = 5.46951 6.73683 6.13598
#
# Compressibility (1/GPa) = 0.02602702
#
# Stress axis : x y z
#
# Youngs Moduli (GPa) = 36.61278 148.49797 126.70566
#
# Poissons Ratio (x) = 0.44579 0.41548
# Poissons Ratio (y) = 0.10991 0.21223
# Poissons Ratio (z) = 0.12006 0.24874
#
# Static dielectric constant tensor:
#      x y z
#    x 2.344090 0.089730 -0.074120 
#    y 0.089730 2.214220 0.042860 
#    z -0.074120 0.042860 2.268160 
# 
# From -- ./inp_files/582385.got.cif
#   From: 2010.05.17/outbox.cif.g08.bks.cpg/sg2_292_cif.got.tgz:582385.got - 2010.06.03 11:33:40.
