data_PCOD9019840
_publ_section_title
;
Structure prediction by ZEFSAII (Michael W. Deem and Ramdas Pophale) SiO2 
 PCOD9019840
Probable space group: P -1
;
_chemical_formula_sum "Si O2"
_cell_formula_units_Z 16
_cell_length_a 9.430640
_cell_length_b 14.281357
_cell_length_c 8.546337
_cell_angle_alpha 139.537696
_cell_angle_beta 99.455042
_cell_angle_gamma 95.596646
_cell_volume 690.871741
_symmetry_space_group_name_H-M "P -1"
_symmetry_group_IT_number 2
_symmetry_cell_setting 'triclinic'
loop_
_space_group_symop_operation_xyz
x,y,z
-x,-y,-z
loop_
_atom_site_type_symbol
_atom_site_label
_atom_site_fract_x
_atom_site_fract_y
_atom_site_fract_z
Si Si1 0.381494 0.846132 0.851637
Si Si2 0.937805 0.631204 0.226523
Si Si3 0.567068 0.166726 0.650678
Si Si4 0.190483 0.713846 0.904684
Si Si5 0.609584 0.622368 0.052846
Si Si6 0.367940 0.268455 0.155843
Si Si7 0.222971 0.901503 0.632347
Si Si8 0.877452 0.626958 0.588457
O O1 0.321385 0.852987 0.022502
O O2 0.475883 0.731039 0.732167
O O3 0.226522 0.828800 0.710413
O O4 0.500000 0.000000 0.000000
O O5 0.775723 0.614143 0.099857
O O6 0.913491 0.631274 0.412981
O O7 0.058061 0.798499 0.408830
O O8 0.000000 0.500000 0.000000
O O9 0.428588 0.229573 0.708614
O O10 0.641743 0.146545 0.478011
O O11 0.500000 0.000000 0.500000
O O12 0.721005 0.281772 0.911888
O O13 0.174437 0.554255 0.613250
O O14 0.021324 0.716108 0.842923
O O15 0.500000 0.500000 0.000000
O O16 0.591214 0.633934 0.874517
O O17 0.261661 0.318628 0.319462
O O18 0.274153 0.085851 0.867417
#
# Coordination Sequence:
#
# PCOD9019840 Si02
#       8
#     2   2   2   2   2   2   2   2
#     4  10  21  45  70 100 142 184 241 297 369 441
#     4  12  28  49  72 108 152 199 252 310 376 449
#     4  12  24  48  76 108 149 195 253 309 380 446
#     4  11  23  46  71  99 142 196 241 305 377 434
#     4  12  27  47  74 109 148 197 253 310 375 450
#     4  11  26  47  71 111 144 194 253 306 379 438
#     4  11  24  46  75 103 149 198 243 307 373 450
#     4  11  27  45  71 106 147 192 247 309 370 450
#
# _framework density 23.159144999999999
#
# number of rings (size 3 to 8) (size 9 to 14) (size 15 to 20)
#    0.000    0.750    3.750    3.000    7.000    3.500 
#    2.250    0.000    0.000    0.000    0.000    0.000 
#    0.000    0.000    0.000    0.000    0.000    0.000 
#
# Total GULP energy -89106.436714 kJ/mol
# GULP energy per Si atom -5569.152295 kJ/mol
# Density = 2.310643 g / cm^3
# Si number density = 23.159145 Si / 1000 Ang^3
#
#
#
# Elastic Constant Matrix: (Units=GPa)
#
#
# Indices 1 2 3 4 5 6 
#
# 1 126.0281 38.3647 31.0936 6.6890 -0.8843 -12.0484
# 2 38.3647 102.9318 23.9715 10.4683 -5.0265 -4.4442
# 3 31.0936 23.9715 75.3613 2.5205 -3.5617 1.1475
# 4 6.6890 10.4683 2.5205 28.3222 3.8560 1.9408
# 5 -0.8843 -5.0265 -3.5617 3.8560 42.7992 -2.2299
# 6 -12.0484 -4.4442 1.1475 1.9408 -2.2299 43.6064
#
#
#
# Elastic Compliance Matrix: (Units=1/GPa)
#
#
# Indices 1 2 3 4 5 6 
#
# 1 0.009859 -0.002699 -0.003215 -0.001203 -0.000138 0.002580
# 2 -0.002699 0.011780 -0.002448 -0.003755 0.001502 0.000763
# 3 -0.003215 -0.002448 0.015427 0.000283 0.000826 -0.001514
# 4 -0.001203 -0.003755 0.000283 0.037674 -0.003972 -0.002602
# 5 -0.000138 0.001502 0.000826 -0.003972 0.024043 0.001500
# 6 0.002580 0.000763 -0.001514 -0.002602 0.001500 0.023955
#
#
# Mechanical properties :
#
#
# Convention : Reuss Voigt Hill
#
# Bulk Modulus (GPa) = 49.16072 54.57565 51.86818
# Shear Modulus (GPa) = 34.18953 37.00495 35.59724
#
# Velocity S-wave (km/s) = 3.84642 4.00165 3.92480
# Velocity P-wave (km/s) = 6.40312 6.70579 6.55620
#
# Compressibility (1/GPa) = 0.02034144
#
# Stress axis : x y z
#
# Youngs Moduli (GPa) = 101.42972 84.89279 64.82032
#
# Poissons Ratio (x) = 0.22912 0.20839
# Poissons Ratio (y) = 0.27376 0.15870
# Poissons Ratio (z) = 0.32608 0.20785
#
# Static dielectric constant tensor:
#      x y z
#    x 1.927500 -0.167580 0.139240 
#    y -0.167580 2.517970 -0.217970 
#    z 0.139240 -0.217970 1.972750 
# 
# From -- ./inp_files/209487.got.cif
#   From: 2010.05.17/outbox.cif.g08.bks.cpg/sg2_105_cif.got.tgz:209487.got - 2010.06.03 11:33:40.
