data_PCOD9019706
_publ_section_title
;
Structure prediction by ZEFSAII (Michael W. Deem and Ramdas Pophale) SiO2 
 PCOD9019706
Probable space group: P -1
;
_chemical_formula_sum "Si O2"
_cell_formula_units_Z 14
_cell_length_a 17.033149
_cell_length_b 5.634552
_cell_length_c 17.557251
_cell_angle_alpha 76.180359
_cell_angle_beta 29.777349
_cell_angle_gamma 56.752881
_cell_volume 574.745589
_symmetry_space_group_name_H-M "P -1"
_symmetry_group_IT_number 2
_symmetry_cell_setting 'triclinic'
loop_
_space_group_symop_operation_xyz
x,y,z
-x,-y,-z
loop_
_atom_site_type_symbol
_atom_site_label
_atom_site_fract_x
_atom_site_fract_y
_atom_site_fract_z
Si Si1 0.298241 0.488435 0.461111
Si Si2 0.014811 0.400615 0.778004
Si Si3 0.455776 0.638308 0.440532
Si Si4 0.103493 0.611289 0.951220
Si Si5 0.087685 0.744070 0.331035
Si Si6 0.405141 0.259549 0.990439
Si Si7 0.746197 0.706539 0.634641
O O1 0.158133 0.487568 0.640889
O O2 0.477735 0.433936 0.365040
O O3 0.378047 0.240116 0.341191
O O4 0.115076 0.854222 0.543741
O O5 0.795527 0.648456 0.892705
O O6 0.197696 0.002455 0.626624
O O7 0.937757 0.415985 0.925130
O O8 0.500000 0.500000 0.500000
O O9 0.640147 0.642519 0.271061
O O10 0.000000 0.500000 0.000000
O O11 0.000000 0.000000 0.000000
O O12 0.275187 0.608880 0.120684
O O13 0.198154 0.580346 0.333331
O O14 0.972477 0.600291 0.428396
O O15 0.500000 0.000000 0.000000
O O16 0.601397 0.058200 0.779153
#
# Coordination Sequence:
#
# PCOD9019706 Si02
#       7
#     2   2   2   2   2   2   2
#     4  12  24  44  73 109 147 198 257 310 391 459
#     4  12  27  47  74 108 155 197 254 318 389 465
#     4  12  27  51  77 106 149 199 248 326 396 467
#     4  12  30  53  81 116 151 200 263 329 399 475
#     4  10  21  45  66  99 151 198 247 310 382 447
#     4  10  22  44  68 100 150 198 244 307 379 456
#     4  10  22  42  69 102 146 199 252 313 367 453
#
# _framework density 24.358602000000001
#
# number of rings (size 3 to 8) (size 9 to 14) (size 15 to 20)
#    0.000    0.857    4.286    1.286    6.000    1.143 
#    2.571    1.429    0.000    0.000    0.000    0.000 
#    0.000    0.000    0.000    0.000    0.000    0.000 
#
# Total GULP energy -78192.322083 kJ/mol
# GULP energy per Si atom -5585.165863 kJ/mol
# Density = 2.430316 g / cm^3
# Si number density = 24.358602 Si / 1000 Ang^3
#
#
#
# Elastic Constant Matrix: (Units=GPa)
#
#
# Indices 1 2 3 4 5 6 
#
# 1 179.5697 42.6135 59.8848 -18.1433 6.2646 -14.4080
# 2 42.6135 89.2883 26.9291 -5.3446 7.1418 -11.6337
# 3 59.8848 26.9291 132.9748 -15.6515 21.6850 -15.9350
# 4 -18.1433 -5.3446 -15.6515 41.1810 -7.9026 0.4090
# 5 6.2646 7.1418 21.6850 -7.9026 46.1512 -4.9098
# 6 -14.4080 -11.6337 -15.9350 0.4090 -4.9098 20.4935
#
#
#
# Elastic Compliance Matrix: (Units=1/GPa)
#
#
# Indices 1 2 3 4 5 6 
#
# 1 0.007321 -0.002437 -0.002488 0.002162 0.001142 0.002059
# 2 -0.002437 0.013345 -0.000864 0.000132 -0.000774 0.005003
# 3 -0.002488 -0.000864 0.010188 0.001950 -0.003470 0.004812
# 4 0.002162 0.000132 0.001950 0.026670 0.003706 0.003467
# 5 0.001142 -0.000774 -0.003470 0.003706 0.024260 0.003404
# 6 0.002059 0.005003 0.004812 0.003467 0.003404 0.057571
#
#
# Mechanical properties :
#
#
# Convention : Reuss Voigt Hill
#
# Bulk Modulus (GPa) = 51.88098 73.40970 62.64534
# Shear Modulus (GPa) = 31.77463 39.72550 35.75006
#
# Velocity S-wave (km/s) = 3.61564 4.04277 3.83516
# Velocity P-wave (km/s) = 6.22700 7.21072 6.73684
#
# Compressibility (1/GPa) = 0.01927489
#
# Stress axis : x y z
#
# Youngs Moduli (GPa) = 136.59544 74.93509 98.15735
#
# Poissons Ratio (x) = 0.18262 0.24425
# Poissons Ratio (y) = 0.33290 0.08479
# Poissons Ratio (z) = 0.33990 0.06473
#
# Static dielectric constant tensor:
#      x y z
#    x 1.943390 0.053780 0.003610 
#    y 0.053780 2.019290 0.085640 
#    z 0.003610 0.085640 1.834610 
# 
# From -- ./inp_files/107532.got.cif
#   From: 2010.05.17/outbox.cif.g08.bks.cpg/sg2_54_cif.got.tgz:107532.got - 2010.06.03 11:33:40.
