data_PCOD9019008
_publ_section_title
;
Structure prediction by ZEFSAII (Michael W. Deem and Ramdas Pophale) SiO2 
 PCOD9019008
Probable space group: P -1
;
_chemical_formula_sum "Si O2"
_cell_formula_units_Z 16
_cell_length_a 11.648491
_cell_length_b 15.179004
_cell_length_c 8.824664
_cell_angle_alpha 117.560243
_cell_angle_beta 151.043965
_cell_angle_gamma 56.023148
_cell_volume 625.083756
_symmetry_space_group_name_H-M "P -1"
_symmetry_group_IT_number 2
_symmetry_cell_setting 'triclinic'
loop_
_space_group_symop_operation_xyz
x,y,z
-x,-y,-z
loop_
_atom_site_type_symbol
_atom_site_label
_atom_site_fract_x
_atom_site_fract_y
_atom_site_fract_z
Si Si1 0.074305 0.749587 0.151598
Si Si2 0.622210 0.745894 0.416223
Si Si3 0.015942 0.895273 0.663845
Si Si4 0.579036 0.410098 0.796806
Si Si5 0.096278 0.576927 0.274276
Si Si6 0.363918 0.950517 0.428557
Si Si7 0.214326 0.051349 0.878293
Si Si8 0.984992 0.674683 0.530584
O O1 0.323558 0.672200 0.295431
O O2 0.032171 0.684594 0.192995
O O3 0.038538 0.865268 0.264536
O O4 0.855730 0.762788 0.786333
O O5 0.601581 0.635506 0.352834
O O6 0.378162 0.841898 0.274636
O O7 0.712366 0.734410 0.339283
O O8 0.816548 0.929936 0.320120
O O9 0.081731 0.769884 0.666562
O O10 0.883598 0.962875 0.714124
O O11 0.225823 0.938227 0.868032
O O12 0.398369 0.522330 0.612976
O O13 0.814962 0.397411 0.170517
O O14 0.970144 0.605433 0.315248
O O15 0.000000 0.500000 0.000000
O O16 0.500000 0.000000 0.500000
O O17 0.556813 0.919745 0.768057
#
# Coordination Sequence:
#
# PCOD9019008 Si02
#       8
#     2   2   2   2   2   2   2   2
#     4  10  21  44  67  94 132 169 219 271 320 385
#     4  10  22  43  63  99 132 174 212 264 324 390
#     4  11  22  41  63  96 133 174 210 260 323 383
#     4  11  24  43  68  95 130 169 223 270 328 384
#     4  12  24  47  70  95 127 174 221 275 333 380
#     4  11  22  37  64  95 132 170 211 256 314 390
#     4  10  23  40  64  94 134 170 213 261 318 387
#     4  11  25  43  67  95 138 168 216 275 321 388
#
# _framework density 25.596571999999998
#
# number of rings (size 3 to 8) (size 9 to 14) (size 15 to 20)
#    0.000    1.250    3.750    1.875    1.750    1.000 
#    4.500    1.250    0.000    0.000    0.000    0.000 
#    0.000    0.000    0.000    0.000    0.000    0.000 
#
# Total GULP energy -89507.107796 kJ/mol
# GULP energy per Si atom -5594.194237 kJ/mol
# Density = 2.553831 g / cm^3
# Si number density = 25.596572 Si / 1000 Ang^3
#
#
#
# Elastic Constant Matrix: (Units=GPa)
#
#
# Indices 1 2 3 4 5 6 
#
# 1 97.9181 27.7410 30.7154 -1.2930 -22.6632 -37.1368
# 2 27.7410 87.6430 38.1392 -11.1143 -13.6441 -33.0033
# 3 30.7154 38.1392 79.3597 -5.4197 -24.8970 -24.2000
# 4 -1.2930 -11.1143 -5.4197 42.3344 -4.7922 -2.1816
# 5 -22.6632 -13.6441 -24.8970 -4.7922 34.8656 8.0222
# 6 -37.1368 -33.0033 -24.2000 -2.1816 8.0222 46.3692
#
#
#
# Elastic Compliance Matrix: (Units=1/GPa)
#
#
# Indices 1 2 3 4 5 6 
#
# 1 0.016858 0.001323 -0.000374 0.002450 0.008583 0.012879
# 2 0.001323 0.018444 -0.004610 0.005209 0.002848 0.011534
# 3 -0.000374 -0.004610 0.020440 0.002995 0.011766 0.005193
# 4 0.002450 0.005209 0.002995 0.026698 0.007796 0.007140
# 5 0.008583 0.002848 0.011766 0.007796 0.043016 0.007966
# 6 0.012879 0.011534 0.005193 0.007140 0.007966 0.041758
#
#
# Mechanical properties :
#
#
# Convention : Reuss Voigt Hill
#
# Bulk Modulus (GPa) = 20.65166 50.90133 35.77650
# Shear Modulus (GPa) = 26.22265 35.93552 31.07908
#
# Velocity S-wave (km/s) = 3.20419 3.75096 3.48830
# Velocity P-wave (km/s) = 4.66634 6.22003 5.49834
#
# Compressibility (1/GPa) = 0.04842226
#
# Stress axis : x y z
#
# Youngs Moduli (GPa) = 59.31835 54.21678 48.92349
#
# Poissons Ratio (x) = -0.07173 0.01827
# Poissons Ratio (y) = -0.07848 0.22552
# Poissons Ratio (z) = 0.02216 0.24992
#
# Static dielectric constant tensor:
#      x y z
#    x 2.016770 -0.021290 0.011800 
#    y -0.021290 2.038130 -0.036560 
#    z 0.011800 -0.036560 2.066890 
# 
# From -- ./inp_files/97720.got.cif
#   From: 2010.05.17/outbox.cif.g08.bks.cpg/sg2_49_cif.got.tgz:97720.got - 2010.06.03 11:33:40.
