data_PCOD9019039
_publ_section_title
;
Structure prediction by ZEFSAII (Michael W. Deem and Ramdas Pophale) SiO2 
 PCOD9019039
Probable space group: P -1
;
_chemical_formula_sum "Si O2"
_cell_formula_units_Z 16
_cell_length_a 12.117824
_cell_length_b 17.477936
_cell_length_c 8.717278
_cell_angle_alpha 29.540641
_cell_angle_beta 65.913216
_cell_angle_gamma 55.930085
_cell_volume 739.704515
_symmetry_space_group_name_H-M "P -1"
_symmetry_group_IT_number 2
_symmetry_cell_setting 'triclinic'
loop_
_space_group_symop_operation_xyz
x,y,z
-x,-y,-z
loop_
_atom_site_type_symbol
_atom_site_label
_atom_site_fract_x
_atom_site_fract_y
_atom_site_fract_z
Si Si1 0.437205 0.849316 0.241671
Si Si2 0.589584 0.095054 0.335174
Si Si3 0.391822 0.198160 0.508211
Si Si4 0.208276 0.973697 0.404443
Si Si5 0.934997 0.202854 0.644044
Si Si6 0.371614 0.667192 0.344742
Si Si7 0.917617 0.590118 0.733164
Si Si8 0.929888 0.252832 0.188521
O O1 0.574604 0.752334 0.430816
O O2 0.308347 0.957089 0.237402
O O3 0.408723 0.708839 0.416990
O O4 0.443287 0.991838 0.873829
O O5 0.485782 0.233803 0.272622
O O6 0.720991 0.994312 0.541078
O O7 0.500000 0.000000 0.500000
O O8 0.636385 0.177933 0.029767
O O9 0.242269 0.286992 0.372069
O O10 0.187051 0.798084 0.715422
O O11 0.058135 0.131303 0.222960
O O12 0.777855 0.315806 0.584801
O O13 0.945255 0.209236 0.440307
O O14 0.016908 0.282004 0.558264
O O15 0.000000 0.000000 0.000000
O O16 0.500000 0.500000 0.500000
O O17 0.921055 0.445136 0.864926
O O18 0.000000 0.500000 0.000000
#
# Coordination Sequence:
#
# PCOD9019039 Si02
#       8
#     2   2   2   2   2   2   2   2
#     4  10  21  44  67  97 134 176 224 283 340 409
#     4  11  24  39  68  95 132 172 232 271 335 411
#     4  10  22  42  69  98 129 180 225 278 342 404
#     4  10  22  41  69  96 132 184 228 276 340 416
#     4  11  23  43  69  95 140 180 227 283 342 411
#     4  12  26  41  65 103 137 172 223 288 343 399
#     4  10  24  40  67  99 135 173 225 286 344 395
#     4  10  22  41  67  93 134 176 231 275 339 410
#
# _framework density 21.63026
#
# number of rings (size 3 to 8) (size 9 to 14) (size 15 to 20)
#    0.000    1.500    2.500    1.500    7.000    1.000 
#    0.000    3.125    0.000    0.000    0.000    0.000 
#    0.000    0.000    0.000    0.000    0.000    0.000 
#
# Total GULP energy -89125.982029 kJ/mol
# GULP energy per Si atom -5570.373877 kJ/mol
# Density = 2.158103 g / cm^3
# Si number density = 21.630260 Si / 1000 Ang^3
#
#
#
# Elastic Constant Matrix: (Units=GPa)
#
#
# Indices 1 2 3 4 5 6 
#
# 1 98.1004 5.2874 8.3782 1.5220 -5.4932 -19.7430
# 2 5.2874 71.8352 10.0953 7.4524 1.1039 -12.6867
# 3 8.3782 10.0953 32.0884 -1.6035 -11.3013 3.5759
# 4 1.5220 7.4524 -1.6035 27.3184 5.2990 -3.2558
# 5 -5.4932 1.1039 -11.3013 5.2990 37.7284 -3.8253
# 6 -19.7430 -12.6867 3.5759 -3.2558 -3.8253 36.4133
#
#
#
# Elastic Compliance Matrix: (Units=1/GPa)
#
#
# Indices 1 2 3 4 5 6 
#
# 1 0.012029 0.000980 -0.003799 -0.000559 0.001407 0.007334
# 2 0.000980 0.016350 -0.006714 -0.003922 -0.001145 0.006416
# 3 -0.003799 -0.006714 0.038762 0.001481 0.010338 -0.006987
# 4 -0.000559 -0.003922 0.001481 0.038874 -0.004867 0.001149
# 5 0.001407 -0.001145 0.010338 -0.004867 0.030741 0.002143
# 6 0.007334 0.006416 -0.006987 0.001149 0.002143 0.034689
#
#
# Mechanical properties :
#
#
# Convention : Reuss Voigt Hill
#
# Bulk Modulus (GPa) = 20.80104 27.72732 24.26418
# Shear Modulus (GPa) = 24.20902 32.17620 28.19261
#
# Velocity S-wave (km/s) = 3.34910 3.86107 3.61416
# Velocity P-wave (km/s) = 4.95912 5.72046 5.35334
#
# Compressibility (1/GPa) = 0.04807453
#
# Stress axis : x y z
#
# Youngs Moduli (GPa) = 83.13419 61.16271 25.79875
#
# Poissons Ratio (x) = -0.05995 0.09801
# Poissons Ratio (y) = -0.08149 0.17322
# Poissons Ratio (z) = 0.31581 0.41066
#
# Static dielectric constant tensor:
#      x y z
#    x 1.825570 -0.013450 -0.103860 
#    y -0.013450 1.761040 -0.128440 
#    z -0.103860 -0.128440 1.586850 
# 
# From -- ./inp_files/278670.got.cif
#   From: 2010.05.17/outbox.cif.g08.bks.cpg/sg2_140_cif.got.tgz:278670.got - 2010.06.03 11:33:40.
