data_PCOD9019107
_publ_section_title
;
Structure prediction by ZEFSAII (Michael W. Deem and Ramdas Pophale) SiO2 
 PCOD9019107
Probable space group: P -1
;
_chemical_formula_sum "Si O2"
_cell_formula_units_Z 15
_cell_length_a 5.009472
_cell_length_b 10.010216
_cell_length_c 11.922648
_cell_angle_alpha 97.047641
_cell_angle_beta 85.663461
_cell_angle_gamma 107.300818
_cell_volume 566.026050
_symmetry_space_group_name_H-M "P -1"
_symmetry_group_IT_number 2
_symmetry_cell_setting 'triclinic'
loop_
_space_group_symop_operation_xyz
x,y,z
-x,-y,-z
loop_
_atom_site_type_symbol
_atom_site_label
_atom_site_fract_x
_atom_site_fract_y
_atom_site_fract_z
Si Si1 0.847887 0.378793 0.660794
Si Si2 0.423896 0.991350 0.736711
Si Si3 0.500000 0.000000 0.500000
Si Si4 0.770170 0.408364 0.911167
Si Si5 0.909210 0.962821 0.872634
Si Si6 0.431537 0.330103 0.113792
Si Si7 0.266786 0.673991 0.668955
Si Si8 0.688066 0.729646 0.467247
O O1 0.994965 0.544477 0.649724
O O2 0.023291 0.303582 0.567750
O O3 0.875361 0.350757 0.790204
O O4 0.525649 0.340364 0.632698
O O5 0.627897 0.984312 0.831737
O O6 0.269268 0.836030 0.670041
O O7 0.168279 0.040038 0.794509
O O8 0.589796 0.062295 0.631258
O O9 0.299726 0.107355 0.508525
O O10 0.621116 0.520543 0.881833
O O11 0.558139 0.298224 0.987954
O O12 0.000000 0.500000 0.000000
O O13 0.842759 0.793136 0.857684
O O14 0.000000 0.000000 0.000000
O O15 0.643876 0.336221 0.207330
O O16 0.514700 0.662701 0.577299
#
# Coordination Sequence:
#
# PCOD9019107 Si02
#       8
#     2   2   1   2   2   2   2   2
#     4  12  24  42  67 105 133 170 230 278 336 404
#     4  10  24  44  72  96 130 191 223 283 345 411
#     4  10  26  52  68 100 142 184 234 274 358 412
#     4  11  23  42  66  97 140 180 215 275 351 406
#     4  11  24  44  68 100 135 175 239 285 335 396
#     4  10  23  42  67  96 133 189 223 273 341 420
#     4  10  21  44  68  94 135 170 225 273 340 406
#     4  11  27  43  70  99 135 178 221 285 335 402
#
# _framework density 26.500547999999998
#
# number of rings (size 3 to 8) (size 9 to 14) (size 15 to 20)
#    0.000    1.333    1.333    2.800    3.733   11.733 
#    2.400    0.000    0.000    0.000    0.000    0.000 
#    0.000    0.000    0.000    0.000    0.000    0.000 
#
# Total GULP energy -83752.638826 kJ/mol
# GULP energy per Si atom -5583.509255 kJ/mol
# Density = 2.644023 g / cm^3
# Si number density = 26.500548 Si / 1000 Ang^3
#
#
#
# Elastic Constant Matrix: (Units=GPa)
#
#
# Indices 1 2 3 4 5 6 
#
# 1 76.9731 17.7300 13.9559 0.4480 -3.7605 12.8486
# 2 17.7300 51.4288 3.4583 21.6556 13.5598 14.5326
# 3 13.9559 3.4583 123.2824 -12.2340 -15.1121 7.1457
# 4 0.4480 21.6556 -12.2340 11.1686 -4.2900 -6.6077
# 5 -3.7605 13.5598 -15.1121 -4.2900 35.0729 -6.7637
# 6 12.8486 14.5326 7.1457 -6.6077 -6.7637 34.4046
#
#
#
# Elastic Compliance Matrix: (Units=1/GPa)
#
#
# Indices 1 2 3 4 5 6 
#
# 1 0.014460 -0.000520 -0.001948 -0.005644 -0.000944 -0.006046
# 2 -0.000520 -0.014780 0.007219 0.055465 0.019291 0.019383
# 3 -0.001948 0.007219 0.007117 -0.010850 -0.002489 -0.006373
# 4 -0.005644 0.055465 -0.010850 -0.070642 -0.043299 -0.041147
# 5 -0.000944 0.019291 -0.002489 -0.043299 0.012032 -0.013230
# 6 -0.006046 0.019383 -0.006373 -0.041147 -0.013230 0.013956
#
#
# Mechanical properties :
#
#
# Convention : Reuss Voigt Hill
#
# Bulk Modulus (GPa) = 61.35458 35.77474 48.56466
# Shear Modulus (GPa) = -119.26193 30.56525 -44.34834
#
# Velocity S-wave (km/s) = -6.71575 3.39983 -4.09527
# Velocity P-wave (km/s) = 6.07722 5.37966 1.99898
#
# Compressibility (1/GPa) = 0.01629870
#
# Stress axis : x y z
#
# Youngs Moduli (GPa) = 69.15428 -67.65705 140.50824
#
# Poissons Ratio (x) = -0.03519 0.27368
# Poissons Ratio (y) = 0.03597 -1.01430
# Poissons Ratio (z) = 0.13470 0.48840
#
# Static dielectric constant tensor:
#      x y z
#    x 2.073370 0.075750 -0.107320 
#    y 0.075750 2.286830 -0.134450 
#    z -0.107320 -0.134450 2.254590 
# 
# From -- ./inp_files/362193.got.cif
#   From: 2010.05.17/outbox.cif.g08.bks.cpg/sg2_182_cif.got.tgz:362193.got - 2010.06.03 11:33:40.
