data_PCOD9019478
_publ_section_title
;
Structure prediction by ZEFSAII (Michael W. Deem and Ramdas Pophale) SiO2 
 PCOD9019478
Probable space group: P -1
;
_chemical_formula_sum "Si O2"
_cell_formula_units_Z 14
_cell_length_a 11.161704
_cell_length_b 14.592302
_cell_length_c 7.763361
_cell_angle_alpha 87.968737
_cell_angle_beta 102.505466
_cell_angle_gamma 152.233415
_cell_volume 540.139504
_symmetry_space_group_name_H-M "P -1"
_symmetry_group_IT_number 2
_symmetry_cell_setting 'triclinic'
loop_
_space_group_symop_operation_xyz
x,y,z
-x,-y,-z
loop_
_atom_site_type_symbol
_atom_site_label
_atom_site_fract_x
_atom_site_fract_y
_atom_site_fract_z
Si Si1 0.602947 0.951632 0.415045
Si Si2 0.930024 0.105915 0.046370
Si Si3 0.232887 0.125258 0.702421
Si Si4 0.797094 0.554228 0.341798
Si Si5 0.000000 0.500000 0.500000
Si Si6 0.500000 0.500000 0.000000
Si Si7 0.571410 0.125597 0.263965
Si Si8 0.359830 0.491388 0.364806
O O1 0.494409 0.967765 0.275429
O O2 0.914531 0.192483 0.558089
O O3 0.622699 0.870443 0.325598
O O4 0.413385 0.816974 0.539599
O O5 0.059628 0.261450 0.220217
O O6 0.168044 0.259991 0.968801
O O7 0.881843 0.980160 0.142889
O O8 0.650282 0.965645 0.901724
O O9 0.458153 0.358929 0.755216
O O10 0.000000 0.000000 0.500000
O O11 0.884585 0.509796 0.337502
O O12 0.631373 0.434741 0.479612
O O13 0.604739 0.482118 0.158701
O O14 0.897396 0.357065 0.320215
O O15 0.500000 0.500000 0.500000
#
# Coordination Sequence:
#
# PCOD9019478 Si02
#       8
#     2   2   2   2   1   1   2   2
#     4  10  21  44  72  94 142 188 235 293 363 429
#     4  12  26  44  70 109 145 186 241 303 355 433
#     4  12  24  43  70 103 142 193 237 288 366 432
#     4  11  21  44  72 101 143 190 238 300 358 428
#     4  10  24  44  70 102 140 192 240 286 372 432
#     4  12  24  42  74 104 146 190 244 308 354 430
#     4  10  23  45  71 102 141 188 238 301 355 431
#     4  12  23  45  70  99 146 194 233 292 368 428
#
# _framework density 25.919229000000001
#
# number of rings (size 3 to 8) (size 9 to 14) (size 15 to 20)
#    0.000    0.857    5.714    0.857    0.000    1.714 
#    0.000    2.857    0.000    0.000    0.000    0.000 
#    0.000    0.000    0.000    0.000    0.000    0.000 
#
# Total GULP energy -77942.417677 kJ/mol
# GULP energy per Si atom -5567.315548 kJ/mol
# Density = 2.586024 g / cm^3
# Si number density = 25.919229 Si / 1000 Ang^3
#
#
#
# Elastic Constant Matrix: (Units=GPa)
#
#
# Indices 1 2 3 4 5 6 
#
# 1 88.0136 9.7132 31.9292 -14.0691 22.8222 -2.3144
# 2 9.7132 113.7808 69.4472 -17.7987 19.4682 -9.2265
# 3 31.9292 69.4472 194.9088 -1.0432 52.8150 9.7736
# 4 -14.0691 -17.7987 -1.0432 57.7130 11.1794 0.8191
# 5 22.8222 19.4682 52.8150 11.1794 49.7770 -6.4338
# 6 -2.3144 -9.2265 9.7736 0.8191 -6.4338 38.5074
#
#
#
# Elastic Compliance Matrix: (Units=1/GPa)
#
#
# Indices 1 2 3 4 5 6 
#
# 1 0.014278 0.001368 -0.000782 0.005330 -0.007446 0.000027
# 2 0.001368 0.012684 -0.004609 0.004328 -0.001152 0.004007
# 3 -0.000782 -0.004609 0.009490 0.000301 -0.008623 -0.005007
# 4 0.005330 0.004328 0.000301 0.021809 -0.009453 -0.000762
# 5 -0.007446 -0.001152 -0.008623 -0.009453 0.036224 0.007719
# 6 0.000027 0.004007 -0.005007 -0.000762 0.007719 0.029507
#
#
# Mechanical properties :
#
#
# Convention : Reuss Voigt Hill
#
# Bulk Modulus (GPa) = 35.20248 68.76473 51.98361
# Shear Modulus (GPa) = 35.33385 48.24038 41.78712
#
# Velocity S-wave (km/s) = 3.69620 4.31882 4.01958
# Velocity P-wave (km/s) = 5.64154 7.17340 6.45308
#
# Compressibility (1/GPa) = 0.02840709
#
# Stress axis : x y z
#
# Youngs Moduli (GPa) = 70.03820 78.83665 105.37030
#
# Poissons Ratio (x) = -0.10787 0.08237
# Poissons Ratio (y) = -0.09583 0.48568
# Poissons Ratio (z) = 0.05475 0.36338
#
# Static dielectric constant tensor:
#      x y z
#    x 1.973250 -0.131730 0.049860 
#    y -0.131730 1.231040 -0.300630 
#    z 0.049860 -0.300630 1.921730 
# 
# From -- ./inp_files/261916.got.cif
#   From: 2010.05.17/outbox.cif.g08.bks.cpg/sg2_131_cif.got.tgz:261916.got - 2010.06.03 11:33:40.
