data_PCOD9019088
_publ_section_title
;
Structure prediction by ZEFSAII (Michael W. Deem and Ramdas Pophale) SiO2 
 PCOD9019088
Probable space group: P -1
;
_chemical_formula_sum "Si O2"
_cell_formula_units_Z 10
_cell_length_a 6.527333
_cell_length_b 18.843004
_cell_length_c 4.865163
_cell_angle_alpha 114.635041
_cell_angle_beta 78.015538
_cell_angle_gamma 65.298943
_cell_volume 438.159220
_symmetry_space_group_name_H-M "P -1"
_symmetry_group_IT_number 2
_symmetry_cell_setting 'triclinic'
loop_
_space_group_symop_operation_xyz
x,y,z
-x,-y,-z
loop_
_atom_site_type_symbol
_atom_site_label
_atom_site_fract_x
_atom_site_fract_y
_atom_site_fract_z
Si Si1 0.740700 0.444936 0.548472
Si Si2 0.568995 0.884856 0.011736
Si Si3 0.541144 0.626163 0.250271
Si Si4 0.701466 0.685272 0.834792
Si Si5 0.240907 0.988761 0.771286
O O1 0.500000 0.500000 0.500000
O O2 0.708587 0.369791 0.594512
O O3 0.015385 0.387812 0.245041
O O4 0.711446 0.522773 0.892782
O O5 0.758528 0.917078 0.064210
O O6 0.318350 0.950947 0.379083
O O7 0.670597 0.779294 0.893168
O O8 0.480444 0.910567 0.764089
O O9 0.657448 0.638428 0.511011
O O10 0.509474 0.699611 0.150216
O O11 0.000000 0.000000 0.000000
#
# Coordination Sequence:
#
# PCOD9019088 Si02
#       5
#     2   2   2   2   2
#     4  11  25  43  65  92 128 178 222 255 315 380
#     4  10  23  40  64  99 123 162 214 251 318 383
#     4  11  25  42  63  91 128 176 217 257 323 367
#     4  12  25  40  65  95 133 165 213 275 308 370
#     4  10  21  44  68  90 128 166 199 259 321 385
#
# _framework density 22.822754
#
# number of rings (size 3 to 8) (size 9 to 14) (size 15 to 20)
#    0.000    1.200    2.000    3.000    5.600    3.200 
#    0.000    0.000    0.000    0.000    0.000    0.000 
#    0.000    0.000    0.000    0.000    0.000    0.000 
#
# Total GULP energy -55913.918923 kJ/mol
# GULP energy per Si atom -5591.391892 kJ/mol
# Density = 2.277081 g / cm^3
# Si number density = 22.822754 Si / 1000 Ang^3
#
#
#
# Elastic Constant Matrix: (Units=GPa)
#
#
# Indices 1 2 3 4 5 6 
#
# 1 97.0041 47.9679 33.9222 13.1793 3.1960 39.0642
# 2 47.9679 118.2383 20.5336 -7.0512 17.2807 35.2655
# 3 33.9222 20.5336 51.3713 -13.1378 15.0287 3.9850
# 4 13.1793 -7.0512 -13.1378 39.3243 5.6707 3.9494
# 5 3.1960 17.2807 15.0287 5.6707 26.1592 -13.1569
# 6 39.0642 35.2655 3.9850 3.9494 -13.1569 43.7064
#
#
#
# Elastic Compliance Matrix: (Units=1/GPa)
#
#
# Indices 1 2 3 4 5 6 
#
# 1 0.030368 -0.007218 -0.025374 -0.020586 0.013523 -0.013074
# 2 -0.007218 0.026843 0.016598 0.023062 -0.048131 -0.033294
# 3 -0.025374 0.016598 0.059154 0.041677 -0.059886 -0.017900
# 4 -0.020586 0.023062 0.041677 0.062689 -0.064952 -0.029225
# 5 0.013523 -0.048131 -0.059886 -0.064952 0.160273 0.086325
# 6 -0.013074 -0.033294 -0.017900 -0.029225 0.086325 0.091688
#
#
# Mechanical properties :
#
#
# Convention : Reuss Voigt Hill
#
# Bulk Modulus (GPa) = 11.85169 52.38458 32.11813
# Shear Modulus (GPa) = 10.18061 32.78399 21.48230
#
# Velocity S-wave (km/s) = 2.11433 3.79418 3.07134
# Velocity P-wave (km/s) = 3.34137 6.49592 5.16535
#
# Compressibility (1/GPa) = 0.08437617
#
# Stress axis : x y z
#
# Youngs Moduli (GPa) = 32.92960 37.25359 16.90499
#
# Poissons Ratio (x) = 0.26889 0.42896
# Poissons Ratio (y) = 0.23768 -0.28059
# Poissons Ratio (z) = 0.83557 -0.61833
#
# Static dielectric constant tensor:
#      x y z
#    x 1.829790 0.025750 0.009800 
#    y 0.025750 1.861240 -0.006630 
#    z 0.009800 -0.006630 1.812770 
# 
# From -- ./inp_files/3324.got.cif
#   From: 2010.05.17/outbox.cif.g08.bks.cpg/sg2_2_cif.got.tgz:3324.got - 2010.06.03 11:33:40.
