data_PCOD9019410
_publ_section_title
;
Structure prediction by ZEFSAII (Michael W. Deem and Ramdas Pophale) SiO2 
 PCOD9019410
Probable space group: P -1
;
_chemical_formula_sum "Si O2"
_cell_formula_units_Z 16
_cell_length_a 14.716032
_cell_length_b 13.985451
_cell_length_c 5.862948
_cell_angle_alpha 72.139413
_cell_angle_beta 88.555894
_cell_angle_gamma 39.194007
_cell_volume 678.992298
_symmetry_space_group_name_H-M "P -1"
_symmetry_group_IT_number 2
_symmetry_cell_setting 'triclinic'
loop_
_space_group_symop_operation_xyz
x,y,z
-x,-y,-z
loop_
_atom_site_type_symbol
_atom_site_label
_atom_site_fract_x
_atom_site_fract_y
_atom_site_fract_z
Si Si1 0.047248 0.840359 0.104506
Si Si2 0.606006 0.176960 0.417797
Si Si3 0.934782 0.945882 0.532536
Si Si4 0.334524 0.399155 0.931746
Si Si5 0.385443 0.507830 0.485866
Si Si6 0.699805 0.755482 0.296299
Si Si7 0.141313 0.424822 0.172362
Si Si8 0.651328 0.926523 0.787955
O O1 0.232436 0.665998 0.234318
O O2 0.986663 0.853024 0.349149
O O3 0.982383 0.860795 0.845936
O O4 0.000000 0.000000 0.000000
O O5 0.490154 0.328798 0.495125
O O6 0.750126 0.118626 0.403732
O O7 0.681845 0.007688 0.628465
O O8 0.496810 0.250884 0.158577
O O9 0.000000 0.000000 0.500000
O O10 0.327955 0.512421 0.726386
O O11 0.328873 0.314360 0.813120
O O12 0.197139 0.484321 0.043606
O O13 0.500000 0.500000 0.500000
O O14 0.848434 0.589807 0.548223
O O15 0.531322 0.919444 0.294613
O O16 0.724178 0.835921 0.095151
O O17 0.277654 0.224270 0.256662
O O18 0.000000 0.500000 0.000000
#
# Coordination Sequence:
#
# PCOD9019410 Si02
#       8
#     2   2   2   2   2   2   2   2
#     4  10  24  48  70 101 142 193 245 311 382 439
#     4  12  26  45  73 110 141 192 257 304 373 450
#     4  10  24  46  73 100 148 192 243 308 380 444
#     4  11  25  43  73 101 144 180 249 304 367 447
#     4  12  27  45  75 104 145 197 254 312 374 447
#     4  10  21  44  71  98 139 180 233 290 366 431
#     4  11  24  44  69 104 146 186 232 295 373 450
#     4  10  22  39  71 100 135 183 228 297 351 438
#
# _framework density 23.564332
#
# number of rings (size 3 to 8) (size 9 to 14) (size 15 to 20)
#    0.000    1.250    2.500    1.875   10.500    3.500 
#    4.500    0.000    0.000    0.000    0.000    0.000 
#    0.000    0.000    0.000    0.000    0.000    0.000 
#
# Total GULP energy -89257.148409 kJ/mol
# GULP energy per Si atom -5578.571776 kJ/mol
# Density = 2.351070 g / cm^3
# Si number density = 23.564332 Si / 1000 Ang^3
#
#
#
# Elastic Constant Matrix: (Units=GPa)
#
#
# Indices 1 2 3 4 5 6 
#
# 1 110.1625 -2.0276 87.4045 -14.7932 6.4091 -16.3027
# 2 -2.0276 39.3532 17.9730 5.4177 -2.3420 -3.8787
# 3 87.4045 17.9730 181.8368 -1.8948 27.3562 -17.3407
# 4 -14.7932 5.4177 -1.8948 24.2636 4.3189 0.2960
# 5 6.4091 -2.3420 27.3562 4.3189 41.6908 -10.7818
# 6 -16.3027 -3.8787 -17.3407 0.2960 -10.7818 37.2209
#
#
#
# Elastic Compliance Matrix: (Units=1/GPa)
#
#
# Indices 1 2 3 4 5 6 
#
# 1 0.018156 0.004720 -0.009205 0.008523 0.003987 0.005243
# 2 0.004720 0.029890 -0.005837 -0.005459 0.006483 0.004384
# 3 -0.009205 -0.005837 0.011329 -0.002266 -0.006423 -0.001205
# 4 0.008523 -0.005459 -0.002266 0.048352 -0.005073 0.000254
# 5 0.003987 0.006483 -0.006423 -0.005073 0.030635 0.008344
# 6 0.005243 0.004384 -0.001205 0.000254 0.008344 0.031474
#
#
# Mechanical properties :
#
#
# Convention : Reuss Voigt Hill
#
# Bulk Modulus (GPa) = 25.81959 59.78357 42.80158
# Shear Modulus (GPa) = 24.58340 35.83524 30.20932
#
# Velocity S-wave (km/s) = 3.23344 3.90390 3.58438
# Velocity P-wave (km/s) = 4.99209 6.76358 5.94420
#
# Compressibility (1/GPa) = 0.03873029
#
# Stress axis : x y z
#
# Youngs Moduli (GPa) = 55.07855 33.45656 88.27173
#
# Poissons Ratio (x) = -0.15791 0.81251
# Poissons Ratio (y) = -0.25997 0.51526
# Poissons Ratio (z) = 0.50698 0.19529
#
# Static dielectric constant tensor:
#      x y z
#    x 1.954120 -0.040690 -0.054830 
#    y -0.040690 1.943780 0.118250 
#    z -0.054830 0.118250 2.092340 
# 
# From -- ./inp_files/97723.got.cif
#   From: 2010.05.17/outbox.cif.g08.bks.cpg/sg2_49_cif.got.tgz:97723.got - 2010.06.03 11:33:40.
