data_PCOD9019897
_publ_section_title
;
Structure prediction by ZEFSAII (Michael W. Deem and Ramdas Pophale) SiO2 
 PCOD9019897
Probable space group: P -1
;
_chemical_formula_sum "Si O2"
_cell_formula_units_Z 15
_cell_length_a 7.912710
_cell_length_b 6.595731
_cell_length_c 14.026796
_cell_angle_alpha 96.215649
_cell_angle_beta 114.166420
_cell_angle_gamma 87.745912
_cell_volume 663.966019
_symmetry_space_group_name_H-M "P -1"
_symmetry_group_IT_number 2
_symmetry_cell_setting 'triclinic'
loop_
_space_group_symop_operation_xyz
x,y,z
-x,-y,-z
loop_
_atom_site_type_symbol
_atom_site_label
_atom_site_fract_x
_atom_site_fract_y
_atom_site_fract_z
Si Si1 0.074539 0.117424 0.335827
Si Si2 0.184494 0.811320 0.178629
Si Si3 0.303453 0.980685 0.832367
Si Si4 0.331490 0.910933 0.520563
Si Si5 0.274919 0.120638 0.049940
Si Si6 0.203595 0.468787 0.500684
Si Si7 0.000000 0.500000 0.000000
Si Si8 0.601860 0.774703 0.299101
O O1 0.176572 0.328479 0.393663
O O2 0.143410 0.969636 0.260727
O O3 0.135651 0.993698 0.438528
O O4 0.860997 0.147742 0.261187
O O5 0.387948 0.725466 0.237863
O O6 0.192073 0.944895 0.090289
O O7 0.049162 0.625348 0.116424
O O8 0.315018 0.191720 0.784774
O O9 0.504751 0.875141 0.874814
O O10 0.258415 0.036887 0.933822
O O11 0.310263 0.671330 0.505783
O O12 0.500000 0.000000 0.500000
O O13 0.373448 0.999449 0.638315
O O14 0.170172 0.332604 0.050397
O O15 0.309285 0.363670 0.607190
O O16 0.000000 0.500000 0.500000
#
# Coordination Sequence:
#
# PCOD9019897 Si02
#       8
#     2   2   2   2   2   2   1   2
#     4  11  23  42  70 101 144 185 239 294 363 424
#     4  11  24  45  66 104 137 190 233 305 356 427
#     4  10  21  45  71  96 143 193 231 304 365 413
#     4  11  23  44  67 108 147 181 239 296 354 439
#     4  10  24  45  68  98 140 187 242 299 356 424
#     4  11  25  43  71 109 141 190 240 294 359 441
#     4  12  24  42  70 100 136 182 246 292 354 430
#     4  10  23  44  69  97 147 182 233 293 362 426
#
# _framework density 22.591518000000001
#
# number of rings (size 3 to 8) (size 9 to 14) (size 15 to 20)
#    0.000    1.333    2.667    2.000    0.000    8.533 
#    2.400    7.333    0.000    0.000    0.000    0.000 
#    0.000    0.000    0.000    0.000    0.000    0.000 
#
# Total GULP energy -83514.973243 kJ/mol
# GULP energy per Si atom -5567.664883 kJ/mol
# Density = 2.254010 g / cm^3
# Si number density = 22.591518 Si / 1000 Ang^3
#
#
#
# Elastic Constant Matrix: (Units=GPa)
#
#
# Indices 1 2 3 4 5 6 
#
# 1 57.4287 23.8403 29.0806 -7.9423 4.9437 -3.0924
# 2 23.8403 99.8438 27.3398 5.8606 15.0619 -3.0334
# 3 29.0806 27.3398 134.4773 2.4632 23.3132 5.8122
# 4 -7.9423 5.8606 2.4632 30.8281 -9.8458 3.8927
# 5 4.9437 15.0619 23.3132 -9.8458 53.3876 -3.9853
# 6 -3.0924 -3.0334 5.8122 3.8927 -3.9853 27.2892
#
#
#
# Elastic Compliance Matrix: (Units=1/GPa)
#
#
# Indices 1 2 3 4 5 6 
#
# 1 0.022815 -0.005005 -0.004675 0.007854 0.002964 0.002337
# 2 -0.005005 0.012261 -0.000772 -0.004808 -0.003460 0.001141
# 3 -0.004675 -0.000772 0.009513 -0.002809 -0.004235 -0.002859
# 4 0.007854 -0.004808 -0.002809 0.038817 0.008768 -0.003303
# 5 0.002964 -0.003460 -0.004235 0.008768 0.023121 0.002979
# 6 0.002337 0.001141 -0.002859 -0.003303 0.002979 0.038551
#
#
# Mechanical properties :
#
#
# Convention : Reuss Voigt Hill
#
# Bulk Modulus (GPa) = 42.21865 50.25238 46.23552
# Shear Modulus (GPa) = 28.75604 36.40025 32.57815
#
# Velocity S-wave (km/s) = 3.57160 4.01837 3.80156
# Velocity P-wave (km/s) = 5.97803 6.61982 6.30709
#
# Compressibility (1/GPa) = 0.02368621
#
# Stress axis : x y z
#
# Youngs Moduli (GPa) = 43.83157 81.56092 105.11597
#
# Poissons Ratio (x) = 0.40818 0.49140
# Poissons Ratio (y) = 0.21936 0.08113
# Poissons Ratio (z) = 0.20491 0.06295
#
# Static dielectric constant tensor:
#      x y z
#    x 1.914220 0.005750 0.023020 
#    y 0.005750 1.685020 -0.154910 
#    z 0.023020 -0.154910 1.705970 
# 
# From -- ./inp_files/487798.got.cif
#   From: 2010.05.17/outbox.cif.g08.bks.cpg/sg2_244_cif.got.tgz:487798.got - 2010.06.03 11:33:40.
