data_PCOD9019762
_publ_section_title
;
Structure prediction by ZEFSAII (Michael W. Deem and Ramdas Pophale) SiO2 
 PCOD9019762
Probable space group: P -1
;
_chemical_formula_sum "Si O2"
_cell_formula_units_Z 16
_cell_length_a 5.122920
_cell_length_b 24.854290
_cell_length_c 12.874753
_cell_angle_alpha 152.091589
_cell_angle_beta 66.124689
_cell_angle_gamma 121.446220
_cell_volume 648.064287
_symmetry_space_group_name_H-M "P -1"
_symmetry_group_IT_number 2
_symmetry_cell_setting 'triclinic'
loop_
_space_group_symop_operation_xyz
x,y,z
-x,-y,-z
loop_
_atom_site_type_symbol
_atom_site_label
_atom_site_fract_x
_atom_site_fract_y
_atom_site_fract_z
Si Si1 0.843419 0.511645 0.653287
Si Si2 0.716902 0.924969 0.342899
Si Si3 0.566172 0.685962 0.073164
Si Si4 0.935794 0.493256 0.846725
Si Si5 0.884293 0.114188 0.970996
Si Si6 0.450962 0.240640 0.239701
Si Si7 0.685189 0.704794 0.310962
Si Si8 0.786140 0.910229 0.790600
O O1 0.970930 0.498006 0.723682
O O2 0.544641 0.386047 0.479002
O O3 0.000000 0.500000 0.500000
O O4 0.789863 0.638355 0.889970
O O5 0.509471 0.786286 0.181452
O O6 0.887005 0.915053 0.193640
O O7 0.500000 0.000000 0.500000
O O8 0.000000 0.000000 0.500000
O O9 0.684609 0.754080 0.278884
O O10 0.293651 0.554901 0.928021
O O11 0.669575 0.365163 0.709237
O O12 0.821272 0.599012 0.089892
O O13 0.126083 0.194045 0.155088
O O14 0.688529 0.989444 0.855846
O O15 0.692963 0.183054 0.058406
O O16 0.457998 0.189539 0.267087
O O17 0.889177 0.817026 0.544730
O O18 0.000000 0.000000 0.000000
#
# Coordination Sequence:
#
# PCOD9019762 Si02
#       8
#     2   2   2   2   2   2   2   2
#     4  11  25  42  70 100 146 187 238 301 368 431
#     4  12  28  48  73 104 141 192 245 303 365 442
#     4  11  26  43  72 105 139 192 246 296 375 446
#     4  10  23  42  70 104 141 184 242 299 373 438
#     4  11  25  44  68  98 144 184 241 293 367 426
#     4  11  24  45  66 103 139 187 233 300 359 435
#     4  10  21  45  68 103 145 183 240 305 369 437
#     4  10  22  43  70 101 140 189 243 297 365 434
#
# _framework density 24.688908000000001
#
# number of rings (size 3 to 8) (size 9 to 14) (size 15 to 20)
#    0.000    1.250    1.250    3.000    8.750    0.500 
#    6.750    0.000    0.000    0.000    0.000    0.000 
#    0.000    0.000    0.000    0.000    0.000    0.000 
#
# Total GULP energy -89215.754268 kJ/mol
# GULP energy per Si atom -5575.984642 kJ/mol
# Density = 2.463272 g / cm^3
# Si number density = 24.688908 Si / 1000 Ang^3
#
#
#
# Elastic Constant Matrix: (Units=GPa)
#
#
# Indices 1 2 3 4 5 6 
#
# 1 81.9953 12.2407 25.1637 -5.4136 -8.4203 3.2427
# 2 12.2407 110.2975 52.1113 -8.6652 -10.5156 -0.1660
# 3 25.1637 52.1113 127.5243 -21.6935 8.8030 -5.9175
# 4 -5.4136 -8.6652 -21.6935 44.7336 -3.0889 -3.8744
# 5 -8.4203 -10.5156 8.8030 -3.0889 38.3590 3.4435
# 6 3.2427 -0.1660 -5.9175 -3.8744 3.4435 20.5926
#
#
#
# Elastic Compliance Matrix: (Units=1/GPa)
#
#
# Indices 1 2 3 4 5 6 
#
# 1 0.013754 0.000471 -0.003364 0.000088 0.004271 -0.003826
# 2 0.000471 0.012059 -0.005493 -0.000142 0.004874 -0.002397
# 3 -0.003364 -0.005493 0.012147 0.004556 -0.005176 0.005699
# 4 0.000088 -0.000142 0.004556 0.025091 0.000422 0.005944
# 5 0.004271 0.004874 -0.005176 0.000422 0.030202 -0.007092
# 6 -0.003826 -0.002397 0.005699 0.005944 -0.007092 0.053086
#
#
# Mechanical properties :
#
#
# Convention : Reuss Voigt Hill
#
# Bulk Modulus (GPa) = 47.19466 55.42761 51.31113
# Shear Modulus (GPa) = 29.38223 36.09048 32.73636
#
# Velocity S-wave (km/s) = 3.45352 3.82751 3.64532
# Velocity P-wave (km/s) = 5.92112 6.48323 6.20854
#
# Compressibility (1/GPa) = 0.02118884
#
# Stress axis : x y z
#
# Youngs Moduli (GPa) = 72.70863 82.92568 82.32749
#
# Poissons Ratio (x) = -0.03908 0.27694
# Poissons Ratio (y) = -0.03427 0.45219
# Poissons Ratio (z) = 0.24459 0.45547
#
# Static dielectric constant tensor:
#      x y z
#    x 2.171860 0.037430 -0.083490 
#    y 0.037430 2.044760 0.017530 
#    z -0.083490 0.017530 2.093690 
# 
# From -- ./inp_files/118729.got.cif
#   From: 2010.05.17/outbox.cif.g08.bks.cpg/sg2_60_cif.got.tgz:118729.got - 2010.06.03 11:33:40.
