data_PCOD9019057
_publ_section_title
;
Structure prediction by ZEFSAII (Michael W. Deem and Ramdas Pophale) SiO2 
 PCOD9019057
Probable space group: P -1
;
_chemical_formula_sum "Si O2"
_cell_formula_units_Z 13
_cell_length_a 8.005905
_cell_length_b 12.109025
_cell_length_c 9.830142
_cell_angle_alpha 42.995727
_cell_angle_beta 81.030593
_cell_angle_gamma 58.620639
_cell_volume 511.739020
_symmetry_space_group_name_H-M "P -1"
_symmetry_group_IT_number 2
_symmetry_cell_setting 'triclinic'
loop_
_space_group_symop_operation_xyz
x,y,z
-x,-y,-z
loop_
_atom_site_type_symbol
_atom_site_label
_atom_site_fract_x
_atom_site_fract_y
_atom_site_fract_z
Si Si1 0.284818 0.512145 0.916435
Si Si2 0.500047 0.307459 0.652116
Si Si3 0.644338 0.998763 0.692077
Si Si4 0.013537 0.533537 0.155261
Si Si5 0.798143 0.087640 0.355154
Si Si6 0.000000 0.500000 0.500000
Si Si7 0.347849 0.891413 0.909133
O O1 0.090933 0.575636 0.781614
O O2 0.310380 0.677588 0.814957
O O3 0.482656 0.331804 0.971799
O O4 0.219154 0.446140 0.116336
O O5 0.500000 0.500000 0.500000
O O6 0.611610 0.184664 0.610020
O O7 0.255458 0.388084 0.618747
O O8 0.645291 0.141386 0.902759
O O9 0.670938 0.022363 0.509156
O O10 0.442114 0.010934 0.752608
O O11 0.845434 0.774082 0.919382
O O12 0.060565 0.512502 0.325994
O O13 0.843200 0.026998 0.245261
O O14 0.000000 0.000000 0.500000
#
# Coordination Sequence:
#
# PCOD9019057 Si02
#       7
#     2   2   2   2   2   1   2
#     4  10  21  44  68 100 142 178 235 291 347 422
#     4  12  28  49  73 106 144 189 241 291 358 425
#     4  11  24  48  69 100 144 185 228 297 358 418
#     4  10  23  43  72 103 137 186 235 286 358 422
#     4  12  25  41  70 107 138 179 242 290 351 418
#     4  12  26  46  76 102 142 190 240 286 360 420
#     4  11  25  47  67 101 142 189 228 294 356 416
#
# _framework density 25.403573000000002
#
# number of rings (size 3 to 8) (size 9 to 14) (size 15 to 20)
#    0.000    0.923    4.615    2.308    4.308    1.231 
#    0.000    1.538    0.000    0.000    0.000    0.000 
#    0.000    0.000    0.000    0.000    0.000    0.000 
#
# Total GULP energy -72459.203552 kJ/mol
# GULP energy per Si atom -5573.784889 kJ/mol
# Density = 2.534575 g / cm^3
# Si number density = 25.403573 Si / 1000 Ang^3
#
#
#
# Elastic Constant Matrix: (Units=GPa)
#
#
# Indices 1 2 3 4 5 6 
#
# 1 62.6465 -8.7228 34.9276 3.2615 15.3192 10.5363
# 2 -8.7228 62.1243 19.3342 12.8104 10.3137 8.4395
# 3 34.9276 19.3342 110.7186 28.1432 13.4929 18.6742
# 4 3.2615 12.8104 28.1432 50.6066 -0.3092 2.1816
# 5 15.3192 10.3137 13.4929 -0.3092 36.1568 -2.8736
# 6 10.5363 8.4395 18.6742 2.1816 -2.8736 32.6180
#
#
#
# Elastic Compliance Matrix: (Units=1/GPa)
#
#
# Indices 1 2 3 4 5 6 
#
# 1 0.024785 0.008327 -0.006803 0.000324 -0.010911 -0.007249
# 2 0.008327 0.021520 -0.003061 -0.004034 -0.009118 -0.007039
# 3 -0.006803 -0.003061 0.014516 -0.006654 -0.002121 -0.005063
# 4 0.000324 -0.004034 -0.006654 0.024336 0.003981 0.003472
# 5 -0.010911 -0.009118 -0.002121 0.003981 0.036505 0.010048
# 6 -0.007249 -0.007039 -0.005063 0.003472 0.010048 0.038372
#
#
# Mechanical properties :
#
#
# Convention : Reuss Voigt Hill
#
# Bulk Modulus (GPa) = 17.31675 36.28527 26.80101
# Shear Modulus (GPa) = 27.41849 36.53965 31.97907
#
# Velocity S-wave (km/s) = 3.28886 3.79669 3.55186
# Velocity P-wave (km/s) = 4.61016 5.79089 5.23393
#
# Compressibility (1/GPa) = 0.05774757
#
# Stress axis : x y z
#
# Youngs Moduli (GPa) = 40.34672 46.46760 68.88792
#
# Poissons Ratio (x) = -0.38692 0.46864
# Poissons Ratio (y) = -0.33595 0.21085
# Poissons Ratio (z) = 0.27447 0.14223
#
# Static dielectric constant tensor:
#      x y z
#    x 2.124260 -0.002080 0.101760 
#    y -0.002080 1.975790 -0.130730 
#    z 0.101760 -0.130730 2.533240 
# 
# From -- ./inp_files/152806.got.cif
#   From: 2010.05.17/outbox.cif.g08.bks.cpg/sg2_77_cif.got.tgz:152806.got - 2010.06.03 11:33:40.
