data_PCOD9019371
_publ_section_title
;
Structure prediction by ZEFSAII (Michael W. Deem and Ramdas Pophale) SiO2 
 PCOD9019371
Probable space group: P -1
;
_chemical_formula_sum "Si O2"
_cell_formula_units_Z 10
_cell_length_a 14.310949
_cell_length_b 5.985395
_cell_length_c 8.610897
_cell_angle_alpha 92.665113
_cell_angle_beta 133.418718
_cell_angle_gamma 61.971881
_cell_volume 426.681239
_symmetry_space_group_name_H-M "P -1"
_symmetry_group_IT_number 2
_symmetry_cell_setting 'triclinic'
loop_
_space_group_symop_operation_xyz
x,y,z
-x,-y,-z
loop_
_atom_site_type_symbol
_atom_site_label
_atom_site_fract_x
_atom_site_fract_y
_atom_site_fract_z
Si Si1 0.863623 0.228681 0.469182
Si Si2 0.557383 0.185326 0.501254
Si Si3 0.614093 0.763244 0.000738
Si Si4 0.901113 0.923051 0.787137
Si Si5 0.071185 0.397311 0.754801
O O1 0.722628 0.475533 0.212290
O O2 0.962480 0.308035 0.682905
O O3 0.811252 0.112274 0.535962
O O4 0.000000 0.000000 0.500000
O O5 0.500000 0.500000 0.500000
O O6 0.500000 0.000000 0.500000
O O7 0.753265 0.977422 0.718040
O O8 0.484902 0.245493 0.248136
O O9 0.739582 0.807963 0.067873
O O10 0.500000 0.000000 0.000000
O O11 0.031450 0.628314 0.841753
O O12 0.000000 0.000000 0.000000
O O13 0.000000 0.500000 0.500000
#
# Coordination Sequence:
#
# PCOD9019371 Si02
#       5
#     2   2   2   2   2
#     4  11  24  45  78 108 146 200 269 309 384 472
#     4  12  31  52  74 118 163 206 259 331 403 459
#     4  11  25  47  77 111 155 204 254 333 387 463
#     4  12  27  48  77 110 153 208 255 321 387 473
#     4  10  21  44  71 106 143 194 253 306 379 462
#
# _framework density 23.436696999999999
#
# number of rings (size 3 to 8) (size 9 to 14) (size 15 to 20)
#    0.000    0.800    4.000    3.600    8.400    1.600 
#    0.000    0.000    0.000    0.000    0.000    0.000 
#    0.000    0.000    0.000    0.000    0.000    0.000 
#
# Total GULP energy -55792.562138 kJ/mol
# GULP energy per Si atom -5579.256214 kJ/mol
# Density = 2.338335 g / cm^3
# Si number density = 23.436697 Si / 1000 Ang^3
#
#
#
# Elastic Constant Matrix: (Units=GPa)
#
#
# Indices 1 2 3 4 5 6 
#
# 1 142.5917 55.3372 47.7865 -5.8073 15.4278 -5.5143
# 2 55.3372 161.5822 64.3438 18.0985 -7.2207 -34.8242
# 3 47.7865 64.3438 150.4619 11.7951 9.3466 -17.5411
# 4 -5.8073 18.0985 11.7951 52.0889 0.9361 -6.5254
# 5 15.4278 -7.2207 9.3466 0.9361 48.1164 -6.5394
# 6 -5.5143 -34.8242 -17.5411 -6.5254 -6.5394 43.2434
#
#
#
# Elastic Compliance Matrix: (Units=1/GPa)
#
#
# Indices 1 2 3 4 5 6 
#
# 1 0.009325 -0.003464 -0.001736 0.002389 -0.003556 -0.002482
# 2 -0.003464 0.010422 -0.002580 -0.002603 0.004198 0.007146
# 3 -0.001736 -0.002580 0.008566 -0.001112 -0.001364 0.000801
# 4 0.002389 -0.002603 -0.001112 0.020730 -0.001249 0.000697
# 5 -0.003556 0.004198 -0.001364 -0.001249 0.023625 0.005758
# 6 -0.002482 0.007146 0.000801 0.000697 0.005758 0.029864
#
#
# Mechanical properties :
#
#
# Convention : Reuss Voigt Hill
#
# Bulk Modulus (GPa) = 78.41190 87.73010 83.07100
# Shear Modulus (GPa) = 40.86829 47.83429 44.35129
#
# Velocity S-wave (km/s) = 4.18038 4.52264 4.35488
# Velocity P-wave (km/s) = 7.53859 8.04900 7.79797
#
# Compressibility (1/GPa) = 0.01275317
#
# Stress axis : x y z
#
# Youngs Moduli (GPa) = 107.23704 95.95235 116.73523
#
# Poissons Ratio (x) = 0.33234 0.20267
# Poissons Ratio (y) = 0.37143 0.30122
# Poissons Ratio (z) = 0.18618 0.24759
#
# Static dielectric constant tensor:
#      x y z
#    x 1.983830 0.142530 -0.027790 
#    y 0.142530 2.023050 -0.054380 
#    z -0.027790 -0.054380 1.832970 
# 
# From -- ./inp_files/60955.got.cif
#   From: 2010.05.17/outbox.cif.g08.bks.cpg/sg2_31_cif.got.tgz:60955.got - 2010.06.03 11:33:40.
