data_PCOD9019780
_publ_section_title
;
Structure prediction by ZEFSAII (Michael W. Deem and Ramdas Pophale) SiO2 
 PCOD9019780
Probable space group: P -1
;
_chemical_formula_sum "Si O2"
_cell_formula_units_Z 16
_cell_length_a 9.912681
_cell_length_b 18.612274
_cell_length_c 7.733391
_cell_angle_alpha 47.808344
_cell_angle_beta 132.178191
_cell_angle_gamma 136.483680
_cell_volume 678.673867
_symmetry_space_group_name_H-M "P -1"
_symmetry_group_IT_number 2
_symmetry_cell_setting 'triclinic'
loop_
_space_group_symop_operation_xyz
x,y,z
-x,-y,-z
loop_
_atom_site_type_symbol
_atom_site_label
_atom_site_fract_x
_atom_site_fract_y
_atom_site_fract_z
Si Si1 0.221320 0.538429 0.213101
Si Si2 0.926231 0.222749 0.850359
Si Si3 0.546710 0.769400 0.998077
Si Si4 0.830002 0.693513 0.537054
Si Si5 0.523104 0.076512 0.557031
Si Si6 0.271872 0.847447 0.829340
Si Si7 0.371647 0.367180 0.150745
Si Si8 0.792443 0.384063 0.538873
O O1 0.390051 0.635263 0.077771
O O2 0.234804 0.425002 0.420112
O O3 0.232977 0.600643 0.301642
O O4 0.000000 0.500000 0.000000
O O5 0.760075 0.120452 0.759128
O O6 0.865867 0.314111 0.597818
O O7 0.827484 0.198114 0.997119
O O8 0.176306 0.286372 0.989151
O O9 0.752575 0.769198 0.247859
O O10 0.543612 0.836389 0.716797
O O11 0.456880 0.822319 0.978247
O O12 0.722688 0.655560 0.697688
O O13 0.079771 0.772318 0.654431
O O14 0.500000 0.000000 0.500000
O O15 0.354992 0.980331 0.693303
O O16 0.558544 0.341702 0.345779
O O17 0.500000 0.500000 0.000000
O O18 0.000000 0.500000 0.500000
#
# Coordination Sequence:
#
# PCOD9019780 Si02
#       8
#     2   2   2   2   2   2   2   2
#     4  12  23  41  68 100 144 183 222 275 345 421
#     4  11  22  44  69  97 135 182 227 288 344 400
#     4  11  22  41  64  99 141 178 224 277 350 407
#     4  11  23  41  70 102 140 187 222 281 349 408
#     4  10  25  44  71  98 130 181 237 292 341 403
#     4  10  21  45  68  96 133 179 239 283 338 400
#     4  11  23  40  65 102 140 181 227 272 332 421
#     4  12  25  41  64  99 141 180 223 271 341 416
#
# _framework density 23.575386999999999
#
# number of rings (size 3 to 8) (size 9 to 14) (size 15 to 20)
#    0.000    1.000    5.000    1.500    1.750    0.500 
#    0.000    2.500    0.000    9.000    0.000    0.000 
#    0.000    0.000    0.000    0.000    0.000    0.000 
#
# Total GULP energy -89127.617446 kJ/mol
# GULP energy per Si atom -5570.476090 kJ/mol
# Density = 2.352173 g / cm^3
# Si number density = 23.575387 Si / 1000 Ang^3
#
#
#
# Elastic Constant Matrix: (Units=GPa)
#
#
# Indices 1 2 3 4 5 6 
#
# 1 14.5355 -21.0538 -74.9436 -2.6530 27.7640 -35.3979
# 2 -21.0538 102.4333 -51.5404 14.6222 34.5468 -34.7571
# 3 -74.9436 -51.5404 -122.9330 -12.0488 83.5178 -86.6480
# 4 -2.6530 14.6222 -12.0488 45.6829 20.2237 -9.0938
# 5 27.7640 34.5468 83.5178 20.2237 16.5383 25.0955
# 6 -35.3979 -34.7571 -86.6480 -9.0938 25.0955 0.8237
#
#
#
# Elastic Compliance Matrix: (Units=1/GPa)
#
#
# Indices 1 2 3 4 5 6 
#
# 1 0.019926 -0.001138 -0.005772 -0.002989 0.005602 -0.002553
# 2 -0.001138 0.008735 -0.002526 -0.003662 0.000437 0.000301
# 3 -0.005772 -0.002526 0.004723 -0.001655 0.004310 -0.007363
# 4 -0.002989 -0.003662 -0.001655 0.024686 -0.005988 -0.002093
# 5 0.005602 0.000437 0.004310 -0.005988 0.020899 0.009756
# 6 -0.002553 0.000301 -0.007363 -0.002093 0.009756 0.022170
#
#
# Mechanical properties :
#
#
# Convention : Reuss Voigt Hill
#
# Bulk Modulus (GPa) = 68.89747 -33.44885 17.72431
# Shear Modulus (GPa) = 40.04865 22.04719 31.04792
#
# Velocity S-wave (km/s) = 4.12606 3.06139 3.63294
# Velocity P-wave (km/s) = 7.21020 1.31253 5.01319
#
# Compressibility (1/GPa) = 0.01451432
#
# Stress axis : x y z
#
# Youngs Moduli (GPa) = 50.18563 114.47588 211.72762
#
# Poissons Ratio (x) = 0.13024 1.22205
# Poissons Ratio (y) = 0.05710 0.53474
# Poissons Ratio (z) = 0.28966 0.28912
#
# Static dielectric constant tensor:
#      x y z
#    x 2.132710 0.020830 -0.311040 
#    y 0.020830 2.023140 -0.106070 
#    z -0.311040 -0.106070 2.237050 
# 
# From -- ./inp_files/281540.got.cif
#   From: 2010.05.17/outbox.cif.g08.bks.cpg/sg2_141_cif.got.tgz:281540.got - 2010.06.03 11:33:40.
