data_PCOD9019281
_publ_section_title
;
Structure prediction by ZEFSAII (Michael W. Deem and Ramdas Pophale) SiO2 
 PCOD9019281
Probable space group: P -1
;
_chemical_formula_sum "Si O2"
_cell_formula_units_Z 15
_cell_length_a 8.870682
_cell_length_b 12.422956
_cell_length_c 15.216914
_cell_angle_alpha 44.319492
_cell_angle_beta 70.305632
_cell_angle_gamma 104.090979
_cell_volume 745.943482
_symmetry_space_group_name_H-M "P -1"
_symmetry_group_IT_number 2
_symmetry_cell_setting 'triclinic'
loop_
_space_group_symop_operation_xyz
x,y,z
-x,-y,-z
loop_
_atom_site_type_symbol
_atom_site_label
_atom_site_fract_x
_atom_site_fract_y
_atom_site_fract_z
Si Si1 0.000000 0.500000 0.500000
Si Si2 0.340265 0.583632 0.741275
Si Si3 0.681874 0.695621 0.226852
Si Si4 0.160928 0.966555 0.703150
Si Si5 0.828108 0.301540 0.001496
Si Si6 0.855900 0.748317 0.349000
Si Si7 0.689658 0.515105 0.990832
Si Si8 0.456958 0.060836 0.883791
O O1 0.015980 0.321018 0.615259
O O2 0.286915 0.718158 0.336704
O O3 0.268720 0.378358 0.821952
O O4 0.586869 0.820339 0.516008
O O5 0.364819 0.565141 0.850076
O O6 0.110932 0.529365 0.803901
O O7 0.845715 0.778681 0.229920
O O8 0.417545 0.462662 0.445049
O O9 0.662888 0.861923 0.115001
O O10 0.068571 0.050113 0.726588
O O11 0.193934 0.847992 0.833371
O O12 0.953633 0.773780 0.789614
O O13 0.708636 0.152808 0.023943
O O14 0.701823 0.366491 0.020332
O O15 0.500000 0.500000 0.000000
O O16 0.500000 0.000000 0.000000
#
# Coordination Sequence:
#
# PCOD9019281 Si02
#       8
#     1   2   2   2   2   2   2   2
#     4  10  24  38  60  90 140 166 202 258 320 378
#     4  10  23  42  70  93 120 172 216 262 313 391
#     4   9  19  38  63  95 127 160 217 251 318 385
#     4  10  21  44  70  91 125 171 216 264 319 377
#     4  11  25  43  65  95 127 168 220 266 313 375
#     4   9  18  37  63  95 128 166 205 258 317 383
#     4  11  27  45  62  95 132 162 216 274 320 374
#     4  11  25  39  61  98 130 169 208 263 320 386
#
# _framework density 20.108761000000001
#
# number of rings (size 3 to 8) (size 9 to 14) (size 15 to 20)
#    0.000    1.867    1.333    1.600    7.467    4.267 
#    0.000    0.000    0.000    0.000    0.000    0.000 
#    0.000    0.000    0.000    0.000    0.000    0.000 
#
# Total GULP energy -83536.746850 kJ/mol
# GULP energy per Si atom -5569.116457 kJ/mol
# Density = 2.006299 g / cm^3
# Si number density = 20.108761 Si / 1000 Ang^3
#
#
#
# Elastic Constant Matrix: (Units=GPa)
#
#
# Indices 1 2 3 4 5 6 
#
# 1 151.1678 47.2922 25.7707 -6.6813 0.7472 -19.5397
# 2 47.2922 91.3649 16.8566 -11.1090 8.9319 -5.1378
# 3 25.7707 16.8566 102.7583 -7.4672 -13.4948 7.1021
# 4 -6.6813 -11.1090 -7.4672 24.4056 -4.8012 -0.8997
# 5 0.7472 8.9319 -13.4948 -4.8012 29.4334 -10.9650
# 6 -19.5397 -5.1378 7.1021 -0.8997 -10.9650 36.9544
#
#
#
# Elastic Compliance Matrix: (Units=1/GPa)
#
#
# Indices 1 2 3 4 5 6 
#
# 1 0.008859 -0.004159 -0.001531 0.000716 0.002358 0.005117
# 2 -0.004159 0.014253 -0.001551 0.003893 -0.004756 -0.001236
# 3 -0.001531 -0.001551 0.011485 0.003479 0.005813 -0.001423
# 4 0.000716 0.003893 0.003479 0.046022 0.009459 0.004178
# 5 0.002358 -0.004756 0.005813 0.009459 0.044358 0.012860
# 6 0.005117 -0.001236 -0.001423 0.004178 0.012860 0.033786
#
#
# Mechanical properties :
#
#
# Convention : Reuss Voigt Hill
#
# Bulk Modulus (GPa) = 49.71828 58.34779 54.03304
# Shear Modulus (GPa) = 27.78575 35.18345 31.48460
#
# Velocity S-wave (km/s) = 3.72125 4.18743 3.96120
# Velocity P-wave (km/s) = 6.57586 7.24282 6.91739
#
# Compressibility (1/GPa) = 0.02011333
#
# Stress axis : x y z
#
# Youngs Moduli (GPa) = 112.88347 70.16174 87.07240
#
# Poissons Ratio (x) = 0.29177 0.13335
# Poissons Ratio (y) = 0.46943 0.13509
# Poissons Ratio (z) = 0.17287 0.10885
#
# Static dielectric constant tensor:
#      x y z
#    x 1.673380 -0.017370 -0.009470 
#    y -0.017370 1.693530 0.004710 
#    z -0.009470 0.004710 1.764870 
# 
# From -- ./inp_files/270869.got.cif
#   From: 2010.05.17/outbox.cif.g08.bks.cpg/sg2_136_cif.got.tgz:270869.got - 2010.06.03 11:33:40.
