data_PCOD9019009
_publ_section_title
;
Structure prediction by ZEFSAII (Michael W. Deem and Ramdas Pophale) SiO2 
 PCOD9019009
Probable space group: P -1
;
_chemical_formula_sum "Si O2"
_cell_formula_units_Z 16
_cell_length_a 7.960894
_cell_length_b 15.095340
_cell_length_c 14.756462
_cell_angle_alpha 29.206713
_cell_angle_beta 54.191033
_cell_angle_gamma 64.685560
_cell_volume 686.091791
_symmetry_space_group_name_H-M "P -1"
_symmetry_group_IT_number 2
_symmetry_cell_setting 'triclinic'
loop_
_space_group_symop_operation_xyz
x,y,z
-x,-y,-z
loop_
_atom_site_type_symbol
_atom_site_label
_atom_site_fract_x
_atom_site_fract_y
_atom_site_fract_z
Si Si1 0.282218 0.433077 0.880945
Si Si2 0.170697 0.448286 0.563502
Si Si3 0.178759 0.805314 0.326435
Si Si4 0.268064 0.167557 0.278497
Si Si5 0.117858 0.203398 0.975011
Si Si6 0.120157 0.788610 0.562886
Si Si7 0.646423 0.067102 0.304790
Si Si8 0.300917 0.296135 0.485411
O O1 0.152805 0.592813 0.762875
O O2 0.513312 0.534604 0.750960
O O3 0.194814 0.284588 0.117017
O O4 0.281570 0.327074 0.881101
O O5 0.286980 0.651283 0.383072
O O6 0.287898 0.325272 0.571840
O O7 0.000000 0.500000 0.500000
O O8 0.088578 0.321097 0.789974
O O9 0.230168 0.825887 0.397679
O O10 0.928063 0.711430 0.479367
O O11 0.191097 0.011544 0.099286
O O12 0.517241 0.212202 0.175350
O O13 0.126986 0.202379 0.376567
O O14 0.208786 0.953919 0.456629
O O15 0.897531 0.153062 0.147927
O O16 0.500000 0.000000 0.500000
O O17 0.636138 0.892492 0.397216
#
# Coordination Sequence:
#
# PCOD9019009 Si02
#       8
#     2   2   2   2   2   2   2   2
#     4  12  24  41  66 100 133 172 223 275 327 395
#     4  10  23  43  70  95 133 178 221 281 326 388
#     4  10  21  44  67  94 132 174 218 276 329 389
#     4  11  24  39  66  96 134 178 218 266 339 393
#     4  11  24  43  71 101 132 176 228 266 337 397
#     4  11  22  42  64  94 138 174 215 277 328 390
#     4  11  25  45  70 100 139 175 219 275 329 401
#     4  10  24  43  66  97 138 166 227 269 330 384
#
# _framework density 23.320495999999999
#
# number of rings (size 3 to 8) (size 9 to 14) (size 15 to 20)
#    0.000    1.250    3.750    1.875    5.250    6.000 
#    0.000    2.500    0.000    0.000    0.000    0.000 
#    0.000    0.000    0.000    0.000    0.000    0.000 
#
# Total GULP energy -89290.405001 kJ/mol
# GULP energy per Si atom -5580.650313 kJ/mol
# Density = 2.326742 g / cm^3
# Si number density = 23.320496 Si / 1000 Ang^3
#
#
#
# Elastic Constant Matrix: (Units=GPa)
#
#
# Indices 1 2 3 4 5 6 
#
# 1 31.9445 0.8416 26.3601 -8.5992 5.8980 -1.0774
# 2 0.8416 101.7931 42.6203 -11.3082 13.8135 6.3050
# 3 26.3601 42.6203 98.0838 -21.5161 27.5721 -5.3237
# 4 -8.5992 -11.3082 -21.5161 31.6902 5.8318 -1.9721
# 5 5.8980 13.8135 27.5721 5.8318 42.9515 1.2080
# 6 -1.0774 6.3050 -5.3237 -1.9721 1.2080 26.0539
#
#
#
# Elastic Compliance Matrix: (Units=1/GPa)
#
#
# Indices 1 2 3 4 5 6 
#
# 1 0.043276 0.005828 -0.013290 0.004650 0.000139 -0.001991
# 2 0.005828 0.013238 -0.007108 0.001314 -0.000553 -0.004290
# 3 -0.013290 -0.007108 0.023788 0.012897 -0.013124 0.007616
# 4 0.004650 0.001314 0.012897 0.045344 -0.015684 0.006669
# 5 0.000139 -0.000553 -0.013124 -0.015684 0.034145 -0.005313
# 6 -0.001991 -0.004290 0.007616 0.006669 -0.005313 0.041645
#
#
# Mechanical properties :
#
#
# Convention : Reuss Voigt Hill
#
# Bulk Modulus (GPa) = 19.54576 41.27392 30.40984
# Shear Modulus (GPa) = 20.19139 30.93910 25.56524
#
# Velocity S-wave (km/s) = 2.94568 3.64633 3.31457
# Velocity P-wave (km/s) = 4.46866 5.95522 5.26467
#
# Compressibility (1/GPa) = 0.05116200
#
# Stress axis : x y z
#
# Youngs Moduli (GPa) = 23.10735 75.53781 42.03886
#
# Poissons Ratio (x) = -0.44021 0.55869
# Poissons Ratio (y) = -0.13466 0.29880
# Poissons Ratio (z) = 0.30709 0.53691
#
# Static dielectric constant tensor:
#      x y z
#    x 1.959090 -0.076040 -0.021620 
#    y -0.076040 1.953750 0.035560 
#    z -0.021620 0.035560 1.891780 
# 
# From -- ./inp_files/314988.got.cif
#   From: 2010.05.17/outbox.cif.g08.bks.cpg/sg2_158_cif.got.tgz:314988.got - 2010.06.03 11:33:40.
