data_PCOD9019822
_publ_section_title
;
Structure prediction by ZEFSAII (Michael W. Deem and Ramdas Pophale) SiO2 
 PCOD9019822
Probable space group: P -1
;
_chemical_formula_sum "Si O2"
_cell_formula_units_Z 16
_cell_length_a 7.415401
_cell_length_b 6.503915
_cell_length_c 17.517826
_cell_angle_alpha 64.035936
_cell_angle_beta 89.565277
_cell_angle_gamma 59.839478
_cell_volume 631.776572
_symmetry_space_group_name_H-M "P -1"
_symmetry_group_IT_number 2
_symmetry_cell_setting 'triclinic'
loop_
_space_group_symop_operation_xyz
x,y,z
-x,-y,-z
loop_
_atom_site_type_symbol
_atom_site_label
_atom_site_fract_x
_atom_site_fract_y
_atom_site_fract_z
Si Si1 0.131486 0.355879 0.251589
Si Si2 0.772505 0.022476 0.483695
Si Si3 0.578723 0.795719 0.304890
Si Si4 0.006424 0.294541 0.094008
Si Si5 0.650407 0.335442 0.795895
Si Si6 0.709462 0.174492 0.179708
Si Si7 0.308391 0.413037 0.492606
Si Si8 0.965257 0.033674 0.347569
O O1 0.362998 0.066907 0.294666
O O2 0.031122 0.403017 0.159310
O O3 0.183099 0.576711 0.237570
O O4 0.002925 0.276997 0.321714
O O5 0.559375 0.250356 0.491912
O O6 0.757424 0.082722 0.383789
O O7 0.780396 0.744050 0.527958
O O8 0.000000 0.000000 0.500000
O O9 0.669897 0.929204 0.225289
O O10 0.492658 0.650315 0.276919
O O11 0.701745 0.628820 0.409019
O O12 0.798735 0.268088 0.095636
O O13 0.212998 0.984679 0.129958
O O14 0.000000 0.500000 0.000000
O O15 0.495198 0.550673 0.826657
O O16 0.909614 0.061138 0.255632
O O17 0.835681 0.273576 0.585375
#
# Coordination Sequence:
#
# PCOD9019822 Si02
#       8
#     2   2   2   2   2   2   2   2
#     4   9  22  44  67 102 139 179 239 280 352 436
#     4  11  25  43  67  98 134 192 246 304 382 407
#     4  10  21  45  69  94 139 187 240 290 348 416
#     4  10  23  45  75 109 139 174 225 285 354 435
#     4  10  23  46  71  98 141 188 219 297 356 415
#     4  10  23  43  68 104 136 181 239 275 356 441
#     4  11  25  47  66 101 144 187 255 317 343 417
#     4  11  23  45  65  96 139 187 246 300 349 419
#
# _framework density 25.325406000000001
#
# number of rings (size 3 to 8) (size 9 to 14) (size 15 to 20)
#    0.000    1.750    1.250    1.125    0.000    9.000 
#   15.750    6.250    0.000    0.000    0.000    0.000 
#    0.000    0.000    0.000    0.000    0.000    0.000 
#
# Total GULP energy -89457.689622 kJ/mol
# GULP energy per Si atom -5591.105601 kJ/mol
# Density = 2.526776 g / cm^3
# Si number density = 25.325406 Si / 1000 Ang^3
#
#
#
# Elastic Constant Matrix: (Units=GPa)
#
#
# Indices 1 2 3 4 5 6 
#
# 1 134.5503 59.6485 50.9645 -15.4270 -29.2854 13.5128
# 2 59.6485 142.0607 60.1974 -36.7586 -7.7764 10.6435
# 3 50.9645 60.1974 129.7123 -33.9583 -36.0023 4.4133
# 4 -15.4270 -36.7586 -33.9583 39.2939 3.8926 -5.5856
# 5 -29.2854 -7.7764 -36.0023 3.8926 35.5934 -6.4612
# 6 13.5128 10.6435 4.4133 -5.5856 -6.4612 54.6891
#
#
#
# Elastic Compliance Matrix: (Units=1/GPa)
#
#
# Indices 1 2 3 4 5 6 
#
# 1 0.011159 -0.004203 -0.000511 -0.000904 0.007648 -0.001087
# 2 -0.004203 0.011821 -0.003511 0.006772 -0.005334 -0.000917
# 3 -0.000511 -0.003511 0.015761 0.009037 0.014154 0.002133
# 4 -0.000904 0.006772 0.009037 0.039042 0.006131 0.002888
# 5 0.007648 -0.005334 0.014154 0.006131 0.047641 0.004261
# 6 -0.001087 -0.000917 0.002133 0.002888 0.004261 0.019358
#
#
# Mechanical properties :
#
#
# Convention : Reuss Voigt Hill
#
# Bulk Modulus (GPa) = 44.86010 83.10492 63.98251
# Shear Modulus (GPa) = 29.64498 41.61614 35.63056
#
# Velocity S-wave (km/s) = 3.42506 4.05811 3.75495
# Velocity P-wave (km/s) = 5.77870 7.40566 6.64218
#
# Compressibility (1/GPa) = 0.02229152
#
# Stress axis : x y z
#
# Youngs Moduli (GPa) = 89.61429 84.59849 63.44694
#
# Poissons Ratio (x) = 0.35555 0.03242
# Poissons Ratio (y) = 0.37663 0.22275
# Poissons Ratio (z) = 0.04580 0.29701
#
# Static dielectric constant tensor:
#      x y z
#    x 2.141550 -0.005980 -0.056080 
#    y -0.005980 2.120690 0.105540 
#    z -0.056080 0.105540 2.106910 
# 
# From -- ./inp_files/585113.got.cif
#   From: 2010.05.17/outbox.cif.g08.bks.cpg/sg2_293_cif.got.tgz:585113.got - 2010.06.03 11:33:40.
