data_PCOD9019753
_publ_section_title
;
Structure prediction by ZEFSAII (Michael W. Deem and Ramdas Pophale) SiO2 
 PCOD9019753
Probable space group: P -1
;
_chemical_formula_sum "Si O2"
_cell_formula_units_Z 16
_cell_length_a 10.965366
_cell_length_b 12.594048
_cell_length_c 9.160447
_cell_angle_alpha 80.337111
_cell_angle_beta 84.217523
_cell_angle_gamma 32.662735
_cell_volume 671.089900
_symmetry_space_group_name_H-M "P -1"
_symmetry_group_IT_number 2
_symmetry_cell_setting 'triclinic'
loop_
_space_group_symop_operation_xyz
x,y,z
-x,-y,-z
loop_
_atom_site_type_symbol
_atom_site_label
_atom_site_fract_x
_atom_site_fract_y
_atom_site_fract_z
Si Si1 0.192370 0.420660 0.685660
Si Si2 0.984646 0.879929 0.660075
Si Si3 0.532806 0.729762 0.899193
Si Si4 0.010884 0.333666 0.086490
Si Si5 0.602894 0.258911 0.799109
Si Si6 0.518236 0.413625 0.300564
Si Si7 0.063277 0.687134 0.425946
Si Si8 0.275646 0.124226 0.816677
O O1 0.388807 0.358037 0.727588
O O2 0.088407 0.549399 0.523937
O O3 0.299271 0.223824 0.718292
O O4 0.006374 0.566232 0.804257
O O5 0.226111 0.757983 0.640016
O O6 0.933114 0.857814 0.519295
O O7 0.995339 0.775817 0.803184
O O8 0.806014 0.093937 0.699923
O O9 0.781862 0.521760 0.978562
O O10 0.488729 0.681628 0.784538
O O11 0.482397 0.889905 0.829083
O O12 0.363973 0.824985 0.031404
O O13 0.212418 0.187598 0.979447
O O14 0.549708 0.421995 0.800814
O O15 0.319390 0.539850 0.410914
O O16 0.933372 0.776644 0.268297
#
# Coordination Sequence:
#
# PCOD9019753 Si02
#       8
#     2   2   2   2   2   2   2   2
#     4  10  24  47  70  96 138 179 224 281 329 395
#     4  11  24  43  70  98 137 181 218 272 340 401
#     4  11  24  41  67 108 133 171 223 281 335 393
#     4  10  21  45  68 101 136 173 226 277 335 394
#     4  11  24  43  71 102 136 173 228 273 339 401
#     4  12  24  43  70  98 142 175 218 284 331 398
#     4  11  25  46  66 102 136 179 227 270 339 396
#     4  12  24  45  71  99 136 178 226 278 334 398
#
# _framework density 23.841812999999998
#
# number of rings (size 3 to 8) (size 9 to 14) (size 15 to 20)
#    0.000    1.000    6.250    1.500    1.750    4.000 
#    4.500    1.250    0.000    0.000    0.000    0.000 
#    0.000    0.000    0.000    0.000    0.000    0.000 
#
# Total GULP energy -89564.974100 kJ/mol
# GULP energy per Si atom -5597.810881 kJ/mol
# Density = 2.378755 g / cm^3
# Si number density = 23.841813 Si / 1000 Ang^3
#
#
#
# Elastic Constant Matrix: (Units=GPa)
#
#
# Indices 1 2 3 4 5 6 
#
# 1 57.1822 25.0315 10.2230 -2.7672 -4.4837 5.5038
# 2 25.0315 116.7214 25.7020 8.6868 4.7624 24.7381
# 3 10.2230 25.7020 73.1102 0.5991 -2.5876 -2.6103
# 4 -2.7672 8.6868 0.5991 28.4066 -0.6929 -12.4436
# 5 -4.4837 4.7624 -2.5876 -0.6929 10.8415 -6.3264
# 6 5.5038 24.7381 -2.6103 -12.4436 -6.3264 34.1336
#
#
#
# Elastic Compliance Matrix: (Units=1/GPa)
#
#
# Indices 1 2 3 4 5 6 
#
# 1 0.022070 -0.008434 0.000826 0.009388 0.019234 0.009604
# 2 -0.008434 0.020695 -0.008032 -0.019720 -0.031696 -0.027316
# 3 0.000826 -0.008032 0.017354 0.008267 0.016137 0.013020
# 4 0.009388 -0.019720 0.008267 0.062526 0.044448 0.044443
# 5 0.019234 -0.031696 0.016137 0.044448 0.159869 0.066938
# 6 0.009604 -0.027316 0.013020 0.044443 0.066938 0.077149
#
#
# Mechanical properties :
#
#
# Convention : Reuss Voigt Hill
#
# Bulk Modulus (GPa) = 34.67413 40.99186 37.83300
# Shear Modulus (GPa) = 12.48263 27.08015 19.78139
#
# Velocity S-wave (km/s) = 2.29063 3.37386 2.88356
# Velocity P-wave (km/s) = 4.64445 5.69279 5.19513
#
# Compressibility (1/GPa) = 0.02883994
#
# Stress axis : x y z
#
# Youngs Moduli (GPa) = 45.30977 48.32101 57.62250
#
# Poissons Ratio (x) = 0.40753 -0.04757
# Poissons Ratio (y) = 0.38213 0.46280
# Poissons Ratio (z) = -0.03740 0.38809
#
# Static dielectric constant tensor:
#      x y z
#    x 1.906220 0.003140 -0.029380 
#    y 0.003140 1.919220 -0.008430 
#    z -0.029380 -0.008430 1.905400 
# 
# From -- ./inp_files/258016.got.cif
#   From: 2010.05.17/outbox.cif.g08.bks.cpg/sg2_130_cif.got.tgz:258016.got - 2010.06.03 11:33:40.
