data_PCOD9019264
_publ_section_title
;
Structure prediction by ZEFSAII (Michael W. Deem and Ramdas Pophale) SiO2 
 PCOD9019264
Probable space group: P -1
;
_chemical_formula_sum "Si O2"
_cell_formula_units_Z 16
_cell_length_a 9.770687
_cell_length_b 16.621313
_cell_length_c 12.062759
_cell_angle_alpha 148.623072
_cell_angle_beta 45.572486
_cell_angle_gamma 133.596763
_cell_volume 705.793364
_symmetry_space_group_name_H-M "P -1"
_symmetry_group_IT_number 2
_symmetry_cell_setting 'triclinic'
loop_
_space_group_symop_operation_xyz
x,y,z
-x,-y,-z
loop_
_atom_site_type_symbol
_atom_site_label
_atom_site_fract_x
_atom_site_fract_y
_atom_site_fract_z
Si Si1 0.709197 0.458667 0.311331
Si Si2 0.650781 0.870059 0.557233
Si Si3 0.236511 0.212545 0.038915
Si Si4 0.445068 0.128738 0.033520
Si Si5 0.991068 0.397356 0.495752
Si Si6 0.410204 0.547682 0.219000
Si Si7 0.878781 0.781400 0.510572
Si Si8 0.282522 0.992207 0.564867
O O1 0.500000 0.500000 0.500000
O O2 0.644315 0.271417 0.103944
O O3 0.812230 0.589176 0.315867
O O4 0.850013 0.507777 0.395558
O O5 0.543045 0.686887 0.380054
O O6 0.839385 0.865926 0.519602
O O7 0.694566 0.948550 0.504511
O O8 0.507089 0.962501 0.811052
O O9 0.367636 0.146352 0.974117
O O10 0.345933 0.390343 0.146104
O O11 0.044115 0.234344 0.239123
O O12 0.196884 0.109524 0.830273
O O13 0.272569 0.161964 0.250695
O O14 0.769868 0.381962 0.639445
O O15 0.000000 0.500000 0.500000
O O16 0.500000 0.500000 0.000000
O O17 0.106809 0.832171 0.477285
O O18 0.500000 0.000000 0.500000
#
# Coordination Sequence:
#
# PCOD9019264 Si02
#       8
#     2   2   2   2   2   2   2   2
#     4  10  21  44  70 103 140 177 232 291 345 411
#     4  12  26  46  70 102 147 182 234 289 355 418
#     4  11  22  45  69 103 139 183 234 293 344 414
#     4  11  24  44  75 104 139 181 236 294 351 413
#     4  10  23  39  73 105 135 178 234 292 343 408
#     4  11  25  44  70 106 140 184 232 285 354 416
#     4  11  26  45  73 102 141 189 236 284 354 422
#     4  12  27  46  70 102 148 186 233 292 349 418
#
# _framework density 22.669523000000002
#
# number of rings (size 3 to 8) (size 9 to 14) (size 15 to 20)
#    0.000    1.000    5.000    1.500    8.750    2.500 
#    2.250    0.625    0.000    0.000    0.000    0.000 
#    0.000    0.000    0.000    0.000    0.000    0.000 
#
# Total GULP energy -89419.887793 kJ/mol
# GULP energy per Si atom -5588.742987 kJ/mol
# Density = 2.261793 g / cm^3
# Si number density = 22.669523 Si / 1000 Ang^3
#
#
#
# Elastic Constant Matrix: (Units=GPa)
#
#
# Indices 1 2 3 4 5 6 
#
# 1 134.1700 28.9075 14.2172 -14.3151 -5.0607 -1.9736
# 2 28.9075 83.2318 9.9607 6.1529 2.3032 11.1755
# 3 14.2172 9.9607 89.3143 -3.8071 2.0096 12.7443
# 4 -14.3151 6.1529 -3.8071 30.7063 -2.0737 2.5571
# 5 -5.0607 2.3032 2.0096 -2.0737 26.6239 -3.7114
# 6 -1.9736 11.1755 12.7443 2.5571 -3.7114 42.5810
#
#
#
# Elastic Compliance Matrix: (Units=1/GPa)
#
#
# Indices 1 2 3 4 5 6 
#
# 1 0.009000 -0.003647 -0.001117 0.004834 0.002718 0.001655
# 2 -0.003647 0.014260 -0.000613 -0.004511 -0.002747 -0.003697
# 3 -0.001117 -0.000613 0.012061 0.001306 -0.001485 -0.003709
# 4 0.004834 -0.004511 0.001306 0.036218 0.003918 -0.000816
# 5 0.002718 -0.002747 -0.001485 0.003918 0.039357 0.004487
# 6 0.001655 -0.003697 -0.003709 -0.000816 0.004487 0.026082
#
#
# Mechanical properties :
#
#
# Convention : Reuss Voigt Hill
#
# Bulk Modulus (GPa) = 40.70437 45.87632 43.29035
# Shear Modulus (GPa) = 32.06741 36.89094 34.47917
#
# Velocity S-wave (km/s) = 3.76514 4.03840 3.90416
# Velocity P-wave (km/s) = 6.07423 6.48274 6.28180
#
# Compressibility (1/GPa) = 0.02456738
#
# Stress axis : x y z
#
# Youngs Moduli (GPa) = 111.11201 70.12390 82.91290
#
# Poissons Ratio (x) = 0.25573 0.09263
# Poissons Ratio (y) = 0.40521 0.05081
# Poissons Ratio (z) = 0.12413 0.04298
#
# Static dielectric constant tensor:
#      x y z
#    x 1.829640 -0.010940 0.002730 
#    y -0.010940 1.901740 0.010200 
#    z 0.002730 0.010200 1.826820 
# 
# From -- ./inp_files/403497.got.cif
#   From: 2010.05.17/outbox.cif.g08.bks.cpg/sg2_202_cif.got.tgz:403497.got - 2010.06.03 11:33:40.
