data_PCOD9019123
_publ_section_title
;
Structure prediction by ZEFSAII (Michael W. Deem and Ramdas Pophale) SiO2 
 PCOD9019123
Probable space group: P -1
;
_chemical_formula_sum "Si O2"
_cell_formula_units_Z 10
_cell_length_a 5.785076
_cell_length_b 12.089758
_cell_length_c 7.896868
_cell_angle_alpha 67.604725
_cell_angle_beta 122.564680
_cell_angle_gamma 104.729167
_cell_volume 429.511321
_symmetry_space_group_name_H-M "P -1"
_symmetry_group_IT_number 2
_symmetry_cell_setting 'triclinic'
loop_
_space_group_symop_operation_xyz
x,y,z
-x,-y,-z
loop_
_atom_site_type_symbol
_atom_site_label
_atom_site_fract_x
_atom_site_fract_y
_atom_site_fract_z
Si Si1 0.223562 0.402692 0.611159
Si Si2 0.307813 0.460901 0.115282
Si Si3 0.971295 0.198206 0.413935
Si Si4 0.186260 0.020275 0.322832
Si Si5 0.338731 0.234520 0.067631
O O1 0.513406 0.478528 0.698493
O O2 0.000000 0.500000 0.500000
O O3 0.135564 0.320878 0.463560
O O4 0.237998 0.306457 0.825682
O O5 0.281719 0.319155 0.156577
O O6 0.500000 0.500000 0.000000
O O7 0.000000 0.500000 0.000000
O O8 0.668053 0.225591 0.211280
O O9 0.086268 0.110166 0.373036
O O10 0.954245 0.110855 0.624394
O O11 0.194021 0.102036 0.110568
O O12 0.500000 0.000000 0.500000
#
# Coordination Sequence:
#
# PCOD9019123 Si02
#       5
#     2   2   2   2   2
#     4  11  23  42  69 105 136 179 233 280 346 423
#     4  10  23  43  66  99 143 183 224 285 353 412
#     4  10  21  44  68  96 136 175 232 283 344 414
#     4   9  21  42  67  94 130 182 224 287 346 402
#     4  10  22  40  68  95 141 178 222 285 346 406
#
# _framework density 23.282274000000001
#
# number of rings (size 3 to 8) (size 9 to 14) (size 15 to 20)
#    0.000    2.000    2.000    0.000    5.600    0.800 
#   14.400   14.000    0.000    0.000    0.000    0.000 
#    0.000    0.000    0.000    0.000    0.000    0.000 
#
# Total GULP energy -55761.112998 kJ/mol
# GULP energy per Si atom -5576.111300 kJ/mol
# Density = 2.322928 g / cm^3
# Si number density = 23.282274 Si / 1000 Ang^3
#
#
#
# Elastic Constant Matrix: (Units=GPa)
#
#
# Indices 1 2 3 4 5 6 
#
# 1 105.3436 47.1203 60.7140 -2.7801 40.0758 -18.6196
# 2 47.1203 148.9030 53.3313 1.3192 32.5815 4.7317
# 3 60.7140 53.3313 143.1094 -18.6105 5.1038 -5.2006
# 4 -2.7801 1.3192 -18.6105 54.2649 1.9391 -0.9660
# 5 40.0758 32.5815 5.1038 1.9391 51.3936 -18.0217
# 6 -18.6196 4.7317 -5.2006 -0.9660 -18.0217 57.3870
#
#
#
# Elastic Compliance Matrix: (Units=1/GPa)
#
#
# Indices 1 2 3 4 5 6 
#
# 1 0.019581 -0.000463 -0.007743 -0.001128 -0.013682 0.001374
# 2 -0.000463 0.009644 -0.003451 -0.001267 -0.006530 -0.003330
# 3 -0.007743 -0.003451 0.011795 0.003491 0.007346 0.001207
# 4 -0.001128 -0.001267 0.003491 0.019580 0.000823 0.000643
# 5 -0.013682 -0.006530 0.007346 0.000823 0.036383 0.008204
# 6 0.001374 -0.003330 0.001207 0.000643 0.008204 0.020843
#
#
# Mechanical properties :
#
#
# Convention : Reuss Voigt Hill
#
# Bulk Modulus (GPa) = 56.47893 79.96524 68.22209
# Shear Modulus (GPa) = 34.00417 48.35514 41.17965
#
# Velocity S-wave (km/s) = 3.82582 4.56225 4.21017
# Velocity P-wave (km/s) = 6.62018 7.88497 7.28010
#
# Compressibility (1/GPa) = 0.01770572
#
# Stress axis : x y z
#
# Youngs Moduli (GPa) = 51.07072 103.69093 84.78488
#
# Poissons Ratio (x) = 0.04799 0.65652
# Poissons Ratio (y) = 0.02364 0.29256
# Poissons Ratio (z) = 0.39546 0.35779
#
# Static dielectric constant tensor:
#      x y z
#    x 1.983180 0.135890 -0.180990 
#    y 0.135890 1.800420 -0.001280 
#    z -0.180990 -0.001280 1.918020 
# 
# From -- ./inp_files/4268.got.cif
#   From: 2010.05.17/outbox.cif.g08.bks.cpg/sg2_3_cif.got.tgz:4268.got - 2010.06.03 11:33:40.
