data_PCOD9019738
_publ_section_title
;
Structure prediction by ZEFSAII (Michael W. Deem and Ramdas Pophale) SiO2 
 PCOD9019738
Probable space group: P -1
;
_chemical_formula_sum "Si O2"
_cell_formula_units_Z 13
_cell_length_a 8.429630
_cell_length_b 14.141821
_cell_length_c 8.900685
_cell_angle_alpha 68.649860
_cell_angle_beta 69.134224
_cell_angle_gamma 125.799513
_cell_volume 527.034226
_symmetry_space_group_name_H-M "P -1"
_symmetry_group_IT_number 2
_symmetry_cell_setting 'triclinic'
loop_
_space_group_symop_operation_xyz
x,y,z
-x,-y,-z
loop_
_atom_site_type_symbol
_atom_site_label
_atom_site_fract_x
_atom_site_fract_y
_atom_site_fract_z
Si Si1 0.799933 0.816608 0.792109
Si Si2 0.108832 0.592749 0.748146
Si Si3 0.711548 0.100418 0.518760
Si Si4 0.942396 0.620681 0.284114
Si Si5 0.460511 0.465708 0.737382
Si Si6 0.714671 0.809143 0.505201
Si Si7 0.500000 0.000000 0.000000
O O1 0.636946 0.782171 0.723552
O O2 0.074750 0.889934 0.584832
O O3 0.603981 0.637434 0.042517
O O4 0.958949 0.980856 0.746110
O O5 0.976442 0.452497 0.750181
O O6 0.465858 0.746677 0.533406
O O7 0.081030 0.697573 0.673801
O O8 0.000000 0.500000 0.000000
O O9 0.548773 0.015432 0.783919
O O10 0.500000 0.000000 0.500000
O O11 0.626370 0.474095 0.559849
O O12 0.854945 0.645782 0.153018
O O13 0.188576 0.788315 0.209395
O O14 0.665606 0.665921 0.573693
#
# Coordination Sequence:
#
# PCOD9019738 Si02
#       7
#     2   2   2   2   2   2   1
#     4  11  22  41  72 102 137 189 243 295 355 435
#     4  11  23  44  70 101 143 193 244 293 369 443
#     4  12  24  45  73 106 148 193 235 298 377 423
#     4  10  24  43  66 102 141 185 234 306 360 424
#     4  10  21  45  67  97 142 189 237 297 368 422
#     4  10  22  39  67 105 131 180 249 286 350 437
#     4  12  26  44  68 106 148 184 242 296 352 454
#
# _framework density 24.666329000000001
#
# number of rings (size 3 to 8) (size 9 to 14) (size 15 to 20)
#    0.000    1.231    1.538    5.077    0.000    1.846 
#    8.308    2.308    0.000    0.000    0.000    0.000 
#    0.000    0.000    0.000    0.000    0.000    0.000 
#
# Total GULP energy -72459.230020 kJ/mol
# GULP energy per Si atom -5573.786925 kJ/mol
# Density = 2.461019 g / cm^3
# Si number density = 24.666329 Si / 1000 Ang^3
#
#
#
# Elastic Constant Matrix: (Units=GPa)
#
#
# Indices 1 2 3 4 5 6 
#
# 1 52.8501 42.1411 18.0732 -12.2536 11.4410 -8.6221
# 2 42.1411 164.0448 28.6080 -17.1164 -8.2187 4.7539
# 3 18.0732 28.6080 73.6477 16.0300 14.6211 -16.1074
# 4 -12.2536 -17.1164 16.0300 36.0789 3.9126 2.8443
# 5 11.4410 -8.2187 14.6211 3.9126 26.2456 -12.3589
# 6 -8.6221 4.7539 -16.1074 2.8443 -12.3589 45.2597
#
#
#
# Elastic Compliance Matrix: (Units=1/GPa)
#
#
# Indices 1 2 3 4 5 6 
#
# 1 0.031978 -0.007059 -0.004418 0.011083 -0.015138 0.000431
# 2 -0.007059 0.009514 -0.004645 0.003600 0.007021 -0.002306
# 3 -0.004418 -0.004645 0.022140 -0.013314 -0.006816 0.006501
# 4 0.011083 0.003600 -0.013314 0.040272 -0.005619 -0.007071
# 5 -0.015138 0.007021 -0.006816 -0.005619 0.056062 0.009614
# 6 0.000431 -0.002306 0.006501 -0.007071 0.009614 0.027802
#
#
# Mechanical properties :
#
#
# Convention : Reuss Voigt Hill
#
# Bulk Modulus (GPa) = 31.86029 52.02080 41.94055
# Shear Modulus (GPa) = 21.69451 34.96486 28.32969
#
# Velocity S-wave (km/s) = 2.96889 3.76907 3.39265
# Velocity P-wave (km/s) = 4.96960 6.33062 5.69095
#
# Compressibility (1/GPa) = 0.03138703
#
# Stress axis : x y z
#
# Youngs Moduli (GPa) = 31.27176 105.11353 45.16756
#
# Poissons Ratio (x) = 0.74197 0.19955
# Poissons Ratio (y) = 0.22074 0.20981
# Poissons Ratio (z) = 0.13816 0.48827
#
# Static dielectric constant tensor:
#      x y z
#    x 1.911440 0.053060 0.049120 
#    y 0.053060 2.016670 0.030740 
#    z 0.049120 0.030740 1.959060 
# 
# From -- ./inp_files/267824.got.cif
#   From: 2010.05.17/outbox.cif.g08.bks.cpg/sg2_134_cif.got.tgz:267824.got - 2010.06.03 11:33:40.
