data_PCOD9019783
_publ_section_title
;
Structure prediction by ZEFSAII (Michael W. Deem and Ramdas Pophale) SiO2 
 PCOD9019783
Probable space group: P -1
;
_chemical_formula_sum "Si O2"
_cell_formula_units_Z 13
_cell_length_a 9.744265
_cell_length_b 7.806698
_cell_length_c 13.218691
_cell_angle_alpha 129.900294
_cell_angle_beta 46.757122
_cell_angle_gamma 110.767521
_cell_volume 555.427651
_symmetry_space_group_name_H-M "P -1"
_symmetry_group_IT_number 2
_symmetry_cell_setting 'triclinic'
loop_
_space_group_symop_operation_xyz
x,y,z
-x,-y,-z
loop_
_atom_site_type_symbol
_atom_site_label
_atom_site_fract_x
_atom_site_fract_y
_atom_site_fract_z
Si Si1 0.114056 0.227848 0.655372
Si Si2 0.470537 0.762352 0.585950
Si Si3 0.886534 0.252628 0.590301
Si Si4 0.052716 0.977608 0.846594
Si Si5 0.260796 0.261341 0.197836
Si Si6 0.000000 0.500000 0.000000
Si Si7 0.410563 0.937851 0.183312
O O1 0.336867 0.217286 0.565344
O O2 0.065546 0.285069 0.583294
O O3 0.074087 0.970825 0.582527
O O4 0.995739 0.423710 0.853748
O O5 0.500000 0.500000 0.500000
O O6 0.265658 0.844357 0.673313
O O7 0.481980 0.921897 0.738224
O O8 0.810675 0.474732 0.651218
O O9 0.730368 0.190993 0.727962
O O10 0.038862 0.229960 0.906240
O O11 0.898314 0.848675 0.822693
O O12 0.000000 0.000000 0.000000
O O13 0.317429 0.119552 0.216416
O O14 0.444422 0.234458 0.021274
#
# Coordination Sequence:
#
# PCOD9019783 Si02
#       7
#     2   2   2   2   2   1   2
#     4  10  24  43  69 101 137 186 231 287 351 410
#     4  11  23  44  69 103 145 183 231 290 353 418
#     4  10  21  45  68  96 140 183 226 289 349 404
#     4  12  25  45  72 105 143 189 228 286 360 411
#     4  11  22  41  71 104 134 183 232 284 341 414
#     4  12  26  46  68 102 142 182 240 282 342 436
#     4  10  23  40  65 106 137 174 237 280 343 412
#
# _framework density 23.405390000000001
#
# number of rings (size 3 to 8) (size 9 to 14) (size 15 to 20)
#    0.000    1.231    1.538    4.154    0.000    1.846 
#   11.077    8.462    0.000    0.000    0.000    0.000 
#    0.000    0.000    0.000    0.000    0.000    0.000 
#
# Total GULP energy -72500.188570 kJ/mol
# GULP energy per Si atom -5576.937582 kJ/mol
# Density = 2.335212 g / cm^3
# Si number density = 23.405390 Si / 1000 Ang^3
#
#
#
# Elastic Constant Matrix: (Units=GPa)
#
#
# Indices 1 2 3 4 5 6 
#
# 1 70.7333 12.6725 5.7626 3.1484 -11.8750 6.3666
# 2 12.6725 85.4192 36.3148 11.2488 -22.9177 -7.7216
# 3 5.7626 36.3148 97.0965 23.6728 8.6598 10.8574
# 4 3.1484 11.2488 23.6728 58.8564 -7.6704 -8.2322
# 5 -11.8750 -22.9177 8.6598 -7.6704 44.6425 7.5590
# 6 6.3666 -7.7216 10.8574 -8.2322 7.5590 27.0280
#
#
#
# Elastic Compliance Matrix: (Units=1/GPa)
#
#
# Indices 1 2 3 4 5 6 
#
# 1 0.015656 -0.001711 0.000186 -0.000846 0.004061 -0.005645
# 2 -0.001711 0.019095 -0.009457 0.002654 0.010356 0.007569
# 3 0.000186 -0.009457 0.017497 -0.007647 -0.007835 -0.009912
# 4 -0.000846 0.002654 -0.007647 0.021518 0.004751 0.009255
# 5 0.004061 0.010356 -0.007835 0.004751 0.031508 -0.002215
# 6 -0.005645 0.007569 -0.009912 0.009255 -0.002215 0.047911
#
#
# Mechanical properties :
#
#
# Convention : Reuss Voigt Hill
#
# Bulk Modulus (GPa) = 33.02181 40.30541 36.66361
# Shear Modulus (GPa) = 26.99145 39.33864 33.16505
#
# Velocity S-wave (km/s) = 3.39959 4.10414 3.76837
# Velocity P-wave (km/s) = 5.43589 6.30211 5.88496
#
# Compressibility (1/GPa) = 0.03028301
#
# Stress axis : x y z
#
# Youngs Moduli (GPa) = 63.87136 52.37071 57.15372
#
# Poissons Ratio (x) = 0.08962 -0.01063
# Poissons Ratio (y) = 0.10930 0.54051
# Poissons Ratio (z) = -0.01188 0.49528
#
# Static dielectric constant tensor:
#      x y z
#    x 1.903450 -0.012780 0.014240 
#    y -0.012780 1.917640 -0.136090 
#    z 0.014240 -0.136090 1.984920 
# 
# From -- ./inp_files/160704.got.cif
#   From: 2010.05.17/outbox.cif.g08.bks.cpg/sg2_81_cif.got.tgz:160704.got - 2010.06.03 11:33:40.
