data_PCOD9019449
_publ_section_title
;
Structure prediction by ZEFSAII (Michael W. Deem and Ramdas Pophale) SiO2 
 PCOD9019449
Probable space group: P -1
;
_chemical_formula_sum "Si O2"
_cell_formula_units_Z 15
_cell_length_a 10.883558
_cell_length_b 11.136813
_cell_length_c 11.571868
_cell_angle_alpha 112.100956
_cell_angle_beta 102.738098
_cell_angle_gamma 134.665827
_cell_volume 625.729355
_symmetry_space_group_name_H-M "P -1"
_symmetry_group_IT_number 2
_symmetry_cell_setting 'triclinic'
loop_
_space_group_symop_operation_xyz
x,y,z
-x,-y,-z
loop_
_atom_site_type_symbol
_atom_site_label
_atom_site_fract_x
_atom_site_fract_y
_atom_site_fract_z
Si Si1 0.590207 0.891347 0.252723
Si Si2 0.330362 0.875850 0.306414
Si Si3 0.500000 0.500000 0.500000
Si Si4 0.448944 0.754547 0.821196
Si Si5 0.094854 0.644496 0.842115
Si Si6 0.119087 0.371122 0.398579
Si Si7 0.644013 0.514317 0.099985
Si Si8 0.232733 0.059346 0.445605
O O1 0.490242 0.948072 0.266633
O O2 0.659645 0.891196 0.390644
O O3 0.372700 0.615991 0.044041
O O4 0.844032 0.115388 0.309433
O O5 0.071886 0.565600 0.167345
O O6 0.500000 0.000000 0.500000
O O7 0.275517 0.978680 0.335112
O O8 0.227209 0.333802 0.360639
O O9 0.370453 0.305978 0.511877
O O10 0.248054 0.668109 0.815514
O O11 0.322980 0.595837 0.619319
O O12 0.486619 0.662751 0.877152
O O13 0.706496 0.066635 0.976159
O O14 0.908025 0.546015 0.675872
O O15 0.500000 0.500000 0.000000
O O16 0.929562 0.807396 0.299682
#
# Coordination Sequence:
#
# PCOD9019449 Si02
#       8
#     2   2   1   2   2   2   2   2
#     4  11  24  44  79 100 137 189 232 286 354 408
#     4  10  21  44  72 103 141 178 232 289 353 407
#     4  12  30  46  70 104 140 180 242 284 352 418
#     4  11  24  43  72 108 139 183 234 286 344 417
#     4  11  23  45  71 109 145 172 235 294 342 409
#     4  12  24  46  73 101 142 188 224 288 350 414
#     4  12  25  44  70 106 139 192 237 275 345 423
#     4  11  25  49  67 103 142 183 232 296 340 421
#
# _framework density 23.972024999999999
#
# number of rings (size 3 to 8) (size 9 to 14) (size 15 to 20)
#    0.000    0.800    4.000    3.600    1.867    3.733 
#    0.000    1.333    0.000    0.000    0.000    0.000 
#    0.000    0.000    0.000    0.000    0.000    0.000 
#
# Total GULP energy -83819.550671 kJ/mol
# GULP energy per Si atom -5587.970045 kJ/mol
# Density = 2.391746 g / cm^3
# Si number density = 23.972025 Si / 1000 Ang^3
#
#
#
# Elastic Constant Matrix: (Units=GPa)
#
#
# Indices 1 2 3 4 5 6 
#
# 1 56.0913 9.1503 1.0063 -7.1614 20.6512 -11.1830
# 2 9.1503 119.8253 51.7062 7.8624 11.2554 -11.1368
# 3 1.0063 51.7062 98.6953 -16.3806 23.5231 -10.3712
# 4 -7.1614 7.8624 -16.3806 37.8073 1.0483 19.2328
# 5 20.6512 11.2554 23.5231 1.0483 24.2513 -3.8881
# 6 -11.1830 -11.1368 -10.3712 19.2328 -3.8881 39.2359
#
#
#
# Elastic Compliance Matrix: (Units=1/GPa)
#
#
# Indices 1 2 3 4 5 6 
#
# 1 0.038229 -0.007175 0.017470 0.017465 -0.046881 0.000271
# 2 -0.007175 0.014354 -0.011978 -0.013252 0.012700 0.006617
# 3 0.017470 -0.011978 0.028578 0.022079 -0.038880 -0.005542
# 4 0.017465 -0.013252 0.022079 0.055057 -0.036290 -0.023532
# 5 -0.046881 0.012700 -0.038880 -0.036290 0.116027 0.009252
# 6 0.000271 0.006617 -0.005542 -0.023532 0.009252 0.038429
#
#
# Mechanical properties :
#
#
# Convention : Reuss Voigt Hill
#
# Bulk Modulus (GPa) = 12.85428 44.25972 28.55700
# Shear Modulus (GPa) = 15.62643 34.44216 25.03429
#
# Velocity S-wave (km/s) = 2.55593 3.79458 3.23509
# Velocity P-wave (km/s) = 3.75289 6.14016 5.08851
#
# Compressibility (1/GPa) = 0.07779509
#
# Stress axis : x y z
#
# Youngs Moduli (GPa) = 26.15812 69.66913 34.99194
#
# Poissons Ratio (x) = 0.49988 -0.61130
# Poissons Ratio (y) = 0.18768 0.41912
# Poissons Ratio (z) = -0.45698 0.83447
#
# Static dielectric constant tensor:
#      x y z
#    x 1.967390 0.014090 -0.041770 
#    y 0.014090 1.859260 0.002220 
#    z -0.041770 0.002220 1.915070 
# 
# From -- ./inp_files/418563.got.cif
#   From: 2010.05.17/outbox.cif.g08.bks.cpg/sg2_210_cif.got.tgz:418563.got - 2010.06.03 11:33:40.
