data_PCOD9019605
_publ_section_title
;
Structure prediction by ZEFSAII (Michael W. Deem and Ramdas Pophale) SiO2 
 PCOD9019605
Probable space group: P -1
;
_chemical_formula_sum "Si O2"
_cell_formula_units_Z 14
_cell_length_a 11.004195
_cell_length_b 7.959306
_cell_length_c 14.523566
_cell_angle_alpha 114.824000
_cell_angle_beta 39.326283
_cell_angle_gamma 136.892635
_cell_volume 519.137796
_symmetry_space_group_name_H-M "P -1"
_symmetry_group_IT_number 2
_symmetry_cell_setting 'triclinic'
loop_
_space_group_symop_operation_xyz
x,y,z
-x,-y,-z
loop_
_atom_site_type_symbol
_atom_site_label
_atom_site_fract_x
_atom_site_fract_y
_atom_site_fract_z
Si Si1 0.945734 0.644974 0.121263
Si Si2 0.140400 0.385338 0.222375
Si Si3 0.213088 0.108916 0.818836
Si Si4 0.137355 0.907642 0.358851
Si Si5 0.653780 0.417694 0.420106
Si Si6 0.682695 0.144595 0.569887
Si Si7 0.405374 0.193249 0.073917
O O1 0.203448 0.940831 0.068526
O O2 0.746538 0.660433 0.195662
O O3 0.826134 0.484442 0.246558
O O4 0.000000 0.500000 0.000000
O O5 0.873331 0.614575 0.412793
O O6 0.944051 0.131376 0.214520
O O7 0.970150 0.358681 0.399074
O O8 0.333806 0.362613 0.150505
O O9 0.487552 0.188891 0.699844
O O10 0.000000 0.000000 0.000000
O O11 0.287337 0.919023 0.360098
O O12 0.331916 0.078115 0.194654
O O13 0.310858 0.625028 0.105217
O O14 0.000000 0.000000 0.500000
O O15 0.500000 0.500000 0.500000
O O16 0.457116 0.110851 0.470666
#
# Coordination Sequence:
#
# PCOD9019605 Si02
#       7
#     2   2   2   2   2   2   2
#     4  10  22  46  81 114 152 214 279 338 412 489
#     4  10  21  44  77 115 167 215 266 337 416 485
#     4  11  25  46  74 114 161 217 274 339 418 488
#     4  11  21  43  78 124 167 215 277 332 407 490
#     4  11  22  42  77 117 158 213 275 336 397 488
#     4  12  24  46  82 120 166 216 275 342 414 486
#     4   9  20  42  77 121 166 214 274 339 405 496
#
# _framework density 26.967790000000001
#
# number of rings (size 3 to 8) (size 9 to 14) (size 15 to 20)
#    0.000    1.429    2.857    3.000    0.000    1.143 
#    2.571    9.286    0.000   46.286    0.000    3.000 
#    0.000    0.000    0.000    0.000    0.000    0.000 
#
# Total GULP energy -78525.687140 kJ/mol
# GULP energy per Si atom -5608.977653 kJ/mol
# Density = 2.690641 g / cm^3
# Si number density = 26.967790 Si / 1000 Ang^3
#
#
#
# Elastic Constant Matrix: (Units=GPa)
#
#
# Indices 1 2 3 4 5 6 
#
# 1 180.5387 66.9488 101.6440 -2.0612 -3.5451 -24.8269
# 2 66.9488 140.2395 74.9565 -6.7455 2.1501 -10.1641
# 3 101.6440 74.9565 234.8597 -13.5340 9.2650 -19.3557
# 4 -2.0612 -6.7455 -13.5340 49.4238 -5.2171 8.1663
# 5 -3.5451 2.1501 9.2650 -5.2171 55.2676 5.5268
# 6 -24.8269 -10.1641 -19.3557 8.1663 5.5268 48.7364
#
#
#
# Elastic Compliance Matrix: (Units=1/GPa)
#
#
# Indices 1 2 3 4 5 6 
#
# 1 0.008333 -0.002395 -0.002704 -0.001105 0.000699 0.002777
# 2 -0.002395 0.009316 -0.001905 0.000659 -0.000122 -0.000130
# 3 -0.002704 -0.001905 0.006194 0.001105 -0.001096 0.000625
# 4 -0.001105 0.000659 0.001105 0.021435 0.002124 -0.003819
# 5 0.000699 -0.000122 -0.001096 0.002124 0.018787 -0.002591
# 6 0.002777 -0.000130 0.000625 -0.003819 -0.002591 0.023088
#
#
# Mechanical properties :
#
#
# Convention : Reuss Voigt Hill
#
# Bulk Modulus (GPa) = 101.67526 115.85960 108.76743
# Shear Modulus (GPa) = 47.87478 51.49145 49.68312
#
# Velocity S-wave (km/s) = 4.21795 4.37437 4.29687
# Velocity P-wave (km/s) = 7.84256 8.28064 8.06458
#
# Compressibility (1/GPa) = 0.00983523
#
# Stress axis : x y z
#
# Youngs Moduli (GPa) = 120.00971 107.33958 161.43435
#
# Poissons Ratio (x) = 0.25709 0.43655
# Poissons Ratio (y) = 0.28744 0.30749
# Poissons Ratio (z) = 0.32453 0.20445
#
# Static dielectric constant tensor:
#      x y z
#    x 2.143180 0.006480 -0.023270 
#    y 0.006480 2.049260 -0.086360 
#    z -0.023270 -0.086360 2.038520 
# 
# From -- ./inp_files/251316.got.cif
#   From: 2010.05.17/outbox.cif.g08.bks.cpg/sg2_126_cif.got.tgz:251316.got - 2010.06.03 11:33:40.
