data_PCOD9019864
_publ_section_title
;
Structure prediction by ZEFSAII (Michael W. Deem and Ramdas Pophale) SiO2 
 PCOD9019864
Probable space group: P -1
;
_chemical_formula_sum "Si O2"
_cell_formula_units_Z 16
_cell_length_a 14.793190
_cell_length_b 17.013978
_cell_length_c 11.040955
_cell_angle_alpha 31.647740
_cell_angle_beta 132.934726
_cell_angle_gamma 151.810176
_cell_volume 661.439729
_symmetry_space_group_name_H-M "P -1"
_symmetry_group_IT_number 2
_symmetry_cell_setting 'triclinic'
loop_
_space_group_symop_operation_xyz
x,y,z
-x,-y,-z
loop_
_atom_site_type_symbol
_atom_site_label
_atom_site_fract_x
_atom_site_fract_y
_atom_site_fract_z
Si Si1 0.063334 0.575949 0.096258
Si Si2 0.887795 0.923121 0.206244
Si Si3 0.166303 0.928881 0.402756
Si Si4 0.055429 0.381765 0.852325
Si Si5 0.676899 0.191577 0.639302
Si Si6 0.767127 0.756607 0.572570
Si Si7 0.450316 0.218931 0.059575
Si Si8 0.377998 0.084693 0.649857
O O1 0.986877 0.354195 0.381630
O O2 0.953379 0.602195 0.034015
O O3 0.000000 0.500000 0.000000
O O4 0.286947 0.848662 0.937390
O O5 0.778136 0.739777 0.460365
O O6 0.032218 0.947129 0.238895
O O7 0.721187 0.846252 0.077085
O O8 0.028425 0.187319 0.041596
O O9 0.350937 0.093460 0.263997
O O10 0.249295 0.003808 0.517753
O O11 0.238771 0.639926 0.620328
O O12 0.859564 0.281079 0.753407
O O13 0.585868 0.228383 0.597187
O O14 0.531038 0.920693 0.813263
O O15 0.650872 0.801808 0.437427
O O16 0.641672 0.508040 0.850774
O O17 0.000000 0.000000 0.500000
#
# Coordination Sequence:
#
# PCOD9019864 Si02
#       8
#     2   2   2   2   2   2   2   2
#     4  10  22  42  66  97 137 173 229 280 344 403
#     4  11  24  45  72 101 142 182 227 284 346 414
#     4  11  24  44  69 103 136 182 228 286 347 406
#     4  10  21  45  70  96 140 180 227 289 346 404
#     4  10  24  43  69 102 135 179 234 287 342 408
#     4  12  26  46  68 100 142 183 229 284 346 408
#     4  11  26  45  70 104 137 182 233 284 345 409
#     4  11  25  43  66 100 132 186 231 282 346 409
#
# _framework density 24.189657
#
# number of rings (size 3 to 8) (size 9 to 14) (size 15 to 20)
#    0.000    1.250    3.750    0.750    3.500    4.500 
#    0.000    0.000    0.000    0.000    0.000    0.000 
#    0.000    0.000    0.000    0.000    0.000    0.000 
#
# Total GULP energy -89535.360303 kJ/mol
# GULP energy per Si atom -5595.960019 kJ/mol
# Density = 2.413460 g / cm^3
# Si number density = 24.189657 Si / 1000 Ang^3
#
#
#
# Elastic Constant Matrix: (Units=GPa)
#
#
# Indices 1 2 3 4 5 6 
#
# 1 125.6854 21.6146 35.6676 -16.4067 4.6051 12.0682
# 2 21.6146 71.8502 20.8266 -13.0436 1.4438 6.3778
# 3 35.6676 20.8266 120.1377 -34.8967 -12.6153 -1.7070
# 4 -16.4067 -13.0436 -34.8967 32.9160 -8.4430 1.3605
# 5 4.6051 1.4438 -12.6153 -8.4430 44.5516 6.4917
# 6 12.0682 6.3778 -1.7070 1.3605 6.4917 30.2996
#
#
#
# Elastic Compliance Matrix: (Units=1/GPa)
#
#
# Indices 1 2 3 4 5 6 
#
# 1 0.009422 -0.001571 -0.002126 0.001789 -0.000679 -0.003477
# 2 -0.001571 0.015784 -0.000777 0.004992 0.000835 -0.003143
# 3 -0.002126 -0.000777 0.014487 0.015918 0.007434 -0.000481
# 4 0.001789 0.004992 0.015918 0.054357 0.015425 -0.006612
# 5 -0.000679 0.000835 0.007434 0.015425 0.028431 -0.006270
# 6 -0.003477 -0.003143 -0.000481 -0.006612 -0.006270 0.036663
#
#
# Mechanical properties :
#
#
# Convention : Reuss Voigt Hill
#
# Bulk Modulus (GPa) = 32.52444 52.65453 42.58949
# Shear Modulus (GPa) = 28.03627 37.52443 32.78035
#
# Velocity S-wave (km/s) = 3.40813 3.94288 3.68522
# Velocity P-wave (km/s) = 5.38163 6.52250 5.97934
#
# Compressibility (1/GPa) = 0.03074611
#
# Stress axis : x y z
#
# Youngs Moduli (GPa) = 106.13261 63.35456 69.02676
#
# Poissons Ratio (x) = 0.09954 0.14675
# Poissons Ratio (y) = 0.16675 0.05361
# Poissons Ratio (z) = 0.22563 0.04920
#
# Static dielectric constant tensor:
#      x y z
#    x 1.879900 -0.017520 0.002560 
#    y -0.017520 1.991940 0.019620 
#    z 0.002560 0.019620 1.952720 
# 
# From -- ./inp_files/209486.got.cif
#   From: 2010.05.17/outbox.cif.g08.bks.cpg/sg2_105_cif.got.tgz:209486.got - 2010.06.03 11:33:40.
