data_PCOD9019106
_publ_section_title
;
Structure prediction by ZEFSAII (Michael W. Deem and Ramdas Pophale) SiO2 
 PCOD9019106
Probable space group: P -1
;
_chemical_formula_sum "Si O2"
_cell_formula_units_Z 16
_cell_length_a 22.859048
_cell_length_b 17.066576
_cell_length_c 28.473696
_cell_angle_alpha 21.855818
_cell_angle_beta 10.236481
_cell_angle_gamma 22.829649
_cell_volume 729.069442
_symmetry_space_group_name_H-M "P -1"
_symmetry_group_IT_number 2
_symmetry_cell_setting 'triclinic'
loop_
_space_group_symop_operation_xyz
x,y,z
-x,-y,-z
loop_
_atom_site_type_symbol
_atom_site_label
_atom_site_fract_x
_atom_site_fract_y
_atom_site_fract_z
Si Si1 0.855207 0.207209 0.971284
Si Si2 0.100073 0.557125 0.783946
Si Si3 0.170235 0.142945 0.084701
Si Si4 0.415467 0.125442 0.273044
Si Si5 0.788688 0.679699 0.535625
Si Si6 0.627061 0.845399 0.943084
Si Si7 0.915440 0.886766 0.938048
Si Si8 0.113391 0.506830 0.538814
O O1 0.656901 0.155174 0.109507
O O2 0.588101 0.334061 0.145665
O O3 0.120405 0.355429 0.662137
O O4 0.000000 0.000000 0.000000
O O5 0.500000 0.500000 0.500000
O O6 0.933251 0.666586 0.902509
O O7 0.985924 0.727226 0.738508
O O8 0.958035 0.332639 0.013612
O O9 0.163190 0.191238 0.008537
O O10 0.884076 0.993137 0.404951
O O11 0.522927 0.000287 0.895864
O O12 0.240368 0.345251 0.267515
O O13 0.609077 0.993225 0.152129
O O14 0.857307 0.630241 0.455054
O O15 0.000000 0.500000 0.500000
O O16 0.864821 0.920656 0.349460
O O17 0.393517 0.660003 0.230864
O O18 0.500000 0.000000 0.000000
#
# Coordination Sequence:
#
# PCOD9019106 Si02
#       8
#     2   2   2   2   2   2   2   2
#     4  12  26  40  62 103 137 170 222 273 324 391
#     4  11  23  42  69  98 133 172 216 275 334 388
#     4  10  21  44  68  94 131 174 223 268 321 402
#     4  11  21  42  66  95 131 176 223 267 324 397
#     4  12  23  42  69  96 131 178 223 263 330 405
#     4   9  22  43  70  94 129 172 218 270 327 388
#     4  12  23  38  73  95 130 176 219 270 337 383
#     4  11  23  42  71  91 136 178 218 272 328 391
#
# _framework density 21.945784
#
# number of rings (size 3 to 8) (size 9 to 14) (size 15 to 20)
#    0.000    1.000    5.000    2.250    1.750    1.500 
#    0.000    0.625    5.500    0.000    0.000    0.000 
#    0.000    0.000    0.000    0.000    0.000    0.000 
#
# Total GULP energy -89350.741568 kJ/mol
# GULP energy per Si atom -5584.421348 kJ/mol
# Density = 2.189583 g / cm^3
# Si number density = 21.945784 Si / 1000 Ang^3
#
#
#
# Elastic Constant Matrix: (Units=GPa)
#
#
# Indices 1 2 3 4 5 6 
#
# 1 58.1050 36.0019 9.0171 10.7091 16.6985 0.0497
# 2 36.0019 128.4166 30.6687 2.9460 2.5091 -2.6010
# 3 9.0171 30.6687 44.4303 11.2202 3.7005 -2.9065
# 4 10.7091 2.9460 11.2202 42.4054 3.3834 -2.4240
# 5 16.6985 2.5091 3.7005 3.3834 37.1351 1.2953
# 6 0.0497 -2.6010 -2.9065 -2.4240 1.2953 37.2705
#
#
#
# Elastic Compliance Matrix: (Units=1/GPa)
#
#
# Indices 1 2 3 4 5 6 
#
# 1 0.025543 -0.007353 0.002193 -0.005690 -0.010676 -0.000375
# 2 -0.007353 0.011494 -0.007375 0.002788 0.003000 0.000314
# 3 0.002193 -0.007375 0.029372 -0.007512 -0.002779 0.001381
# 4 -0.005690 0.002788 -0.007512 0.026839 0.000627 0.001340
# 5 -0.010676 0.003000 -0.002779 0.000627 0.031783 -0.001057
# 6 -0.000375 0.000314 0.001381 0.001340 -0.001057 0.027085
#
#
# Mechanical properties :
#
#
# Convention : Reuss Voigt Hill
#
# Bulk Modulus (GPa) = 24.19043 42.48081 33.33562
# Shear Modulus (GPa) = 26.18273 33.71314 29.94793
#
# Velocity S-wave (km/s) = 3.45782 3.92369 3.69810
# Velocity P-wave (km/s) = 5.19507 6.31873 5.78425
#
# Compressibility (1/GPa) = 0.04133866
#
# Stress axis : x y z
#
# Youngs Moduli (GPa) = 39.14942 87.00388 34.04657
#
# Poissons Ratio (x) = 0.63977 -0.07468
# Poissons Ratio (y) = 0.28788 0.25109
# Poissons Ratio (z) = -0.08587 0.64164
#
# Static dielectric constant tensor:
#      x y z
#    x 1.679940 -0.032360 0.054400 
#    y -0.032360 1.801320 -0.007250 
#    z 0.054400 -0.007250 1.769090 
# 
# From -- ./inp_files/187954.got.cif
#   From: 2010.05.17/outbox.cif.g08.bks.cpg/sg2_94_cif.got.tgz:187954.got - 2010.06.03 11:33:40.
