data_PCOD9019866
_publ_section_title
;
Structure prediction by ZEFSAII (Michael W. Deem and Ramdas Pophale) SiO2 
 PCOD9019866
Probable space group: P -1
;
_chemical_formula_sum "Si O2"
_cell_formula_units_Z 16
_cell_length_a 16.064629
_cell_length_b 8.723770
_cell_length_c 16.340954
_cell_angle_alpha 126.838495
_cell_angle_beta 154.496576
_cell_angle_gamma 49.016710
_cell_volume 744.151540
_symmetry_space_group_name_H-M "P -1"
_symmetry_group_IT_number 2
_symmetry_cell_setting 'triclinic'
loop_
_space_group_symop_operation_xyz
x,y,z
-x,-y,-z
loop_
_atom_site_type_symbol
_atom_site_label
_atom_site_fract_x
_atom_site_fract_y
_atom_site_fract_z
Si Si1 0.891071 0.500800 0.755164
Si Si2 0.519612 0.222606 0.598045
Si Si3 0.317169 0.199912 0.568242
Si Si4 0.101418 0.482048 0.765698
Si Si5 0.971899 0.144397 0.941489
Si Si6 0.461354 0.492389 0.868434
Si Si7 0.042762 0.833778 0.557890
Si Si8 0.912230 0.064478 0.690839
O O1 0.668087 0.610987 0.556177
O O2 0.892581 0.296186 0.733336
O O3 0.043052 0.441047 0.793031
O O4 0.938879 0.674911 0.906017
O O5 0.483191 0.240181 0.668134
O O6 0.726738 0.238698 0.753340
O O7 0.500000 0.000000 0.500000
O O8 0.369775 0.307245 0.726295
O O9 0.091033 0.324335 0.372799
O O10 0.301079 0.979666 0.495721
O O11 0.087226 0.307680 0.634424
O O12 0.317660 0.516986 0.972950
O O13 0.037384 0.024471 0.875717
O O14 0.000000 0.000000 0.000000
O O15 0.278472 0.681433 0.726914
O O16 0.500000 0.500000 0.000000
O O17 0.000000 0.000000 0.500000
O O18 0.991140 0.937741 0.635899
#
# Coordination Sequence:
#
# PCOD9019866 Si02
#       8
#     2   2   2   2   2   2   2   2
#     4  11  24  43  67  99 138 172 220 279 338 403
#     4  11  21  44  68  94 124 177 224 266 338 396
#     4  10  22  41  68  97 137 174 220 283 332 401
#     4  10  21  45  70  97 135 180 229 277 334 401
#     4  12  24  44  70  95 133 174 225 280 329 402
#     4  11  23  41  71 104 128 176 242 275 328 407
#     4  11  24  45  68  97 144 181 218 284 342 397
#     4  12  24  43  67 100 138 180 218 273 346 397
#
# _framework density 21.500996000000001
#
# number of rings (size 3 to 8) (size 9 to 14) (size 15 to 20)
#    0.000    1.000    3.750    3.375    0.000    4.000 
#    0.000    2.500    0.000    0.000    0.000    0.000 
#    0.000    0.000    0.000    0.000    0.000    0.000 
#
# Total GULP energy -89183.977751 kJ/mol
# GULP energy per Si atom -5573.998609 kJ/mol
# Density = 2.145206 g / cm^3
# Si number density = 21.500996 Si / 1000 Ang^3
#
#
#
# Elastic Constant Matrix: (Units=GPa)
#
#
# Indices 1 2 3 4 5 6 
#
# 1 99.9372 30.9554 48.8776 6.1282 -17.2915 5.3789
# 2 30.9554 81.8622 35.7852 30.6007 -8.5898 13.2061
# 3 48.8776 35.7852 102.9674 20.5889 -4.6827 12.1518
# 4 6.1282 30.6007 20.5889 41.8530 -12.3204 -0.3550
# 5 -17.2915 -8.5898 -4.6827 -12.3204 44.4487 4.9566
# 6 5.3789 13.2061 12.1518 -0.3550 4.9566 25.2297
#
#
#
# Elastic Compliance Matrix: (Units=1/GPa)
#
#
# Indices 1 2 3 4 5 6 
#
# 1 0.015394 -0.004852 -0.006803 0.006403 0.005947 0.001456
# 2 -0.004852 0.021572 -0.001112 -0.014852 -0.000864 -0.009761
# 3 -0.006803 -0.001112 0.015057 -0.006377 -0.002505 -0.004817
# 4 0.006403 -0.014852 -0.006377 0.039679 0.009025 0.008266
# 5 0.005947 -0.000864 -0.002505 0.009025 0.027425 -0.004870
# 6 0.001456 -0.009761 -0.004817 0.008266 -0.004870 0.047828
#
#
# Mechanical properties :
#
#
# Convention : Reuss Voigt Hill
#
# Bulk Modulus (GPa) = 37.74888 57.33370 47.54129
# Shear Modulus (GPa) = 24.83634 33.58286 29.20960
#
# Velocity S-wave (km/s) = 3.40240 3.95640 3.68981
# Velocity P-wave (km/s) = 5.74718 6.89886 6.34919
#
# Compressibility (1/GPa) = 0.02649085
#
# Stress axis : x y z
#
# Youngs Moduli (GPa) = 64.95927 46.35623 66.41372
#
# Poissons Ratio (x) = 0.22490 0.45181
# Poissons Ratio (y) = 0.31516 0.07383
# Poissons Ratio (z) = 0.44192 0.05153
#
# Static dielectric constant tensor:
#      x y z
#    x 2.354940 -0.036490 -0.025290 
#    y -0.036490 1.894150 -0.068940 
#    z -0.025290 -0.068940 1.677060 
# 
# From -- ./inp_files/349631.got.cif
#   From: 2010.05.17/outbox.cif.g08.bks.cpg/sg2_175_cif.got.tgz:349631.got - 2010.06.03 11:33:40.
