data_PCOD9019205
_publ_section_title
;
Structure prediction by ZEFSAII (Michael W. Deem and Ramdas Pophale) SiO2 
 PCOD9019205
Probable space group: P -1
;
_chemical_formula_sum "Si O2"
_cell_formula_units_Z 16
_cell_length_a 19.543429
_cell_length_b 8.353035
_cell_length_c 6.125044
_cell_angle_alpha 70.534821
_cell_angle_beta 65.185097
_cell_angle_gamma 49.743083
_cell_volume 689.836040
_symmetry_space_group_name_H-M "P -1"
_symmetry_group_IT_number 2
_symmetry_cell_setting 'triclinic'
loop_
_space_group_symop_operation_xyz
x,y,z
-x,-y,-z
loop_
_atom_site_type_symbol
_atom_site_label
_atom_site_fract_x
_atom_site_fract_y
_atom_site_fract_z
Si Si1 0.388934 0.478967 0.184907
Si Si2 0.560437 0.326128 0.320665
Si Si3 0.219463 0.167170 0.742433
Si Si4 0.928108 0.457277 0.524976
Si Si5 0.101842 0.101433 0.240871
Si Si6 0.764678 0.171069 0.435121
Si Si7 0.600753 0.905124 0.514670
Si Si8 0.102730 0.808289 0.032091
O O1 0.493887 0.353217 0.197837
O O2 0.320424 0.654150 0.379268
O O3 0.373125 0.294883 0.283637
O O4 0.380697 0.604018 0.919820
O O5 0.500000 0.500000 0.500000
O O6 0.584409 0.119933 0.517272
O O7 0.161075 0.350682 0.562701
O O8 0.305163 0.168312 0.714913
O O9 0.252689 0.949751 0.670445
O O10 0.147115 0.196223 0.005356
O O11 0.900025 0.377736 0.798691
O O12 0.000000 0.500000 0.500000
O O13 0.992142 0.267319 0.354805
O O14 0.156237 0.015350 0.432476
O O15 0.121230 0.905666 0.169201
O O16 0.816067 0.261117 0.214942
O O17 0.500000 0.000000 0.500000
O O18 0.000000 0.000000 0.000000
#
# Coordination Sequence:
#
# PCOD9019205 Si02
#       8
#     2   2   2   2   2   2   2   2
#     4  10  23  40  67  96 130 172 221 279 339 403
#     4  10  21  44  69  93 131 172 216 281 344 402
#     4  11  24  42  66 100 137 179 231 289 345 414
#     4  12  23  43  64 100 135 183 231 285 348 404
#     4  11  23  42  67  92 139 183 229 289 345 405
#     4  11  23  43  65  98 135 181 231 278 347 409
#     4  10  23  44  68 103 134 175 230 277 347 413
#     4  11  24  42  64  94 136 184 233 278 339 416
#
# _framework density 23.193915000000001
#
# number of rings (size 3 to 8) (size 9 to 14) (size 15 to 20)
#    0.000    1.250    2.500    3.000    1.750    2.500 
#    2.250    2.500    0.000    0.000    0.000    0.000 
#    0.000    0.000    0.000    0.000    0.000    0.000 
#
# Total GULP energy -89203.761283 kJ/mol
# GULP energy per Si atom -5575.235080 kJ/mol
# Density = 2.314112 g / cm^3
# Si number density = 23.193915 Si / 1000 Ang^3
#
#
#
# Elastic Constant Matrix: (Units=GPa)
#
#
# Indices 1 2 3 4 5 6 
#
# 1 85.3031 -0.8717 27.0558 -19.6828 -26.2374 -8.1002
# 2 -0.8717 119.2745 46.2108 -26.1777 -17.8136 10.1178
# 3 27.0558 46.2108 141.8418 -22.5965 -37.9582 15.5605
# 4 -19.6828 -26.1777 -22.5965 43.8108 6.1316 -6.0759
# 5 -26.2374 -17.8136 -37.9582 6.1316 38.6730 -2.1543
# 6 -8.1002 10.1178 15.5605 -6.0759 -2.1543 26.5241
#
#
#
# Elastic Compliance Matrix: (Units=1/GPa)
#
#
# Indices 1 2 3 4 5 6 
#
# 1 0.018926 0.003786 -0.000773 0.009700 0.012736 0.008045
# 2 0.003786 0.011417 -0.002105 0.006777 0.004685 -0.000031
# 3 -0.000773 -0.002105 0.011112 0.002240 0.008794 -0.004724
# 4 0.009700 0.006777 0.002240 0.032365 0.007163 0.007058
# 5 0.012736 0.004685 0.008794 0.007163 0.044274 0.002180
# 6 0.008045 -0.000031 -0.004724 0.007058 0.002180 0.044736
#
#
# Mechanical properties :
#
#
# Convention : Reuss Voigt Hill
#
# Bulk Modulus (GPa) = 23.10925 54.57880 38.84403
# Shear Modulus (GPa) = 28.50035 40.06990 34.28512
#
# Velocity S-wave (km/s) = 3.50921 4.16095 3.84890
# Velocity P-wave (km/s) = 5.13853 6.83135 6.04449
#
# Compressibility (1/GPa) = 0.04327271
#
# Stress axis : x y z
#
# Youngs Moduli (GPa) = 52.83687 87.58871 89.99390
#
# Poissons Ratio (x) = -0.33163 0.06953
# Poissons Ratio (y) = -0.20005 0.18942
# Poissons Ratio (z) = 0.04082 0.18436
#
# Static dielectric constant tensor:
#      x y z
#    x 1.997870 -0.109690 -0.034190 
#    y -0.109690 2.057040 0.032070 
#    z -0.034190 0.032070 1.861270 
# 
# From -- ./inp_files/116801.got.cif
#   From: 2010.05.17/outbox.cif.g08.bks.cpg/sg2_59_cif.got.tgz:116801.got - 2010.06.03 11:33:40.
