data_PCOD9019091
_publ_section_title
;
Structure prediction by ZEFSAII (Michael W. Deem and Ramdas Pophale) SiO2 
 PCOD9019091
Probable space group: P -1
;
_chemical_formula_sum "Si O2"
_cell_formula_units_Z 16
_cell_length_a 7.699170
_cell_length_b 17.849225
_cell_length_c 14.124746
_cell_angle_alpha 156.411190
_cell_angle_beta 96.944420
_cell_angle_gamma 69.264964
_cell_volume 609.598414
_symmetry_space_group_name_H-M "P -1"
_symmetry_group_IT_number 2
_symmetry_cell_setting 'triclinic'
loop_
_space_group_symop_operation_xyz
x,y,z
-x,-y,-z
loop_
_atom_site_type_symbol
_atom_site_label
_atom_site_fract_x
_atom_site_fract_y
_atom_site_fract_z
Si Si1 0.303793 0.162977 0.399659
Si Si2 0.085040 0.856517 0.636960
Si Si3 0.014153 0.872938 0.254383
Si Si4 0.465779 0.457516 0.077687
Si Si5 0.795870 0.505385 0.373248
Si Si6 0.726493 0.763460 0.856142
Si Si7 0.555637 0.132272 0.554528
Si Si8 0.392746 0.554999 0.452103
O O1 0.173495 0.415093 0.632625
O O2 0.376748 0.150625 0.497451
O O3 0.148406 0.086912 0.291122
O O4 0.529032 0.006496 0.172102
O O5 0.277410 0.590185 0.299167
O O6 0.207097 0.816286 0.699398
O O7 0.035800 0.013865 0.723356
O O8 0.798742 0.882788 0.270707
O O9 0.000000 0.000000 0.500000
O O10 0.276821 0.671121 0.035223
O O11 0.407930 0.680054 0.268782
O O12 0.466034 0.253052 0.790647
O O13 0.707418 0.712015 0.686165
O O14 0.615878 0.461783 0.303408
O O15 0.035703 0.296555 0.186869
O O16 0.718290 0.575470 0.698248
O O17 0.500000 0.500000 0.500000
#
# Coordination Sequence:
#
# PCOD9019091 Si02
#       8
#     2   2   2   2   2   2   2   2
#     4  12  24  39  61 101 136 165 221 284 330 395
#     4  11  23  38  63  95 134 170 222 277 329 396
#     4   9  19  39  64  91 121 166 221 275 322 386
#     4   9  19  40  64  87 127 172 220 271 321 394
#     4  10  21  44  68  91 128 180 216 268 339 395
#     4  10  23  43  65  95 135 169 220 277 330 397
#     4   9  20  38  62  94 124 168 221 269 330 392
#     4  10  22  45  69  94 130 175 222 271 332 398
#
# _framework density 26.246787999999999
#
# number of rings (size 3 to 8) (size 9 to 14) (size 15 to 20)
#    0.000    2.000    1.250    2.625    1.750    2.500 
#    4.500    3.750    0.000    0.000    0.000    0.000 
#    0.000    0.000    0.000    0.000    0.000    0.000 
#
# Total GULP energy -89199.228787 kJ/mol
# GULP energy per Si atom -5574.951799 kJ/mol
# Density = 2.618705 g / cm^3
# Si number density = 26.246788 Si / 1000 Ang^3
#
#
#
# Elastic Constant Matrix: (Units=GPa)
#
#
# Indices 1 2 3 4 5 6 
#
# 1 89.2835 27.1434 -18.8157 11.9345 -12.8309 -22.8384
# 2 27.1434 143.5097 14.6040 6.0795 8.7653 -20.2231
# 3 -18.8157 14.6040 75.8211 -7.8121 -9.6330 -24.6590
# 4 11.9345 6.0795 -7.8121 39.4522 -1.8641 -4.2412
# 5 -12.8309 8.7653 -9.6330 -1.8641 25.7323 6.2915
# 6 -22.8384 -20.2231 -24.6590 -4.2412 6.2915 49.3799
#
#
#
# Elastic Compliance Matrix: (Units=1/GPa)
#
#
# Indices 1 2 3 4 5 6 
#
# 1 0.019296 -0.003855 0.010468 -0.001427 0.012082 0.010911
# 2 -0.003855 0.008574 -0.003248 -0.001009 -0.006334 0.000827
# 3 0.010468 -0.003248 0.022767 0.003873 0.011776 0.013713
# 4 -0.001427 -0.001009 0.003873 0.027122 0.002340 0.002893
# 5 0.012082 -0.006334 0.011776 0.002340 0.050991 0.002579
# 6 0.010911 0.000827 0.013713 0.002893 0.002579 0.032404
#
#
# Mechanical properties :
#
#
# Convention : Reuss Voigt Hill
#
# Bulk Modulus (GPa) = 17.43150 39.38642 28.40896
# Shear Modulus (GPa) = 28.81065 41.95839 35.38452
#
# Velocity S-wave (km/s) = 3.31672 4.00260 3.67570
# Velocity P-wave (km/s) = 4.61772 6.03323 5.37230
#
# Compressibility (1/GPa) = 0.05736742
#
# Stress axis : x y z
#
# Youngs Moduli (GPa) = 51.82364 116.63322 43.92313
#
# Poissons Ratio (x) = 0.44960 -0.45977
# Poissons Ratio (y) = 0.19977 0.14265
# Poissons Ratio (z) = -0.54247 0.37879
#
# Static dielectric constant tensor:
#      x y z
#    x 2.038920 0.041980 0.083610 
#    y 0.041980 2.177400 0.006720 
#    z 0.083610 0.006720 2.223470 
# 
# From -- ./inp_files/507959.got.cif
#   From: 2010.05.17/outbox.cif.g08.bks.cpg/sg2_254_cif.got.tgz:507959.got - 2010.06.03 11:33:40.
