data_PCOD9019059
_publ_section_title
;
Structure prediction by ZEFSAII (Michael W. Deem and Ramdas Pophale) SiO2 
 PCOD9019059
Probable space group: P -1
;
_chemical_formula_sum "Si O2"
_cell_formula_units_Z 16
_cell_length_a 8.195502
_cell_length_b 6.082055
_cell_length_c 16.416007
_cell_angle_alpha 103.236026
_cell_angle_beta 127.716532
_cell_angle_gamma 86.904872
_cell_volume 626.141363
_symmetry_space_group_name_H-M "P -1"
_symmetry_group_IT_number 2
_symmetry_cell_setting 'triclinic'
loop_
_space_group_symop_operation_xyz
x,y,z
-x,-y,-z
loop_
_atom_site_type_symbol
_atom_site_label
_atom_site_fract_x
_atom_site_fract_y
_atom_site_fract_z
Si Si1 0.528651 0.698617 0.639346
Si Si2 0.069082 0.477959 0.185304
Si Si3 0.802471 0.048488 0.998841
Si Si4 0.308253 0.714884 0.159038
Si Si5 0.293648 0.094070 0.620921
Si Si6 0.755584 0.741149 0.550436
Si Si7 0.889845 0.527123 0.298805
Si Si8 0.534053 0.632727 0.935344
O O1 0.719479 0.642671 0.749423
O O2 0.648066 0.819449 0.606850
O O3 0.400473 0.470863 0.548005
O O4 0.356084 0.843154 0.637287
O O5 0.096600 0.667993 0.139895
O O6 0.892134 0.276200 0.092726
O O7 0.025671 0.597524 0.266314
O O8 0.651473 0.098404 0.882607
O O9 0.666625 0.877657 0.002241
O O10 0.000000 0.000000 0.000000
O O11 0.480892 0.767429 0.283904
O O12 0.320968 0.490730 0.092183
O O13 0.222861 0.092692 0.505665
O O14 0.157308 0.252989 0.645483
O O15 0.972199 0.643656 0.628169
O O16 0.678364 0.399135 0.185028
O O17 0.500000 0.500000 0.000000
#
# Coordination Sequence:
#
# PCOD9019059 Si02
#       8
#     2   2   2   2   2   2   2   2
#     4  10  22  41  71 102 136 189 243 300 356 438
#     4  11  22  45  70 106 147 190 246 303 359 433
#     4  12  25  42  75 107 137 196 251 291 359 440
#     4  11  24  42  71 100 145 191 239 299 356 430
#     4  11  22  41  68 101 141 191 237 296 366 429
#     4  10  21  44  68 100 142 185 242 300 363 423
#     4  10  25  42  69 102 148 191 230 308 368 425
#     4  11  26  48  69 105 149 187 238 306 366 423
#
# _framework density 25.553336999999999
#
# number of rings (size 3 to 8) (size 9 to 14) (size 15 to 20)
#    0.000    1.250    2.500    2.625    1.750    2.500 
#    0.000    5.000    0.000    0.000    0.000    0.000 
#    0.000    0.000    0.000    0.000    0.000    0.000 
#
# Total GULP energy -89370.799131 kJ/mol
# GULP energy per Si atom -5585.674946 kJ/mol
# Density = 2.549518 g / cm^3
# Si number density = 25.553337 Si / 1000 Ang^3
#
#
#
# Elastic Constant Matrix: (Units=GPa)
#
#
# Indices 1 2 3 4 5 6 
#
# 1 110.6733 49.4800 26.9344 -12.0858 -8.2980 0.4389
# 2 49.4800 50.3189 31.2718 -4.3333 5.0209 20.5254
# 3 26.9344 31.2718 138.4816 -23.8159 21.8080 19.2597
# 4 -12.0858 -4.3333 -23.8159 38.2877 -2.1093 5.7785
# 5 -8.2980 5.0209 21.8080 -2.1093 43.1279 -0.7551
# 6 0.4389 20.5254 19.2597 5.7785 -0.7551 55.8585
#
#
#
# Elastic Compliance Matrix: (Units=1/GPa)
#
#
# Indices 1 2 3 4 5 6 
#
# 1 0.020765 -0.024174 -0.000504 0.002593 0.007344 0.008724
# 2 -0.024174 0.054322 -0.003782 -0.001575 -0.009463 -0.018432
# 3 -0.000504 -0.003782 0.010336 0.006017 -0.004639 -0.002855
# 4 0.002593 -0.001575 0.006017 0.031168 -0.000919 -0.004753
# 5 0.007344 -0.009463 -0.004639 -0.000919 0.028098 0.005494
# 6 0.008724 -0.018432 -0.002855 -0.004753 0.005494 0.026157
#
#
# Mechanical properties :
#
#
# Convention : Reuss Voigt Hill
#
# Bulk Modulus (GPa) = 35.08476 57.20512 46.14494
# Shear Modulus (GPa) = 21.07320 40.24067 30.65694
#
# Velocity S-wave (km/s) = 2.87483 3.97264 3.46746
# Velocity P-wave (km/s) = 4.97789 6.59376 5.84196
#
# Compressibility (1/GPa) = 0.02850241
#
# Stress axis : x y z
#
# Youngs Moduli (GPa) = 48.15725 18.40868 96.75202
#
# Poissons Ratio (x) = 0.44502 0.04874
# Poissons Ratio (y) = 1.16417 0.36595
# Poissons Ratio (z) = 0.02426 0.06963
#
# Static dielectric constant tensor:
#      x y z
#    x 2.041070 -0.009180 0.024880 
#    y -0.009180 2.207940 -0.042060 
#    z 0.024880 -0.042060 1.958070 
# 
# From -- ./inp_files/553677.got.cif
#   From: 2010.05.17/outbox.cif.g08.bks.cpg/sg2_277_cif.got.tgz:553677.got - 2010.06.03 11:33:40.
