data_PCOD9019220
_publ_section_title
;
Structure prediction by ZEFSAII (Michael W. Deem and Ramdas Pophale) SiO2 
 PCOD9019220
Probable space group: P -1
;
_chemical_formula_sum "Si O2"
_cell_formula_units_Z 14
_cell_length_a 5.343186
_cell_length_b 25.494010
_cell_length_c 5.286772
_cell_angle_alpha 68.413678
_cell_angle_beta 96.195885
_cell_angle_gamma 125.770064
_cell_volume 537.829676
_symmetry_space_group_name_H-M "P -1"
_symmetry_group_IT_number 2
_symmetry_cell_setting 'triclinic'
loop_
_space_group_symop_operation_xyz
x,y,z
-x,-y,-z
loop_
_atom_site_type_symbol
_atom_site_label
_atom_site_fract_x
_atom_site_fract_y
_atom_site_fract_z
Si Si1 0.210252 0.418878 0.627900
Si Si2 0.198626 0.103207 0.410623
Si Si3 0.878867 0.546769 0.945371
Si Si4 0.615261 0.064116 0.714122
Si Si5 0.061530 0.284303 0.966013
Si Si6 0.651755 0.246148 0.487205
Si Si7 0.852009 0.810460 0.132309
O O1 0.500000 0.500000 0.500000
O O2 0.036664 0.402810 0.371304
O O3 0.302626 0.367444 0.797575
O O4 0.006958 0.414940 0.843768
O O5 0.336338 0.059522 0.548120
O O6 0.415656 0.166858 0.511908
O O7 0.851281 0.069120 0.526938
O O8 0.239920 0.140015 0.081166
O O9 0.500000 0.500000 0.000000
O O10 0.000000 0.500000 0.000000
O O11 0.826613 0.134251 0.786163
O O12 0.500000 0.000000 0.000000
O O13 0.856723 0.260976 0.729845
O O14 0.152973 0.231050 0.042769
O O15 0.875427 0.277738 0.209497
O O16 0.388216 0.250637 0.587876
#
# Coordination Sequence:
#
# PCOD9019220 Si02
#       7
#     2   2   2   2   2   2   2
#     4  10  23  45  69 106 142 192 246 314 381 461
#     4  11  23  45  72 108 155 201 258 314 384 455
#     4  10  21  44  69  96 139 185 232 294 368 445
#     4  11  25  44  74 114 155 203 258 317 385 462
#     4  12  24  47  73 105 151 196 257 318 392 457
#     4  11  24  44  70 109 143 196 257 312 379 453
#     4  11  26  45  76 105 158 199 259 323 383 461
#
# _framework density 26.030546999999999
#
# number of rings (size 3 to 8) (size 9 to 14) (size 15 to 20)
#    0.000    1.143    2.857    2.571    2.000    1.143 
#   15.429    0.000    0.000    2.571    0.000    0.000 
#    0.000    0.000    0.000    0.000    0.000    0.000 
#
# Total GULP energy -78155.563066 kJ/mol
# GULP energy per Si atom -5582.540219 kJ/mol
# Density = 2.597130 g / cm^3
# Si number density = 26.030547 Si / 1000 Ang^3
#
#
#
# Elastic Constant Matrix: (Units=GPa)
#
#
# Indices 1 2 3 4 5 6 
#
# 1 147.7699 36.4982 69.4430 -15.2741 11.7443 -18.3135
# 2 36.4982 72.2518 35.9960 -10.8471 -18.4193 -17.2654
# 3 69.4430 35.9960 205.1302 15.0381 -22.2929 -17.8991
# 4 -15.2741 -10.8471 15.0381 54.6731 -5.8328 1.9630
# 5 11.7443 -18.4193 -22.2929 -5.8328 39.5513 -0.5348
# 6 -18.3135 -17.2654 -17.8991 1.9630 -0.5348 32.9956
#
#
#
# Elastic Compliance Matrix: (Units=1/GPa)
#
#
# Indices 1 2 3 4 5 6 
#
# 1 0.010533 -0.004713 -0.003554 0.002197 -0.006985 0.001209
# 2 -0.004713 0.022336 -0.000545 0.004258 0.012240 0.008722
# 3 -0.003554 -0.000545 0.006996 -0.002621 0.004382 0.001764
# 4 0.002197 0.004258 -0.002621 0.020752 0.002925 0.000838
# 5 -0.006985 0.012240 0.004382 0.002925 0.036031 0.005315
# 6 0.001209 0.008722 0.001764 0.000838 0.005315 0.036535
#
#
# Mechanical properties :
#
#
# Convention : Reuss Voigt Hill
#
# Bulk Modulus (GPa) = 44.95793 78.78069 61.86931
# Shear Modulus (GPa) = 31.60152 44.32496 37.96324
#
# Velocity S-wave (km/s) = 3.48805 4.13098 3.82306
# Velocity P-wave (km/s) = 5.79057 7.28586 6.58083
#
# Compressibility (1/GPa) = 0.02224302
#
# Stress axis : x y z
#
# Youngs Moduli (GPa) = 94.93785 44.77005 142.94080
#
# Poissons Ratio (x) = 0.21098 0.50794
# Poissons Ratio (y) = 0.44741 0.07791
# Poissons Ratio (z) = 0.33736 0.02440
#
# Static dielectric constant tensor:
#      x y z
#    x 2.183570 -0.117780 -0.017320 
#    y -0.117780 2.001390 -0.015690 
#    z -0.017320 -0.015690 2.134280 
# 
# From -- ./inp_files/13887.got.cif
#   From: 2010.05.17/outbox.cif.g08.bks.cpg/sg2_7_cif.got.tgz:13887.got - 2010.06.03 11:33:40.
