data_PCOD9019027
_publ_section_title
;
Structure prediction by ZEFSAII (Michael W. Deem and Ramdas Pophale) SiO2 
 PCOD9019027
Probable space group: P -1
;
_chemical_formula_sum "Si O2"
_cell_formula_units_Z 15
_cell_length_a 10.784267
_cell_length_b 13.763288
_cell_length_c 6.041130
_cell_angle_alpha 69.164024
_cell_angle_beta 115.636791
_cell_angle_gamma 125.823213
_cell_volume 648.996988
_symmetry_space_group_name_H-M "P -1"
_symmetry_group_IT_number 2
_symmetry_cell_setting 'triclinic'
loop_
_space_group_symop_operation_xyz
x,y,z
-x,-y,-z
loop_
_atom_site_type_symbol
_atom_site_label
_atom_site_fract_x
_atom_site_fract_y
_atom_site_fract_z
Si Si1 0.236056 0.912795 0.901679
Si Si2 0.548305 0.168281 0.005637
Si Si3 0.490964 0.358714 0.052110
Si Si4 0.230751 0.440915 0.168368
Si Si5 0.167641 0.256224 0.635859
Si Si6 0.057444 0.699668 0.278291
Si Si7 0.000000 0.000000 0.500000
Si Si8 0.314057 0.641784 0.417464
O O1 0.392090 0.037105 0.992866
O O2 0.299990 0.848626 0.835643
O O3 0.155615 0.825319 0.118342
O O4 0.110943 0.941641 0.675433
O O5 0.580693 0.234348 0.738716
O O6 0.527201 0.254759 0.084181
O O7 0.564526 0.382652 0.332914
O O8 0.604547 0.477815 0.901575
O O9 0.308033 0.308564 0.887141
O O10 0.227728 0.333537 0.393360
O O11 0.224207 0.533727 0.260536
O O12 0.083956 0.389044 0.927126
O O13 0.029492 0.278532 0.603030
O O14 0.115474 0.118587 0.656467
O O15 0.179769 0.651597 0.445532
#
# Coordination Sequence:
#
# PCOD9019027 Si02
#       8
#     2   2   2   2   2   2   1   2
#     4  10  21  44  67  96 130 177 219 278 330 391
#     4   9  21  44  68  95 135 173 224 273 335 394
#     4  11  24  44  68 100 134 178 228 268 336 403
#     4  11  24  45  70  98 136 176 225 281 332 393
#     4  12  27  44  68 101 137 180 220 279 332 403
#     4  11  25  44  70 103 136 172 227 276 340 394
#     4  12  24  44  70  98 134 178 222 272 342 386
#     4  10  24  43  72 103 130 178 222 281 331 400
#
# _framework density 23.112589
#
# number of rings (size 3 to 8) (size 9 to 14) (size 15 to 20)
#    0.000    1.333    2.667    1.600    1.867    9.067 
#    2.400    2.000    0.000    0.000    0.000    0.000 
#    0.000    0.000    0.000    0.000    0.000    0.000 
#
# Total GULP energy -83689.411567 kJ/mol
# GULP energy per Si atom -5579.294104 kJ/mol
# Density = 2.305998 g / cm^3
# Si number density = 23.112589 Si / 1000 Ang^3
#
#
#
# Elastic Constant Matrix: (Units=GPa)
#
#
# Indices 1 2 3 4 5 6 
#
# 1 79.5093 36.2406 47.0534 -20.3678 14.4233 -11.4205
# 2 36.2406 116.7019 35.4635 6.7429 -12.9980 -9.0397
# 3 47.0534 35.4635 45.9852 27.0974 43.3025 16.0511
# 4 -20.3678 6.7429 27.0974 14.6431 -17.2622 -8.2774
# 5 14.4233 -12.9980 43.3025 -17.2622 24.8485 -17.9874
# 6 -11.4205 -9.0397 16.0511 -8.2774 -17.9874 12.0379
#
#
#
# Elastic Compliance Matrix: (Units=1/GPa)
#
#
# Indices 1 2 3 4 5 6 
#
# 1 0.021025 -0.009617 0.000177 0.008325 -0.017452 -0.007865
# 2 -0.009617 0.013021 0.000014 -0.011173 0.006033 0.001969
# 3 0.000177 0.000014 0.004236 0.009043 0.008015 0.012725
# 4 0.008325 -0.011173 0.009043 0.031212 -0.020809 -0.022181
# 5 -0.017452 0.006033 0.008015 -0.020809 0.020759 -0.006005
# 6 -0.007865 0.001969 0.012725 -0.022181 -0.006005 0.035896
#
#
# Mechanical properties :
#
#
# Convention : Reuss Voigt Hill
#
# Bulk Modulus (GPa) = 51.46756 53.30126 52.38441
# Shear Modulus (GPa) = 33.00811 18.53516 25.77164
#
# Velocity S-wave (km/s) = 3.78318 2.83495 3.34286
# Velocity P-wave (km/s) = 6.43427 5.81614 6.13300
#
# Compressibility (1/GPa) = 0.01942972
#
# Stress axis : x y z
#
# Youngs Moduli (GPa) = 47.56309 76.79821 236.06000
#
# Poissons Ratio (x) = 0.73856 -0.04180
# Poissons Ratio (y) = 0.45741 -0.00321
# Poissons Ratio (z) = -0.00842 -0.00105
#
# Static dielectric constant tensor:
#      x y z
#    x 1.890170 -0.007850 -0.038230 
#    y -0.007850 1.855470 0.008530 
#    z -0.038230 0.008530 1.840850 
# 
# From -- ./inp_files/75880.got.cif
#   From: 2010.05.17/outbox.cif.g08.bks.cpg/sg2_38_cif.got.tgz:75880.got - 2010.06.03 11:33:40.
