data_PCOD9019662
_publ_section_title
;
Structure prediction by ZEFSAII (Michael W. Deem and Ramdas Pophale) SiO2 
 PCOD9019662
Probable space group: P -1
;
_chemical_formula_sum "Si O2"
_cell_formula_units_Z 14
_cell_length_a 6.543188
_cell_length_b 32.650064
_cell_length_c 12.765830
_cell_angle_alpha 162.191376
_cell_angle_beta 131.019541
_cell_angle_gamma 46.337614
_cell_volume 603.394197
_symmetry_space_group_name_H-M "P -1"
_symmetry_group_IT_number 2
_symmetry_cell_setting 'triclinic'
loop_
_space_group_symop_operation_xyz
x,y,z
-x,-y,-z
loop_
_atom_site_type_symbol
_atom_site_label
_atom_site_fract_x
_atom_site_fract_y
_atom_site_fract_z
Si Si1 0.647248 0.078172 0.658017
Si Si2 0.729680 0.238123 0.752653
Si Si3 0.731732 0.391006 0.744954
Si Si4 0.214381 0.856515 0.687071
Si Si5 0.759512 0.478003 0.753775
Si Si6 0.696931 0.342984 0.211605
Si Si7 0.715336 0.962417 0.169508
O O1 0.944461 0.075399 0.807867
O O2 0.500000 0.000000 0.500000
O O3 0.663283 0.986123 0.333659
O O4 0.545023 0.235723 0.955286
O O5 0.864151 0.190919 0.569539
O O6 0.606798 0.111333 0.436213
O O7 0.507992 0.387696 0.025478
O O8 0.862608 0.267655 0.981117
O O9 0.803861 0.250459 0.489925
O O10 0.660953 0.389583 0.595464
O O11 0.500000 0.500000 0.000000
O O12 0.999900 0.448371 0.967286
O O13 0.537588 0.867435 0.826977
O O14 0.000000 0.000000 0.000000
O O15 0.876121 0.379089 0.453435
O O16 0.500000 0.500000 0.500000
#
# Coordination Sequence:
#
# PCOD9019662 Si02
#       7
#     2   2   2   2   2   2   2
#     4  10  23  43  68 100 138 179 232 289 347 429
#     4  10  21  45  65  98 139 177 231 291 343 422
#     4  11  24  42  67 105 139 179 238 284 346 427
#     4  12  26  42  72 104 141 191 237 286 360 421
#     4  10  22  43  70  97 142 181 227 296 346 414
#     4   9  21  42  72  97 137 186 225 286 364 409
#     4  10  24  42  67  98 138 179 228 286 355 413
#
# _framework density 23.202076999999999
#
# number of rings (size 3 to 8) (size 9 to 14) (size 15 to 20)
#    0.000    1.714    1.429    1.286    6.000    0.000 
#    0.000    0.714    0.000    0.000    0.000    0.000 
#    0.000    0.000    0.000    0.000    0.000    0.000 
#
# Total GULP energy -77967.177808 kJ/mol
# GULP energy per Si atom -5569.084129 kJ/mol
# Density = 2.314927 g / cm^3
# Si number density = 23.202077 Si / 1000 Ang^3
#
#
#
# Elastic Constant Matrix: (Units=GPa)
#
#
# Indices 1 2 3 4 5 6 
#
# 1 76.8371 67.6369 42.3513 21.5804 2.7660 27.3592
# 2 67.6369 109.7478 59.1505 22.3146 -0.7456 43.7174
# 3 42.3513 59.1505 113.3381 22.1407 -1.1014 21.6144
# 4 21.5804 22.3146 22.1407 38.3298 11.6469 12.1923
# 5 2.7660 -0.7456 -1.1014 11.6469 38.9135 10.6138
# 6 27.3592 43.7174 21.6144 12.1923 10.6138 27.6523
#
#
#
# Elastic Compliance Matrix: (Units=1/GPa)
#
#
# Indices 1 2 3 4 5 6 
#
# 1 0.030173 -0.017256 -0.001361 -0.006375 -0.001074 0.001715
# 2 -0.017256 0.046837 -0.006529 -0.000664 0.018101 -0.058527
# 3 -0.001361 -0.006529 0.012966 -0.004122 0.000735 0.003069
# 4 -0.006375 -0.000664 -0.004122 0.035950 -0.010051 -0.001414
# 5 -0.001074 0.018101 0.000735 -0.010051 0.039779 -0.038967
# 6 0.001715 -0.058527 0.003069 -0.001414 -0.038967 0.140177
#
#
# Mechanical properties :
#
#
# Convention : Reuss Voigt Hill
#
# Bulk Modulus (GPa) = 25.19861 70.91115 48.05488
# Shear Modulus (GPa) = 13.53535 29.69806 21.61670
#
# Velocity S-wave (km/s) = 2.41792 3.58155 3.05564
# Velocity P-wave (km/s) = 4.32194 6.90884 5.76244
#
# Compressibility (1/GPa) = 0.03968472
#
# Stress axis : x y z
#
# Youngs Moduli (GPa) = 33.14180 21.35054 77.12289
#
# Poissons Ratio (x) = 0.36843 0.10497
# Poissons Ratio (y) = 0.57190 0.50352
# Poissons Ratio (z) = 0.04511 0.13939
#
# Static dielectric constant tensor:
#      x y z
#    x 1.579840 -0.573820 -0.044090 
#    y -0.573820 0.801930 -0.074650 
#    z -0.044090 -0.074650 1.889940 
# 
# From -- ./inp_files/371625.got.cif
#   From: 2010.05.17/outbox.cif.g08.bks.cpg/sg2_186_cif.got.tgz:371625.got - 2010.06.03 11:33:40.
