data_PCOD9019563
_publ_section_title
;
Structure prediction by ZEFSAII (Michael W. Deem and Ramdas Pophale) SiO2 
 PCOD9019563
Probable space group: P -1
;
_chemical_formula_sum "Si O2"
_cell_formula_units_Z 14
_cell_length_a 5.444089
_cell_length_b 18.796468
_cell_length_c 5.279187
_cell_angle_alpha 97.903391
_cell_angle_beta 94.670076
_cell_angle_gamma 105.842229
_cell_volume 510.734972
_symmetry_space_group_name_H-M "P -1"
_symmetry_group_IT_number 2
_symmetry_cell_setting 'triclinic'
loop_
_space_group_symop_operation_xyz
x,y,z
-x,-y,-z
loop_
_atom_site_type_symbol
_atom_site_label
_atom_site_fract_x
_atom_site_fract_y
_atom_site_fract_z
Si Si1 0.943035 0.947827 0.717574
Si Si2 0.412267 0.449346 0.206172
Si Si3 0.364909 0.782454 0.156535
Si Si4 0.539019 0.311078 0.276119
Si Si5 0.165927 0.277571 0.623524
Si Si6 0.009986 0.413859 0.496627
Si Si7 0.576826 0.087188 0.123616
O O1 0.643096 0.902526 0.700010
O O2 0.141407 0.898404 0.724521
O O3 0.000000 0.000000 0.500000
O O4 0.000000 0.000000 0.000000
O O5 0.500000 0.500000 0.500000
O O6 0.523895 0.380134 0.139303
O O7 0.114694 0.409212 0.218295
O O8 0.500000 0.500000 0.000000
O O9 0.306964 0.739747 0.860347
O O10 0.428727 0.867451 0.110461
O O11 0.618095 0.755553 0.236939
O O12 0.114679 0.761247 0.302684
O O13 0.263867 0.267975 0.341341
O O14 0.727898 0.363108 0.525125
O O15 0.174235 0.367067 0.645103
O O16 0.000000 0.500000 0.500000
O O17 0.500000 0.000000 0.000000
#
# Coordination Sequence:
#
# PCOD9019563 Si02
#       7
#     2   2   2   2   2   2   2
#     4  10  21  44  74 110 154 190 242 310 376 452
#     4  11  26  43  73 108 149 195 255 321 390 456
#     4  12  27  49  78 104 155 201 255 320 392 467
#     4  11  27  46  70 107 147 198 259 315 385 472
#     4  11  27  49  72 106 152 199 253 313 395 459
#     4  11  24  46  71 107 148 195 262 316 385 454
#     4  10  23  48  73 114 147 195 258 315 386 459
#
# _framework density 27.411477000000001
#
# number of rings (size 3 to 8) (size 9 to 14) (size 15 to 20)
#    0.000    1.143    2.857    1.286   10.000    0.571 
#   15.429    0.000    0.000    0.000    0.000    0.000 
#    0.000    0.000    0.000    0.000    0.000    0.000 
#
# Total GULP energy -77984.321324 kJ/mol
# GULP energy per Si atom -5570.308666 kJ/mol
# Density = 2.734909 g / cm^3
# Si number density = 27.411477 Si / 1000 Ang^3
#
#
#
# Elastic Constant Matrix: (Units=GPa)
#
#
# Indices 1 2 3 4 5 6 
#
# 1 256.3905 60.1075 64.2053 -42.9040 -28.6989 -27.6144
# 2 60.1075 182.0794 64.0307 -43.1066 -6.5577 -21.5564
# 3 64.2053 64.0307 167.5998 -42.5804 -22.8922 -4.9448
# 4 -42.9040 -43.1066 -42.5804 64.3218 -2.4821 -0.5756
# 5 -28.6989 -6.5577 -22.8922 -2.4821 42.1062 -19.5069
# 6 -27.6144 -21.5564 -4.9448 -0.5756 -19.5069 38.9303
#
#
#
# Elastic Compliance Matrix: (Units=1/GPa)
#
#
# Indices 1 2 3 4 5 6 
#
# 1 0.006880 0.000550 0.000252 0.005603 0.010024 0.010322
# 2 0.000550 0.007914 -0.001085 0.005191 0.004566 0.006999
# 3 0.000252 -0.001085 0.008807 0.005585 0.007138 0.004355
# 4 0.005603 0.005191 0.005585 0.027259 0.016877 0.016418
# 5 0.010024 0.004566 0.007138 0.016877 0.053615 0.037660
# 6 0.010322 0.006999 0.004355 0.016418 0.037660 0.056550
#
#
# Mechanical properties :
#
#
# Convention : Reuss Voigt Hill
#
# Bulk Modulus (GPa) = 43.41441 109.19519 76.30480
# Shear Modulus (GPa) = 29.53849 56.92007 43.22928
#
# Velocity S-wave (km/s) = 3.28624 4.56181 3.97552
# Velocity P-wave (km/s) = 5.50196 8.22611 6.99787
#
# Compressibility (1/GPa) = 0.02303383
#
# Stress axis : x y z
#
# Youngs Moduli (GPa) = 145.35455 126.35394 113.54305
#
# Poissons Ratio (x) = -0.06949 -0.02856
# Poissons Ratio (y) = -0.07994 0.12323
# Poissons Ratio (z) = -0.03657 0.13713
#
# Static dielectric constant tensor:
#      x y z
#    x 2.507670 0.089490 0.176610 
#    y 0.089490 2.142830 0.026430 
#    z 0.176610 0.026430 2.243380 
# 
# From -- ./inp_files/7516.got.cif
#   From: 2010.05.17/outbox.cif.g08.bks.cpg/sg2_4_cif.got.tgz:7516.got - 2010.06.03 11:33:40.
