data_PCOD9019021
_publ_section_title
;
Structure prediction by ZEFSAII (Michael W. Deem and Ramdas Pophale) SiO2 
 PCOD9019021
Probable space group: P -1
;
_chemical_formula_sum "Si O2"
_cell_formula_units_Z 16
_cell_length_a 6.628830
_cell_length_b 8.237670
_cell_length_c 14.326121
_cell_angle_alpha 100.704803
_cell_angle_beta 93.272491
_cell_angle_gamma 101.201075
_cell_volume 750.506849
_symmetry_space_group_name_H-M "P -1"
_symmetry_group_IT_number 2
_symmetry_cell_setting 'triclinic'
loop_
_space_group_symop_operation_xyz
x,y,z
-x,-y,-z
loop_
_atom_site_type_symbol
_atom_site_label
_atom_site_fract_x
_atom_site_fract_y
_atom_site_fract_z
Si Si1 0.871529 0.290298 0.928261
Si Si2 0.421022 0.825786 0.924244
Si Si3 0.438333 0.731410 0.714090
Si Si4 0.280459 0.911134 0.270829
Si Si5 0.706845 0.601560 0.966799
Si Si6 0.783481 0.373716 0.495422
Si Si7 0.489634 0.363539 0.652308
Si Si8 0.026262 0.152813 0.588238
O O1 0.765738 0.141717 0.842713
O O2 0.814226 0.462697 0.906160
O O3 0.767096 0.266394 0.024972
O O4 0.115917 0.309877 0.947378
O O5 0.351016 0.806571 0.812822
O O6 0.620484 0.738747 0.921044
O O7 0.500000 0.000000 0.000000
O O8 0.294290 0.689275 0.615112
O O9 0.489360 0.546337 0.719320
O O10 0.610238 0.892208 0.701258
O O11 0.411158 0.775649 0.302389
O O12 0.062364 0.891367 0.315932
O O13 0.500000 0.500000 0.000000
O O14 0.610783 0.419717 0.564291
O O15 0.000000 0.500000 0.500000
O O16 0.854477 0.238482 0.547757
O O17 0.255034 0.267891 0.611884
O O18 0.000000 0.000000 0.500000
#
# Coordination Sequence:
#
# PCOD9019021 Si02
#       8
#     2   2   2   2   2   2   2   2
#     4  10  21  44  67  95 135 175 230 286 333 407
#     4  11  23  43  63 100 138 174 228 281 338 407
#     4  12  24  45  72  98 139 187 227 282 351 400
#     4  11  25  43  68 104 134 178 234 276 345 409
#     4   9  21  41  68  89 129 179 220 281 344 389
#     4  11  24  45  68 101 135 174 229 282 338 414
#     4  11  25  46  70  99 141 175 230 287 338 413
#     4  11  24  43  68 100 138 176 224 284 348 410
#
# _framework density 21.318923999999999
#
# number of rings (size 3 to 8) (size 9 to 14) (size 15 to 20)
#    0.000    1.250    2.500    2.625    1.750    7.500 
#    4.500    0.000    0.000    0.000    0.000    0.000 
#    0.000    0.000    0.000    0.000    0.000    0.000 
#
# Total GULP energy -89096.236368 kJ/mol
# GULP energy per Si atom -5568.514773 kJ/mol
# Density = 2.127040 g / cm^3
# Si number density = 21.318924 Si / 1000 Ang^3
#
#
#
# Elastic Constant Matrix: (Units=GPa)
#
#
# Indices 1 2 3 4 5 6 
#
# 1 96.3468 27.6268 51.0422 8.6959 7.2669 16.2231
# 2 27.6268 84.0434 25.1940 25.3579 1.0994 20.8921
# 3 51.0422 25.1940 141.5162 19.4973 -4.6080 21.9348
# 4 8.6959 25.3579 19.4973 37.3848 9.6333 3.8623
# 5 7.2669 1.0994 -4.6080 9.6333 35.2058 -2.1608
# 6 16.2231 20.8921 21.9348 3.8623 -2.1608 12.6746
#
#
#
# Elastic Compliance Matrix: (Units=1/GPa)
#
#
# Indices 1 2 3 4 5 6 
#
# 1 0.014915 -0.001338 -0.003714 0.001819 -0.004746 -0.011821
# 2 -0.001338 0.027583 0.005298 -0.016705 0.001762 -0.047533
# 3 -0.003714 0.005298 0.011987 -0.007449 0.002860 -0.021966
# 4 0.001819 -0.016705 -0.007449 0.041914 -0.010857 0.023475
# 5 -0.004746 0.001762 0.002860 -0.010857 0.033115 0.007175
# 6 -0.011821 -0.047533 -0.021966 0.023475 0.007175 0.204465
#
#
# Mechanical properties :
#
#
# Convention : Reuss Voigt Hill
#
# Bulk Modulus (GPa) = 18.18916 58.84805 38.51860
# Shear Modulus (GPa) = 14.21214 31.58927 22.90070
#
# Velocity S-wave (km/s) = 2.58475 3.85352 3.28105
# Velocity P-wave (km/s) = 4.17832 6.88935 5.69743
#
# Compressibility (1/GPa) = 0.05497780
#
# Stress axis : x y z
#
# Youngs Moduli (GPa) = 67.04789 36.25363 83.42415
#
# Poissons Ratio (x) = 0.04850 0.30986
# Poissons Ratio (y) = 0.08969 -0.44201
# Poissons Ratio (z) = 0.24903 -0.19208
#
# Static dielectric constant tensor:
#      x y z
#    x 1.500750 -0.167920 0.235210 
#    y -0.167920 1.730020 0.119340 
#    z 0.235210 0.119340 1.550650 
# 
# From -- ./inp_files/135020.got.cif
#   From: 2010.05.17/outbox.cif.g08.bks.cpg/sg2_68_cif.got.tgz:135020.got - 2010.06.03 11:33:40.
