data_PCOD9019001
_publ_section_title
;
Structure prediction by ZEFSAII (Michael W. Deem and Ramdas Pophale) SiO2 
 PCOD9019001
Probable space group: P -1
;
_chemical_formula_sum "Si O2"
_cell_formula_units_Z 16
_cell_length_a 9.132368
_cell_length_b 7.925567
_cell_length_c 15.607280
_cell_angle_alpha 108.896120
_cell_angle_beta 138.406417
_cell_angle_gamma 89.389780
_cell_volume 659.513168
_symmetry_space_group_name_H-M "P -1"
_symmetry_group_IT_number 2
_symmetry_cell_setting 'triclinic'
loop_
_space_group_symop_operation_xyz
x,y,z
-x,-y,-z
loop_
_atom_site_type_symbol
_atom_site_label
_atom_site_fract_x
_atom_site_fract_y
_atom_site_fract_z
Si Si1 0.447403 0.800438 0.818224
Si Si2 0.296714 0.419446 0.593667
Si Si3 0.999268 0.711769 0.055536
Si Si4 0.493752 0.074910 0.604652
Si Si5 0.998342 0.403919 0.294472
Si Si6 0.863856 0.143171 0.452462
Si Si7 0.885117 0.169074 0.056207
Si Si8 0.253006 0.480375 0.927758
O O1 0.458846 0.619069 0.739627
O O2 0.700045 0.965062 0.969734
O O3 0.305058 0.894768 0.709879
O O4 0.265115 0.718192 0.803216
O O5 0.409382 0.258096 0.603093
O O6 0.186863 0.450763 0.460449
O O7 0.078768 0.338620 0.553109
O O8 0.984900 0.805484 0.973321
O O9 0.816475 0.663091 0.046787
O O10 0.000000 0.500000 0.000000
O O11 0.500000 0.000000 0.500000
O O12 0.312931 0.902054 0.552816
O O13 0.750991 0.151580 0.773298
O O14 0.056021 0.269408 0.226598
O O15 0.736181 0.310115 0.003743
O O16 0.000000 0.000000 0.500000
O O17 0.951541 0.566175 0.242740
O O18 0.500000 0.500000 0.000000
#
# Coordination Sequence:
#
# PCOD9019001 Si02
#       8
#     2   2   2   2   2   2   2   2
#     4  11  19  38  64 102 141 171 225 273 342 397
#     4  10  23  42  70  99 136 185 217 280 341 399
#     4  10  21  44  67  93 135 174 223 282 340 386
#     4  11  24  45  69  97 135 176 233 282 328 407
#     4   9  20  38  66 100 135 174 227 273 335 397
#     4   9  19  39  64  95 129 178 225 267 323 391
#     4   9  20  39  67  92 137 178 217 280 325 407
#     4   9  21  41  68  97 130 173 231 281 326 398
#
# _framework density 24.260318000000002
#
# number of rings (size 3 to 8) (size 9 to 14) (size 15 to 20)
#    0.750    1.500    1.250    1.875    0.000    4.000 
#    9.000    3.750    5.500    4.500    0.000    0.000 
#    0.000    0.000    0.000    0.000    0.000    0.000 
#
# Total GULP energy -89380.789050 kJ/mol
# GULP energy per Si atom -5586.299316 kJ/mol
# Density = 2.420510 g / cm^3
# Si number density = 24.260318 Si / 1000 Ang^3
#
#
#
# Elastic Constant Matrix: (Units=GPa)
#
#
# Indices 1 2 3 4 5 6 
#
# 1 155.1778 33.4818 49.4593 3.7129 -20.2513 21.6696
# 2 33.4818 118.0225 44.2915 -2.5799 -13.4374 12.5939
# 3 49.4593 44.2915 78.4423 9.6049 -28.2816 7.0679
# 4 3.7129 -2.5799 9.6049 46.4471 4.1957 1.0085
# 5 -20.2513 -13.4374 -28.2816 4.1957 39.2866 -9.9341
# 6 21.6696 12.5939 7.0679 1.0085 -9.9341 32.7120
#
#
#
# Elastic Compliance Matrix: (Units=1/GPa)
#
#
# Indices 1 2 3 4 5 6 
#
# 1 0.008735 -0.000007 -0.005374 0.000577 -0.000653 -0.004839
# 2 -0.000007 0.011370 -0.007311 0.002455 -0.002562 -0.003647
# 3 -0.005374 -0.007311 0.026327 -0.006979 0.015874 0.005722
# 4 0.000577 0.002455 -0.006979 0.023764 -0.007111 -0.002711
# 5 -0.000653 -0.002562 0.015874 -0.007111 0.038967 0.010042
# 6 -0.004839 -0.003647 0.005722 -0.002711 0.010042 0.037076
#
#
# Mechanical properties :
#
#
# Convention : Reuss Voigt Hill
#
# Bulk Modulus (GPa) = 47.51127 67.34535 57.42831
# Shear Modulus (GPa) = 27.98936 38.64980 33.31958
#
# Velocity S-wave (km/s) = 3.40032 3.99573 3.70999
# Velocity P-wave (km/s) = 5.91968 7.00768 6.48653
#
# Compressibility (1/GPa) = 0.02104764
#
# Stress axis : x y z
#
# Youngs Moduli (GPa) = 114.47930 87.95279 37.98396
#
# Poissons Ratio (x) = 0.00059 0.20413
# Poissons Ratio (y) = 0.00077 0.27771
# Poissons Ratio (z) = 0.61522 0.64305
#
# Static dielectric constant tensor:
#      x y z
#    x 1.923630 -0.037120 0.027210 
#    y -0.037120 1.984040 -0.034080 
#    z 0.027210 -0.034080 1.924700 
# 
# From -- ./inp_files/554372.got.cif
#   From: 2010.05.17/outbox.cif.g08.bks.cpg/sg2_278_cif.got.tgz:554372.got - 2010.06.03 11:33:40.
