data_PCOD9019901
_publ_section_title
;
Structure prediction by ZEFSAII (Michael W. Deem and Ramdas Pophale) SiO2 
 PCOD9019901
Probable space group: P -1
;
_chemical_formula_sum "Si O2"
_cell_formula_units_Z 15
_cell_length_a 11.960620
_cell_length_b 4.979053
_cell_length_c 14.731893
_cell_angle_alpha 88.008694
_cell_angle_beta 132.229007
_cell_angle_gamma 76.607332
_cell_volume 609.478122
_symmetry_space_group_name_H-M "P -1"
_symmetry_group_IT_number 2
_symmetry_cell_setting 'triclinic'
loop_
_space_group_symop_operation_xyz
x,y,z
-x,-y,-z
loop_
_atom_site_type_symbol
_atom_site_label
_atom_site_fract_x
_atom_site_fract_y
_atom_site_fract_z
Si Si1 0.331043 0.973438 0.879602
Si Si2 0.223911 0.815203 0.305435
Si Si3 0.308308 0.849765 0.069381
Si Si4 0.500000 0.500000 0.500000
Si Si5 0.004101 0.713907 0.921908
Si Si6 0.520538 0.226149 0.223321
Si Si7 0.011411 0.436440 0.736555
Si Si8 0.322544 0.116997 0.509917
O O1 0.366218 0.821671 0.803724
O O2 0.179421 0.267778 0.783044
O O3 0.297338 0.822773 0.953629
O O4 0.500000 0.000000 0.000000
O O5 0.344355 0.514206 0.344145
O O6 0.075396 0.788926 0.279415
O O7 0.347157 0.867838 0.447587
O O8 0.167451 0.054661 0.198821
O O9 0.376122 0.102735 0.124823
O O10 0.437062 0.563762 0.182633
O O11 0.132911 0.868804 0.006658
O O12 0.421809 0.319474 0.536305
O O13 0.047276 0.545182 0.852135
O O14 0.000000 0.500000 0.000000
O O15 0.622784 0.048290 0.364819
O O16 0.868227 0.688742 0.605407
#
# Coordination Sequence:
#
# PCOD9019901 Si02
#       8
#     2   2   2   1   2   2   2   2
#     4  10  21  45  71  97 135 184 226 284 355 404
#     4  10  22  42  64  93 131 179 220 280 346 406
#     4  11  24  44  67 101 142 177 227 293 346 409
#     4  10  22  40  66  86 136 178 226 274 344 400
#     4  11  24  40  66  99 134 177 225 284 346 419
#     4  11  26  42  72 102 135 181 242 284 334 412
#     4  10  22  44  66  92 139 177 220 284 347 406
#     4  10  24  42  67  97 134 181 233 283 341 407
#
# _framework density 24.611221
#
# number of rings (size 3 to 8) (size 9 to 14) (size 15 to 20)
#    0.000    1.600    1.333    2.400    5.600    5.333 
#    0.000    0.667    0.000    0.000    0.000    0.000 
#    0.000    0.000    0.000    0.000    0.000    0.000 
#
# Total GULP energy -83775.820155 kJ/mol
# GULP energy per Si atom -5585.054677 kJ/mol
# Density = 2.455521 g / cm^3
# Si number density = 24.611221 Si / 1000 Ang^3
#
#
#
# Elastic Constant Matrix: (Units=GPa)
#
#
# Indices 1 2 3 4 5 6 
#
# 1 102.7149 17.2554 56.4853 -9.8226 11.1677 4.3136
# 2 17.2554 69.9541 34.8273 -15.0797 3.9125 12.5942
# 3 56.4853 34.8273 165.2731 -35.6621 -5.6635 -9.3113
# 4 -9.8226 -15.0797 -35.6621 57.4947 -4.4445 8.1010
# 5 11.1677 3.9125 -5.6635 -4.4445 53.7981 -10.0540
# 6 4.3136 12.5942 -9.3113 8.1010 -10.0540 38.6323
#
#
#
# Elastic Compliance Matrix: (Units=1/GPa)
#
#
# Indices 1 2 3 4 5 6 
#
# 1 0.012936 -0.000056 -0.004877 -0.000641 -0.003898 -0.003482
# 2 -0.000056 0.018622 -0.003727 0.003525 -0.003031 -0.008491
# 3 -0.004877 -0.003727 0.009691 0.003876 0.003403 0.004168
# 4 -0.000641 0.003525 0.003876 0.021313 0.001244 -0.004289
# 5 -0.003898 -0.003031 0.003403 0.001244 0.021495 0.007577
# 6 -0.003482 -0.008491 0.004168 -0.004289 0.007577 0.032918
#
#
# Mechanical properties :
#
#
# Convention : Reuss Voigt Hill
#
# Bulk Modulus (GPa) = 41.78999 61.67535 51.73267
# Shear Modulus (GPa) = 35.14446 45.27662 40.21054
#
# Velocity S-wave (km/s) = 3.78297 4.29380 4.04645
# Velocity P-wave (km/s) = 6.00817 7.04957 6.54960
#
# Compressibility (1/GPa) = 0.02392918
#
# Stress axis : x y z
#
# Youngs Moduli (GPa) = 77.30324 53.69913 103.19303
#
# Poissons Ratio (x) = 0.00300 0.50331
# Poissons Ratio (y) = 0.00432 0.38456
# Poissons Ratio (z) = 0.37704 0.20012
#
# Static dielectric constant tensor:
#      x y z
#    x 2.001410 -0.094400 0.038230 
#    y -0.094400 2.143160 -0.042760 
#    z 0.038230 -0.042760 2.004190 
# 
# From -- ./inp_files/68559.got.cif
#   From: 2010.05.17/outbox.cif.g08.bks.cpg/sg2_35_cif.got.tgz:68559.got - 2010.06.03 11:33:40.
