data_PCOD9019435
_publ_section_title
;
Structure prediction by ZEFSAII (Michael W. Deem and Ramdas Pophale) SiO2 
 PCOD9019435
Probable space group: P -1
;
_chemical_formula_sum "Si O2"
_cell_formula_units_Z 12
_cell_length_a 17.158301
_cell_length_b 5.135586
_cell_length_c 5.335231
_cell_angle_alpha 85.326993
_cell_angle_beta 108.638879
_cell_angle_gamma 80.037933
_cell_volume 434.019086
_symmetry_space_group_name_H-M "P -1"
_symmetry_group_IT_number 2
_symmetry_cell_setting 'triclinic'
loop_
_space_group_symop_operation_xyz
x,y,z
-x,-y,-z
loop_
_atom_site_type_symbol
_atom_site_label
_atom_site_fract_x
_atom_site_fract_y
_atom_site_fract_z
Si Si1 0.233536 0.707260 0.741626
Si Si2 0.099531 0.376990 0.596987
Si Si3 0.363717 0.998237 0.773900
Si Si4 0.060689 0.206903 0.069059
Si Si5 0.678503 0.533751 0.660106
Si Si6 0.525219 0.752547 0.739956
O O1 0.144374 0.625925 0.612653
O O2 0.279112 0.953428 0.819923
O O3 0.280640 0.624754 0.529549
O O4 0.261820 0.537572 0.036328
O O5 0.114606 0.195224 0.378355
O O6 0.000000 0.500000 0.500000
O O7 0.115548 0.198795 0.877068
O O8 0.439152 0.747107 0.799953
O O9 0.334917 0.165482 0.480247
O O10 0.411951 0.165786 0.993865
O O11 0.000000 0.500000 0.000000
O O12 0.000000 0.000000 0.000000
O O13 0.585519 0.513341 0.668915
O O14 0.500000 0.000000 0.500000
#
# Coordination Sequence:
#
# PCOD9019435 Si02
#       6
#     2   2   2   2   2   2
#     4  12  26  43  70  99 140 182 234 286 360 414
#     4  10  23  47  67 103 135 178 240 292 362 437
#     4  10  23  45  67  97 145 183 225 294 342 415
#     4  10  21  44  72 101 137 178 236 295 359 435
#     4  11  24  44  63 105 133 175 236 279 343 418
#     4   9  20  43  67  98 140 181 233 281 346 414
#
# _framework density 27.648555999999999
#
# number of rings (size 3 to 8) (size 9 to 14) (size 15 to 20)
#    0.000    1.667    1.667    1.500    4.667    1.333 
#   18.000    0.000    0.000    0.000    0.000    0.000 
#    0.000    0.000    0.000    0.000    0.000    0.000 
#
# Total GULP energy -67097.398595 kJ/mol
# GULP energy per Si atom -5591.449883 kJ/mol
# Density = 2.758563 g / cm^3
# Si number density = 27.648556 Si / 1000 Ang^3
#
#
#
# Elastic Constant Matrix: (Units=GPa)
#
#
# Indices 1 2 3 4 5 6 
#
# 1 168.6742 30.6225 43.4814 8.7384 1.8715 59.9816
# 2 30.6225 106.8971 30.5889 4.3167 1.3836 41.0024
# 3 43.4814 30.5889 184.7117 16.3707 -32.7537 19.0148
# 4 8.7384 4.3167 16.3707 32.2589 4.3854 -8.0237
# 5 1.8715 1.3836 -32.7537 4.3854 47.3101 12.2234
# 6 59.9816 41.0024 19.0148 -8.0237 12.2234 56.3435
#
#
#
# Elastic Compliance Matrix: (Units=1/GPa)
#
#
# Indices 1 2 3 4 5 6 
#
# 1 0.011949 0.003642 0.000043 -0.008803 0.004836 -0.017688
# 2 0.003642 0.015069 -0.000164 -0.007699 0.004364 -0.016831
# 3 0.000043 -0.000164 0.007779 -0.006167 0.007253 -0.005003
# 4 -0.008803 -0.007699 -0.006167 0.046260 -0.014930 0.026882
# 5 0.004836 0.004364 0.007253 -0.014930 0.032370 -0.019921
# 6 -0.017688 -0.016831 -0.005003 0.026882 -0.019921 0.058665
#
#
# Mechanical properties :
#
#
# Convention : Reuss Voigt Hill
#
# Bulk Modulus (GPa) = 23.90168 74.40764 49.15466
# Shear Modulus (GPa) = 27.93376 50.88852 39.41114
#
# Velocity S-wave (km/s) = 3.18199 4.29482 3.77959
# Velocity P-wave (km/s) = 4.70783 7.18083 6.07157
#
# Compressibility (1/GPa) = 0.04183806
#
# Stress axis : x y z
#
# Youngs Moduli (GPa) = 83.69158 66.36299 128.55685
#
# Poissons Ratio (x) = -0.24171 -0.00549
# Poissons Ratio (y) = -0.30483 0.02107
# Poissons Ratio (z) = -0.00357 0.01088
#
# Static dielectric constant tensor:
#      x y z
#    x 2.139110 -0.029280 -0.013150 
#    y -0.029280 2.364130 -0.009130 
#    z -0.013150 -0.009130 2.386160 
# 
# From -- ./inp_files/101915.got.cif
#   From: 2010.05.17/outbox.cif.g08.bks.cpg/sg2_51_cif.got.tgz:101915.got - 2010.06.03 11:33:40.
