data_PCOD9019326
_publ_section_title
;
Structure prediction by ZEFSAII (Michael W. Deem and Ramdas Pophale) SiO2 
 PCOD9019326
Probable space group: P -1
;
_chemical_formula_sum "Si O2"
_cell_formula_units_Z 16
_cell_length_a 8.816835
_cell_length_b 8.827150
_cell_length_c 21.650645
_cell_angle_alpha 131.016027
_cell_angle_beta 34.216171
_cell_angle_gamma 130.634341
_cell_volume 691.131385
_symmetry_space_group_name_H-M "P -1"
_symmetry_group_IT_number 2
_symmetry_cell_setting 'triclinic'
loop_
_space_group_symop_operation_xyz
x,y,z
-x,-y,-z
loop_
_atom_site_type_symbol
_atom_site_label
_atom_site_fract_x
_atom_site_fract_y
_atom_site_fract_z
Si Si1 0.734063 0.367695 0.088189
Si Si2 0.784320 0.080574 0.554298
Si Si3 0.260743 0.687318 0.787213
Si Si4 0.698673 0.356071 0.870548
Si Si5 0.748007 0.977621 0.837645
Si Si6 0.736734 0.446810 0.744973
Si Si7 0.108315 0.290073 0.396706
Si Si8 0.834573 0.115281 0.247315
O O1 0.789054 0.293671 0.118062
O O2 0.530005 0.161845 0.073910
O O3 0.527935 0.516723 0.192164
O O4 0.000000 0.500000 0.000000
O O5 0.844234 0.309956 0.623721
O O6 0.881847 0.108604 0.458964
O O7 0.470665 0.949069 0.636936
O O8 0.000000 0.000000 0.500000
O O9 0.579703 0.672700 0.669014
O O10 0.206630 0.864130 0.806936
O O11 0.024131 0.479707 0.796094
O O12 0.639972 0.323892 0.808679
O O13 0.676967 0.158776 0.869200
O O14 0.500000 0.500000 0.000000
O O15 0.847989 0.819862 0.712806
O O16 0.993258 0.035510 0.821115
O O17 0.969230 0.656036 0.740367
O O18 0.000000 0.500000 0.500000
#
# Coordination Sequence:
#
# PCOD9019326 Si02
#       8
#     2   2   2   2   2   2   2   2
#     4  10  21  44  70  99 128 177 228 291 352 408
#     4  12  23  41  69  99 137 186 235 274 355 420
#     4  10  22  43  66  96 142 176 228 293 340 411
#     4  11  24  46  70  99 139 183 231 295 357 412
#     4  10  24  45  68 103 141 179 237 287 348 428
#     4  10  24  45  64 100 145 174 233 296 341 415
#     4  11  23  43  68 102 142 184 231 288 348 417
#     4  10  23  44  65  99 140 183 228 287 342 413
#
# _framework density 23.150447
#
# number of rings (size 3 to 8) (size 9 to 14) (size 15 to 20)
#    0.000    1.500    1.250    3.750    5.250    1.000 
#   11.250    6.875    0.000    0.000    0.000    0.000 
#    0.000    0.000    0.000    0.000    0.000    0.000 
#
# Total GULP energy -89232.952880 kJ/mol
# GULP energy per Si atom -5577.059555 kJ/mol
# Density = 2.309776 g / cm^3
# Si number density = 23.150447 Si / 1000 Ang^3
#
#
#
# Elastic Constant Matrix: (Units=GPa)
#
#
# Indices 1 2 3 4 5 6 
#
# 1 128.1449 42.0122 50.6041 -7.4450 -13.1048 -30.6720
# 2 42.0122 107.2525 45.6980 -25.9385 -9.4770 -21.3160
# 3 50.6041 45.6980 110.6330 -18.7148 -11.5821 -15.3031
# 4 -7.4450 -25.9385 -18.7148 54.1732 -4.8710 4.9239
# 5 -13.1048 -9.4770 -11.5821 -4.8710 24.4734 6.3985
# 6 -30.6720 -21.3160 -15.3031 4.9239 6.3985 40.6279
#
#
#
# Elastic Compliance Matrix: (Units=1/GPa)
#
#
# Indices 1 2 3 4 5 6 
#
# 1 0.011418 -0.001768 -0.003592 -0.000902 0.001944 0.006143
# 2 -0.001768 0.013539 -0.003130 0.005101 0.002912 0.003513
# 3 -0.003592 -0.003130 0.012756 0.002776 0.003571 -0.000448
# 4 -0.000902 0.005101 0.002776 0.022491 0.007509 -0.000867
# 5 0.001944 0.002912 0.003571 0.007509 0.047263 -0.004013
# 6 0.006143 0.003513 -0.000448 -0.000867 -0.004013 0.031663
#
#
# Mechanical properties :
#
#
# Convention : Reuss Voigt Hill
#
# Bulk Modulus (GPa) = 48.22964 69.18433 58.70699
# Shear Modulus (GPa) = 30.67074 37.70265 34.18669
#
# Velocity S-wave (km/s) = 3.64379 4.03996 3.84698
# Velocity P-wave (km/s) = 6.21139 7.19105 6.71910
#
# Compressibility (1/GPa) = 0.02073414
#
# Stress axis : x y z
#
# Youngs Moduli (GPa) = 87.57760 73.86051 78.39223
#
# Poissons Ratio (x) = 0.13056 0.28158
# Poissons Ratio (y) = 0.15480 0.24539
# Poissons Ratio (z) = 0.31457 0.23120
#
# Static dielectric constant tensor:
#      x y z
#    x 1.960840 0.002480 0.071980 
#    y 0.002480 1.950860 0.099520 
#    z 0.071980 0.099520 2.032920 
# 
# From -- ./inp_files/606767.got.cif
#   From: 2010.05.17/outbox.cif.g08.bks.cpg/sg2_304_cif.got.tgz:606767.got - 2010.06.03 11:33:40.
