data_PCOD9019290
_publ_section_title
;
Structure prediction by ZEFSAII (Michael W. Deem and Ramdas Pophale) SiO2 
 PCOD9019290
Probable space group: P -1
;
_chemical_formula_sum "Si O2"
_cell_formula_units_Z 16
_cell_length_a 16.251287
_cell_length_b 20.595272
_cell_length_c 9.115918
_cell_angle_alpha 35.873779
_cell_angle_beta 33.443858
_cell_angle_gamma 21.613385
_cell_volume 610.335833
_symmetry_space_group_name_H-M "P -1"
_symmetry_group_IT_number 2
_symmetry_cell_setting 'triclinic'
loop_
_space_group_symop_operation_xyz
x,y,z
-x,-y,-z
loop_
_atom_site_type_symbol
_atom_site_label
_atom_site_fract_x
_atom_site_fract_y
_atom_site_fract_z
Si Si1 0.925658 0.841971 0.916182
Si Si2 0.627472 0.604919 0.403370
Si Si3 0.452672 0.114323 0.534908
Si Si4 0.783233 0.965627 0.569962
Si Si5 0.512302 0.547853 0.204172
Si Si6 0.426843 0.797957 0.066506
Si Si7 0.049544 0.264044 0.507782
Si Si8 0.761504 0.210228 0.107529
O O1 0.818375 0.930042 0.753517
O O2 0.205969 0.648025 0.850526
O O3 0.790308 0.811563 0.230228
O O4 0.828574 0.001344 0.868442
O O5 0.625674 0.486465 0.545513
O O6 0.864009 0.472933 0.395228
O O7 0.394897 0.727360 0.629482
O O8 0.588618 0.710555 0.133558
O O9 0.466895 0.201419 0.233891
O O10 0.528058 0.111772 0.592492
O O11 0.674786 0.902701 0.546024
O O12 0.903306 0.791816 0.630699
O O13 0.901895 0.011325 0.252162
O O14 0.419812 0.676499 0.240278
O O15 0.434603 0.656721 0.971946
O O16 0.913826 0.235621 0.833316
#
# Coordination Sequence:
#
# PCOD9019290 Si02
#       8
#     2   2   2   2   2   2   2   2
#     4  12  26  46  68  99 134 177 230 267 330 394
#     4  11  24  43  68  99 136 170 221 276 333 399
#     4  10  25  45  69  93 134 181 221 277 323 392
#     4  10  21  44  70  94 128 175 226 272 325 395
#     4  11  25  44  69  99 138 172 213 283 337 389
#     4  12  25  45  66 102 138 171 223 276 335 390
#     4   9  21  39  71  93 127 171 217 269 333 380
#     4  11  21  44  68  99 131 174 220 271 336 400
#
# _framework density 26.215076
#
# number of rings (size 3 to 8) (size 9 to 14) (size 15 to 20)
#    0.750    0.500    2.500    3.750    3.500    3.000 
#    0.000    0.625    0.000    0.000    0.000    0.000 
#    0.000    0.000    0.000    0.000    0.000    0.000 
#
# Total GULP energy -89365.823529 kJ/mol
# GULP energy per Si atom -5585.363971 kJ/mol
# Density = 2.615541 g / cm^3
# Si number density = 26.215076 Si / 1000 Ang^3
#
#
#
# Elastic Constant Matrix: (Units=GPa)
#
#
# Indices 1 2 3 4 5 6 
#
# 1 79.4756 16.6350 14.5841 5.7776 15.1076 2.9732
# 2 16.6350 106.5327 12.6067 1.9792 -4.5830 -20.6490
# 3 14.5841 12.6067 105.7058 -11.0771 29.7489 -14.9258
# 4 5.7776 1.9792 -11.0771 34.9102 -11.0583 2.2164
# 5 15.1076 -4.5830 29.7489 -11.0583 45.9082 -2.3086
# 6 2.9732 -20.6490 -14.9258 2.2164 -2.3086 41.9001
#
#
#
# Elastic Compliance Matrix: (Units=1/GPa)
#
#
# Indices 1 2 3 4 5 6 
#
# 1 0.014883 -0.002951 -0.000942 -0.004229 -0.005749 -0.002939
# 2 -0.002951 0.011161 -0.000983 0.000155 0.003037 0.005519
# 3 -0.000942 -0.000983 0.012420 0.001627 -0.007268 0.003520
# 4 -0.004229 0.000155 0.001627 0.032455 0.008155 -0.000311
# 5 -0.005749 0.003037 -0.007268 0.008155 0.030680 0.000575
# 6 -0.002939 0.005519 0.003520 -0.000311 0.000575 0.028097
#
#
# Mechanical properties :
#
#
# Convention : Reuss Voigt Hill
#
# Bulk Modulus (GPa) = 34.82760 42.15175 38.48968
# Shear Modulus (GPa) = 33.55252 41.06959 37.31105
#
# Velocity S-wave (km/s) = 3.58144 3.96237 3.77671
# Velocity P-wave (km/s) = 5.51511 6.08671 5.80795
#
# Compressibility (1/GPa) = 0.02871286
#
# Stress axis : x y z
#
# Youngs Moduli (GPa) = 67.19045 89.59446 80.51297
#
# Poissons Ratio (x) = 0.26438 0.07583
# Poissons Ratio (y) = 0.19827 0.07917
# Poissons Ratio (z) = 0.06328 0.08810
#
# Static dielectric constant tensor:
#      x y z
#    x 2.204850 0.032340 0.034110 
#    y 0.032340 2.114970 -0.036860 
#    z 0.034110 -0.036860 2.033250 
# 
# From -- ./inp_files/338584.got.cif
#   From: 2010.05.17/outbox.cif.g08.bks.cpg/sg2_170_cif.got.tgz:338584.got - 2010.06.03 11:33:40.
