data_PCOD9019471
_publ_section_title
;
Structure prediction by ZEFSAII (Michael W. Deem and Ramdas Pophale) SiO2 
 PCOD9019471
Probable space group: P -1
;
_chemical_formula_sum "Si O2"
_cell_formula_units_Z 12
_cell_length_a 11.836381
_cell_length_b 5.519251
_cell_length_c 9.343326
_cell_angle_alpha 53.583040
_cell_angle_beta 89.822498
_cell_angle_gamma 69.634544
_cell_volume 443.412233
_symmetry_space_group_name_H-M "P -1"
_symmetry_group_IT_number 2
_symmetry_cell_setting 'triclinic'
loop_
_space_group_symop_operation_xyz
x,y,z
-x,-y,-z
loop_
_atom_site_type_symbol
_atom_site_label
_atom_site_fract_x
_atom_site_fract_y
_atom_site_fract_z
Si Si1 0.208897 0.102014 0.536316
Si Si2 0.875002 0.204168 0.791153
Si Si3 0.000399 0.653372 0.742646
Si Si4 0.589133 0.142641 0.179400
Si Si5 0.725885 0.851132 0.019382
Si Si6 0.413919 0.894306 0.366642
O O1 0.194197 0.479110 0.425597
O O2 0.071473 0.155437 0.469976
O O3 0.280739 0.889544 0.744589
O O4 0.300722 0.966928 0.449176
O O5 0.957641 0.346356 0.833482
O O6 0.940765 0.888300 0.797169
O O7 0.775885 0.141711 0.911038
O O8 0.147957 0.473268 0.829046
O O9 0.629473 0.898490 0.129810
O O10 0.513750 0.047813 0.332623
O O11 0.500000 0.500000 0.000000
O O12 0.655381 0.919614 0.844800
O O13 0.500000 0.500000 0.500000
#
# Coordination Sequence:
#
# PCOD9019471 Si02
#       6
#     2   2   2   2   2   2
#     4  10  24  45  74  98 147 186 252 287 371 442
#     4  10  21  44  72 109 139 193 244 294 372 450
#     4  10  24  42  79 106 140 193 249 300 375 438
#     4  12  27  44  67 110 151 193 242 311 371 426
#     4  12  23  43  72 107 148 178 250 312 367 426
#     4  12  25  47  75 102 145 206 250 291 361 456
#
# _framework density 27.062850999999998
#
# number of rings (size 3 to 8) (size 9 to 14) (size 15 to 20)
#    1.000    0.000    1.667    5.000    0.000    2.000 
#    0.000    0.833    0.000    0.000    0.000    0.000 
#    0.000    0.000    0.000    0.000    0.000    0.000 
#
# Total GULP energy -67153.975111 kJ/mol
# GULP energy per Si atom -5596.164593 kJ/mol
# Density = 2.700125 g / cm^3
# Si number density = 27.062851 Si / 1000 Ang^3
#
#
#
# Elastic Constant Matrix: (Units=GPa)
#
#
# Indices 1 2 3 4 5 6 
#
# 1 118.1652 26.9283 25.8003 -17.5602 23.2086 8.6567
# 2 26.9283 141.2010 29.5830 -17.2154 8.3658 -14.4164
# 3 25.8003 29.5830 152.6967 -10.8424 46.1993 -14.1458
# 4 -17.5602 -17.2154 -10.8424 53.3806 -7.4942 0.0700
# 5 23.2086 8.3658 46.1993 -7.4942 56.9826 -0.5454
# 6 8.6567 -14.4164 -14.1458 0.0700 -0.5454 47.6279
#
#
#
# Elastic Compliance Matrix: (Units=1/GPa)
#
#
# Indices 1 2 3 4 5 6 
#
# 1 0.010084 -0.001611 -0.000497 0.002251 -0.003195 -0.002508
# 2 -0.001611 0.008068 -0.001133 0.001932 0.000667 0.002403
# 3 -0.000497 -0.001133 0.009233 0.000354 -0.007047 0.002409
# 4 0.002251 0.001932 0.000354 0.020336 0.001189 0.000265
# 5 -0.003195 0.000667 -0.007047 0.001189 0.024613 -0.001030
# 6 -0.002508 0.002403 0.002409 0.000265 -0.001030 0.022883
#
#
# Mechanical properties :
#
#
# Convention : Reuss Voigt Hill
#
# Bulk Modulus (GPa) = 47.84194 64.07622 55.95908
# Shear Modulus (GPa) = 46.01197 53.58165 49.79681
#
# Velocity S-wave (km/s) = 4.12781 4.45443 4.29423
# Velocity P-wave (km/s) = 6.35884 7.08408 6.73123
#
# Compressibility (1/GPa) = 0.02090216
#
# Stress axis : x y z
#
# Youngs Moduli (GPa) = 99.16253 123.94378 108.30857
#
# Poissons Ratio (x) = 0.19970 0.05388
# Poissons Ratio (y) = 0.15978 0.12271
# Poissons Ratio (z) = 0.04933 0.14042
#
# Static dielectric constant tensor:
#      x y z
#    x 2.143110 0.079420 0.020420 
#    y 0.079420 2.129000 -0.052710 
#    z 0.020420 -0.052710 2.170840 
# 
# From -- ./inp_files/288475.got.cif
#   From: 2010.05.17/outbox.cif.g08.bks.cpg/sg2_145_cif.got.tgz:288475.got - 2010.06.03 11:33:40.
