data_PCOD9019677
_publ_section_title
;
Structure prediction by ZEFSAII (Michael W. Deem and Ramdas Pophale) SiO2 
 PCOD9019677
Probable space group: P -1
;
_chemical_formula_sum "Si O2"
_cell_formula_units_Z 14
_cell_length_a 5.057258
_cell_length_b 17.014846
_cell_length_c 9.423283
_cell_angle_alpha 54.890290
_cell_angle_beta 50.928840
_cell_angle_gamma 62.887402
_cell_volume 509.402049
_symmetry_space_group_name_H-M "P -1"
_symmetry_group_IT_number 2
_symmetry_cell_setting 'triclinic'
loop_
_space_group_symop_operation_xyz
x,y,z
-x,-y,-z
loop_
_atom_site_type_symbol
_atom_site_label
_atom_site_fract_x
_atom_site_fract_y
_atom_site_fract_z
Si Si1 0.256629 0.702051 0.014213
Si Si2 0.133870 0.740555 0.488516
Si Si3 0.118924 0.412439 0.947419
Si Si4 0.343430 0.812532 0.624678
Si Si5 0.828571 0.412400 0.585266
Si Si6 0.456128 0.005834 0.677890
Si Si7 0.335776 0.911139 0.076571
O O1 0.653750 0.675726 0.952398
O O2 0.066026 0.680099 0.245568
O O3 0.175994 0.619693 0.016234
O O4 0.164065 0.797741 0.851409
O O5 0.277332 0.738856 0.600402
O O6 0.112309 0.636156 0.536401
O O7 0.369633 0.805418 0.248206
O O8 0.742320 0.793222 0.554566
O O9 0.419605 0.438587 0.715930
O O10 0.000000 0.500000 0.000000
O O11 0.283684 0.916632 0.458914
O O12 0.000000 0.500000 0.500000
O O13 0.074087 0.053907 0.805648
O O14 0.500000 0.000000 0.500000
O O15 0.485613 0.910831 0.865376
O O16 0.500000 0.000000 0.000000
#
# Coordination Sequence:
#
# PCOD9019677 Si02
#       7
#     2   2   2   2   2   2   2
#     4  10  24  42  66  97 132 174 232 274 349 411
#     4  11  25  44  72  97 147 180 231 291 349 418
#     4  10  23  43  69  96 128 175 228 289 345 411
#     4  11  24  45  67 104 139 186 227 284 356 413
#     4  10  27  46  69 103 133 183 233 288 352 410
#     4  10  23  41  70 104 143 184 236 285 349 429
#     4  10  21  45  66 104 140 188 228 289 357 410
#
# _framework density 27.483205999999999
#
# number of rings (size 3 to 8) (size 9 to 14) (size 15 to 20)
#    0.857    0.857    1.429    1.286    6.000    2.286 
#    2.571    0.000    0.000    0.000    0.000    0.000 
#    0.000    0.000    0.000    0.000    0.000    0.000 
#
# Total GULP energy -78251.898392 kJ/mol
# GULP energy per Si atom -5589.421314 kJ/mol
# Density = 2.742065 g / cm^3
# Si number density = 27.483206 Si / 1000 Ang^3
#
#
#
# Elastic Constant Matrix: (Units=GPa)
#
#
# Indices 1 2 3 4 5 6 
#
# 1 83.6351 21.7702 34.7700 -2.5473 17.1652 14.7488
# 2 21.7702 87.6150 14.7856 6.5767 5.1819 19.4277
# 3 34.7700 14.7856 179.1327 -11.0518 20.8367 8.4896
# 4 -2.5473 6.5767 -11.0518 38.6476 7.5025 9.6485
# 5 17.1652 5.1819 20.8367 7.5025 40.1418 1.4637
# 6 14.7488 19.4277 8.4896 9.6485 1.4637 63.1967
#
#
#
# Elastic Compliance Matrix: (Units=1/GPa)
#
#
# Indices 1 2 3 4 5 6 
#
# 1 0.015114 -0.002724 -0.001758 0.002730 -0.005609 -0.002741
# 2 -0.002724 0.012972 -0.000539 -0.001834 0.000222 -0.003005
# 3 -0.001758 -0.000539 0.006507 0.002577 -0.003016 -0.000622
# 4 0.002730 -0.001834 0.002577 0.029787 -0.007661 -0.004790
# 5 -0.005609 0.000222 -0.003016 -0.007661 0.030202 0.002116
# 6 -0.002741 -0.003005 -0.000622 -0.004790 0.002116 0.018153
#
#
# Mechanical properties :
#
#
# Convention : Reuss Voigt Hill
#
# Bulk Modulus (GPa) = 40.72971 54.78160 47.75566
# Shear Modulus (GPa) = 38.17923 47.00102 42.59013
#
# Velocity S-wave (km/s) = 3.73122 4.13991 3.94087
# Velocity P-wave (km/s) = 5.78054 6.54430 6.17424
#
# Compressibility (1/GPa) = 0.02455210
#
# Stress axis : x y z
#
# Youngs Moduli (GPa) = 66.16191 77.08794 153.67093
#
# Poissons Ratio (x) = 0.21002 0.27017
# Poissons Ratio (y) = 0.18025 0.08275
# Poissons Ratio (z) = 0.11632 0.04151
#
# Static dielectric constant tensor:
#      x y z
#    x 2.127190 -0.017740 0.061650 
#    y -0.017740 2.245170 -0.107370 
#    z 0.061650 -0.107370 2.350220 
# 
# From -- ./inp_files/138682.got.cif
#   From: 2010.05.17/outbox.cif.g08.bks.cpg/sg2_70_cif.got.tgz:138682.got - 2010.06.03 11:33:40.
