data_PCOD9019726
_publ_section_title
;
Structure prediction by ZEFSAII (Michael W. Deem and Ramdas Pophale) SiO2 
 PCOD9019726
Probable space group: P -1
;
_chemical_formula_sum "Si O2"
_cell_formula_units_Z 16
_cell_length_a 16.686564
_cell_length_b 7.569774
_cell_length_c 5.792919
_cell_angle_alpha 69.130270
_cell_angle_beta 68.675078
_cell_angle_gamma 86.273504
_cell_volume 635.151455
_symmetry_space_group_name_H-M "P -1"
_symmetry_group_IT_number 2
_symmetry_cell_setting 'triclinic'
loop_
_space_group_symop_operation_xyz
x,y,z
-x,-y,-z
loop_
_atom_site_type_symbol
_atom_site_label
_atom_site_fract_x
_atom_site_fract_y
_atom_site_fract_z
Si Si1 0.410921 0.406178 0.549737
Si Si2 0.993045 0.249230 0.874689
Si Si3 0.753253 0.478116 0.108565
Si Si4 0.598422 0.986174 0.975889
Si Si5 0.759572 0.191200 0.864135
Si Si6 0.682202 0.742934 0.669644
Si Si7 0.168411 0.180474 0.892385
Si Si8 0.922111 0.320415 0.414119
O O1 0.500000 0.500000 0.500000
O O2 0.401839 0.362447 0.310806
O O3 0.331182 0.530674 0.637943
O O4 0.398549 0.199396 0.779190
O O5 0.077749 0.135178 0.884782
O O6 0.032084 0.469357 0.724726
O O7 0.954609 0.224908 0.665176
O O8 0.942676 0.234700 0.181873
O O9 0.776505 0.286363 0.052692
O O10 0.719107 0.600808 0.875738
O O11 0.829674 0.621930 0.060596
O O12 0.652461 0.933712 0.720086
O O13 0.656935 0.158211 0.948662
O O14 0.500000 0.000000 0.000000
O O15 0.818381 0.314964 0.563730
O O16 0.798457 0.985966 0.908684
O O17 0.756524 0.788293 0.387350
#
# Coordination Sequence:
#
# PCOD9019726 Si02
#       8
#     2   2   2   2   2   2   2   2
#     4  10  23  43  65  97 132 186 239 300 371 430
#     4  10  24  47  76 108 154 190 249 303 367 452
#     4  10  24  43  67 101 137 192 235 293 370 436
#     4  11  26  44  65 103 141 183 242 304 356 436
#     4  12  25  46  71 109 141 188 248 298 372 436
#     4  10  21  45  67  93 146 188 230 303 365 431
#     4  11  24  46  72 104 145 187 239 301 361 437
#     4  10  25  45  76 112 145 200 243 303 375 444
#
# _framework density 25.190842
#
# number of rings (size 3 to 8) (size 9 to 14) (size 15 to 20)
#    0.000    1.500    3.750    0.750   10.500    4.500 
#    2.250    0.000    0.000    0.000    0.000    0.000 
#    0.000    0.000    0.000    0.000    0.000    0.000 
#
# Total GULP energy -89476.411467 kJ/mol
# GULP energy per Si atom -5592.275717 kJ/mol
# Density = 2.513351 g / cm^3
# Si number density = 25.190842 Si / 1000 Ang^3
#
#
#
# Elastic Constant Matrix: (Units=GPa)
#
#
# Indices 1 2 3 4 5 6 
#
# 1 179.4930 20.5878 39.5522 6.9059 8.6582 17.0662
# 2 20.5878 86.2573 27.0571 11.4430 1.7848 12.7617
# 3 39.5522 27.0571 83.1539 2.6195 9.3932 7.8896
# 4 6.9059 11.4430 2.6195 33.6700 0.5222 3.8821
# 5 8.6582 1.7848 9.3932 0.5222 36.7803 -2.3151
# 6 17.0662 12.7617 7.8896 3.8821 -2.3151 44.4331
#
#
#
# Elastic Compliance Matrix: (Units=1/GPa)
#
#
# Indices 1 2 3 4 5 6 
#
# 1 0.006447 -0.000301 -0.002659 -0.000780 -0.000932 -0.001898
# 2 -0.000301 0.013863 -0.004011 -0.004021 0.000304 -0.002786
# 3 -0.002659 -0.004011 0.014983 0.000874 -0.003064 -0.000723
# 4 -0.000780 -0.004021 0.000874 0.031333 -0.000381 -0.001458
# 5 -0.000932 0.000304 -0.003064 -0.000381 0.028327 0.002324
# 6 -0.001898 -0.002786 -0.000723 -0.001458 0.002324 0.024412
#
#
# Mechanical properties :
#
#
# Convention : Reuss Voigt Hill
#
# Bulk Modulus (GPa) = 46.83561 58.14428 52.48994
# Shear Modulus (GPa) = 35.60690 40.42384 38.01537
#
# Velocity S-wave (km/s) = 3.76371 4.01022 3.88892
# Velocity P-wave (km/s) = 6.12536 6.67639 6.40680
#
# Compressibility (1/GPa) = 0.02135128
#
# Stress axis : x y z
#
# Youngs Moduli (GPa) = 155.10888 72.13668 66.74396
#
# Poissons Ratio (x) = 0.02173 0.17744
# Poissons Ratio (y) = 0.04673 0.26769
# Poissons Ratio (z) = 0.41236 0.28932
#
# Static dielectric constant tensor:
#      x y z
#    x 2.014930 0.035260 0.032720 
#    y 0.035260 2.053690 -0.002990 
#    z 0.032720 -0.002990 2.014640 
# 
# From -- ./inp_files/90033.got.cif
#   From: 2010.05.17/outbox.cif.g08.bks.cpg/sg2_46_cif.got.tgz:90033.got - 2010.06.03 11:33:40.
