data_PCOD9019774
_publ_section_title
;
Structure prediction by ZEFSAII (Michael W. Deem and Ramdas Pophale) SiO2 
 PCOD9019774
Probable space group: P -1
;
_chemical_formula_sum "Si O2"
_cell_formula_units_Z 14
_cell_length_a 9.691621
_cell_length_b 5.720241
_cell_length_c 15.477470
_cell_angle_alpha 107.498579
_cell_angle_beta 127.088471
_cell_angle_gamma 91.587985
_cell_volume 627.669059
_symmetry_space_group_name_H-M "P -1"
_symmetry_group_IT_number 2
_symmetry_cell_setting 'triclinic'
loop_
_space_group_symop_operation_xyz
x,y,z
-x,-y,-z
loop_
_atom_site_type_symbol
_atom_site_label
_atom_site_fract_x
_atom_site_fract_y
_atom_site_fract_z
Si Si1 0.272798 0.499566 0.383259
Si Si2 0.913896 0.159788 0.162071
Si Si3 0.236888 0.842485 0.546621
Si Si4 0.373388 0.969170 0.347404
Si Si5 0.915296 0.961420 0.332152
Si Si6 0.989495 0.709648 0.087888
Si Si7 0.695719 0.495587 0.102179
O O1 0.234500 0.569378 0.474825
O O2 0.365869 0.772378 0.402771
O O3 0.085632 0.403337 0.249731
O O4 0.359879 0.262553 0.387376
O O5 0.725401 0.223065 0.104395
O O6 0.950434 0.058129 0.258908
O O7 0.924089 0.961466 0.069682
O O8 0.095886 0.934372 0.442740
O O9 0.442083 0.009345 0.631675
O O10 0.168345 0.862003 0.619266
O O11 0.191524 0.834721 0.212138
O O12 0.773049 0.685127 0.232304
O O13 0.834014 0.579758 0.083704
O O14 0.000000 0.500000 0.000000
O O15 0.500000 0.500000 0.000000
#
# Coordination Sequence:
#
# PCOD9019774 Si02
#       7
#     2   2   2   2   2   2   2
#     4  11  21  43  67  97 139 180 220 285 351 407
#     4  10  21  45  68  93 138 179 227 284 353 410
#     4  11  22  42  67 101 139 178 230 279 335 423
#     4  11  24  42  68 100 140 180 228 286 349 414
#     4  10  24  43  63  98 139 181 224 280 345 408
#     4  10  23  42  67  99 130 178 233 294 342 406
#     4  11  23  44  69  92 134 180 230 284 349 413
#
# _framework density 22.304745
#
# number of rings (size 3 to 8) (size 9 to 14) (size 15 to 20)
#    0.000    1.429    2.857    2.571    2.000    4.571 
#    5.143    0.000    0.000    0.000    0.000    0.000 
#    0.000    0.000    0.000    0.000    0.000    0.000 
#
# Total GULP energy -78077.989408 kJ/mol
# GULP energy per Si atom -5576.999243 kJ/mol
# Density = 2.225398 g / cm^3
# Si number density = 22.304745 Si / 1000 Ang^3
#
#
#
# Elastic Constant Matrix: (Units=GPa)
#
#
# Indices 1 2 3 4 5 6 
#
# 1 132.1004 35.1166 61.9881 12.8747 6.8724 -26.2593
# 2 35.1166 96.2183 51.1377 18.9179 1.4001 -19.4198
# 3 61.9881 51.1377 82.9138 18.0495 8.5541 -29.9234
# 4 12.8747 18.9179 18.0495 34.8174 -21.1469 -0.4279
# 5 6.8724 1.4001 8.5541 -21.1469 48.2131 -2.4314
# 6 -26.2593 -19.4198 -29.9234 -0.4279 -2.4314 35.0008
#
#
#
# Elastic Compliance Matrix: (Units=1/GPa)
#
#
# Indices 1 2 3 4 5 6 
#
# 1 0.011777 0.000651 -0.008270 -0.000643 -0.000407 0.002091
# 2 0.000651 0.016105 -0.008291 -0.005517 -0.001400 0.002172
# 3 -0.008270 -0.008291 0.034687 -0.017078 -0.011325 0.017855
# 4 -0.000643 -0.005517 -0.017078 0.057439 0.027693 -0.015518
# 5 -0.000407 -0.001400 -0.011325 0.027693 0.034591 -0.008023
# 6 0.002091 0.002172 0.017855 -0.015518 -0.008023 0.045862
#
#
# Mechanical properties :
#
#
# Convention : Reuss Voigt Hill
#
# Bulk Modulus (GPa) = 32.52008 67.52414 50.02211
# Shear Modulus (GPa) = 20.61609 34.47227 27.54418
#
# Velocity S-wave (km/s) = 3.04351 3.93557 3.51793
# Velocity P-wave (km/s) = 5.19251 7.14078 6.24311
#
# Compressibility (1/GPa) = 0.03075024
#
# Stress axis : x y z
#
# Youngs Moduli (GPa) = 84.91165 62.09243 28.82960
#
# Poissons Ratio (x) = -0.04045 0.23842
# Poissons Ratio (y) = -0.05531 0.23901
# Poissons Ratio (z) = 0.70221 0.51478
#
# Static dielectric constant tensor:
#      x y z
#    x 1.828270 0.018350 0.027450 
#    y 0.018350 2.038080 0.023510 
#    z 0.027450 0.023510 1.844520 
# 
# From -- ./inp_files/488723.got.cif
#   From: 2010.05.17/outbox.cif.g08.bks.cpg/sg2_245_cif.got.tgz:488723.got - 2010.06.03 11:33:40.
