data_PCOD9019572
_publ_section_title
;
Structure prediction by ZEFSAII (Michael W. Deem and Ramdas Pophale) SiO2 
 PCOD9019572
Probable space group: P -1
;
_chemical_formula_sum "Si O2"
_cell_formula_units_Z 16
_cell_length_a 8.890307
_cell_length_b 5.273811
_cell_length_c 23.043841
_cell_angle_alpha 129.158800
_cell_angle_beta 60.066129
_cell_angle_gamma 94.397098
_cell_volume 678.765004
_symmetry_space_group_name_H-M "P -1"
_symmetry_group_IT_number 2
_symmetry_cell_setting 'triclinic'
loop_
_space_group_symop_operation_xyz
x,y,z
-x,-y,-z
loop_
_atom_site_type_symbol
_atom_site_label
_atom_site_fract_x
_atom_site_fract_y
_atom_site_fract_z
Si Si1 0.087435 0.925205 0.103829
Si Si2 0.091507 0.625554 0.899480
Si Si3 0.462837 0.348418 0.731622
Si Si4 0.516044 0.379133 0.046298
Si Si5 0.262630 0.932739 0.647239
Si Si6 0.421800 0.693668 0.461427
Si Si7 0.852678 0.016078 0.767296
Si Si8 0.318866 0.317158 0.333074
O O1 0.137126 0.047376 0.174512
O O2 0.973110 0.673253 0.104204
O O3 0.266348 0.691715 0.997862
O O4 0.985255 0.264040 0.134893
O O5 0.310920 0.496153 0.831989
O O6 0.000000 0.000000 0.000000
O O7 0.529208 0.648570 0.737101
O O8 0.360927 0.216937 0.680147
O O9 0.620006 0.013437 0.682265
O O10 0.343562 0.656050 0.153620
O O11 0.500000 0.500000 0.000000
O O12 0.500000 0.000000 0.000000
O O13 0.305530 0.732355 0.548704
O O14 0.389374 0.644076 0.626066
O O15 0.046294 0.057147 0.719733
O O16 0.296446 0.653615 0.426555
O O17 0.500000 0.000000 0.500000
O O18 0.837885 0.716955 0.684076
#
# Coordination Sequence:
#
# PCOD9019572 Si02
#       8
#     2   2   2   2   2   2   2   2
#     4  11  24  44  67  99 137 189 235 290 343 401
#     4  12  26  41  72 101 137 184 247 288 336 408
#     4  11  24  45  68 100 141 187 236 286 348 418
#     4  10  23  42  63  91 140 185 225 276 343 399
#     4  10  22  44  73 101 136 185 235 287 353 428
#     4  10  21  44  74  99 139 183 229 292 361 421
#     4  11  25  45  70 107 142 189 236 291 348 428
#     4  11  26  44  70 105 143 183 229 293 356 418
#
# _framework density 23.572225
#
# number of rings (size 3 to 8) (size 9 to 14) (size 15 to 20)
#    0.000    1.250    2.500    2.625    5.250    3.500 
#    4.500    0.625    0.000    0.000    0.000    0.000 
#    0.000    0.000    0.000    0.000    0.000    0.000 
#
# Total GULP energy -89258.245723 kJ/mol
# GULP energy per Si atom -5578.640358 kJ/mol
# Density = 2.351857 g / cm^3
# Si number density = 23.572225 Si / 1000 Ang^3
#
#
#
# Elastic Constant Matrix: (Units=GPa)
#
#
# Indices 1 2 3 4 5 6 
#
# 1 82.4158 21.1364 28.2881 -7.4242 21.5565 11.4789
# 2 21.1364 90.8761 23.1981 -12.7710 -11.0589 19.3114
# 3 28.2881 23.1981 72.1259 -2.8867 23.6135 0.1676
# 4 -7.4242 -12.7710 -2.8867 30.7536 3.3187 3.1313
# 5 21.5565 -11.0589 23.6135 3.3187 48.1606 3.6149
# 6 11.4789 19.3114 0.1676 3.1313 3.6149 22.4842
#
#
#
# Elastic Compliance Matrix: (Units=1/GPa)
#
#
# Indices 1 2 3 4 5 6 
#
# 1 0.016732 -0.001429 -0.004080 0.004379 -0.005594 -0.006995
# 2 -0.001429 0.020167 -0.009030 0.008008 0.010598 -0.019344
# 3 -0.004080 -0.009030 0.022101 -0.002602 -0.011800 0.011934
# 4 0.004379 0.008008 -0.002602 0.038158 -0.000398 -0.014344
# 5 -0.005594 0.010598 -0.011800 -0.000398 0.032363 -0.011307
# 6 -0.006995 -0.019344 0.011934 -0.014344 -0.011307 0.068387
#
#
# Mechanical properties :
#
#
# Convention : Reuss Voigt Hill
#
# Bulk Modulus (GPa) = 33.42093 43.40702 38.41398
# Shear Modulus (GPa) = 21.10045 31.79938 26.44991
#
# Velocity S-wave (km/s) = 2.99514 3.67688 3.35338
# Velocity P-wave (km/s) = 5.11566 6.03990 5.59689
#
# Compressibility (1/GPa) = 0.02992137
#
# Stress axis : x y z
#
# Youngs Moduli (GPa) = 59.76465 49.58517 45.24744
#
# Poissons Ratio (x) = 0.07086 0.18461
# Poissons Ratio (y) = 0.08541 0.40860
# Poissons Ratio (z) = 0.24384 0.44777
#
# Static dielectric constant tensor:
#      x y z
#    x 2.032450 -0.020990 0.024370 
#    y -0.020990 1.897810 -0.009240 
#    z 0.024370 -0.009240 1.983250 
# 
# From -- ./inp_files/605768.got.cif
#   From: 2010.05.17/outbox.cif.g08.bks.cpg/sg2_303_cif.got.tgz:605768.got - 2010.06.03 11:33:40.
