data_PCOD9019775
_publ_section_title
;
Structure prediction by ZEFSAII (Michael W. Deem and Ramdas Pophale) SiO2 
 PCOD9019775
Probable space group: P -1
;
_chemical_formula_sum "Si O2"
_cell_formula_units_Z 14
_cell_length_a 10.274856
_cell_length_b 6.922972
_cell_length_c 11.575593
_cell_angle_alpha 67.294497
_cell_angle_beta 113.754576
_cell_angle_gamma 119.792235
_cell_volume 635.880610
_symmetry_space_group_name_H-M "P -1"
_symmetry_group_IT_number 2
_symmetry_cell_setting 'triclinic'
loop_
_space_group_symop_operation_xyz
x,y,z
-x,-y,-z
loop_
_atom_site_type_symbol
_atom_site_label
_atom_site_fract_x
_atom_site_fract_y
_atom_site_fract_z
Si Si1 0.814583 0.819233 0.754835
Si Si2 0.502655 0.612799 0.801333
Si Si3 0.933453 0.438229 0.862182
Si Si4 0.004613 0.818251 0.448810
Si Si5 0.192218 0.682167 0.724649
Si Si6 0.734878 0.842794 0.226066
Si Si7 0.216794 0.081001 0.036471
O O1 0.629155 0.741381 0.717914
O O2 0.858117 0.619181 0.765225
O O3 0.870161 0.857826 0.901120
O O4 0.889727 0.040980 0.652111
O O5 0.349971 0.660510 0.752471
O O6 0.438988 0.343457 0.812873
O O7 0.610723 0.722082 0.925776
O O8 0.078109 0.490446 0.815301
O O9 0.809185 0.177255 0.879821
O O10 0.000000 0.500000 0.000000
O O11 0.085123 0.678323 0.577861
O O12 0.830696 0.724444 0.358578
O O13 0.000000 0.000000 0.500000
O O14 0.243078 0.925646 0.753549
O O15 0.809836 0.910383 0.110374
#
# Coordination Sequence:
#
# PCOD9019775 Si02
#       7
#     2   2   2   2   2   2   2
#     4  10  24  45  63  98 134 169 215 268 328 384
#     4  10  27  40  65 101 132 175 207 272 335 382
#     4  12  23  41  69  97 132 172 219 269 322 383
#     4  10  21  45  68  94 128 174 225 264 316 385
#     4  11  25  43  67 100 129 172 225 265 319 390
#     4  11  22  44  68  95 136 171 215 271 325 384
#     4  10  25  41  67 101 134 165 219 267 332 386
#
# _framework density 22.016711000000001
#
# number of rings (size 3 to 8) (size 9 to 14) (size 15 to 20)
#    0.857    0.571    4.286    0.429    6.000    2.857 
#    0.000    2.857    0.000    0.000    0.000    0.000 
#    0.000    0.000    0.000    0.000    0.000    0.000 
#
# Total GULP energy -78099.749853 kJ/mol
# GULP energy per Si atom -5578.553561 kJ/mol
# Density = 2.196660 g / cm^3
# Si number density = 22.016711 Si / 1000 Ang^3
#
#
#
# Elastic Constant Matrix: (Units=GPa)
#
#
# Indices 1 2 3 4 5 6 
#
# 1 87.5374 1.0817 6.5807 9.5090 -17.2215 4.6721
# 2 1.0817 122.0541 17.8815 22.0761 -10.4561 1.5127
# 3 6.5807 17.8815 82.0918 6.8909 -9.0220 7.2680
# 4 9.5090 22.0761 6.8909 31.6501 3.6733 -1.1339
# 5 -17.2215 -10.4561 -9.0220 3.6733 20.1387 -8.0129
# 6 4.6721 1.5127 7.2680 -1.1339 -8.0129 36.7894
#
#
#
# Elastic Compliance Matrix: (Units=1/GPa)
#
#
# Indices 1 2 3 4 5 6 
#
# 1 0.015601 0.002802 0.000649 -0.008732 0.017176 0.001247
# 2 0.002802 0.010794 -0.000826 -0.009285 0.009807 0.001213
# 3 0.000649 -0.000826 0.013391 -0.003300 0.006148 -0.001457
# 4 -0.008732 -0.009285 -0.003300 0.043956 -0.022327 -0.001366
# 5 0.017176 0.009807 0.006148 -0.022327 0.081543 0.013273
# 6 0.001247 0.001213 -0.001457 -0.001366 0.013273 0.030110
#
#
# Mechanical properties :
#
#
# Convention : Reuss Voigt Hill
#
# Bulk Modulus (GPa) = 22.20431 38.08568 30.14499
# Shear Modulus (GPa) = 24.37153 35.45827 29.91490
#
# Velocity S-wave (km/s) = 3.33070 4.01748 3.69010
# Velocity P-wave (km/s) = 4.98985 6.23348 5.64601
#
# Compressibility (1/GPa) = 0.04503630
#
# Stress axis : x y z
#
# Youngs Moduli (GPa) = 64.09744 92.64582 74.67706
#
# Poissons Ratio (x) = -0.25958 -0.04848
# Poissons Ratio (y) = -0.17959 0.06168
# Poissons Ratio (z) = -0.04161 0.07652
#
# Static dielectric constant tensor:
#      x y z
#    x 1.838630 -0.026560 0.028620 
#    y -0.026560 1.858080 0.021390 
#    z 0.028620 0.021390 1.818270 
# 
# From -- ./inp_files/412176.got.cif
#   From: 2010.05.17/outbox.cif.g08.bks.cpg/sg2_207_cif.got.tgz:412176.got - 2010.06.03 11:33:40.
