data_PCOD9019800
_publ_section_title
;
Structure prediction by ZEFSAII (Michael W. Deem and Ramdas Pophale) SiO2 
 PCOD9019800
Probable space group: P -1
;
_chemical_formula_sum "Si O2"
_cell_formula_units_Z 16
_cell_length_a 14.716141
_cell_length_b 12.510604
_cell_length_c 5.270213
_cell_angle_alpha 92.169108
_cell_angle_beta 92.637636
_cell_angle_gamma 137.079398
_cell_volume 656.389340
_symmetry_space_group_name_H-M "P -1"
_symmetry_group_IT_number 2
_symmetry_cell_setting 'triclinic'
loop_
_space_group_symop_operation_xyz
x,y,z
-x,-y,-z
loop_
_atom_site_type_symbol
_atom_site_label
_atom_site_fract_x
_atom_site_fract_y
_atom_site_fract_z
Si Si1 0.460904 0.653656 0.040333
Si Si2 0.563682 0.139361 0.216919
Si Si3 0.189806 0.310147 0.084888
Si Si4 0.917728 0.678290 0.408274
Si Si5 0.130356 0.600679 0.706271
Si Si6 0.609841 0.894492 0.445802
Si Si7 0.844751 0.152289 0.186212
Si Si8 0.752827 0.879041 0.858516
O O1 0.339267 0.467589 0.016560
O O2 0.485543 0.714388 0.334649
O O3 0.426640 0.734162 0.899741
O O4 0.607027 0.741074 0.969954
O O5 0.714820 0.251509 0.352216
O O6 0.448036 0.058969 0.399469
O O7 0.500000 0.000000 0.000000
O O8 0.155804 0.352445 0.336249
O O9 0.184361 0.182715 0.158272
O O10 0.104090 0.256061 0.812380
O O11 0.874720 0.529937 0.251502
O O12 0.066079 0.785402 0.545924
O O13 0.120886 0.698361 0.897295
O O14 0.000000 0.500000 0.500000
O O15 0.708955 0.899986 0.599552
O O16 0.689319 0.010506 0.230013
O O17 0.851821 0.050465 0.017497
#
# Coordination Sequence:
#
# PCOD9019800 Si02
#       8
#     2   2   2   2   2   2   2   2
#     4  10  22  40  64  97 135 177 230 288 350 417
#     4  11  21  38  66 101 135 179 233 289 351 419
#     4  12  26  45  71 100 145 184 234 291 346 427
#     4  11  27  46  70 104 138 189 234 287 355 421
#     4  10  21  45  68  99 142 181 234 291 354 422
#     4  10  22  40  66  95 138 176 235 287 347 416
#     4  10  24  46  67  99 135 183 236 291 350 419
#     4  10  24  42  68 102 133 183 232 292 353 409
#
# _framework density 24.375775999999998
#
# number of rings (size 3 to 8) (size 9 to 14) (size 15 to 20)
#    0.000    1.500    1.250    3.375    7.000    4.500 
#    2.250    1.875    0.000    0.000    0.000    0.000 
#    0.000    0.000    0.000    0.000    0.000    0.000 
#
# Total GULP energy -89172.023922 kJ/mol
# GULP energy per Si atom -5573.251495 kJ/mol
# Density = 2.432030 g / cm^3
# Si number density = 24.375776 Si / 1000 Ang^3
#
#
#
# Elastic Constant Matrix: (Units=GPa)
#
#
# Indices 1 2 3 4 5 6 
#
# 1 89.9872 32.6201 26.2459 3.2800 16.3433 -21.1764
# 2 32.6201 71.9635 24.3910 19.4305 9.3046 -21.8067
# 3 26.2459 24.3910 65.0284 5.2876 9.8533 4.6062
# 4 3.2800 19.4305 5.2876 29.9310 5.2675 -0.4466
# 5 16.3433 9.3046 9.8533 5.2675 33.6738 7.1655
# 6 -21.1764 -21.8067 4.6062 -0.4466 7.1655 46.6032
#
#
#
# Elastic Compliance Matrix: (Units=1/GPa)
#
#
# Indices 1 2 3 4 5 6 
#
# 1 0.017043 -0.003205 -0.005253 0.002663 -0.007971 0.008015
# 2 -0.003205 0.025771 -0.007496 -0.014237 -0.003649 0.011768
# 3 -0.005253 -0.007496 0.020739 0.001664 -0.000021 -0.007925
# 4 0.002663 -0.014237 0.001664 0.042616 -0.003519 -0.004667
# 5 -0.007971 -0.003649 -0.000021 -0.003519 0.037498 -0.011127
# 6 0.008015 0.011768 -0.007925 -0.004667 -0.011127 0.033056
#
#
# Mechanical properties :
#
#
# Convention : Reuss Voigt Hill
#
# Bulk Modulus (GPa) = 31.59951 43.72149 37.66050
# Shear Modulus (GPa) = 22.81222 31.62308 27.21765
#
# Velocity S-wave (km/s) = 3.06250 3.60573 3.34516
# Velocity P-wave (km/s) = 5.04944 5.94226 5.51395
#
# Compressibility (1/GPa) = 0.03164606
#
# Stress axis : x y z
#
# Youngs Moduli (GPa) = 58.67346 38.80317 48.21806
#
# Poissons Ratio (x) = 0.12435 0.25331
# Poissons Ratio (y) = 0.18802 0.36144
# Poissons Ratio (z) = 0.30823 0.29087
#
# Static dielectric constant tensor:
#      x y z
#    x 2.014940 -0.015380 -0.034280 
#    y -0.015380 1.914920 -0.006780 
#    z -0.034280 -0.006780 1.971610 
# 
# From -- ./inp_files/69344.got.cif
#   From: 2010.05.17/outbox.cif.g08.bks.cpg/sg2_35_cif.got.tgz:69344.got - 2010.06.03 11:33:40.
