data_PCOD9019566
_publ_section_title
;
Structure prediction by ZEFSAII (Michael W. Deem and Ramdas Pophale) SiO2 
 PCOD9019566
Probable space group: P -1
;
_chemical_formula_sum "Si O2"
_cell_formula_units_Z 16
_cell_length_a 17.287921
_cell_length_b 8.865085
_cell_length_c 8.564203
_cell_angle_alpha 131.197219
_cell_angle_beta 64.376437
_cell_angle_gamma 134.382373
_cell_volume 704.864286
_symmetry_space_group_name_H-M "P -1"
_symmetry_group_IT_number 2
_symmetry_cell_setting 'triclinic'
loop_
_space_group_symop_operation_xyz
x,y,z
-x,-y,-z
loop_
_atom_site_type_symbol
_atom_site_label
_atom_site_fract_x
_atom_site_fract_y
_atom_site_fract_z
Si Si1 0.328837 0.176404 0.866477
Si Si2 0.380424 0.965585 0.162307
Si Si3 0.511657 0.246427 0.956052
Si Si4 0.864497 0.193647 0.028153
Si Si5 0.211376 0.493675 0.800491
Si Si6 0.901733 0.013706 0.561636
Si Si7 0.058058 0.286199 0.094255
Si Si8 0.192393 0.817782 0.453489
O O1 0.386438 0.461532 0.956017
O O2 0.258414 0.975375 0.654633
O O3 0.424011 0.173099 0.850171
O O4 0.240683 0.080392 0.013567
O O5 0.282425 0.931587 0.313840
O O6 0.454038 0.201216 0.143704
O O7 0.448809 0.926546 0.194014
O O8 0.324996 0.724799 0.928891
O O9 0.899251 0.162524 0.808448
O O10 0.832283 0.378448 0.169747
O O11 0.961566 0.293145 0.128634
O O12 0.202306 0.280919 0.563397
O O13 0.133040 0.352347 0.922513
O O14 0.894002 0.138059 0.497287
O O15 0.000000 0.000000 0.500000
O O16 0.132901 0.517760 0.306091
O O17 0.000000 0.000000 0.000000
#
# Coordination Sequence:
#
# PCOD9019566 Si02
#       8
#     2   2   2   2   2   2   2   2
#     4  11  25  43  69 102 143 177 232 295 350 410
#     4  10  21  44  74  95 139 184 230 290 344 417
#     4  10  22  45  70  99 134 187 229 294 355 400
#     4  12  24  45  68 100 144 186 228 290 341 418
#     4  11  22  44  68  99 139 184 230 281 347 416
#     4  12  23  41  73 100 134 194 237 273 340 424
#     4  11  25  42  68 100 143 179 224 289 344 406
#     4  11  25  44  68 106 142 180 236 285 349 424
#
# _framework density 22.699403
#
# number of rings (size 3 to 8) (size 9 to 14) (size 15 to 20)
#    0.000    1.000    5.000    1.875    5.250    2.500 
#    0.000    5.000    0.000    0.000    0.000    0.000 
#    0.000    0.000    0.000    0.000    0.000    0.000 
#
# Total GULP energy -89483.469279 kJ/mol
# GULP energy per Si atom -5592.716830 kJ/mol
# Density = 2.264774 g / cm^3
# Si number density = 22.699403 Si / 1000 Ang^3
#
#
#
# Elastic Constant Matrix: (Units=GPa)
#
#
# Indices 1 2 3 4 5 6 
#
# 1 107.1194 24.2247 29.2232 5.7028 12.4501 -13.0154
# 2 24.2247 147.1033 11.2669 14.2427 2.7605 -5.3308
# 3 29.2232 11.2669 61.3168 21.3630 16.1498 -9.6834
# 4 5.7028 14.2427 21.3630 20.2842 3.9153 -1.9908
# 5 12.4501 2.7605 16.1498 3.9153 32.3516 1.1611
# 6 -13.0154 -5.3308 -9.6834 -1.9908 1.1611 36.2995
#
#
#
# Elastic Compliance Matrix: (Units=1/GPa)
#
#
# Indices 1 2 3 4 5 6 
#
# 1 0.011679 -0.001810 -0.006009 0.004970 -0.002037 0.002657
# 2 -0.001810 0.007633 0.001982 -0.006850 -0.000138 0.000630
# 3 -0.006009 0.001982 0.034120 -0.032924 -0.011113 0.005788
# 4 0.004970 -0.006850 -0.032924 0.086122 0.004808 -0.003438
# 5 -0.002037 -0.000138 -0.011113 0.004808 0.036838 -0.004630
# 6 0.002657 0.000630 0.005788 -0.003438 -0.004630 0.030097
#
#
# Mechanical properties :
#
#
# Convention : Reuss Voigt Hill
#
# Bulk Modulus (GPa) = 23.94679 49.44101 36.69390
# Shear Modulus (GPa) = 21.54418 34.50871 28.02644
#
# Velocity S-wave (km/s) = 3.08410 3.90326 3.51761
# Velocity P-wave (km/s) = 4.82231 6.49169 5.71825
#
# Compressibility (1/GPa) = 0.04175925
#
# Stress axis : x y z
#
# Youngs Moduli (GPa) = 85.62440 131.01434 29.30806
#
# Poissons Ratio (x) = 0.23710 0.17611
# Poissons Ratio (y) = 0.15495 -0.05810
# Poissons Ratio (z) = 0.51451 -0.25971
#
# Static dielectric constant tensor:
#      x y z
#    x 1.875840 -0.005100 0.003340 
#    y -0.005100 1.889500 -0.033510 
#    z 0.003340 -0.033510 1.855310 
# 
# From -- ./inp_files/328026.got.cif
#   From: 2010.05.17/outbox.cif.g08.bks.cpg/sg2_165_cif.got.tgz:328026.got - 2010.06.03 11:33:40.
