data_PCOD9019127
_publ_section_title
;
Structure prediction by ZEFSAII (Michael W. Deem and Ramdas Pophale) SiO2 
 PCOD9019127
Probable space group: P -1
;
_chemical_formula_sum "Si O2"
_cell_formula_units_Z 14
_cell_length_a 14.472822
_cell_length_b 15.055595
_cell_length_c 5.782099
_cell_angle_alpha 99.068875
_cell_angle_beta 87.967869
_cell_angle_gamma 28.051696
_cell_volume 542.174701
_symmetry_space_group_name_H-M "P -1"
_symmetry_group_IT_number 2
_symmetry_cell_setting 'triclinic'
loop_
_space_group_symop_operation_xyz
x,y,z
-x,-y,-z
loop_
_atom_site_type_symbol
_atom_site_label
_atom_site_fract_x
_atom_site_fract_y
_atom_site_fract_z
Si Si1 0.528438 0.186842 0.748964
Si Si2 0.286899 0.158957 0.221903
Si Si3 0.844469 0.542669 0.412097
Si Si4 0.839095 0.416578 0.748434
Si Si5 0.167209 0.724822 0.990442
Si Si6 0.533582 0.575858 0.529170
Si Si7 0.215370 0.882995 0.090888
O O1 0.377275 0.308592 0.587722
O O2 0.700586 0.115347 0.738878
O O3 0.642714 0.993717 0.719204
O O4 0.346934 0.363622 0.026017
O O5 0.226105 0.295614 0.449926
O O6 0.065678 0.346042 0.165384
O O7 0.500000 0.000000 0.000000
O O8 0.931718 0.407953 0.564622
O O9 0.724742 0.441667 0.615037
O O10 0.949446 0.254662 0.857472
O O11 0.375701 0.494789 0.770724
O O12 0.224516 0.770225 0.124819
O O13 0.022650 0.884659 0.859328
O O14 0.500000 0.500000 0.500000
O O15 0.337465 0.783434 0.788963
#
# Coordination Sequence:
#
# PCOD9019127 Si02
#       7
#     2   2   2   2   2   2   2
#     4  11  24  45  74 106 141 184 231 295 346 417
#     4  11  25  52  76 103 139 179 231 291 365 427
#     4  11  26  49  72 107 141 179 234 289 359 425
#     4  11  23  41  67 105 138 186 231 284 344 409
#     4  10  21  44  68  96 152 190 233 288 334 407
#     4   9  20  39  62  93 137 185 231 281 339 399
#     4   9  22  43  68 106 138 192 242 279 344 409
#
# _framework density 25.821936000000001
#
# number of rings (size 3 to 8) (size 9 to 14) (size 15 to 20)
#    0.000    1.714    1.429    1.286    4.000    6.857 
#   10.286    6.429    0.000    0.000    0.000    0.000 
#    0.000    0.000    0.000    0.000    0.000    0.000 
#
# Total GULP energy -78018.132983 kJ/mol
# GULP energy per Si atom -5572.723784 kJ/mol
# Density = 2.576316 g / cm^3
# Si number density = 25.821936 Si / 1000 Ang^3
#
#
#
# Elastic Constant Matrix: (Units=GPa)
#
#
# Indices 1 2 3 4 5 6 
#
# 1 146.5899 65.4414 18.8327 -5.9650 21.3293 22.1147
# 2 65.4414 142.7292 35.2793 15.2574 4.7176 25.2311
# 3 18.8327 35.2793 60.9855 21.8003 -2.5822 19.5101
# 4 -5.9650 15.2574 21.8003 32.8814 -4.3960 -1.5828
# 5 21.3293 4.7176 -2.5822 -4.3960 26.8634 4.9860
# 6 22.1147 25.2311 19.5101 -1.5828 4.9860 44.2685
#
#
#
# Elastic Compliance Matrix: (Units=1/GPa)
#
#
# Indices 1 2 3 4 5 6 
#
# 1 0.010314 -0.004265 -0.002362 0.004471 -0.006795 -0.000755
# 2 -0.004265 0.010464 -0.002183 -0.004168 0.001243 -0.003161
# 3 -0.002362 -0.002183 0.028841 -0.018536 0.004116 -0.011413
# 4 0.004471 -0.004168 -0.018536 0.046069 0.001114 0.009833
# 5 -0.006795 0.001243 0.004116 0.001114 0.043725 -0.004013
# 6 -0.000755 -0.003161 -0.011413 0.009833 -0.004013 0.030602
#
#
# Mechanical properties :
#
#
# Convention : Reuss Voigt Hill
#
# Bulk Modulus (GPa) = 31.25027 65.49013 48.37020
# Shear Modulus (GPa) = 25.21409 36.18610 30.70010
#
# Velocity S-wave (km/s) = 3.12823 3.74755 3.45181
# Velocity P-wave (km/s) = 5.01759 6.64400 5.88723
#
# Compressibility (1/GPa) = 0.03199972
#
# Stress axis : x y z
#
# Youngs Moduli (GPa) = 96.95784 95.56169 34.67269
#
# Poissons Ratio (x) = 0.40755 0.08190
# Poissons Ratio (y) = 0.41351 0.07568
# Poissons Ratio (z) = 0.22904 0.20859
#
# Static dielectric constant tensor:
#      x y z
#    x 2.217230 -0.050020 0.019030 
#    y -0.050020 2.017180 -0.113900 
#    z 0.019030 -0.113900 2.323790 
# 
# From -- ./inp_files/98270.got.cif
#   From: 2010.05.17/outbox.cif.g08.bks.cpg/sg2_50_cif.got.tgz:98270.got - 2010.06.03 11:33:40.
