data_PCOD9019867
_publ_section_title
;
Structure prediction by ZEFSAII (Michael W. Deem and Ramdas Pophale) SiO2 
 PCOD9019867
Probable space group: P -1
;
_chemical_formula_sum "Si O2"
_cell_formula_units_Z 16
_cell_length_a 14.527015
_cell_length_b 8.818770
_cell_length_c 13.791277
_cell_angle_alpha 139.527432
_cell_angle_beta 41.736255
_cell_angle_gamma 134.859357
_cell_volume 723.622912
_symmetry_space_group_name_H-M "P -1"
_symmetry_group_IT_number 2
_symmetry_cell_setting 'triclinic'
loop_
_space_group_symop_operation_xyz
x,y,z
-x,-y,-z
loop_
_atom_site_type_symbol
_atom_site_label
_atom_site_fract_x
_atom_site_fract_y
_atom_site_fract_z
Si Si1 0.840487 0.747259 0.778058
Si Si2 0.692009 0.995639 0.174755
Si Si3 0.111526 0.951165 0.312379
Si Si4 0.099817 0.476599 0.000296
Si Si5 0.663043 0.437189 0.285883
Si Si6 0.338991 0.158978 0.389329
Si Si7 0.133276 0.947792 0.744171
Si Si8 0.357630 0.805523 0.366009
O O1 0.739794 0.478357 0.694031
O O2 0.989142 0.748438 0.716586
O O3 0.886840 0.925469 0.734222
O O4 0.745563 0.846853 0.977365
O O5 0.529313 0.852805 0.274037
O O6 0.679204 0.240043 0.254103
O O7 0.814651 0.072570 0.198118
O O8 0.264454 0.080243 0.307851
O O9 0.078625 0.658325 0.186696
O O10 0.000000 0.000000 0.500000
O O11 0.260635 0.592542 0.887340
O O12 0.090875 0.199518 0.895758
O O13 0.000000 0.500000 0.000000
O O14 0.494129 0.368535 0.358719
O O15 0.736530 0.702148 0.407592
O O16 0.353750 0.923875 0.320371
O O17 0.274540 0.943258 0.568640
#
# Coordination Sequence:
#
# PCOD9019867 Si02
#       8
#     2   2   2   2   2   2   2   2
#     4  12  26  47  67 105 147 181 231 295 348 419
#     4  11  25  46  72 104 141 190 232 283 350 420
#     4  12  26  44  71 101 135 183 233 291 356 407
#     4  12  23  45  69  95 138 179 234 292 341 407
#     4  10  21  45  70  97 136 176 232 288 336 413
#     4  10  23  42  71 100 133 180 229 283 348 406
#     4  12  25  45  72 103 137 192 234 283 355 412
#     4  11  25  47  70 104 147 181 232 291 346 421
#
# _framework density 22.110963000000002
#
# number of rings (size 3 to 8) (size 9 to 14) (size 15 to 20)
#    0.000    0.750    3.750    3.000    3.500    1.500 
#    0.000    0.000    0.000    0.000    0.000    0.000 
#    0.000    0.000    0.000    0.000    0.000    0.000 
#
# Total GULP energy -89423.837155 kJ/mol
# GULP energy per Si atom -5588.989822 kJ/mol
# Density = 2.206064 g / cm^3
# Si number density = 22.110963 Si / 1000 Ang^3
#
#
#
# Elastic Constant Matrix: (Units=GPa)
#
#
# Indices 1 2 3 4 5 6 
#
# 1 96.9292 8.0165 22.4764 2.9831 3.0435 18.7901
# 2 8.0165 69.6862 15.1517 -1.9772 -1.0031 11.4873
# 3 22.4764 15.1517 121.7478 -10.2120 5.1256 7.5077
# 4 2.9831 -1.9772 -10.2120 35.3023 6.3934 -1.7774
# 5 3.0435 -1.0031 5.1256 6.3934 27.5050 -0.9899
# 6 18.7901 11.4873 7.5077 -1.7774 -0.9899 23.3925
#
#
#
# Elastic Compliance Matrix: (Units=1/GPa)
#
#
# Indices 1 2 3 4 5 6 
#
# 1 0.012763 0.000545 -0.001925 -0.001942 -0.000945 -0.010090
# 2 0.000545 0.015921 -0.001641 -0.000122 0.000577 -0.007714
# 3 -0.001925 -0.001641 0.009159 0.003113 -0.002293 -0.000448
# 4 -0.001942 -0.000122 0.003113 0.030867 -0.007449 0.002651
# 5 -0.000945 0.000577 -0.002293 -0.007449 0.038724 0.002285
# 6 -0.010090 -0.007714 -0.000448 0.002651 0.002285 0.055083
#
#
# Mechanical properties :
#
#
# Convention : Reuss Voigt Hill
#
# Bulk Modulus (GPa) = 31.44591 42.18362 36.81476
# Shear Modulus (GPa) = 27.90825 33.42121 30.66473
#
# Velocity S-wave (km/s) = 3.55659 3.89205 3.72809
# Velocity P-wave (km/s) = 5.57839 6.27032 5.93445
#
# Compressibility (1/GPa) = 0.03180064
#
# Stress axis : x y z
#
# Youngs Moduli (GPa) = 78.34863 62.81188 109.18762
#
# Poissons Ratio (x) = -0.03422 0.21019
# Poissons Ratio (y) = -0.04268 0.17915
# Poissons Ratio (z) = 0.15082 0.10306
#
# Static dielectric constant tensor:
#      x y z
#    x 1.833040 0.036130 -0.111610 
#    y 0.036130 1.844930 -0.056070 
#    z -0.111610 -0.056070 2.097150 
# 
# From -- ./inp_files/530219.got.cif
#   From: 2010.05.17/outbox.cif.g08.bks.cpg/sg2_266_cif.got.tgz:530219.got - 2010.06.03 11:33:40.
