data_PCOD9019664
_publ_section_title
;
Structure prediction by ZEFSAII (Michael W. Deem and Ramdas Pophale) SiO2 
 PCOD9019664
Probable space group: P -1
;
_chemical_formula_sum "Si O2"
_cell_formula_units_Z 14
_cell_length_a 8.155992
_cell_length_b 15.895800
_cell_length_c 11.606413
_cell_angle_alpha 58.422330
_cell_angle_beta 102.068708
_cell_angle_gamma 52.325970
_cell_volume 628.954226
_symmetry_space_group_name_H-M "P -1"
_symmetry_group_IT_number 2
_symmetry_cell_setting 'triclinic'
loop_
_space_group_symop_operation_xyz
x,y,z
-x,-y,-z
loop_
_atom_site_type_symbol
_atom_site_label
_atom_site_fract_x
_atom_site_fract_y
_atom_site_fract_z
Si Si1 0.162178 0.137083 0.413683
Si Si2 0.438597 0.794308 0.656279
Si Si3 0.738315 0.400898 0.715119
Si Si4 0.863379 0.608091 0.281170
Si Si5 0.870724 0.964908 0.062620
Si Si6 0.843675 0.242471 0.501736
Si Si7 0.851041 0.495317 0.131675
O O1 0.146694 0.136711 0.551175
O O2 0.877781 0.365677 0.192026
O O3 0.500000 0.000000 0.500000
O O4 0.169913 0.019884 0.456903
O O5 0.290099 0.779529 0.576323
O O6 0.781077 0.653727 0.745016
O O7 0.570144 0.694095 0.873269
O O8 0.500000 0.500000 0.500000
O O9 0.482846 0.522857 0.695924
O O10 0.894802 0.430053 0.706598
O O11 0.031144 0.172037 0.912962
O O12 0.816256 0.546408 0.222824
O O13 0.000000 0.500000 0.500000
O O14 0.512882 0.834033 0.103703
O O15 0.049110 0.851697 0.291314
O O16 0.000000 0.000000 0.000000
#
# Coordination Sequence:
#
# PCOD9019664 Si02
#       7
#     2   2   2   2   2   2   2
#     4  10  23  41  66  99 137 180 232 284 345 415
#     4  10  21  45  65  99 138 179 232 288 339 416
#     4  10  23  44  67  99 135 181 230 287 353 416
#     4  12  24  43  70  99 140 183 231 292 354 420
#     4  11  26  44  67 107 141 182 238 288 353 431
#     4  11  22  44  73  95 144 184 227 294 349 413
#     4  10  23  41  67  98 138 178 232 282 352 411
#
# _framework density 22.259173000000001
#
# number of rings (size 3 to 8) (size 9 to 14) (size 15 to 20)
#    0.000    1.429    1.429    3.429    6.000    0.571 
#    5.143    0.000    0.000    0.000    0.000    0.000 
#    0.000    0.000    0.000    0.000    0.000    0.000 
#
# Total GULP energy -78096.745516 kJ/mol
# GULP energy per Si atom -5578.338965 kJ/mol
# Density = 2.220851 g / cm^3
# Si number density = 22.259173 Si / 1000 Ang^3
#
#
#
# Elastic Constant Matrix: (Units=GPa)
#
#
# Indices 1 2 3 4 5 6 
#
# 1 76.0454 47.1864 31.6719 -8.7915 -2.7656 -13.2184
# 2 47.1864 158.5104 46.3106 -26.8754 -4.7335 -6.4179
# 3 31.6719 46.3106 62.1221 -17.6857 1.1771 1.5092
# 4 -8.7915 -26.8754 -17.6857 38.8058 -3.5731 -7.1741
# 5 -2.7656 -4.7335 1.1771 -3.5731 31.3841 -5.0004
# 6 -13.2184 -6.4179 1.5092 -7.1741 -5.0004 47.7924
#
#
#
# Elastic Compliance Matrix: (Units=1/GPa)
#
#
# Indices 1 2 3 4 5 6 
#
# 1 0.019370 -0.003267 -0.007659 -0.000154 0.002341 0.005382
# 2 -0.003267 0.009326 -0.004145 0.004256 0.001970 0.001325
# 3 -0.007659 -0.004145 0.024922 0.006059 -0.001985 -0.002760
# 4 -0.000154 0.004256 0.006059 0.032988 0.005084 0.005821
# 5 0.002341 0.001970 -0.001985 0.005084 0.033861 0.005281
# 6 0.005382 0.001325 -0.002760 0.005821 0.005281 0.024104
#
#
# Mechanical properties :
#
#
# Convention : Reuss Voigt Hill
#
# Bulk Modulus (GPa) = 42.59573 60.77953 51.68763
# Shear Modulus (GPa) = 27.39155 35.03039 31.21097
#
# Velocity S-wave (km/s) = 3.51176 3.97136 3.74861
# Velocity P-wave (km/s) = 5.96834 6.95655 6.48130
#
# Compressibility (1/GPa) = 0.02347653
#
# Stress axis : x y z
#
# Youngs Moduli (GPa) = 51.62656 107.22418 40.12559
#
# Poissons Ratio (x) = 0.35027 0.30733
# Poissons Ratio (y) = 0.16865 0.16631
# Poissons Ratio (z) = 0.39541 0.44442
#
# Static dielectric constant tensor:
#      x y z
#    x 1.867650 -0.005190 0.018470 
#    y -0.005190 1.822520 -0.105010 
#    z 0.018470 -0.105010 1.704180 
# 
# From -- ./inp_files/182875.got.cif
#   From: 2010.05.17/outbox.cif.g08.bks.cpg/sg2_92_cif.got.tgz:182875.got - 2010.06.03 11:33:40.
