data_PCOD9019856
_publ_section_title
;
Structure prediction by ZEFSAII (Michael W. Deem and Ramdas Pophale) SiO2 
 PCOD9019856
Probable space group: P -1
;
_chemical_formula_sum "Si O2"
_cell_formula_units_Z 14
_cell_length_a 12.159907
_cell_length_b 12.011370
_cell_length_c 11.549727
_cell_angle_alpha 86.702405
_cell_angle_beta 39.300649
_cell_angle_gamma 117.191141
_cell_volume 649.803545
_symmetry_space_group_name_H-M "P -1"
_symmetry_group_IT_number 2
_symmetry_cell_setting 'triclinic'
loop_
_space_group_symop_operation_xyz
x,y,z
-x,-y,-z
loop_
_atom_site_type_symbol
_atom_site_label
_atom_site_fract_x
_atom_site_fract_y
_atom_site_fract_z
Si Si1 0.392451 0.863891 0.798301
Si Si2 0.697194 0.902762 0.730556
Si Si3 0.345871 0.508536 0.041196
Si Si4 0.249959 0.961796 0.090974
Si Si5 0.775532 0.487282 0.303010
Si Si6 0.379655 0.366801 0.439076
Si Si7 0.291610 0.765027 0.473084
O O1 0.630584 0.903250 0.652717
O O2 0.542220 0.048067 0.610273
O O3 0.274359 0.852869 0.018839
O O4 0.106089 0.674015 0.984910
O O5 0.459492 0.689964 0.966993
O O6 0.708631 0.007736 0.808605
O O7 0.000000 0.000000 0.500000
O O8 0.452450 0.535810 0.823200
O O9 0.500000 0.500000 0.000000
O O10 0.004595 0.338324 0.328715
O O11 0.934203 0.839458 0.320611
O O12 0.494460 0.153932 0.811905
O O13 0.564252 0.384042 0.372716
O O14 0.671577 0.539753 0.462542
O O15 0.758565 0.365829 0.397349
#
# Coordination Sequence:
#
# PCOD9019856 Si02
#       7
#     2   2   2   2   2   2   2
#     4   9  21  41  61  91 126 165 214 256 314 377
#     4  12  21  38  62  89 130 171 204 263 323 369
#     4  12  26  40  61  99 134 163 215 265 321 379
#     4   9  22  39  62  92 124 169 209 258 316 377
#     4  10  21  45  70  88 128 172 218 253 320 375
#     4  10  23  44  66  92 130 171 208 269 313 377
#     4  10  23  41  64  97 124 165 217 260 310 387
#
# _framework density 21.544974
#
# number of rings (size 3 to 8) (size 9 to 14) (size 15 to 20)
#    0.857    0.857    2.857    1.286    2.000    2.857 
#    0.000    0.714    0.000    0.000    0.000    0.000 
#    0.000    0.000    0.000    0.000    0.000    0.000 
#
# Total GULP energy -78080.189149 kJ/mol
# GULP energy per Si atom -5577.156368 kJ/mol
# Density = 2.149594 g / cm^3
# Si number density = 21.544974 Si / 1000 Ang^3
#
#
#
# Elastic Constant Matrix: (Units=GPa)
#
#
# Indices 1 2 3 4 5 6 
#
# 1 136.1790 25.3655 41.8524 -11.4736 -30.7533 0.4333
# 2 25.3655 45.1600 27.3163 -2.8310 -9.9928 -2.4646
# 3 41.8524 27.3163 101.2534 -22.2219 -26.4354 10.9639
# 4 -11.4736 -2.8310 -22.2219 41.6213 6.8962 4.1107
# 5 -30.7533 -9.9928 -26.4354 6.8962 35.5885 -4.8926
# 6 0.4333 -2.4646 10.9639 4.1107 -4.8926 39.5969
#
#
#
# Elastic Compliance Matrix: (Units=1/GPa)
#
#
# Indices 1 2 3 4 5 6 
#
# 1 0.009920 -0.003115 -0.001518 0.000534 0.006587 0.000876
# 2 -0.003115 0.028624 -0.007369 -0.003466 0.001143 0.004357
# 3 -0.001518 -0.007369 0.016345 0.007180 0.006698 -0.004886
# 4 0.000534 -0.003466 0.007180 0.028539 -0.001444 -0.005351
# 5 0.006587 0.001143 0.006698 -0.001444 0.039808 0.003213
# 6 0.000876 0.004357 -0.004886 -0.005351 0.003213 0.027821
#
#
# Mechanical properties :
#
#
# Convention : Reuss Voigt Hill
#
# Bulk Modulus (GPa) = 32.37761 52.40676 42.39218
# Shear Modulus (GPa) = 26.97536 35.89853 31.43695
#
# Velocity S-wave (km/s) = 3.54227 4.08636 3.82400
# Velocity P-wave (km/s) = 5.63833 6.82946 6.26228
#
# Compressibility (1/GPa) = 0.03088555
#
# Stress axis : x y z
#
# Youngs Moduli (GPa) = 100.80985 34.93627 61.18111
#
# Poissons Ratio (x) = 0.10882 0.09286
# Poissons Ratio (y) = 0.31400 0.45083
# Poissons Ratio (z) = 0.15301 0.25743
#
# Static dielectric constant tensor:
#      x y z
#    x 1.775100 -0.016270 -0.042830 
#    y -0.016270 1.852690 0.034790 
#    z -0.042830 0.034790 1.790690 
# 
# From -- ./inp_files/428075.got.cif
#   From: 2010.05.17/outbox.cif.g08.bks.cpg/sg2_215_cif.got.tgz:428075.got - 2010.06.03 11:33:40.
