data_PCOD9019887
_publ_section_title
;
Structure prediction by ZEFSAII (Michael W. Deem and Ramdas Pophale) SiO2 
 PCOD9019887
Probable space group: P -1
;
_chemical_formula_sum "Si O2"
_cell_formula_units_Z 16
_cell_length_a 9.133088
_cell_length_b 17.413905
_cell_length_c 12.001815
_cell_angle_alpha 56.064459
_cell_angle_beta 133.555616
_cell_angle_gamma 151.613081
_cell_volume 651.263945
_symmetry_space_group_name_H-M "P -1"
_symmetry_group_IT_number 2
_symmetry_cell_setting 'triclinic'
loop_
_space_group_symop_operation_xyz
x,y,z
-x,-y,-z
loop_
_atom_site_type_symbol
_atom_site_label
_atom_site_fract_x
_atom_site_fract_y
_atom_site_fract_z
Si Si1 0.301127 0.745178 0.672220
Si Si2 0.779022 0.497298 0.952163
Si Si3 0.155298 0.196205 0.029975
Si Si4 0.393263 0.549390 0.334933
Si Si5 0.568075 0.039091 0.289284
Si Si6 0.995724 0.139455 0.237325
Si Si7 0.627338 0.243954 0.544022
Si Si8 0.396705 0.754042 0.224923
O O1 0.683563 0.842889 0.818231
O O2 0.177592 0.682299 0.531939
O O3 0.016261 0.590995 0.728521
O O4 0.328953 0.860732 0.632601
O O5 0.578487 0.465390 0.767462
O O6 0.469309 0.359228 0.990157
O O7 0.000000 0.500000 0.000000
O O8 0.100631 0.664270 0.051628
O O9 0.073379 0.207078 0.100128
O O10 0.802575 0.067009 0.874657
O O11 0.500000 0.500000 0.500000
O O12 0.557935 0.712383 0.317168
O O13 0.852306 0.153402 0.245730
O O14 0.542632 0.922526 0.404463
O O15 0.693743 0.945460 0.223922
O O16 0.337302 0.215102 0.402738
O O17 0.786952 0.316744 0.691478
#
# Coordination Sequence:
#
# PCOD9019887 Si02
#       8
#     2   2   2   2   2   2   2   2
#     4  11  24  42  65 102 138 178 227 281 339 406
#     4  10  22  45  66  98 138 175 225 273 341 405
#     4  11  23  44  68 105 133 182 229 281 340 407
#     4  11  26  41  68 100 136 177 226 276 349 403
#     4  11  23  40  70  99 139 176 234 285 334 400
#     4  10  24  44  70 102 138 182 229 279 345 397
#     4  10  24  44  67 102 135 180 232 279 342 395
#     4  10  21  45  71  90 139 182 219 279 337 400
#
# _framework density 24.567613000000001
#
# number of rings (size 3 to 8) (size 9 to 14) (size 15 to 20)
#    0.000    1.500    2.500    2.625    7.000    4.500 
#    0.000    2.500    0.000    0.000    0.000    0.000 
#    0.000    0.000    0.000    0.000    0.000    0.000 
#
# Total GULP energy -89437.849353 kJ/mol
# GULP energy per Si atom -5589.865585 kJ/mol
# Density = 2.451170 g / cm^3
# Si number density = 24.567613 Si / 1000 Ang^3
#
#
#
# Elastic Constant Matrix: (Units=GPa)
#
#
# Indices 1 2 3 4 5 6 
#
# 1 104.1381 28.8877 45.6311 -4.1356 -6.4494 8.7161
# 2 28.8877 26.1549 10.8206 -16.5238 -0.9815 4.6255
# 3 45.6311 10.8206 104.4704 -16.5019 -27.8273 2.8004
# 4 -4.1356 -16.5238 -16.5019 33.2584 8.9095 -8.7097
# 5 -6.4494 -0.9815 -27.8273 8.9095 46.6562 -9.0332
# 6 8.7161 4.6255 2.8004 -8.7097 -9.0332 39.4602
#
#
#
# Elastic Compliance Matrix: (Units=1/GPa)
#
#
# Indices 1 2 3 4 5 6 
#
# 1 0.022014 -0.031371 -0.009318 -0.018568 -0.000548 -0.004748
# 2 -0.031371 0.102147 0.010131 0.054696 -0.005617 0.005023
# 3 -0.009318 0.010131 0.016136 0.010946 0.007192 0.003788
# 4 -0.018568 0.054696 0.010946 0.064371 -0.005260 0.009917
# 5 -0.000548 -0.005617 0.007192 -0.005260 0.027583 0.005422
# 6 -0.004748 0.005023 0.003788 0.009917 0.005422 0.028963
#
#
# Mechanical properties :
#
#
# Convention : Reuss Voigt Hill
#
# Bulk Modulus (GPa) = 12.62915 45.04912 28.83913
# Shear Modulus (GPa) = 14.33806 33.83658 24.08732
#
# Velocity S-wave (km/s) = 2.41844 3.71520 3.13461
# Velocity P-wave (km/s) = 3.59864 6.06467 4.98650
#
# Compressibility (1/GPa) = 0.07918187
#
# Stress axis : x y z
#
# Youngs Moduli (GPa) = 45.42634 9.78981 61.97402
#
# Poissons Ratio (x) = 0.30711 0.57745
# Poissons Ratio (y) = 1.42506 -0.62787
# Poissons Ratio (z) = 0.42327 -0.09918
#
# Static dielectric constant tensor:
#      x y z
#    x 1.989230 -0.006990 0.041870 
#    y -0.006990 1.959320 -0.026070 
#    z 0.041870 -0.026070 2.033590 
# 
# From -- ./inp_files/403088.got.cif
#   From: 2010.05.17/outbox.cif.g08.bks.cpg/sg2_202_cif.got.tgz:403088.got - 2010.06.03 11:33:40.
