data_PCOD9019351
_publ_section_title
;
Structure prediction by ZEFSAII (Michael W. Deem and Ramdas Pophale) SiO2 
 PCOD9019351
Probable space group: P -1
;
_chemical_formula_sum "Si O2"
_cell_formula_units_Z 16
_cell_length_a 11.932222
_cell_length_b 6.091017
_cell_length_c 11.395826
_cell_angle_alpha 99.055197
_cell_angle_beta 82.243428
_cell_angle_gamma 123.307629
_cell_volume 682.379892
_symmetry_space_group_name_H-M "P -1"
_symmetry_group_IT_number 2
_symmetry_cell_setting 'triclinic'
loop_
_space_group_symop_operation_xyz
x,y,z
-x,-y,-z
loop_
_atom_site_type_symbol
_atom_site_label
_atom_site_fract_x
_atom_site_fract_y
_atom_site_fract_z
Si Si1 0.951668 0.438558 0.309942
Si Si2 0.292923 0.416040 0.228889
Si Si3 0.993853 0.923612 0.857088
Si Si4 0.432115 0.680368 0.002605
Si Si5 0.462259 0.644778 0.748090
Si Si6 0.605310 0.092945 0.597552
Si Si7 0.864118 0.089129 0.524230
Si Si8 0.800913 0.678755 0.332929
O O1 0.930667 0.268024 0.413918
O O2 0.815410 0.429168 0.308135
O O3 0.992637 0.328433 0.186778
O O4 0.060773 0.737689 0.358127
O O5 0.147562 0.168585 0.194307
O O6 0.335174 0.590524 0.118928
O O7 0.405304 0.352068 0.237105
O O8 0.306772 0.601458 0.350327
O O9 0.111905 0.144748 0.775588
O O10 0.000000 0.000000 0.000000
O O11 0.500000 0.500000 0.000000
O O12 0.376368 0.587259 0.872944
O O13 0.500000 0.000000 0.000000
O O14 0.354256 0.414734 0.660339
O O15 0.514606 0.924111 0.706214
O O16 0.713311 0.018185 0.550076
O O17 0.500000 0.000000 0.500000
O O18 0.856930 0.827184 0.462280
#
# Coordination Sequence:
#
# PCOD9019351 Si02
#       8
#     2   2   2   2   2   2   2   2
#     4  10  22  43  66  94 132 182 226 286 353 430
#     4  11  24  44  71 101 142 184 241 305 368 436
#     4  11  25  46  70 102 138 175 241 298 362 431
#     4  10  21  44  71 102 140 193 245 305 374 452
#     4  11  25  43  67 104 139 189 239 300 372 439
#     4  12  24  40  67 102 144 181 237 299 362 435
#     4  10  22  40  64  95 134 178 230 282 349 433
#     4  11  24  43  67  98 137 182 234 283 361 433
#
# _framework density 23.44735
#
# number of rings (size 3 to 8) (size 9 to 14) (size 15 to 20)
#    0.000    1.250    2.500    2.625    1.750    4.500 
#    4.500    0.000    0.000    0.000    0.000    0.000 
#    0.000    0.000    0.000    0.000    0.000    0.000 
#
# Total GULP energy -89179.733575 kJ/mol
# GULP energy per Si atom -5573.733348 kJ/mol
# Density = 2.339398 g / cm^3
# Si number density = 23.447350 Si / 1000 Ang^3
#
#
#
# Elastic Constant Matrix: (Units=GPa)
#
#
# Indices 1 2 3 4 5 6 
#
# 1 110.0358 32.0176 27.4974 20.3267 11.3624 14.0509
# 2 32.0176 97.0359 54.5210 -1.3147 7.5787 9.2810
# 3 27.4974 54.5210 135.0542 24.8970 -1.6514 -1.9397
# 4 20.3267 -1.3147 24.8970 43.4603 -2.5599 2.4546
# 5 11.3624 7.5787 -1.6514 -2.5599 30.3912 8.1641
# 6 14.0509 9.2810 -1.9397 2.4546 8.1641 38.1175
#
#
#
# Elastic Compliance Matrix: (Units=1/GPa)
#
#
# Indices 1 2 3 4 5 6 
#
# 1 0.011809 -0.003454 -0.000042 -0.005666 -0.003382 -0.002425
# 2 -0.003454 0.015798 -0.006860 0.006088 -0.001717 -0.002947
# 3 -0.000042 -0.006860 0.011494 -0.006847 0.001110 0.002474
# 4 -0.005666 0.006088 -0.006847 0.030103 0.003411 -0.002412
# 5 -0.003382 -0.001717 0.001110 0.003411 0.036650 -0.006348
# 6 -0.002425 -0.002947 0.002474 -0.002412 -0.006348 0.029487
#
#
# Mechanical properties :
#
#
# Convention : Reuss Voigt Hill
#
# Bulk Modulus (GPa) = 54.37944 63.35532 58.86738
# Shear Modulus (GPa) = 30.82979 37.59979 34.21479
#
# Velocity S-wave (km/s) = 3.63002 4.00882 3.82411
# Velocity P-wave (km/s) = 6.38842 6.96466 6.68275
#
# Compressibility (1/GPa) = 0.01838930
#
# Stress axis : x y z
#
# Youngs Moduli (GPa) = 84.68254 63.29974 87.00481
#
# Poissons Ratio (x) = 0.21861 0.00364
# Poissons Ratio (y) = 0.29246 0.59686
# Poissons Ratio (z) = 0.00354 0.43424
#
# Static dielectric constant tensor:
#      x y z
#    x 2.005250 -0.032680 0.000910 
#    y -0.032680 1.992470 0.033420 
#    z 0.000910 0.033420 1.907510 
# 
# From -- ./inp_files/68431.got.cif
#   From: 2010.05.17/outbox.cif.g08.bks.cpg/sg2_35_cif.got.tgz:68431.got - 2010.06.03 11:33:40.
