data_PCOD9019215
_publ_section_title
;
Structure prediction by ZEFSAII (Michael W. Deem and Ramdas Pophale) SiO2 
 PCOD9019215
Probable space group: P -1
;
_chemical_formula_sum "Si O2"
_cell_formula_units_Z 12
_cell_length_a 12.200504
_cell_length_b 6.137746
_cell_length_c 7.271588
_cell_angle_alpha 100.282938
_cell_angle_beta 99.166793
_cell_angle_gamma 78.610533
_cell_volume 520.863631
_symmetry_space_group_name_H-M "P -1"
_symmetry_group_IT_number 2
_symmetry_cell_setting 'triclinic'
loop_
_space_group_symop_operation_xyz
x,y,z
-x,-y,-z
loop_
_atom_site_type_symbol
_atom_site_label
_atom_site_fract_x
_atom_site_fract_y
_atom_site_fract_z
Si Si1 0.070618 0.761994 0.913389
Si Si2 0.893765 0.435140 0.728097
Si Si3 0.848955 0.085187 0.419864
Si Si4 0.540630 0.484789 0.215467
Si Si5 0.728373 0.714491 0.443938
Si Si6 0.603191 0.175531 0.495754
O O1 0.990401 0.588058 0.801042
O O2 0.138762 0.827803 0.767573
O O3 0.136294 0.644218 0.089563
O O4 0.000000 0.000000 0.000000
O O5 0.796847 0.597541 0.615984
O O6 0.933731 0.201830 0.587179
O O7 0.819884 0.834348 0.379257
O O8 0.733152 0.201058 0.507147
O O9 0.662255 0.562150 0.279371
O O10 0.550444 0.249098 0.292677
O O11 0.453783 0.657048 0.340796
O O12 0.500000 0.500000 0.000000
O O13 0.625230 0.912211 0.508345
#
# Coordination Sequence:
#
# PCOD9019215 Si02
#       6
#     2   2   2   2   2   2
#     4  11  26  44  67 101 131 174 223 272 327 392
#     4  11  23  45  68  94 133 179 217 272 327 396
#     4  10  23  45  66  95 134 174 217 271 331 386
#     4  11  22  43  68  98 133 172 220 270 329 390
#     4  10  21  44  69  96 134 176 214 275 326 393
#     4   9  23  44  65  96 132 173 217 270 330 387
#
# _framework density 23.038661000000001
#
# number of rings (size 3 to 8) (size 9 to 14) (size 15 to 20)
#    1.000    0.667    1.667    2.000    0.000    7.333 
#    3.000    1.667    0.000    0.000    0.000    0.000 
#    0.000    0.000    0.000    0.000    0.000    0.000 
#
# Total GULP energy -66887.668754 kJ/mol
# GULP energy per Si atom -5573.972396 kJ/mol
# Density = 2.298622 g / cm^3
# Si number density = 23.038661 Si / 1000 Ang^3
#
#
#
# Elastic Constant Matrix: (Units=GPa)
#
#
# Indices 1 2 3 4 5 6 
#
# 1 84.8892 33.4764 59.5525 -15.7018 9.7279 10.7554
# 2 33.4764 118.1168 63.2327 -28.9150 21.0629 12.5840
# 3 59.5525 63.2327 165.1400 -41.9667 21.2244 9.8280
# 4 -15.7018 -28.9150 -41.9667 53.2147 -6.8364 -0.8110
# 5 9.7279 21.0629 21.2244 -6.8364 41.8991 -10.4767
# 6 10.7554 12.5840 9.8280 -0.8110 -10.4767 30.4718
#
#
#
# Elastic Compliance Matrix: (Units=1/GPa)
#
#
# Indices 1 2 3 4 5 6 
#
# 1 0.016525 -0.001237 -0.005014 -0.000042 -0.001760 -0.004311
# 2 -0.001237 0.012663 -0.002335 0.003846 -0.005747 -0.005913
# 3 -0.005014 -0.002335 0.010468 0.005171 -0.002459 -0.001350
# 4 -0.000042 0.003846 0.005171 0.024739 -0.001261 -0.003016
# 5 -0.001760 -0.005747 -0.002459 -0.001261 0.031884 0.014716
# 6 -0.004311 -0.005913 -0.001350 -0.003016 0.014716 0.042196
#
#
# Mechanical properties :
#
#
# Convention : Reuss Voigt Hill
#
# Bulk Modulus (GPa) = 44.47187 75.62993 60.05090
# Shear Modulus (GPa) = 30.64845 39.24275 34.94560
#
# Velocity S-wave (km/s) = 3.65129 4.13164 3.89887
# Velocity P-wave (km/s) = 6.09270 7.46051 6.81103
#
# Compressibility (1/GPa) = 0.02248612
#
# Stress axis : x y z
#
# Youngs Moduli (GPa) = 60.51397 78.97085 95.53040
#
# Poissons Ratio (x) = 0.09765 0.47894
# Poissons Ratio (y) = 0.07483 0.22305
# Poissons Ratio (z) = 0.30339 0.18438
#
# Static dielectric constant tensor:
#      x y z
#    x 2.101520 -0.008790 0.000040 
#    y -0.008790 1.994070 0.034440 
#    z 0.000040 0.034440 1.811420 
# 
# From -- ./inp_files/102546.got.cif
#   From: 2010.05.17/outbox.cif.g08.bks.cpg/sg2_52_cif.got.tgz:102546.got - 2010.06.03 11:33:40.
