data_PCOD9019283
_publ_section_title
;
Structure prediction by ZEFSAII (Michael W. Deem and Ramdas Pophale) SiO2 
 PCOD9019283
Probable space group: P -1
;
_chemical_formula_sum "Si O2"
_cell_formula_units_Z 16
_cell_length_a 11.066214
_cell_length_b 15.507778
_cell_length_c 8.031546
_cell_angle_alpha 88.901129
_cell_angle_beta 106.307611
_cell_angle_gamma 31.320030
_cell_volume 587.679998
_symmetry_space_group_name_H-M "P -1"
_symmetry_group_IT_number 2
_symmetry_cell_setting 'triclinic'
loop_
_space_group_symop_operation_xyz
x,y,z
-x,-y,-z
loop_
_atom_site_type_symbol
_atom_site_label
_atom_site_fract_x
_atom_site_fract_y
_atom_site_fract_z
Si Si1 0.440279 0.757866 0.651405
Si Si2 0.676166 0.471062 0.260010
Si Si3 0.930857 0.200367 0.984122
Si Si4 0.949810 0.430233 0.090169
Si Si5 0.204755 0.337263 0.730642
Si Si6 0.570309 0.974776 0.721381
Si Si7 0.037988 0.844025 0.394145
Si Si8 0.634487 0.179004 0.732474
O O1 0.254426 0.788391 0.527681
O O2 0.467793 0.791092 0.486717
O O3 0.724963 0.553231 0.853544
O O4 0.262644 0.927969 0.696473
O O5 0.394343 0.589043 0.099305
O O6 0.838622 0.432538 0.193467
O O7 0.888314 0.279375 0.449174
O O8 0.513810 0.638347 0.312044
O O9 0.941349 0.195969 0.788233
O O10 0.163424 0.123065 0.148828
O O11 0.034263 0.046423 0.115586
O O12 0.922463 0.542121 0.156465
O O13 0.266600 0.212867 0.160098
O O14 0.497505 0.209433 0.826797
O O15 0.000000 0.500000 0.500000
O O16 0.311562 0.175087 0.723217
O O17 0.500000 0.000000 0.500000
#
# Coordination Sequence:
#
# PCOD9019283 Si02
#       8
#     2   2   2   2   2   2   2   2
#     4  11  24  40  59  98 137 175 216 265 330 399
#     4  11  23  39  65 100 132 171 220 262 338 397
#     4  11  23  41  66  93 135 179 209 273 335 387
#     4  11  25  43  68 100 135 176 215 278 332 392
#     4  10  21  44  70  92 128 172 220 277 334 379
#     4  11  23  40  71  95 124 172 232 267 324 390
#     4  11  24  38  62  95 141 173 214 267 328 404
#     4  10  23  39  66  93 132 173 218 265 330 400
#
# _framework density 27.225701000000001
#
# number of rings (size 3 to 8) (size 9 to 14) (size 15 to 20)
#    0.000    1.250    2.500    3.750    8.750    1.000 
#    0.000    0.625    0.000    1.500    0.000    0.000 
#    0.000    0.000    0.000    0.000    0.000    0.000 
#
# Total GULP energy -89446.691120 kJ/mol
# GULP energy per Si atom -5590.418195 kJ/mol
# Density = 2.716373 g / cm^3
# Si number density = 27.225701 Si / 1000 Ang^3
#
#
#
# Elastic Constant Matrix: (Units=GPa)
#
#
# Indices 1 2 3 4 5 6 
#
# 1 107.8083 18.3016 28.8410 6.8697 4.2372 6.0908
# 2 18.3016 172.4761 45.1964 7.8833 -9.9626 22.5364
# 3 28.8410 45.1964 167.2695 -10.2480 -0.2962 17.6679
# 4 6.8697 7.8833 -10.2480 52.5854 11.3179 -3.7184
# 5 4.2372 -9.9626 -0.2962 11.3179 44.8443 -3.3177
# 6 6.0908 22.5364 17.6679 -3.7184 -3.3177 24.2333
#
#
#
# Elastic Compliance Matrix: (Units=1/GPa)
#
#
# Indices 1 2 3 4 5 6 
#
# 1 0.009964 -0.000464 -0.001549 -0.001456 -0.000782 -0.001275
# 2 -0.000464 0.007131 -0.001379 -0.002043 0.001721 -0.005588
# 3 -0.001549 -0.001379 0.007074 0.001723 -0.000795 -0.003330
# 4 -0.001456 -0.002043 0.001723 0.021263 -0.005410 0.003531
# 5 -0.000782 0.001721 -0.000795 -0.005410 0.024239 0.001663
# 6 -0.001275 -0.005588 -0.003330 0.003531 0.001663 0.049980
#
#
# Mechanical properties :
#
#
# Convention : Reuss Voigt Hill
#
# Bulk Modulus (GPa) = 57.51353 70.24798 63.88076
# Shear Modulus (GPa) = 37.81301 48.01359 42.91330
#
# Velocity S-wave (km/s) = 3.73080 4.20401 3.97445
# Velocity P-wave (km/s) = 6.30310 7.03015 6.67653
#
# Compressibility (1/GPa) = 0.01738721
#
# Stress axis : x y z
#
# Youngs Moduli (GPa) = 100.35889 140.22594 141.36456
#
# Poissons Ratio (x) = 0.06500 0.21894
# Poissons Ratio (y) = 0.04652 0.19492
# Poissons Ratio (z) = 0.15543 0.19335
#
# Static dielectric constant tensor:
#      x y z
#    x 2.279970 0.113990 0.089490 
#    y 0.113990 2.254920 0.013950 
#    z 0.089490 0.013950 2.106950 
# 
# From -- ./inp_files/222414.got.cif
#   From: 2010.05.17/outbox.cif.g08.bks.cpg/sg2_112_cif.got.tgz:222414.got - 2010.06.03 11:33:40.
