data_PCOD9019948
_publ_section_title
;
Structure prediction by ZEFSAII (Michael W. Deem and Ramdas Pophale) SiO2 
 PCOD9019948
Probable space group: P -1
;
_chemical_formula_sum "Si O2"
_cell_formula_units_Z 16
_cell_length_a 9.377304
_cell_length_b 12.379027
_cell_length_c 17.782072
_cell_angle_alpha 36.704762
_cell_angle_beta 71.813187
_cell_angle_gamma 46.420599
_cell_volume 743.109109
_symmetry_space_group_name_H-M "P -1"
_symmetry_group_IT_number 2
_symmetry_cell_setting 'triclinic'
loop_
_space_group_symop_operation_xyz
x,y,z
-x,-y,-z
loop_
_atom_site_type_symbol
_atom_site_label
_atom_site_fract_x
_atom_site_fract_y
_atom_site_fract_z
Si Si1 0.263475 0.372685 0.622391
Si Si2 0.985128 0.746862 0.320521
Si Si3 0.721981 0.723756 0.921842
Si Si4 0.496468 0.791013 0.629099
Si Si5 0.816550 0.196004 0.852866
Si Si6 0.964249 0.215339 0.433798
Si Si7 0.589338 0.727787 0.105015
Si Si8 0.502123 0.690580 0.852495
O O1 0.200389 0.492592 0.481297
O O2 0.189292 0.593415 0.572414
O O3 0.106098 0.330756 0.677006
O O4 0.537711 0.063320 0.760299
O O5 0.026078 0.905737 0.188777
O O6 0.759719 0.981087 0.281230
O O7 0.668314 0.660629 0.891716
O O8 0.642880 0.689422 0.029011
O O9 0.000000 0.500000 0.000000
O O10 0.675261 0.517427 0.699403
O O11 0.565628 0.647767 0.779110
O O12 0.500000 0.000000 0.500000
O O13 0.227878 0.997952 0.539775
O O14 0.615560 0.229519 0.868262
O O15 0.000000 0.000000 0.000000
O O16 0.832961 0.462035 0.256668
O O17 0.000000 0.000000 0.500000
O O18 0.500000 0.000000 0.000000
O O19 0.500000 0.500000 0.000000
#
# Coordination Sequence:
#
# PCOD9019948 Si02
#       8
#     2   2   2   2   2   2   2   2
#     4  10  21  45  73 107 140 197 236 306 367 434
#     4  10  22  42  77 101 144 181 252 302 365 432
#     4  11  26  44  72 106 142 189 246 293 372 449
#     4  12  27  44  75 110 142 194 253 305 369 441
#     4  12  26  45  70 110 140 191 247 302 367 448
#     4  12  25  48  72 103 152 189 243 307 371 442
#     4  12  27  48  72 102 152 196 237 304 379 444
#     4  11  24  46  70 103 146 191 242 306 363 442
#
# _framework density 21.531158000000001
#
# number of rings (size 3 to 8) (size 9 to 14) (size 15 to 20)
#    0.000    0.750    3.750    3.750    7.000    1.000 
#    0.000    0.625    0.000    0.000    0.000    0.000 
#    0.000    0.000    0.000    0.000    0.000    0.000 
#
# Total GULP energy -89272.110506 kJ/mol
# GULP energy per Si atom -5579.506907 kJ/mol
# Density = 2.148215 g / cm^3
# Si number density = 21.531158 Si / 1000 Ang^3
#
#
#
# Elastic Constant Matrix: (Units=GPa)
#
#
# Indices 1 2 3 4 5 6 
#
# 1 95.8209 47.5057 32.1276 0.1408 0.3528 2.9192
# 2 47.5057 59.7897 24.2014 -3.6740 11.6356 2.4134
# 3 32.1276 24.2014 137.6175 -3.6422 14.2640 5.0724
# 4 0.1408 -3.6740 -3.6422 50.6618 5.5834 -7.0024
# 5 0.3528 11.6356 14.2640 5.5834 43.5406 -3.1255
# 6 2.9192 2.4134 5.0724 -7.0024 -3.1255 33.7403
#
#
#
# Elastic Compliance Matrix: (Units=1/GPa)
#
#
# Indices 1 2 3 4 5 6 
#
# 1 0.018553 -0.014866 -0.002256 -0.001839 0.004787 -0.000141
# 2 -0.014866 0.030752 -0.000972 0.002982 -0.008227 -0.000910
# 3 -0.002256 -0.000972 0.008292 0.000669 -0.002602 -0.001084
# 4 -0.001839 0.002982 0.000669 0.020919 -0.003406 0.003871
# 5 0.004787 -0.008227 -0.002602 -0.003406 0.026582 0.002321
# 6 -0.000141 -0.000910 -0.001084 0.003871 0.002321 0.030897
#
#
# Mechanical properties :
#
#
# Convention : Reuss Voigt Hill
#
# Bulk Modulus (GPa) = 46.71630 55.65527 51.18579
# Shear Modulus (GPa) = 27.88319 38.21477 33.04898
#
# Velocity S-wave (km/s) = 3.60254 4.21748 3.92208
# Velocity P-wave (km/s) = 6.24888 7.04422 6.65844
#
# Compressibility (1/GPa) = 0.02140581
#
# Stress axis : x y z
#
# Youngs Moduli (GPa) = 53.90107 32.51828 120.60392
#
# Poissons Ratio (x) = 0.48343 0.27214
# Poissons Ratio (y) = 0.80132 0.11725
# Poissons Ratio (z) = 0.12163 0.03161
#
# Static dielectric constant tensor:
#      x y z
#    x 1.729500 -0.051850 0.013070 
#    y -0.051850 1.648710 0.050970 
#    z 0.013070 0.050970 1.716430 
# 
# From -- ./inp_files/399629.got.cif
#   From: 2010.05.17/outbox.cif.g08.bks.cpg/sg2_200_cif.got.tgz:399629.got - 2010.06.03 11:33:40.
