data_PCOD9019781
_publ_section_title
;
Structure prediction by ZEFSAII (Michael W. Deem and Ramdas Pophale) SiO2 
 PCOD9019781
Probable space group: P -1
;
_chemical_formula_sum "Si O2"
_cell_formula_units_Z 16
_cell_length_a 22.922037
_cell_length_b 11.526276
_cell_length_c 5.607740
_cell_angle_alpha 116.428084
_cell_angle_beta 129.347682
_cell_angle_gamma 37.945057
_cell_volume 699.806264
_symmetry_space_group_name_H-M "P -1"
_symmetry_group_IT_number 2
_symmetry_cell_setting 'triclinic'
loop_
_space_group_symop_operation_xyz
x,y,z
-x,-y,-z
loop_
_atom_site_type_symbol
_atom_site_label
_atom_site_fract_x
_atom_site_fract_y
_atom_site_fract_z
Si Si1 0.364886 0.019189 0.673668
Si Si2 0.564230 0.343529 0.313127
Si Si3 0.949300 0.704063 0.595063
Si Si4 0.352044 0.529019 0.617317
Si Si5 0.819268 0.890122 0.933436
Si Si6 0.825938 0.164418 0.210686
Si Si7 0.959737 0.156360 0.224242
Si Si8 0.573039 0.831597 0.730071
O O1 0.267512 0.117991 0.325255
O O2 0.372834 0.870234 0.682032
O O3 0.483283 0.891291 0.740514
O O4 0.349227 0.160557 0.934362
O O5 0.500000 0.500000 0.500000
O O6 0.648503 0.346003 0.440245
O O7 0.464375 0.421307 0.954495
O O8 0.899270 0.778258 0.802404
O O9 0.000000 0.500000 0.500000
O O10 0.036630 0.710132 0.773519
O O11 0.865469 0.824673 0.263162
O O12 0.244361 0.670536 0.628634
O O13 0.366841 0.369209 0.399570
O O14 0.767075 0.099933 0.963376
O O15 0.849852 0.234193 0.124356
O O16 0.945549 0.965163 0.435768
O O17 0.000000 0.000000 0.000000
O O18 0.500000 0.000000 0.500000
#
# Coordination Sequence:
#
# PCOD9019781 Si02
#       8
#     2   2   2   2   2   2   2   2
#     4  11  25  43  67  96 139 190 237 291 360 434
#     4  11  22  39  67  98 136 175 232 297 351 412
#     4  11  25  48  75 106 147 184 237 298 368 437
#     4  11  24  40  67 102 133 183 240 297 349 436
#     4  11  25  45  77 107 137 192 243 296 361 440
#     4  10  23  41  70 103 136 179 243 298 358 426
#     4  10  21  45  68  96 138 183 223 297 366 420
#     4  11  24  46  64  92 148 189 230 298 364 416
#
# _framework density 22.86347
#
# number of rings (size 3 to 8) (size 9 to 14) (size 15 to 20)
#    0.000    1.250    3.750    1.125    7.000    1.000 
#    4.500    0.000    0.000    0.000    0.000    0.000 
#    0.000    0.000    0.000    0.000    0.000    0.000 
#
# Total GULP energy -89354.247493 kJ/mol
# GULP energy per Si atom -5584.640468 kJ/mol
# Density = 2.281143 g / cm^3
# Si number density = 22.863470 Si / 1000 Ang^3
#
#
#
# Elastic Constant Matrix: (Units=GPa)
#
#
# Indices 1 2 3 4 5 6 
#
# 1 107.5171 49.1659 17.1911 30.6517 11.5240 -0.6356
# 2 49.1659 94.8350 18.0908 51.3889 5.4679 10.8745
# 3 17.1911 18.0908 108.0486 30.0234 17.6679 11.8024
# 4 30.6517 51.3889 30.0234 54.2908 6.7570 0.5038
# 5 11.5240 5.4679 17.6679 6.7570 38.4219 11.0231
# 6 -0.6356 10.8745 11.8024 0.5038 11.0231 40.3659
#
#
#
# Elastic Compliance Matrix: (Units=1/GPa)
#
#
# Indices 1 2 3 4 5 6 
#
# 1 0.012872 -0.006524 -0.000632 -0.000339 -0.003471 0.003097
# 2 -0.006524 0.027477 0.003777 -0.024739 0.003300 -0.009202
# 3 -0.000632 0.003777 0.012320 -0.009588 -0.003291 -0.003611
# 4 -0.000339 -0.024739 -0.009588 0.047630 -0.003135 0.009724
# 5 -0.003471 0.003300 -0.003291 -0.003135 0.031081 -0.008430
# 6 0.003097 -0.009202 -0.003611 0.009724 -0.008430 0.030538
#
#
# Mechanical properties :
#
#
# Convention : Reuss Voigt Hill
#
# Bulk Modulus (GPa) = 21.78127 53.25514 37.51820
# Shear Modulus (GPa) = 27.17690 41.67923 34.42807
#
# Velocity S-wave (km/s) = 3.45144 4.27425 3.88469
# Velocity P-wave (km/s) = 5.04287 6.90668 6.04701
#
# Compressibility (1/GPa) = 0.04591101
#
# Stress axis : x y z
#
# Youngs Moduli (GPa) = 77.68618 36.39454 81.16751
#
# Poissons Ratio (x) = 0.23744 0.05132
# Poissons Ratio (y) = 0.50683 -0.30658
# Poissons Ratio (z) = 0.04912 -0.13747
#
# Static dielectric constant tensor:
#      x y z
#    x 1.867290 0.014730 0.001100 
#    y 0.014730 1.836550 -0.098490 
#    z 0.001100 -0.098490 1.994260 
# 
# From -- ./inp_files/118888.got.cif
#   From: 2010.05.17/outbox.cif.g08.bks.cpg/sg2_60_cif.got.tgz:118888.got - 2010.06.03 11:33:40.
