data_PCOD9019071
_publ_section_title
;
Structure prediction by ZEFSAII (Michael W. Deem and Ramdas Pophale) SiO2 
 PCOD9019071
Probable space group: P -1
;
_chemical_formula_sum "Si O2"
_cell_formula_units_Z 16
_cell_length_a 9.642334
_cell_length_b 15.590109
_cell_length_c 8.274218
_cell_angle_alpha 114.374722
_cell_angle_beta 73.068453
_cell_angle_gamma 138.516361
_cell_volume 750.144418
_symmetry_space_group_name_H-M "P -1"
_symmetry_group_IT_number 2
_symmetry_cell_setting 'triclinic'
loop_
_space_group_symop_operation_xyz
x,y,z
-x,-y,-z
loop_
_atom_site_type_symbol
_atom_site_label
_atom_site_fract_x
_atom_site_fract_y
_atom_site_fract_z
Si Si1 0.079284 0.671145 0.411826
Si Si2 0.640143 0.186157 0.252017
Si Si3 0.718832 0.634281 0.606339
Si Si4 0.358235 0.925273 0.327721
Si Si5 0.263890 0.156515 0.359471
Si Si6 0.737741 0.599099 0.946274
Si Si7 0.972562 0.862324 0.285470
Si Si8 0.025785 0.566992 0.876291
O O1 0.205512 0.736026 0.586408
O O2 0.236475 0.770700 0.287190
O O3 0.976951 0.521150 0.315795
O O4 0.900433 0.666842 0.470615
O O5 0.472975 0.192762 0.322468
O O6 0.781655 0.273528 0.114242
O O7 0.511528 0.028144 0.207704
O O8 0.500000 0.500000 0.500000
O O9 0.725331 0.749806 0.687732
O O10 0.750087 0.618389 0.766383
O O11 0.167259 0.910534 0.360384
O O12 0.500000 0.000000 0.500000
O O13 0.201214 0.174534 0.566338
O O14 0.077067 0.997163 0.257807
O O15 0.822117 0.535737 0.906991
O O16 0.500000 0.500000 0.000000
O O17 0.877391 0.738826 0.107012
O O18 0.000000 0.500000 0.000000
#
# Coordination Sequence:
#
# PCOD9019071 Si02
#       8
#     2   2   2   2   2   2   2   2
#     4  11  22  43  68  99 134 176 237 282 336 419
#     4  10  22  42  68  98 131 177 234 274 346 413
#     4  12  25  42  72 100 137 188 234 283 345 418
#     4   9  19  39  72 100 131 174 227 288 339 412
#     4  10  22  40  75  98 131 180 227 279 342 419
#     4  12  29  45  66  99 143 184 229 290 354 402
#     4  10  21  44  68 102 139 174 229 286 340 412
#     4  12  27  43  66  98 139 178 227 290 347 405
#
# _framework density 21.329228000000001
#
# number of rings (size 3 to 8) (size 9 to 14) (size 15 to 20)
#    0.000    1.250    2.500    2.625    7.000    0.500 
#    0.000    5.625    0.000    0.000    0.000    0.000 
#    0.000    0.000    0.000    0.000    0.000    0.000 
#
# Total GULP energy -89301.868627 kJ/mol
# GULP energy per Si atom -5581.366789 kJ/mol
# Density = 2.128068 g / cm^3
# Si number density = 21.329228 Si / 1000 Ang^3
#
#
#
# Elastic Constant Matrix: (Units=GPa)
#
#
# Indices 1 2 3 4 5 6 
#
# 1 133.6139 47.3913 22.4606 -7.1648 12.8214 -5.7227
# 2 47.3913 127.2688 33.8882 -22.4353 14.5032 -18.6515
# 3 22.4606 33.8882 55.5488 -8.9509 18.4380 5.2349
# 4 -7.1648 -22.4353 -8.9509 38.1952 -4.7709 -2.8189
# 5 12.8214 14.5032 18.4380 -4.7709 24.7891 -7.5538
# 6 -5.7227 -18.6515 5.2349 -2.8189 -7.5538 41.6319
#
#
#
# Elastic Compliance Matrix: (Units=1/GPa)
#
#
# Indices 1 2 3 4 5 6 
#
# 1 0.008875 -0.002918 -0.001105 -0.000627 -0.002306 -0.000409
# 2 -0.002918 0.012633 -0.007123 0.006067 0.002736 0.007061
# 3 -0.001105 -0.007123 0.031011 -0.000689 -0.021891 -0.011261
# 4 -0.000627 0.006067 -0.000689 0.030494 0.004884 0.005669
# 5 -0.002306 0.002736 -0.021891 0.004884 0.061787 0.015203
# 6 -0.000409 0.007061 -0.011261 0.005669 0.015203 0.031686
#
#
# Mechanical properties :
#
#
# Convention : Reuss Voigt Hill
#
# Bulk Modulus (GPa) = 33.08353 58.21240 45.64796
# Shear Modulus (GPa) = 23.94007 35.10268 29.52138
#
# Velocity S-wave (km/s) = 3.35387 4.06119 3.72436
# Velocity P-wave (km/s) = 5.52652 7.02443 6.32001
#
# Compressibility (1/GPa) = 0.03022652
#
# Stress axis : x y z
#
# Youngs Moduli (GPa) = 112.67245 79.15564 32.24694
#
# Poissons Ratio (x) = 0.23100 0.03564
# Poissons Ratio (y) = 0.32881 0.22970
# Poissons Ratio (z) = 0.12452 0.56383
#
# Static dielectric constant tensor:
#      x y z
#    x 1.721490 0.008280 -0.008750 
#    y 0.008280 1.831290 -0.055250 
#    z -0.008750 -0.055250 1.991840 
# 
# From -- ./inp_files/205609.got.cif
#   From: 2010.05.17/outbox.cif.g08.bks.cpg/sg2_103_cif.got.tgz:205609.got - 2010.06.03 11:33:40.
