data_PCOD9019072
_publ_section_title
;
Structure prediction by ZEFSAII (Michael W. Deem and Ramdas Pophale) SiO2 
 PCOD9019072
Probable space group: P -1
;
_chemical_formula_sum "Si O2"
_cell_formula_units_Z 15
_cell_length_a 11.608190
_cell_length_b 6.694280
_cell_length_c 14.130318
_cell_angle_alpha 123.951900
_cell_angle_beta 130.322918
_cell_angle_gamma 59.202157
_cell_volume 674.450674
_symmetry_space_group_name_H-M "P -1"
_symmetry_group_IT_number 2
_symmetry_cell_setting 'triclinic'
loop_
_space_group_symop_operation_xyz
x,y,z
-x,-y,-z
loop_
_atom_site_type_symbol
_atom_site_label
_atom_site_fract_x
_atom_site_fract_y
_atom_site_fract_z
Si Si1 0.010571 0.318156 0.822189
Si Si2 0.184266 0.765698 0.824934
Si Si3 0.500000 0.500000 0.500000
Si Si4 0.324551 0.618954 0.247237
Si Si5 0.259316 0.877242 0.594920
Si Si6 0.989772 0.649640 0.396604
Si Si7 0.548685 0.191175 0.145279
Si Si8 0.846200 0.220278 0.970731
O O1 0.833023 0.386688 0.781681
O O2 0.011564 0.307096 0.706135
O O3 0.103692 0.053206 0.839491
O O4 0.091990 0.534736 0.953085
O O5 0.061481 0.605413 0.688492
O O6 0.338517 0.681243 0.822174
O O7 0.224158 0.741671 0.951447
O O8 0.450513 0.616258 0.395264
O O9 0.379699 0.739605 0.545983
O O10 0.403111 0.378782 0.163508
O O11 0.265338 0.820659 0.185407
O O12 0.350119 0.947524 0.751152
O O13 0.158046 0.683979 0.524284
O O14 0.136273 0.125496 0.563779
O O15 0.500000 0.000000 0.000000
O O16 0.000000 0.000000 0.000000
#
# Coordination Sequence:
#
# PCOD9019072 Si02
#       8
#     2   2   1   2   2   2   2   2
#     4  11  21  43  70 100 138 179 232 296 343 402
#     4  11  24  43  68 103 140 179 234 289 347 414
#     4  10  22  42  72  96 140 192 214 280 364 406
#     4  11  23  42  67  98 140 181 224 281 348 417
#     4  10  21  44  68 103 134 181 234 289 347 413
#     4  10  22  42  73  99 130 181 242 288 342 408
#     4  11  25  42  66  99 141 186 221 280 363 419
#     4  11  24  39  71 107 130 179 240 288 345 405
#
# _framework density 22.240323
#
# number of rings (size 3 to 8) (size 9 to 14) (size 15 to 20)
#    0.000    1.333    4.000    1.200    3.733    1.067 
#    0.000    1.333    0.000    5.600    0.000    0.000 
#    0.000    0.000    0.000    0.000    0.000    0.000 
#
# Total GULP energy -83540.796763 kJ/mol
# GULP energy per Si atom -5569.386451 kJ/mol
# Density = 2.218970 g / cm^3
# Si number density = 22.240323 Si / 1000 Ang^3
#
#
#
# Elastic Constant Matrix: (Units=GPa)
#
#
# Indices 1 2 3 4 5 6 
#
# 1 94.8835 34.3536 12.7665 15.5792 -22.2410 -27.2328
# 2 34.3536 91.6196 35.3464 5.8053 -1.8509 -3.1700
# 3 12.7665 35.3464 113.4852 -3.6931 -15.2250 -2.2642
# 4 15.5792 5.8053 -3.6931 34.8201 -0.9282 0.8577
# 5 -22.2410 -1.8509 -15.2250 -0.9282 30.3505 8.4061
# 6 -27.2328 -3.1700 -2.2642 0.8577 8.4061 36.3930
#
#
#
# Elastic Compliance Matrix: (Units=1/GPa)
#
#
# Indices 1 2 3 4 5 6 
#
# 1 0.020429 -0.007068 0.001455 -0.007799 0.011635 0.012258
# 2 -0.007068 0.015186 -0.004775 0.000040 -0.005840 -0.002915
# 3 0.001455 -0.004775 0.011039 0.001490 0.006401 -0.000154
# 4 -0.007799 0.000040 0.001490 0.032445 -0.002320 -0.005969
# 5 0.011635 -0.005840 0.006401 -0.002320 0.044724 -0.001679
# 6 0.012258 -0.002915 -0.000154 -0.005969 -0.001679 0.036915
#
#
# Mechanical properties :
#
#
# Convention : Reuss Voigt Hill
#
# Bulk Modulus (GPa) = 38.64286 51.65793 45.15040
# Shear Modulus (GPa) = 26.29643 34.81416 30.55529
#
# Velocity S-wave (km/s) = 3.44230 3.96076 3.71060
# Velocity P-wave (km/s) = 5.76299 6.64789 6.22119
#
# Compressibility (1/GPa) = 0.02587800
#
# Stress axis : x y z
#
# Youngs Moduli (GPa) = 48.95100 65.85168 90.58418
#
# Poissons Ratio (x) = 0.46543 -0.13180
# Poissons Ratio (y) = 0.34598 0.43254
# Poissons Ratio (z) = -0.07122 0.31444
#
# Static dielectric constant tensor:
#      x y z
#    x 1.827760 0.025930 0.017560 
#    y 0.025930 1.817740 -0.043690 
#    z 0.017560 -0.043690 1.904660 
# 
# From -- ./inp_files/510600.got.cif
#   From: 2010.05.17/outbox.cif.g08.bks.cpg/sg2_256_cif.got.tgz:510600.got - 2010.06.03 11:33:40.
