data_PCOD9019026
_publ_section_title
;
Structure prediction by ZEFSAII (Michael W. Deem and Ramdas Pophale) SiO2 
 PCOD9019026
Probable space group: P -1
;
_chemical_formula_sum "Si O2"
_cell_formula_units_Z 14
_cell_length_a 16.890553
_cell_length_b 10.849477
_cell_length_c 7.622287
_cell_angle_alpha 91.590170
_cell_angle_beta 72.049521
_cell_angle_gamma 31.625033
_cell_volume 566.755264
_symmetry_space_group_name_H-M "P -1"
_symmetry_group_IT_number 2
_symmetry_cell_setting 'triclinic'
loop_
_space_group_symop_operation_xyz
x,y,z
-x,-y,-z
loop_
_atom_site_type_symbol
_atom_site_label
_atom_site_fract_x
_atom_site_fract_y
_atom_site_fract_z
Si Si1 0.733347 0.917905 0.363817
Si Si2 0.133581 0.975119 0.078507
Si Si3 0.187988 0.428612 0.544631
Si Si4 0.064475 0.806526 0.137694
Si Si5 0.478389 0.842003 0.816636
Si Si6 0.463141 0.370637 0.860411
Si Si7 0.133028 0.458300 0.206123
O O1 0.850746 0.598189 0.605110
O O2 0.964265 0.626579 0.210504
O O3 0.631454 0.086941 0.257616
O O4 0.640331 0.118721 0.596788
O O5 0.031652 0.988668 0.234820
O O6 0.359588 0.643572 0.946395
O O7 0.020757 0.244106 0.233411
O O8 0.082998 0.028815 0.909607
O O9 0.326586 0.357404 0.399947
O O10 0.293373 0.192700 0.592794
O O11 0.080461 0.673314 0.252829
O O12 0.286266 0.525097 0.902374
O O13 0.505070 0.727856 0.972051
O O14 0.338353 0.144741 0.973091
#
# Coordination Sequence:
#
# PCOD9019026 Si02
#       7
#     2   2   2   2   2   2   2
#     4  12  26  42  68  97 135 174 212 267 340 379
#     4   9  21  40  70  97 127 169 224 272 313 381
#     4  12  22  42  71  95 128 173 225 262 326 383
#     4   9  19  41  68  89 135 164 219 267 319 372
#     4  12  24  40  69  99 128 171 225 270 315 383
#     4  10  21  44  67  96 130 166 221 271 310 390
#     4  12  24  42  64 100 136 168 213 279 323 387
#
# _framework density 24.702020999999998
#
# number of rings (size 3 to 8) (size 9 to 14) (size 15 to 20)
#    0.857    0.286    2.857    4.286    0.000    2.286 
#    0.000    1.429    3.143    0.000    0.000    0.000 
#    0.000    0.000    0.000    0.000    0.000    0.000 
#
# Total GULP energy -78223.353080 kJ/mol
# GULP energy per Si atom -5587.382363 kJ/mol
# Density = 2.464580 g / cm^3
# Si number density = 24.702021 Si / 1000 Ang^3
#
#
#
# Elastic Constant Matrix: (Units=GPa)
#
#
# Indices 1 2 3 4 5 6 
#
# 1 39.9971 9.9937 7.2190 5.6249 3.1751 -3.5513
# 2 9.9937 155.1708 44.0508 -2.0032 10.2581 -2.2682
# 3 7.2190 44.0508 70.9955 18.6490 21.7884 18.7306
# 4 5.6249 -2.0032 18.6490 37.4854 -1.9634 5.4434
# 5 3.1751 10.2581 21.7884 -1.9634 21.7367 0.9787
# 6 -3.5513 -2.2682 18.7306 5.4434 0.9787 30.0574
#
#
#
# Elastic Compliance Matrix: (Units=1/GPa)
#
#
# Indices 1 2 3 4 5 6 
#
# 1 0.026759 -0.001152 -0.001352 -0.004233 -0.002607 0.004769
# 2 -0.001152 0.009291 -0.010793 0.005515 0.006827 0.006070
# 3 -0.001352 -0.010793 0.045740 -0.021788 -0.041437 -0.024183
# 4 -0.004233 0.005515 -0.021788 0.038828 0.023106 0.005710
# 5 -0.002607 0.006827 -0.041437 0.023106 0.085929 0.019047
# 6 0.004769 0.006070 -0.024183 0.005710 0.019047 0.047707
#
#
# Mechanical properties :
#
#
# Convention : Reuss Voigt Hill
#
# Bulk Modulus (GPa) = 18.11741 43.18781 30.65261
# Shear Modulus (GPa) = 16.70853 31.51590 24.11222
#
# Velocity S-wave (km/s) = 2.60360 3.57577 3.12769
# Velocity P-wave (km/s) = 4.04828 5.87960 5.04768
#
# Compressibility (1/GPa) = 0.05519553
#
# Stress axis : x y z
#
# Youngs Moduli (GPa) = 37.36997 107.62657 21.86259
#
# Poissons Ratio (x) = 0.12400 0.02956
# Poissons Ratio (y) = 0.04306 0.23597
# Poissons Ratio (z) = 0.05053 1.16165
#
# Static dielectric constant tensor:
#      x y z
#    x 1.993500 0.002520 -0.029070 
#    y 0.002520 1.937840 -0.025290 
#    z -0.029070 -0.025290 1.911360 
# 
# From -- ./inp_files/332032.got.cif
#   From: 2010.05.17/outbox.cif.g08.bks.cpg/sg2_167_cif.got.tgz:332032.got - 2010.06.03 11:33:40.
