data_PCOD9019218
_publ_section_title
;
Structure prediction by ZEFSAII (Michael W. Deem and Ramdas Pophale) SiO2 
 PCOD9019218
Probable space group: P -1
;
_chemical_formula_sum "Si O2"
_cell_formula_units_Z 13
_cell_length_a 18.820731
_cell_length_b 5.264123
_cell_length_c 9.100824
_cell_angle_alpha 70.462956
_cell_angle_beta 36.660053
_cell_angle_gamma 71.802511
_cell_volume 505.800315
_symmetry_space_group_name_H-M "P -1"
_symmetry_group_IT_number 2
_symmetry_cell_setting 'triclinic'
loop_
_space_group_symop_operation_xyz
x,y,z
-x,-y,-z
loop_
_atom_site_type_symbol
_atom_site_label
_atom_site_fract_x
_atom_site_fract_y
_atom_site_fract_z
Si Si1 0.176387 0.330575 0.306009
Si Si2 0.287221 0.471877 0.597839
Si Si3 0.500000 0.500000 0.000000
Si Si4 0.348734 0.855896 0.673117
Si Si5 0.397003 0.002768 0.881807
Si Si6 0.069433 0.865401 0.773923
Si Si7 0.000212 0.718765 0.635432
O O1 0.134973 0.584813 0.424855
O O2 0.125124 0.093673 0.536204
O O3 0.100706 0.410556 0.267240
O O4 0.308245 0.227004 0.064349
O O5 0.286922 0.146511 0.667104
O O6 0.172753 0.643974 0.690499
O O7 0.306392 0.605956 0.700065
O O8 0.399945 0.522254 0.297342
O O9 0.439057 0.778476 0.973014
O O10 0.488358 0.864929 0.399195
O O11 0.336797 0.865799 0.867395
O O12 0.976628 0.741432 0.840692
O O13 0.000000 0.000000 0.000000
O O14 0.000000 0.000000 0.500000
#
# Coordination Sequence:
#
# PCOD9019218 Si02
#       7
#     2   2   1   2   2   2   2
#     4  10  21  44  69  96 136 184 235 294 354 428
#     4  11  25  46  69 106 145 189 235 293 359 421
#     4  10  22  42  72 102 136 176 242 284 352 416
#     4  10  26  45  69 107 143 187 235 292 362 431
#     4  10  22  44  71 101 138 186 231 301 355 428
#     4  11  25  41  65 102 138 187 230 300 346 429
#     4   9  22  41  64  98 131 178 238 283 351 419
#
# _framework density 25.701841999999999
#
# number of rings (size 3 to 8) (size 9 to 14) (size 15 to 20)
#    0.000    1.846    1.538    0.000    4.308   13.538 
#    5.538    0.000    0.000    0.000    0.000    0.000 
#    0.000    0.000    0.000    0.000    0.000    0.000 
#
# Total GULP energy -72553.265336 kJ/mol
# GULP energy per Si atom -5581.020410 kJ/mol
# Density = 2.564334 g / cm^3
# Si number density = 25.701842 Si / 1000 Ang^3
#
#
#
# Elastic Constant Matrix: (Units=GPa)
#
#
# Indices 1 2 3 4 5 6 
#
# 1 73.1397 26.7164 37.7286 16.3325 8.7055 -20.4557
# 2 26.7164 121.7264 76.8085 37.8358 -1.3822 -35.4954
# 3 37.7286 76.8085 170.4137 28.0114 -5.6048 -14.4509
# 4 16.3325 37.8358 28.0114 48.9107 -9.1751 -6.3573
# 5 8.7055 -1.3822 -5.6048 -9.1751 29.0977 14.0665
# 6 -20.4557 -35.4954 -14.4509 -6.3573 14.0665 34.9682
#
#
#
# Elastic Compliance Matrix: (Units=1/GPa)
#
#
# Indices 1 2 3 4 5 6 
#
# 1 0.036393 0.020269 -0.010460 -0.023467 -0.043977 0.050965
# 2 0.020269 0.036419 -0.012948 -0.028302 -0.042557 0.055448
# 3 -0.010460 -0.012948 0.011677 0.007373 0.016659 -0.019797
# 4 -0.023467 -0.028302 0.007373 0.048202 0.046070 -0.049178
# 5 -0.043977 -0.042557 0.016659 0.046070 0.110710 -0.098199
# 6 0.050965 0.055448 -0.019797 -0.049178 -0.098199 0.137075
#
#
# Mechanical properties :
#
#
# Convention : Reuss Voigt Hill
#
# Bulk Modulus (GPa) = 12.78597 71.97629 42.38113
# Shear Modulus (GPa) = 12.11170 37.53042 24.82106
#
# Velocity S-wave (km/s) = 2.17316 3.82543 3.11099
# Velocity P-wave (km/s) = 3.35892 6.89761 5.42491
#
# Compressibility (1/GPa) = 0.07821071
#
# Stress axis : x y z
#
# Youngs Moduli (GPa) = 27.47779 27.45843 85.63994
#
# Poissons Ratio (x) = -0.55655 0.89580
# Poissons Ratio (y) = -0.55694 1.10884
# Poissons Ratio (z) = 0.28742 0.35552
#
# Static dielectric constant tensor:
#      x y z
#    x 2.127510 0.112530 -0.030850 
#    y 0.112530 2.018660 -0.012030 
#    z -0.030850 -0.012030 2.020800 
# 
# From -- ./inp_files/339312.got.cif
#   From: 2010.05.17/outbox.cif.g08.bks.cpg/sg2_170_cif.got.tgz:339312.got - 2010.06.03 11:33:40.
