data_PCOD9019567
_publ_section_title
;
Structure prediction by ZEFSAII (Michael W. Deem and Ramdas Pophale) SiO2 
 PCOD9019567
Probable space group: P -1
;
_chemical_formula_sum "Si O2"
_cell_formula_units_Z 14
_cell_length_a 5.453649
_cell_length_b 7.763998
_cell_length_c 16.972814
_cell_angle_alpha 95.173736
_cell_angle_beta 74.722929
_cell_angle_gamma 119.247381
_cell_volume 604.255215
_symmetry_space_group_name_H-M "P -1"
_symmetry_group_IT_number 2
_symmetry_cell_setting 'triclinic'
loop_
_space_group_symop_operation_xyz
x,y,z
-x,-y,-z
loop_
_atom_site_type_symbol
_atom_site_label
_atom_site_fract_x
_atom_site_fract_y
_atom_site_fract_z
Si Si1 0.977851 0.479178 0.772476
Si Si2 0.963940 0.860316 0.831190
Si Si3 0.177167 0.454003 0.049145
Si Si4 0.393271 0.223408 0.277024
Si Si5 0.477458 0.746764 0.458366
Si Si6 0.507724 0.872581 0.290281
Si Si7 0.892155 0.728757 0.547536
O O1 0.959192 0.680370 0.772697
O O2 0.841165 0.422202 0.869054
O O3 0.788344 0.314927 0.719977
O O4 0.321583 0.560911 0.742684
O O5 0.956806 0.771900 0.914177
O O6 0.688345 0.852467 0.810185
O O7 0.237954 0.065471 0.793648
O O8 0.500000 0.500000 0.000000
O O9 0.000000 0.500000 0.000000
O O10 0.167370 0.227099 0.357722
O O11 0.460245 0.061154 0.304160
O O12 0.594103 0.829739 0.365613
O O13 0.735082 0.799745 0.500086
O O14 0.290869 0.508928 0.456459
O O15 0.229093 0.800782 0.507150
#
# Coordination Sequence:
#
# PCOD9019567 Si02
#       7
#     2   2   2   2   2   2   2
#     4   9  23  41  68  96 131 180 214 272 335 404
#     4   9  23  41  66  97 131 173 220 273 324 409
#     4  10  21  44  74  97 133 176 214 267 341 404
#     4  11  23  41  68  95 138 175 231 279 328 401
#     4  10  24  41  63  96 133 180 229 284 334 389
#     4  11  24  41  66 100 134 175 231 274 332 400
#     4  10  24  41  65  94 133 182 232 280 337 383
#
# _framework density 23.169021000000001
#
# number of rings (size 3 to 8) (size 9 to 14) (size 15 to 20)
#    0.857    1.143    0.000    1.714   12.000    2.286 
#    0.000    1.429    0.000    0.000    0.000    0.000 
#    0.000    0.000    0.000    0.000    0.000    0.000 
#
# Total GULP energy -78076.561418 kJ/mol
# GULP energy per Si atom -5576.897244 kJ/mol
# Density = 2.311629 g / cm^3
# Si number density = 23.169021 Si / 1000 Ang^3
#
#
#
# Elastic Constant Matrix: (Units=GPa)
#
#
# Indices 1 2 3 4 5 6 
#
# 1 127.8330 25.4676 55.2641 -9.9381 17.7770 7.6893
# 2 25.4676 68.1673 10.1821 -12.7909 -7.3209 17.5111
# 3 55.2641 10.1821 75.9573 -1.1278 18.2668 -8.1162
# 4 -9.9381 -12.7909 -1.1278 26.9836 0.3243 -0.4172
# 5 17.7770 -7.3209 18.2668 0.3243 50.2586 -8.6665
# 6 7.6893 17.5111 -8.1162 -0.4172 -8.6665 34.9614
#
#
#
# Elastic Compliance Matrix: (Units=1/GPa)
#
#
# Indices 1 2 3 4 5 6 
#
# 1 0.012999 -0.001950 -0.009054 0.003444 -0.002396 -0.004537
# 2 -0.001950 0.020203 -0.002899 0.008554 0.002989 -0.009520
# 3 -0.009054 -0.002899 0.021811 -0.003635 -0.003828 0.007514
# 4 0.003444 0.008554 -0.003635 0.042146 0.000156 -0.005344
# 5 -0.002396 0.002989 -0.003828 0.000156 0.023244 0.003905
# 6 -0.004537 -0.009520 0.007514 -0.005344 0.003905 0.037018
#
#
# Mechanical properties :
#
#
# Convention : Reuss Voigt Hill
#
# Bulk Modulus (GPa) = 36.75395 50.42059 43.58727
# Shear Modulus (GPa) = 25.73418 34.51030 30.12224
#
# Velocity S-wave (km/s) = 3.33635 3.86359 3.60961
# Velocity P-wave (km/s) = 5.54432 6.45852 6.01880
#
# Compressibility (1/GPa) = 0.02720796
#
# Stress axis : x y z
#
# Youngs Moduli (GPa) = 76.92867 49.49770 45.84925
#
# Poissons Ratio (x) = 0.09651 0.41511
# Poissons Ratio (y) = 0.15000 0.13290
# Poissons Ratio (z) = 0.69650 0.14348
#
# Static dielectric constant tensor:
#      x y z
#    x 2.080130 -0.005130 0.011980 
#    y -0.005130 1.874680 -0.015320 
#    z 0.011980 -0.015320 1.903130 
# 
# From -- ./inp_files/547137.got.cif
#   From: 2010.05.17/outbox.cif.g08.bks.cpg/sg2_274_cif.got.tgz:547137.got - 2010.06.03 11:33:40.
