data_PCOD9019258
_publ_section_title
;
Structure prediction by ZEFSAII (Michael W. Deem and Ramdas Pophale) SiO2 
 PCOD9019258
Probable space group: P -1
;
_chemical_formula_sum "Si O2"
_cell_formula_units_Z 16
_cell_length_a 14.484877
_cell_length_b 11.207347
_cell_length_c 11.878092
_cell_angle_alpha 104.603979
_cell_angle_beta 121.674310
_cell_angle_gamma 29.067601
_cell_volume 690.377301
_symmetry_space_group_name_H-M "P -1"
_symmetry_group_IT_number 2
_symmetry_cell_setting 'triclinic'
loop_
_space_group_symop_operation_xyz
x,y,z
-x,-y,-z
loop_
_atom_site_type_symbol
_atom_site_label
_atom_site_fract_x
_atom_site_fract_y
_atom_site_fract_z
Si Si1 0.720213 0.763397 0.429049
Si Si2 0.528048 0.330390 0.021467
Si Si3 0.815576 0.877301 0.681256
Si Si4 0.404974 0.501753 0.606339
Si Si5 0.079884 0.706976 0.259032
Si Si6 0.230292 0.541373 0.690007
Si Si7 0.216083 0.688624 0.113449
Si Si8 0.832445 0.660073 0.822489
O O1 0.681224 0.904719 0.532785
O O2 0.741108 0.595654 0.416147
O O3 0.000000 0.500000 0.500000
O O4 0.461843 0.038525 0.260683
O O5 0.324030 0.514693 0.030198
O O6 0.500000 0.500000 0.000000
O O7 0.468372 0.310547 0.868827
O O8 0.793314 0.032479 0.173666
O O9 0.904198 0.704029 0.801268
O O10 0.007153 0.740651 0.680797
O O11 0.635383 0.168987 0.676123
O O12 0.254304 0.616977 0.425631
O O13 0.223289 0.667834 0.637038
O O14 0.552413 0.476845 0.717622
O O15 0.116851 0.702136 0.150012
O O16 0.121665 0.517767 0.253121
O O17 0.000000 0.000000 0.000000
O O18 0.000000 0.500000 0.000000
#
# Coordination Sequence:
#
# PCOD9019258 Si02
#       8
#     2   2   2   2   2   2   2   2
#     4  10  21  44  70 102 139 189 233 282 360 436
#     4  12  25  48  69  99 141 189 241 292 355 428
#     4  11  24  44  75 102 142 193 226 286 371 430
#     4  12  24  45  74 106 142 181 240 295 355 426
#     4  12  28  46  70 108 143 185 242 302 356 421
#     4  11  23  42  74 101 137 189 235 280 358 428
#     4  12  26  47  76  98 140 191 240 291 361 428
#     4  12  25  44  70 107 150 184 240 299 352 431
#
# _framework density 23.175733000000001
#
# number of rings (size 3 to 8) (size 9 to 14) (size 15 to 20)
#    0.000    0.500    5.000    3.000    3.500    1.500 
#    4.500    3.125    0.000    0.000    0.000    0.000 
#    0.000    0.000    0.000    0.000    0.000    0.000 
#
# Total GULP energy -89304.487126 kJ/mol
# GULP energy per Si atom -5581.530445 kJ/mol
# Density = 2.312298 g / cm^3
# Si number density = 23.175733 Si / 1000 Ang^3
#
#
#
# Elastic Constant Matrix: (Units=GPa)
#
#
# Indices 1 2 3 4 5 6 
#
# 1 80.7900 23.8597 14.4064 -7.1778 -4.0248 -20.9721
# 2 23.8597 77.7192 8.7157 -0.9937 -1.6501 -8.2856
# 3 14.4064 8.7157 102.3964 7.1792 -2.8139 -21.2013
# 4 -7.1778 -0.9937 7.1792 47.6370 1.3461 5.1115
# 5 -4.0248 -1.6501 -2.8139 1.3461 39.6713 7.0186
# 6 -20.9721 -8.2856 -21.2013 5.1115 7.0186 28.5228
#
#
#
# Elastic Compliance Matrix: (Units=1/GPa)
#
#
# Indices 1 2 3 4 5 6 
#
# 1 0.016429 -0.003888 0.000200 0.001197 -0.000467 0.011000
# 2 -0.003888 0.014212 -0.000430 -0.000333 -0.000001 0.001010
# 3 0.000200 -0.000430 0.011931 -0.002783 -0.000751 0.009574
# 4 0.001197 -0.000333 -0.002783 0.022149 0.000092 -0.005277
# 5 -0.000467 -0.000001 -0.000751 0.000092 0.026416 -0.007419
# 6 0.011000 0.001010 0.009574 -0.005277 -0.007419 0.053329
#
#
# Mechanical properties :
#
#
# Convention : Reuss Voigt Hill
#
# Bulk Modulus (GPa) = 29.12398 39.42991 34.27694
# Shear Modulus (GPa) = 30.46056 37.42780 33.94418
#
# Velocity S-wave (km/s) = 3.62930 4.02301 3.83122
# Velocity P-wave (km/s) = 5.49148 6.21529 5.86456
#
# Compressibility (1/GPa) = 0.03433597
#
# Stress axis : x y z
#
# Youngs Moduli (GPa) = 60.86889 70.36265 83.81310
#
# Poissons Ratio (x) = 0.27357 -0.01678
# Poissons Ratio (y) = 0.23666 0.03606
# Poissons Ratio (z) = -0.01219 0.03028
#
# Static dielectric constant tensor:
#      x y z
#    x 1.856000 0.029360 0.013030 
#    y 0.029360 1.878840 0.008430 
#    z 0.013030 0.008430 1.866110 
# 
# From -- ./inp_files/452498.got.cif
#   From: 2010.05.17/outbox.cif.g08.bks.cpg/sg2_227_cif.got.tgz:452498.got - 2010.06.03 11:33:40.
