data_PCOD9019625
_publ_section_title
;
Structure prediction by ZEFSAII (Michael W. Deem and Ramdas Pophale) SiO2 
 PCOD9019625
Probable space group: P -1
;
_chemical_formula_sum "Si O2"
_cell_formula_units_Z 15
_cell_length_a 7.735487
_cell_length_b 16.165794
_cell_length_c 8.914999
_cell_angle_alpha 56.107352
_cell_angle_beta 51.784628
_cell_angle_gamma 94.138476
_cell_volume 558.915553
_symmetry_space_group_name_H-M "P -1"
_symmetry_group_IT_number 2
_symmetry_cell_setting 'triclinic'
loop_
_space_group_symop_operation_xyz
x,y,z
-x,-y,-z
loop_
_atom_site_type_symbol
_atom_site_label
_atom_site_fract_x
_atom_site_fract_y
_atom_site_fract_z
Si Si1 0.762692 0.079214 0.588825
Si Si2 0.188178 0.115649 0.090237
Si Si3 0.355520 0.585573 0.942483
Si Si4 0.516152 0.467909 0.764481
Si Si5 0.845841 0.153582 0.948713
Si Si6 0.198804 0.715184 0.435745
Si Si7 0.000000 0.000000 0.000000
Si Si8 0.969949 0.647900 0.104173
O O1 0.799956 0.193225 0.539451
O O2 0.030164 0.124382 0.299443
O O3 0.731648 0.975219 0.819058
O O4 0.464592 0.992482 0.744807
O O5 0.495007 0.250705 0.747691
O O6 0.988553 0.043367 0.128783
O O7 0.484022 0.608526 0.017809
O O8 0.065292 0.434131 0.248683
O O9 0.245445 0.664130 0.891569
O O10 0.536368 0.581207 0.723360
O O11 0.786988 0.534649 0.442427
O O12 0.243461 0.394036 0.876085
O O13 0.818644 0.240809 0.763874
O O14 0.929283 0.225154 0.990286
O O15 0.045675 0.129329 0.786185
#
# Coordination Sequence:
#
# PCOD9019625 Si02
#       8
#     2   2   2   2   2   2   1   2
#     4  10  21  45  63  95 128 178 227 261 325 420
#     4  10  22  40  67  93 130 176 220 269 336 391
#     4  11  24  45  72 102 136 183 229 280 343 408
#     4  10  24  46  67 106 137 176 237 277 338 410
#     4  11  23  43  66  99 138 175 222 282 339 400
#     4  11  21  44  68  96 136 175 222 277 333 407
#     4  12  22  42  64  98 138 170 216 282 342 386
#     4  11  24  47  70  99 144 177 226 288 340 403
#
# _framework density 26.837685
#
# number of rings (size 3 to 8) (size 9 to 14) (size 15 to 20)
#    0.000    1.333    4.000    1.600    0.000    4.800 
#   19.200    0.000    0.000    0.000    0.000    0.000 
#    0.000    0.000    0.000    0.000    0.000    0.000 
#
# Total GULP energy -83842.942271 kJ/mol
# GULP energy per Si atom -5589.529485 kJ/mol
# Density = 2.677660 g / cm^3
# Si number density = 26.837685 Si / 1000 Ang^3
#
#
#
# Elastic Constant Matrix: (Units=GPa)
#
#
# Indices 1 2 3 4 5 6 
#
# 1 91.2198 59.5115 -4.9440 -1.8977 -14.3758 24.9250
# 2 59.5115 182.9740 19.3939 -0.2552 -15.4525 12.6742
# 3 -4.9440 19.3939 68.1759 12.9518 -18.3327 4.2065
# 4 -1.8977 -0.2552 12.9518 32.9513 -3.3611 -0.1177
# 5 -14.3758 -15.4525 -18.3327 -3.3611 36.4759 -1.9972
# 6 24.9250 12.6742 4.2065 -0.1177 -1.9972 50.0091
#
#
#
# Elastic Compliance Matrix: (Units=1/GPa)
#
#
# Indices 1 2 3 4 5 6 
#
# 1 0.017871 -0.005240 0.005214 -0.000376 0.006986 -0.007740
# 2 -0.005240 0.007379 -0.002745 0.000818 -0.000191 0.000967
# 3 0.005214 -0.002745 0.020004 -0.006558 0.010167 -0.003195
# 4 -0.000376 0.000818 -0.006558 0.032909 -0.000032 0.000608
# 5 0.006986 -0.000191 0.010167 -0.000032 0.035036 -0.002889
# 6 -0.007740 0.000967 -0.003195 0.000608 -0.002889 0.023764
#
#
# Mechanical properties :
#
#
# Convention : Reuss Voigt Hill
#
# Bulk Modulus (GPa) = 25.18145 54.47693 39.82919
# Shear Modulus (GPa) = 32.10428 41.78113 36.94271
#
# Velocity S-wave (km/s) = 3.46242 3.94992 3.71418
# Velocity P-wave (km/s) = 5.03862 6.41446 5.76771
#
# Compressibility (1/GPa) = 0.03971178
#
# Stress axis : x y z
#
# Youngs Moduli (GPa) = 55.95522 135.52887 49.99031
#
# Poissons Ratio (x) = 0.71013 -0.26065
# Poissons Ratio (y) = 0.29319 0.13724
# Poissons Ratio (z) = -0.29175 0.37208
#
# Static dielectric constant tensor:
#      x y z
#    x 3.085050 0.104210 -0.475760 
#    y 0.104210 2.033390 -0.162020 
#    z -0.475760 -0.162020 2.490890 
# 
# From -- ./inp_files/206743.got.cif
#   From: 2010.05.17/outbox.cif.g08.bks.cpg/sg2_104_cif.got.tgz:206743.got - 2010.06.03 11:33:40.
