data_PCOD9019018
_publ_section_title
;
Structure prediction by ZEFSAII (Michael W. Deem and Ramdas Pophale) SiO2 
 PCOD9019018
Probable space group: P -1
;
_chemical_formula_sum "Si O2"
_cell_formula_units_Z 16
_cell_length_a 17.443744
_cell_length_b 9.681060
_cell_length_c 9.496220
_cell_angle_alpha 58.942021
_cell_angle_beta 48.601224
_cell_angle_gamma 31.278587
_cell_volume 619.552063
_symmetry_space_group_name_H-M "P -1"
_symmetry_group_IT_number 2
_symmetry_cell_setting 'triclinic'
loop_
_space_group_symop_operation_xyz
x,y,z
-x,-y,-z
loop_
_atom_site_type_symbol
_atom_site_label
_atom_site_fract_x
_atom_site_fract_y
_atom_site_fract_z
Si Si1 0.107603 0.823175 0.308966
Si Si2 0.330762 0.814392 0.074717
Si Si3 0.534417 0.109448 0.666545
Si Si4 0.413806 0.385346 0.945410
Si Si5 0.917771 0.754825 0.098269
Si Si6 0.794807 0.418933 0.278330
Si Si7 0.290500 0.785581 0.694976
Si Si8 0.106092 0.461342 0.513515
O O1 0.050320 0.714792 0.465360
O O2 0.223800 0.797798 0.272545
O O3 0.235958 0.626237 0.120847
O O4 0.944942 0.143582 0.324970
O O5 0.221411 0.034531 0.965909
O O6 0.500000 0.500000 0.000000
O O7 0.412939 0.847740 0.054218
O O8 0.432930 0.237097 0.870415
O O9 0.395480 0.276962 0.621630
O O10 0.631360 0.159467 0.505698
O O11 0.692376 0.790279 0.636821
O O12 0.420384 0.554314 0.774587
O O13 0.906831 0.608565 0.281765
O O14 0.876932 0.943063 0.165417
O O15 0.104014 0.556224 0.920445
O O16 0.751568 0.317603 0.288168
O O17 0.000000 0.500000 0.500000
#
# Coordination Sequence:
#
# PCOD9019018 Si02
#       8
#     2   2   2   2   2   2   2   2
#     4  10  20  35  60  90 117 160 195 246 296 351
#     4   9  17  35  61  91 109 156 216 246 270 351
#     4  10  23  34  59  93 124 151 190 253 312 348
#     4  10  18  33  59  90 119 149 203 250 287 344
#     4  10  19  34  59  84 115 159 196 241 293 352
#     4  10  18  33  60  89 113 148 208 242 289 354
#     4  10  17  30  54  87 115 143 191 250 297 328
#     4  11  25  40  56  91 132 156 186 245 320 362
#
# _framework density 25.825112000000001
#
# number of rings (size 3 to 8) (size 9 to 14) (size 15 to 20)
#    0.000    2.000    3.750    3.375    5.250    0.500 
#    0.000    2.500    0.000   19.500    0.000    2.625 
#    0.000    0.000    0.000    0.000    0.000    0.000 
#
# Total GULP energy -89146.285748 kJ/mol
# GULP energy per Si atom -5571.642859 kJ/mol
# Density = 2.576633 g / cm^3
# Si number density = 25.825112 Si / 1000 Ang^3
#
#
#
# Elastic Constant Matrix: (Units=GPa)
#
#
# Indices 1 2 3 4 5 6 
#
# 1 76.7191 36.8525 21.0634 11.5476 -11.2329 -24.4021
# 2 36.8525 120.0577 27.7008 13.3835 -11.4435 -9.5975
# 3 21.0634 27.7008 72.9524 -2.3967 1.4471 5.7540
# 4 11.5476 13.3835 -2.3967 44.7688 2.9100 -6.5749
# 5 -11.2329 -11.4435 1.4471 2.9100 17.0949 14.1612
# 6 -24.4021 -9.5975 5.7540 -6.5749 14.1612 42.4920
#
#
#
# Elastic Compliance Matrix: (Units=1/GPa)
#
#
# Indices 1 2 3 4 5 6 
#
# 1 0.020446 -0.003450 -0.005561 -0.003351 0.003993 0.009866
# 2 -0.003450 0.011111 -0.003320 -0.003436 0.007828 -0.002163
# 3 -0.005561 -0.003320 0.017102 0.002967 -0.004178 -0.004408
# 4 -0.003351 -0.003436 0.002967 0.026094 -0.013772 0.005525
# 5 0.003993 0.007828 -0.004178 -0.013772 0.092539 -0.028344
# 6 0.009866 -0.002163 -0.004408 0.005525 -0.028344 0.039609
#
#
# Mechanical properties :
#
#
# Convention : Reuss Voigt Hill
#
# Bulk Modulus (GPa) = 41.67342 48.99584 45.33463
# Shear Modulus (GPa) = 20.87152 33.14531 27.00842
#
# Velocity S-wave (km/s) = 2.84595 3.58642 3.23742
# Velocity P-wave (km/s) = 5.19336 6.01359 5.61846
#
# Compressibility (1/GPa) = 0.02399611
#
# Stress axis : x y z
#
# Youngs Moduli (GPa) = 48.91041 90.00323 58.47338
#
# Poissons Ratio (x) = 0.31052 0.32515
# Poissons Ratio (y) = 0.16874 0.19415
# Poissons Ratio (z) = 0.27197 0.29884
#
# Static dielectric constant tensor:
#      x y z
#    x 2.189850 -0.108510 0.121310 
#    y -0.108510 2.178100 -0.029150 
#    z 0.121310 -0.029150 2.129700 
# 
# From -- ./inp_files/470947.got.cif
#   From: 2010.05.17/outbox.cif.g08.bks.cpg/sg2_236_cif.got.tgz:470947.got - 2010.06.03 11:33:40.
