data_PCOD9019465
_publ_section_title
;
Structure prediction by ZEFSAII (Michael W. Deem and Ramdas Pophale) SiO2 
 PCOD9019465
Probable space group: P -1
;
_chemical_formula_sum "Si O2"
_cell_formula_units_Z 8
_cell_length_a 7.335425
_cell_length_b 5.060539
_cell_length_c 11.452550
_cell_angle_alpha 102.406666
_cell_angle_beta 103.035496
_cell_angle_gamma 43.704612
_cell_volume 285.323357
_symmetry_space_group_name_H-M "P -1"
_symmetry_group_IT_number 2
_symmetry_cell_setting 'triclinic'
loop_
_space_group_symop_operation_xyz
x,y,z
-x,-y,-z
loop_
_atom_site_type_symbol
_atom_site_label
_atom_site_fract_x
_atom_site_fract_y
_atom_site_fract_z
Si Si1 0.755623 0.549807 0.481986
Si Si2 0.824114 0.457575 0.738168
Si Si3 0.476335 0.369204 0.778554
Si Si4 0.229664 0.324765 0.923412
O O1 0.794545 0.364904 0.594636
O O2 0.702279 0.444631 0.345908
O O3 0.000000 0.500000 0.500000
O O4 0.500000 0.000000 0.500000
O O5 0.688634 0.389574 0.801280
O O6 0.120379 0.243918 0.795310
O O7 0.652362 0.912115 0.759424
O O8 0.290503 0.539749 0.882123
O O9 0.000000 0.500000 0.000000
O O10 0.500000 0.000000 0.000000
#
# Coordination Sequence:
#
# PCOD9019465 Si02
#       4
#     2   2   2   2
#     4  10  21  44  72 107 141 181 230 292 360 425
#     4  11  25  48  74 107 143 186 235 296 357 423
#     4  11  25  48  74 107 143 186 235 296 357 423
#     4  12  26  49  72 105 142 194 242 292 348 420
#
# _framework density 28.038363
#
# number of rings (size 3 to 8) (size 9 to 14) (size 15 to 20)
#    0.000    1.000    5.000    0.750    0.000    4.000 
#    0.000    5.000    0.000    0.000    0.000    0.000 
#    0.000    0.000    0.000    0.000    0.000    0.000 
#
# Total GULP energy -44877.316438 kJ/mol
# GULP energy per Si atom -5609.664555 kJ/mol
# Density = 2.797455 g / cm^3
# Si number density = 28.038363 Si / 1000 Ang^3
#
#
#
# Elastic Constant Matrix: (Units=GPa)
#
#
# Indices 1 2 3 4 5 6 
#
# 1 250.9415 60.5351 49.5691 -22.4308 -14.7618 -32.4596
# 2 60.5351 125.5124 40.8342 -25.5703 10.1595 -20.3055
# 3 49.5691 40.8342 173.1874 -28.5829 -10.7426 -18.1682
# 4 -22.4308 -25.5703 -28.5829 45.8260 -14.0309 14.4695
# 5 -14.7618 10.1595 -10.7426 -14.0309 64.5410 -4.4917
# 6 -32.4596 -20.3055 -18.1682 14.4695 -4.4917 65.3602
#
#
#
# Elastic Compliance Matrix: (Units=1/GPa)
#
#
# Indices 1 2 3 4 5 6 
#
# 1 0.004942 -0.001874 -0.000526 0.001051 0.001678 0.001608
# 2 -0.001874 0.010247 -0.001337 0.003167 -0.001501 0.001077
# 3 -0.000526 -0.001337 0.007076 0.003886 0.002153 0.000578
# 4 0.001051 0.003167 0.003886 0.029659 0.006591 -0.003527
# 5 0.001678 -0.001501 0.002153 0.006591 0.017957 0.000740
# 6 0.001608 0.001077 0.000578 -0.003527 0.000740 0.017425
#
#
# Mechanical properties :
#
#
# Convention : Reuss Voigt Hill
#
# Bulk Modulus (GPa) = 67.61421 94.61312 81.11367
# Shear Modulus (GPa) = 50.14578 61.72564 55.93571
#
# Velocity S-wave (km/s) = 4.23362 4.69707 4.47135
# Velocity P-wave (km/s) = 6.93291 7.95199 7.45987
#
# Compressibility (1/GPa) = 0.01478979
#
# Stress axis : x y z
#
# Youngs Moduli (GPa) = 202.36177 97.59001 141.33206
#
# Poissons Ratio (x) = 0.18285 0.07439
# Poissons Ratio (y) = 0.37915 0.18899
# Poissons Ratio (z) = 0.10651 0.13050
#
# Static dielectric constant tensor:
#      x y z
#    x 2.052210 0.028510 -0.059340 
#    y 0.028510 2.281880 0.092590 
#    z -0.059340 0.092590 2.254050 
# 
# From -- ./inp_files/1425.got.cif
#   From: 2010.05.17/outbox.cif.g08.bks.cpg/sg2_1_cif.got.tgz:1425.got - 2010.06.03 11:33:40.
