data_PCOD9019434
_publ_section_title
;
Structure prediction by ZEFSAII (Michael W. Deem and Ramdas Pophale) SiO2 
 PCOD9019434
Probable space group: P -1
;
_chemical_formula_sum "Si O2"
_cell_formula_units_Z 12
_cell_length_a 19.641371
_cell_length_b 16.713774
_cell_length_c 5.316670
_cell_angle_alpha 95.195906
_cell_angle_beta 108.462952
_cell_angle_gamma 20.424834
_cell_volume 451.927589
_symmetry_space_group_name_H-M "P -1"
_symmetry_group_IT_number 2
_symmetry_cell_setting 'triclinic'
loop_
_space_group_symop_operation_xyz
x,y,z
-x,-y,-z
loop_
_atom_site_type_symbol
_atom_site_label
_atom_site_fract_x
_atom_site_fract_y
_atom_site_fract_z
Si Si1 0.532190 0.910773 0.265953
Si Si2 0.321147 0.806953 0.745412
Si Si3 0.884853 0.305422 0.745615
Si Si4 0.326624 0.936442 0.429795
Si Si5 0.084636 0.319013 0.619565
Si Si6 0.242086 0.724961 0.512687
O O1 0.178689 0.436989 0.514967
O O2 0.500000 0.000000 0.500000
O O3 0.301419 0.095144 0.023076
O O4 0.500000 0.000000 0.000000
O O5 0.418665 0.782904 0.729656
O O6 0.316747 0.735705 0.531378
O O7 0.510135 0.576629 0.127804
O O8 0.030919 0.138495 0.602271
O O9 0.595457 0.653809 0.510933
O O10 0.846687 0.251825 0.765725
O O11 0.092097 0.136820 0.091003
O O12 0.206311 0.144865 0.473214
O O13 0.000000 0.500000 0.500000
O O14 0.000000 0.000000 0.500000
#
# Coordination Sequence:
#
# PCOD9019434 Si02
#       6
#     2   2   2   2   2   2
#     4  10  21  44  72 101 137 178 236 292 356 430
#     4  10  23  45  64  99 140 176 229 288 337 419
#     4  11  24  44  65 102 133 180 228 283 345 405
#     4  12  26  43  70  98 137 181 233 279 353 413
#     4  10  23  47  66 100 138 175 234 294 353 424
#     4   9  20  43  67  95 141 175 224 287 341 407
#
# _framework density 26.552928000000001
#
# number of rings (size 3 to 8) (size 9 to 14) (size 15 to 20)
#    0.000    1.667    1.667    1.500    4.667    1.333 
#   18.000    0.000    0.000    0.000    0.000    0.000 
#    0.000    0.000    0.000    0.000    0.000    0.000 
#
# Total GULP energy -67175.694317 kJ/mol
# GULP energy per Si atom -5597.974526 kJ/mol
# Density = 2.649249 g / cm^3
# Si number density = 26.552928 Si / 1000 Ang^3
#
#
#
# Elastic Constant Matrix: (Units=GPa)
#
#
# Indices 1 2 3 4 5 6 
#
# 1 93.9388 50.4976 32.5161 -1.5299 1.0144 16.4289
# 2 50.4976 256.1065 89.7087 -7.1008 28.8392 20.2209
# 3 32.5161 89.7087 184.0417 -13.5924 40.1722 7.3442
# 4 -1.5299 -7.1008 -13.5924 61.0469 -3.0120 14.5612
# 5 1.0144 28.8392 40.1722 -3.0120 47.1309 4.2904
# 6 16.4289 20.2209 7.3442 14.5612 4.2904 44.8278
#
#
#
# Elastic Compliance Matrix: (Units=1/GPa)
#
#
# Indices 1 2 3 4 5 6 
#
# 1 0.012989 -0.001914 -0.001748 0.000843 0.002814 -0.004154
# 2 -0.001914 0.005190 -0.001789 0.000404 -0.001462 -0.001338
# 3 -0.001748 -0.001789 0.007901 0.001159 -0.005555 0.000308
# 4 0.000843 0.000404 0.001159 0.018328 0.000526 -0.006685
# 5 0.002814 -0.001462 -0.005555 0.000526 0.027022 -0.002219
# 6 -0.004154 -0.001338 0.000308 -0.006685 -0.002219 0.026767
#
#
# Mechanical properties :
#
#
# Convention : Reuss Voigt Hill
#
# Bulk Modulus (GPa) = 65.89032 97.72575 81.80803
# Shear Modulus (GPa) = 43.79865 54.69209 49.24537
#
# Velocity S-wave (km/s) = 4.06579 4.54336 4.31119
# Velocity P-wave (km/s) = 6.84905 8.02539 7.46044
#
# Compressibility (1/GPa) = 0.01517674
#
# Stress axis : x y z
#
# Youngs Moduli (GPa) = 76.98757 192.66564 126.57371
#
# Poissons Ratio (x) = 0.36883 0.22124
# Poissons Ratio (y) = 0.14738 0.22649
# Poissons Ratio (z) = 0.13456 0.34475
#
# Static dielectric constant tensor:
#      x y z
#    x 1.777850 0.073540 0.083320 
#    y 0.073540 2.005850 -0.058030 
#    z 0.083320 -0.058030 2.114050 
# 
# From -- ./inp_files/119608.got.cif
#   From: 2010.05.17/outbox.cif.g08.bks.cpg/sg2_60_cif.got.tgz:119608.got - 2010.06.03 11:33:40.
