data_PCOD9019858
_publ_section_title
;
Structure prediction by ZEFSAII (Michael W. Deem and Ramdas Pophale) SiO2 
 PCOD9019858
Probable space group: P -1
;
_chemical_formula_sum "Si O2"
_cell_formula_units_Z 16
_cell_length_a 13.858026
_cell_length_b 6.301700
_cell_length_c 9.204425
_cell_angle_alpha 64.595540
_cell_angle_beta 74.178213
_cell_angle_gamma 84.456181
_cell_volume 698.387066
_symmetry_space_group_name_H-M "P -1"
_symmetry_group_IT_number 2
_symmetry_cell_setting 'triclinic'
loop_
_space_group_symop_operation_xyz
x,y,z
-x,-y,-z
loop_
_atom_site_type_symbol
_atom_site_label
_atom_site_fract_x
_atom_site_fract_y
_atom_site_fract_z
Si Si1 0.454211 0.619867 0.126192
Si Si2 0.807778 0.981881 0.790700
Si Si3 0.561289 0.948164 0.182006
Si Si4 0.742645 0.925501 0.334597
Si Si5 0.894778 0.132495 0.006964
Si Si6 0.846038 0.466471 0.491693
Si Si7 0.647744 0.843630 0.690920
Si Si8 0.948022 0.629360 0.700177
O O1 0.536556 0.702082 0.185233
O O2 0.379058 0.420538 0.273742
O O3 0.500000 0.500000 0.000000
O O4 0.410330 0.860235 0.010868
O O5 0.715369 0.827585 0.812052
O O6 0.907848 0.862098 0.722615
O O7 0.795030 0.235896 0.649015
O O8 0.825441 0.015642 0.943217
O O9 0.645446 0.951764 0.267054
O O10 0.455135 0.027321 0.270470
O O11 0.779568 0.658435 0.386470
O O12 0.710449 0.966905 0.501196
O O13 0.833537 0.090478 0.191697
O O14 0.914409 0.402982 0.876208
O O15 0.000000 0.000000 0.000000
O O16 0.896817 0.599094 0.571449
O O17 0.934491 0.384988 0.373867
#
# Coordination Sequence:
#
# PCOD9019858 Si02
#       8
#     2   2   2   2   2   2   2   2
#     4   9  22  45  72  96 138 181 236 280 345 414
#     4  11  25  42  73  98 133 190 232 274 354 421
#     4  10  24  44  72 101 144 181 231 289 344 407
#     4  12  25  44  68 105 143 181 228 298 347 403
#     4  11  26  46  68 103 145 176 233 294 350 407
#     4  10  22  42  67  99 133 178 235 284 345 413
#     4  11  25  45  69 105 137 188 236 278 343 425
#     4  10  21  45  70  91 136 184 227 288 344 416
#
# _framework density 22.909932999999999
#
# number of rings (size 3 to 8) (size 9 to 14) (size 15 to 20)
#    0.000    1.500    2.500    0.750    8.750    2.000 
#    6.750    0.000    0.000    0.000    0.000    0.000 
#    0.000    0.000    0.000    0.000    0.000    0.000 
#
# Total GULP energy -89535.931764 kJ/mol
# GULP energy per Si atom -5595.995735 kJ/mol
# Density = 2.285779 g / cm^3
# Si number density = 22.909933 Si / 1000 Ang^3
#
#
#
# Elastic Constant Matrix: (Units=GPa)
#
#
# Indices 1 2 3 4 5 6 
#
# 1 98.4005 0.5686 29.6827 3.6572 1.3894 -10.3992
# 2 0.5686 53.6833 9.2886 9.2841 -3.7475 -1.3574
# 3 29.6827 9.2886 108.3103 -0.6799 -19.2087 -3.7906
# 4 3.6572 9.2841 -0.6799 24.7858 -5.1446 -0.4052
# 5 1.3894 -3.7475 -19.2087 -5.1446 38.1596 5.1229
# 6 -10.3992 -1.3574 -3.7906 -0.4052 5.1229 41.7875
#
#
#
# Elastic Compliance Matrix: (Units=1/GPa)
#
#
# Indices 1 2 3 4 5 6 
#
# 1 0.011739 0.000860 -0.003735 -0.002728 -0.002987 0.002950
# 2 0.000860 0.020328 -0.002042 -0.007829 -0.000204 0.000638
# 3 -0.003735 -0.002042 0.011529 0.002913 0.006224 -0.000685
# 4 -0.002728 -0.007829 0.002913 0.045204 0.007038 -0.001094
# 5 -0.002987 -0.000204 0.006224 0.007038 0.030900 -0.003905
# 6 0.002950 0.000638 -0.000685 -0.001094 -0.003905 0.025092
#
#
# Mechanical properties :
#
#
# Convention : Reuss Voigt Hill
#
# Bulk Modulus (GPa) = 29.61791 37.71932 33.66861
# Shear Modulus (GPa) = 30.14225 35.67020 32.90623
#
# Velocity S-wave (km/s) = 3.63117 3.95013 3.79401
# Velocity P-wave (km/s) = 5.52599 6.10775 5.82414
#
# Compressibility (1/GPa) = 0.03376335
#
# Stress axis : x y z
#
# Youngs Moduli (GPa) = 85.18260 49.19370 86.73480
#
# Poissons Ratio (x) = -0.04230 0.32392
# Poissons Ratio (y) = -0.07324 0.17711
# Poissons Ratio (z) = 0.31812 0.10045
#
# Static dielectric constant tensor:
#      x y z
#    x 1.861230 0.007330 -0.043800 
#    y 0.007330 1.858350 -0.001540 
#    z -0.043800 -0.001540 1.856220 
# 
# From -- ./inp_files/288463.got.cif
#   From: 2010.05.17/outbox.cif.g08.bks.cpg/sg2_145_cif.got.tgz:288463.got - 2010.06.03 11:33:40.
