data_PCOD9019341
_publ_section_title
;
Structure prediction by ZEFSAII (Michael W. Deem and Ramdas Pophale) SiO2 
 PCOD9019341
Probable space group: P -1
;
_chemical_formula_sum "Si O2"
_cell_formula_units_Z 16
_cell_length_a 24.910012
_cell_length_b 8.099110
_cell_length_c 14.339884
_cell_angle_alpha 59.917165
_cell_angle_beta 160.270860
_cell_angle_gamma 129.571970
_cell_volume 696.901872
_symmetry_space_group_name_H-M "P -1"
_symmetry_group_IT_number 2
_symmetry_cell_setting 'triclinic'
loop_
_space_group_symop_operation_xyz
x,y,z
-x,-y,-z
loop_
_atom_site_type_symbol
_atom_site_label
_atom_site_fract_x
_atom_site_fract_y
_atom_site_fract_z
Si Si1 0.218430 0.835097 0.659556
Si Si2 0.781081 0.908502 0.143114
Si Si3 0.484967 0.707604 0.884181
Si Si4 0.050802 0.996750 0.193296
Si Si5 0.172192 0.415351 0.797767
Si Si6 0.924471 0.605936 0.776105
Si Si7 0.704071 0.546349 0.815140
Si Si8 0.721299 0.193848 0.833287
O O1 0.208964 0.599377 0.725929
O O2 0.165007 0.890513 0.455276
O O3 0.049696 0.772659 0.478502
O O4 0.414947 0.070534 0.946669
O O5 0.732133 0.716724 0.039488
O O6 0.620329 0.796152 0.990137
O O7 0.000000 0.000000 0.500000
O O8 0.773936 0.113804 0.033869
O O9 0.261697 0.593095 0.528282
O O10 0.500000 0.500000 0.000000
O O11 0.847832 0.819075 0.960907
O O12 0.136153 0.244822 0.309350
O O13 0.000000 0.000000 0.000000
O O14 0.261629 0.539658 0.007153
O O15 0.000000 0.500000 0.000000
O O16 0.113002 0.764575 0.976664
O O17 0.500000 0.500000 0.500000
O O18 0.736619 0.426926 0.816085
O O19 0.500000 0.000000 0.500000
#
# Coordination Sequence:
#
# PCOD9019341 Si02
#       8
#     2   2   2   2   2   2   2   2
#     4  10  21  44  71 100 143 192 240 308 353 438
#     4  12  24  41  73 107 140 188 242 296 356 434
#     4  12  24  46  69 103 151 188 242 299 372 433
#     4  11  24  44  68  98 147 194 239 292 368 438
#     4  10  22  42  72 108 137 181 252 299 365 418
#     4  12  26  46  71 107 147 193 245 306 373 441
#     4  11  24  44  75 103 140 183 240 307 367 433
#     4  12  25  47  74 106 139 191 250 299 360 440
#
# _framework density 22.958756999999999
#
# number of rings (size 3 to 8) (size 9 to 14) (size 15 to 20)
#    0.000    0.750    2.500    6.000    3.500    2.000 
#    2.250    1.875    0.000    0.000    0.000    0.000 
#    0.000    0.000    0.000    0.000    0.000    0.000 
#
# Total GULP energy -89332.851505 kJ/mol
# GULP energy per Si atom -5583.303219 kJ/mol
# Density = 2.290650 g / cm^3
# Si number density = 22.958757 Si / 1000 Ang^3
#
#
#
# Elastic Constant Matrix: (Units=GPa)
#
#
# Indices 1 2 3 4 5 6 
#
# 1 79.5798 22.8097 19.4882 -2.4111 -6.9676 5.0797
# 2 22.8097 106.3402 31.2791 -7.6168 -13.6797 16.7125
# 3 19.4882 31.2791 165.5726 9.7997 -10.4431 11.6274
# 4 -2.4111 -7.6168 9.7997 35.1384 -0.6642 -8.5137
# 5 -6.9676 -13.6797 -10.4431 -0.6642 30.5040 -2.1516
# 6 5.0797 16.7125 11.6274 -8.5137 -2.1516 49.5356
#
#
#
# Elastic Compliance Matrix: (Units=1/GPa)
#
#
# Indices 1 2 3 4 5 6 
#
# 1 0.013681 -0.002312 -0.001097 0.000736 0.001717 -0.000164
# 2 -0.002312 0.011452 -0.001583 0.002183 0.003922 -0.002710
# 3 -0.001097 -0.001583 0.006794 -0.002616 0.001214 -0.001345
# 4 0.000736 0.002183 -0.002616 0.030993 0.001292 0.005185
# 5 0.001717 0.003922 0.001214 0.001292 0.035375 -0.000026
# 6 -0.000164 -0.002710 -0.001345 0.005185 -0.000026 0.022324
#
#
# Mechanical properties :
#
#
# Convention : Reuss Voigt Hill
#
# Bulk Modulus (GPa) = 45.57562 55.40516 50.49039
# Shear Modulus (GPa) = 36.25363 41.56331 38.90847
#
# Velocity S-wave (km/s) = 3.97807 4.25943 4.12115
# Velocity P-wave (km/s) = 6.40267 6.95523 6.68466
#
# Compressibility (1/GPa) = 0.02194155
#
# Stress axis : x y z
#
# Youngs Moduli (GPa) = 73.09651 87.32039 147.19658
#
# Poissons Ratio (x) = 0.20192 0.16150
# Poissons Ratio (y) = 0.16903 0.23299
# Poissons Ratio (z) = 0.08020 0.13821
#
# Static dielectric constant tensor:
#      x y z
#    x 1.843970 -0.046970 -0.074940 
#    y -0.046970 1.833390 -0.016670 
#    z -0.074940 -0.016670 1.866080 
# 
# From -- ./inp_files/543818.got.cif
#   From: 2010.05.17/outbox.cif.g08.bks.cpg/sg2_272_cif.got.tgz:543818.got - 2010.06.03 11:33:40.
