data_PCOD9019802
_publ_section_title
;
Structure prediction by ZEFSAII (Michael W. Deem and Ramdas Pophale) SiO2 
 PCOD9019802
Probable space group: P -1
;
_chemical_formula_sum "Si O2"
_cell_formula_units_Z 16
_cell_length_a 5.089817
_cell_length_b 19.859555
_cell_length_c 8.359087
_cell_angle_alpha 66.313695
_cell_angle_beta 101.377649
_cell_angle_gamma 118.554092
_cell_volume 679.638428
_symmetry_space_group_name_H-M "P -1"
_symmetry_group_IT_number 2
_symmetry_cell_setting 'triclinic'
loop_
_space_group_symop_operation_xyz
x,y,z
-x,-y,-z
loop_
_atom_site_type_symbol
_atom_site_label
_atom_site_fract_x
_atom_site_fract_y
_atom_site_fract_z
Si Si1 0.604075 0.930319 0.114984
Si Si2 0.796992 0.374323 0.462522
Si Si3 0.108277 0.748364 0.202268
Si Si4 0.674322 0.760612 0.657853
Si Si5 0.485374 0.698795 0.053624
Si Si6 0.696098 0.467190 0.660718
Si Si7 0.209153 0.009311 0.253665
Si Si8 0.640960 0.127155 0.464784
O O1 0.349611 0.839306 0.181371
O O2 0.851063 0.961124 0.254378
O O3 0.500000 0.000000 0.000000
O O4 0.747551 0.934662 0.951250
O O5 0.925154 0.312710 0.598160
O O6 0.479781 0.319598 0.396251
O O7 0.778867 0.418353 0.581013
O O8 0.031196 0.450935 0.316857
O O9 0.227624 0.716470 0.091308
O O10 0.791746 0.748073 0.139923
O O11 0.508798 0.816796 0.545339
O O12 0.030313 0.813529 0.626616
O O13 0.565453 0.729940 0.853590
O O14 0.433845 0.604057 0.154476
O O15 0.500000 0.500000 0.500000
O O16 0.301638 0.934378 0.349526
O O17 0.404264 0.069629 0.358322
#
# Coordination Sequence:
#
# PCOD9019802 Si02
#       8
#     2   2   2   2   2   2   2   2
#     4  11  25  39  68  98 134 173 238 286 331 392
#     4  10  24  41  71  99 135 175 225 275 335 412
#     4  11  24  43  67  96 133 181 223 276 338 399
#     4  12  26  44  67 105 131 179 228 284 333 408
#     4  11  24  43  70  97 138 176 218 280 339 401
#     4  10  21  45  69 100 135 177 219 272 344 411
#     4  10  25  44  62  97 129 189 222 292 339 399
#     4  11  27  45  69  90 144 179 232 274 352 403
#
# _framework density 23.541929
#
# number of rings (size 3 to 8) (size 9 to 14) (size 15 to 20)
#    0.000    1.250    1.250    3.000   12.250    1.500 
#    0.000    0.625    0.000    0.000    0.000    0.000 
#    0.000    0.000    0.000    0.000    0.000    0.000 
#
# Total GULP energy -89345.120504 kJ/mol
# GULP energy per Si atom -5584.070031 kJ/mol
# Density = 2.348835 g / cm^3
# Si number density = 23.541929 Si / 1000 Ang^3
#
#
#
# Elastic Constant Matrix: (Units=GPa)
#
#
# Indices 1 2 3 4 5 6 
#
# 1 74.7130 30.0556 11.1285 -8.6935 17.8008 14.0618
# 2 30.0556 173.2573 49.9719 -21.4687 4.9811 25.0682
# 3 11.1285 49.9719 98.3463 -17.0314 4.4289 18.1451
# 4 -8.6935 -21.4687 -17.0314 41.2985 6.0475 -0.0635
# 5 17.8008 4.9811 4.4289 6.0475 36.0569 -2.7241
# 6 14.0618 25.0682 18.1451 -0.0635 -2.7241 32.8328
#
#
#
# Elastic Compliance Matrix: (Units=1/GPa)
#
#
# Indices 1 2 3 4 5 6 
#
# 1 0.018521 -0.001473 0.001649 0.005366 -0.010692 -0.008596
# 2 -0.001473 0.007679 -0.002500 0.002759 -0.000785 -0.003910
# 3 0.001649 -0.002500 0.013500 0.005114 -0.003479 -0.006537
# 4 0.005366 0.002759 0.005114 0.030241 -0.009331 -0.007947
# 5 -0.010692 -0.000785 -0.003479 -0.009331 0.035873 0.010059
# 6 -0.008596 -0.003910 -0.006537 -0.007947 0.010059 0.041556
#
#
# Mechanical properties :
#
#
# Convention : Reuss Voigt Hill
#
# Bulk Modulus (GPa) = 28.52852 58.73651 43.63251
# Shear Modulus (GPa) = 30.54320 39.04833 34.79576
#
# Velocity S-wave (km/s) = 3.60585 4.07710 3.84869
# Velocity P-wave (km/s) = 5.42961 6.86786 6.19065
#
# Compressibility (1/GPa) = 0.03505265
#
# Stress axis : x y z
#
# Youngs Moduli (GPa) = 53.99282 130.23176 74.07140
#
# Poissons Ratio (x) = 0.19177 -0.12216
# Poissons Ratio (y) = 0.07951 0.18521
# Poissons Ratio (z) = -0.08905 0.32563
#
# Static dielectric constant tensor:
#      x y z
#    x 2.045080 -0.014530 -0.124590 
#    y -0.014530 1.932240 -0.021010 
#    z -0.124590 -0.021010 1.984620 
# 
# From -- ./inp_files/122976.got.cif
#   From: 2010.05.17/outbox.cif.g08.bks.cpg/sg2_62_cif.got.tgz:122976.got - 2010.06.03 11:33:40.
