data_PCOD9019667
_publ_section_title
;
Structure prediction by ZEFSAII (Michael W. Deem and Ramdas Pophale) SiO2 
 PCOD9019667
Probable space group: P -1
;
_chemical_formula_sum "Si O2"
_cell_formula_units_Z 12
_cell_length_a 6.939377
_cell_length_b 13.659721
_cell_length_c 14.501415
_cell_angle_alpha 149.784766
_cell_angle_beta 134.072635
_cell_angle_gamma 46.793581
_cell_volume 483.547669
_symmetry_space_group_name_H-M "P -1"
_symmetry_group_IT_number 2
_symmetry_cell_setting 'triclinic'
loop_
_space_group_symop_operation_xyz
x,y,z
-x,-y,-z
loop_
_atom_site_type_symbol
_atom_site_label
_atom_site_fract_x
_atom_site_fract_y
_atom_site_fract_z
Si Si1 0.162796 0.251812 0.508992
Si Si2 0.140717 0.673830 0.798588
Si Si3 0.309593 0.891757 0.548698
Si Si4 0.031886 0.574463 0.225456
Si Si5 0.810388 0.017619 0.097516
Si Si6 0.294158 0.271715 0.943091
O O1 0.058629 0.462596 0.591423
O O2 0.465939 0.144894 0.486931
O O3 0.157991 0.335452 0.679518
O O4 0.971969 0.094982 0.299437
O O5 0.164195 0.809205 0.827858
O O6 0.454825 0.623082 0.897065
O O7 0.962757 0.815550 0.931357
O O8 0.288247 0.678872 0.408387
O O9 0.396896 0.035631 0.770372
O O10 0.000000 0.000000 0.500000
O O11 0.890492 0.655386 0.148103
O O12 0.141302 0.343180 0.046369
O O13 0.500000 0.000000 0.000000
#
# Coordination Sequence:
#
# PCOD9019667 Si02
#       6
#     2   2   2   2   2   2
#     4  12  25  44  73 107 135 181 235 285 340 414
#     4  11  25  46  71  99 139 180 233 287 346 405
#     4  10  22  42  66 101 142 181 219 279 338 408
#     4  10  24  40  69 105 141 177 227 274 349 416
#     4  11  28  48  70  99 134 185 236 292 345 400
#     4  10  21  45  65  99 145 182 213 283 344 412
#
# _framework density 24.816580999999999
#
# number of rings (size 3 to 8) (size 9 to 14) (size 15 to 20)
#    0.000    1.333    3.333    0.500    4.667    4.000 
#    0.000    0.000    0.000    0.000    0.000    0.000 
#    0.000    0.000    0.000    0.000    0.000    0.000 
#
# Total GULP energy -66999.968683 kJ/mol
# GULP energy per Si atom -5583.330724 kJ/mol
# Density = 2.476010 g / cm^3
# Si number density = 24.816581 Si / 1000 Ang^3
#
#
#
# Elastic Constant Matrix: (Units=GPa)
#
#
# Indices 1 2 3 4 5 6 
#
# 1 173.2460 26.9514 74.2696 14.5614 -43.3934 -22.1814
# 2 26.9514 38.5705 35.5180 14.7621 -15.8489 -11.9036
# 3 74.2696 35.5180 176.8689 27.9470 -30.6293 -26.4825
# 4 14.5614 14.7621 27.9470 28.3570 -2.0499 -9.6634
# 5 -43.3934 -15.8489 -30.6293 -2.0499 48.2399 6.3787
# 6 -22.1814 -11.9036 -26.4825 -9.6634 6.3787 37.0704
#
#
#
# Elastic Compliance Matrix: (Units=1/GPa)
#
#
# Indices 1 2 3 4 5 6 
#
# 1 0.008559 -0.000727 -0.001949 -0.000904 0.005887 0.002247
# 2 -0.000727 0.040470 -0.003046 -0.015392 0.009426 0.004750
# 3 -0.001949 -0.003046 0.008590 -0.004926 0.002182 0.002332
# 4 -0.000904 -0.015392 -0.004926 0.049854 -0.007580 0.005297
# 5 0.005887 0.009426 0.002182 -0.007580 0.030059 0.000960
# 6 0.002247 0.004750 0.002332 0.005297 0.000960 0.032727
#
#
# Mechanical properties :
#
#
# Convention : Reuss Voigt Hill
#
# Bulk Modulus (GPa) = 21.65742 73.57372 47.61557
# Shear Modulus (GPa) = 25.36859 39.52989 32.44924
#
# Velocity S-wave (km/s) = 3.20072 3.99542 3.61995
# Velocity P-wave (km/s) = 4.73344 7.14114 6.05811
#
# Compressibility (1/GPa) = 0.04617355
#
# Stress axis : x y z
#
# Youngs Moduli (GPa) = 116.83415 24.70983 116.42037
#
# Poissons Ratio (x) = 0.01797 0.22694
# Poissons Ratio (y) = 0.08496 0.35461
# Poissons Ratio (z) = 0.22774 0.07526
#
# Static dielectric constant tensor:
#      x y z
#    x 1.986960 0.066010 -0.035170 
#    y 0.066010 2.114200 0.041480 
#    z -0.035170 0.041480 2.106420 
# 
# From -- ./inp_files/27387.got.cif
#   From: 2010.05.17/outbox.cif.g08.bks.cpg/sg2_14_cif.got.tgz:27387.got - 2010.06.03 11:33:40.
