data_PCOD9019369
_publ_section_title
;
Structure prediction by ZEFSAII (Michael W. Deem and Ramdas Pophale) SiO2 
 PCOD9019369
Probable space group: P -1
;
_chemical_formula_sum "Si O2"
_cell_formula_units_Z 16
_cell_length_a 14.219692
_cell_length_b 13.964844
_cell_length_c 8.452084
_cell_angle_alpha 135.527954
_cell_angle_beta 134.847807
_cell_angle_gamma 46.139169
_cell_volume 770.454216
_symmetry_space_group_name_H-M "P -1"
_symmetry_group_IT_number 2
_symmetry_cell_setting 'triclinic'
loop_
_space_group_symop_operation_xyz
x,y,z
-x,-y,-z
loop_
_atom_site_type_symbol
_atom_site_label
_atom_site_fract_x
_atom_site_fract_y
_atom_site_fract_z
Si Si1 0.636009 0.934966 0.202379
Si Si2 0.191894 0.578073 0.442209
Si Si3 0.396224 0.923810 0.340565
Si Si4 0.465276 0.604645 0.933119
Si Si5 0.078639 0.116497 0.091525
Si Si6 0.952894 0.879443 0.563294
Si Si7 0.309549 0.404469 0.064377
Si Si8 0.010131 0.436414 0.262296
O O1 0.801949 0.908985 0.330786
O O2 0.613499 0.050940 0.454499
O O3 0.645438 0.772900 0.079704
O O4 0.500000 0.000000 0.000000
O O5 0.305248 0.624328 0.724245
O O6 0.285616 0.476976 0.293891
O O7 0.118583 0.483218 0.340203
O O8 0.066314 0.736271 0.441748
O O9 0.500000 0.000000 0.500000
O O10 0.242713 0.003574 0.169574
O O11 0.465016 0.757285 0.175255
O O12 0.576768 0.559114 0.866256
O O13 0.500000 0.500000 0.000000
O O14 0.043226 0.162673 0.291434
O O15 0.057304 0.260907 0.134168
O O16 0.991169 0.025011 0.801189
O O17 0.150090 0.482222 0.897018
O O18 0.000000 0.500000 0.500000
#
# Coordination Sequence:
#
# PCOD9019369 Si02
#       8
#     2   2   2   2   2   2   2   2
#     4  11  25  44  72 105 147 190 233 291 370 432
#     4  12  25  47  71 101 151 188 231 309 357 424
#     4  11  23  45  71 100 139 183 242 298 348 425
#     4  12  28  46  76 105 139 195 247 297 363 424
#     4  10  22  41  73 105 137 176 245 306 344 411
#     4  10  21  44  71 105 139 185 239 300 349 417
#     4  12  27  48  66 107 151 185 236 299 365 434
#     4  12  23  43  77 104 135 187 249 290 355 429
#
# _framework density 20.766970000000001
#
# number of rings (size 3 to 8) (size 9 to 14) (size 15 to 20)
#    0.000    0.750    5.000    2.250    3.500    0.000 
#    2.250    0.625    0.000    0.000    0.000    0.000 
#    0.000    0.000    0.000    0.000    0.000    0.000 
#
# Total GULP energy -89315.736586 kJ/mol
# GULP energy per Si atom -5582.233537 kJ/mol
# Density = 2.071970 g / cm^3
# Si number density = 20.766970 Si / 1000 Ang^3
#
#
#
# Elastic Constant Matrix: (Units=GPa)
#
#
# Indices 1 2 3 4 5 6 
#
# 1 33.8976 177.3565 -33.6361 -65.2604 57.6739 -16.5375
# 2 177.3565 -72.0908 144.0573 112.7122 -44.8156 19.7187
# 3 -33.6361 144.0573 42.6356 -62.6152 53.2754 2.1647
# 4 -65.2604 112.7122 -62.6152 -26.6971 24.0407 1.0024
# 5 57.6739 -44.8156 53.2754 24.0407 20.3567 8.8674
# 6 -16.5375 19.7187 2.1647 1.0024 8.8674 29.0421
#
#
#
# Elastic Compliance Matrix: (Units=1/GPa)
#
#
# Indices 1 2 3 4 5 6 
#
# 1 0.009652 0.000598 -0.005738 -0.009632 -0.002521 0.006620
# 2 0.000598 0.004014 0.002088 0.006073 -0.004958 -0.001236
# 3 -0.005738 0.002088 0.010197 -0.002197 -0.001037 -0.005053
# 4 -0.009632 0.006073 -0.002197 0.031104 0.016443 -0.015539
# 5 -0.002521 -0.004958 -0.001037 0.016443 0.032315 -0.008426
# 6 0.006620 -0.001236 -0.005053 -0.015539 -0.008426 0.042527
#
#
# Mechanical properties :
#
#
# Convention : Reuss Voigt Hill
#
# Bulk Modulus (GPa) = 56.30532 64.44420 60.37476
# Shear Modulus (GPa) = 35.25287 -14.34868 10.45210
#
# Velocity S-wave (km/s) = 4.12460 -2.63142 2.24588
# Velocity P-wave (km/s) = 7.06080 4.67621 5.98840
#
# Compressibility (1/GPa) = 0.01776031
#
# Stress axis : x y z
#
# Youngs Moduli (GPa) = 103.60543 249.14467 98.06360
#
# Poissons Ratio (x) = -0.14904 0.56270
# Poissons Ratio (y) = -0.06198 -0.20480
# Poissons Ratio (z) = 0.59450 -0.52033
#
# Static dielectric constant tensor:
#      x y z
#    x 1.770310 -0.016270 -0.032720 
#    y -0.016270 1.705210 0.044500 
#    z -0.032720 0.044500 1.729120 
# 
# From -- ./inp_files/316131.got.cif
#   From: 2010.05.17/outbox.cif.g08.bks.cpg/sg2_159_cif.got.tgz:316131.got - 2010.06.03 11:33:40.
