data_PCOD9019487
_publ_section_title
;
Structure prediction by ZEFSAII (Michael W. Deem and Ramdas Pophale) SiO2 
 PCOD9019487
Probable space group: P -1
;
_chemical_formula_sum "Si O2"
_cell_formula_units_Z 12
_cell_length_a 9.669638
_cell_length_b 13.009789
_cell_length_c 20.489756
_cell_angle_alpha 17.904391
_cell_angle_beta 42.923614
_cell_angle_gamma 45.939751
_cell_volume 539.653449
_symmetry_space_group_name_H-M "P -1"
_symmetry_group_IT_number 2
_symmetry_cell_setting 'triclinic'
loop_
_space_group_symop_operation_xyz
x,y,z
-x,-y,-z
loop_
_atom_site_type_symbol
_atom_site_label
_atom_site_fract_x
_atom_site_fract_y
_atom_site_fract_z
Si Si1 0.646121 0.204435 0.643063
Si Si2 0.803751 0.260886 0.229880
Si Si3 0.052546 0.201338 0.425833
Si Si4 0.673993 0.883909 0.961490
Si Si5 0.358578 0.747349 0.940702
Si Si6 0.905369 0.876871 0.298413
O O1 0.500000 0.500000 0.500000
O O2 0.845096 0.272303 0.491729
O O3 0.694659 0.145265 0.737151
O O4 0.518040 0.892258 0.849360
O O5 0.835171 0.033853 0.419291
O O6 0.641819 0.530657 0.148996
O O7 0.792633 0.017030 0.318239
O O8 0.000000 0.500000 0.000000
O O9 0.183215 0.525874 0.167833
O O10 0.000000 0.000000 0.500000
O O11 0.890504 0.893235 0.918016
O O12 0.500000 0.000000 0.000000
O O13 0.500000 0.500000 0.000000
O O14 0.248346 0.030395 0.763265
O O15 0.000000 0.500000 0.500000
#
# Coordination Sequence:
#
# PCOD9019487 Si02
#       6
#     2   2   2   2   2   2
#     4  12  27  47  72 108 152 190 250 309 374 446
#     4  10  21  44  72  96 143 196 241 296 369 439
#     4  12  24  45  79 104 148 199 238 311 380 433
#     4  11  25  46  73 102 145 198 245 304 371 439
#     4  12  27  46  77 113 147 194 256 304 376 455
#     4  11  24  47  74 104 150 191 244 311 369 443
#
# _framework density 22.236491999999998
#
# number of rings (size 3 to 8) (size 9 to 14) (size 15 to 20)
#    0.000    0.667    5.000    4.000    4.667    3.333 
#    0.000    2.500    0.000    0.000    0.000    0.000 
#    0.000    0.000    0.000    0.000    0.000    0.000 
#
# Total GULP energy -67032.671175 kJ/mol
# GULP energy per Si atom -5586.055931 kJ/mol
# Density = 2.218588 g / cm^3
# Si number density = 22.236492 Si / 1000 Ang^3
#
#
#
# Elastic Constant Matrix: (Units=GPa)
#
#
# Indices 1 2 3 4 5 6 
#
# 1 85.9997 28.0048 27.4369 12.2401 6.2837 -1.6656
# 2 28.0048 188.5988 53.0830 6.1940 5.3997 -9.2963
# 3 27.4369 53.0830 116.7994 2.1507 7.8138 -0.2832
# 4 12.2401 6.1940 2.1507 46.7906 -5.8510 3.7773
# 5 6.2837 5.3997 7.8138 -5.8510 46.7498 -3.5772
# 6 -1.6656 -9.2963 -0.2832 3.7773 -3.5772 34.7323
#
#
#
# Elastic Compliance Matrix: (Units=1/GPa)
#
#
# Indices 1 2 3 4 5 6 
#
# 1 0.013405 -0.001107 -0.002469 -0.003497 -0.001658 0.000536
# 2 -0.001107 0.006296 -0.002581 -0.000571 -0.000091 0.001664
# 3 -0.002469 -0.002581 0.010379 0.000443 -0.001117 -0.000888
# 4 -0.003497 -0.000571 0.000443 0.022936 0.003142 -0.002488
# 5 -0.001658 -0.000091 -0.001117 0.003142 0.022345 0.001847
# 6 0.000536 0.001664 -0.000888 -0.002488 0.001847 0.029716
#
#
# Mechanical properties :
#
#
# Convention : Reuss Voigt Hill
#
# Bulk Modulus (GPa) = 56.28464 67.60526 61.94495
# Shear Modulus (GPa) = 40.54667 44.51276 42.52971
#
# Velocity S-wave (km/s) = 4.27480 4.47899 4.37808
# Velocity P-wave (km/s) = 7.05209 7.56421 7.31263
#
# Compressibility (1/GPa) = 0.01776684
#
# Stress axis : x y z
#
# Youngs Moduli (GPa) = 74.59634 158.82044 96.34643
#
# Poissons Ratio (x) = 0.17578 0.23792
# Poissons Ratio (y) = 0.08256 0.24867
# Poissons Ratio (z) = 0.18421 0.40991
#
# Static dielectric constant tensor:
#      x y z
#    x 1.755690 -0.052460 0.053330 
#    y -0.052460 1.750870 0.016960 
#    z 0.053330 0.016960 1.737570 
# 
# From -- ./inp_files/150579.got.cif
#   From: 2010.05.17/outbox.cif.g08.bks.cpg/sg2_76_cif.got.tgz:150579.got - 2010.06.03 11:33:40.
