data_PCOD9019203
_publ_section_title
;
Structure prediction by ZEFSAII (Michael W. Deem and Ramdas Pophale) SiO2 
 PCOD9019203
Probable space group: P -1
;
_chemical_formula_sum "Si O2"
_cell_formula_units_Z 16
_cell_length_a 8.563254
_cell_length_b 14.630063
_cell_length_c 11.504528
_cell_angle_alpha 112.370824
_cell_angle_beta 77.627616
_cell_angle_gamma 47.590757
_cell_volume 712.522677
_symmetry_space_group_name_H-M "P -1"
_symmetry_group_IT_number 2
_symmetry_cell_setting 'triclinic'
loop_
_space_group_symop_operation_xyz
x,y,z
-x,-y,-z
loop_
_atom_site_type_symbol
_atom_site_label
_atom_site_fract_x
_atom_site_fract_y
_atom_site_fract_z
Si Si1 0.997154 0.704350 0.652230
Si Si2 0.343565 0.159955 0.526898
Si Si3 0.997716 0.391275 0.168899
Si Si4 0.543416 0.244137 0.671315
Si Si5 0.221089 0.482343 0.282320
Si Si6 0.388761 0.026092 0.852094
Si Si7 0.903571 0.114080 0.960700
Si Si8 0.943948 0.948464 0.657257
O O1 0.978962 0.824478 0.658126
O O2 0.140170 0.609447 0.709258
O O3 0.143040 0.555494 0.462371
O O4 0.654996 0.859671 0.813259
O O5 0.468063 0.199269 0.567279
O O6 0.993724 0.337959 0.673273
O O7 0.500000 0.000000 0.500000
O O8 0.444471 0.082205 0.345268
O O9 0.759274 0.538759 0.178537
O O10 0.104028 0.434414 0.241458
O O11 0.272172 0.195784 0.971804
O O12 0.800233 0.175996 0.540159
O O13 0.659839 0.128884 0.712795
O O14 0.560632 0.314365 0.121546
O O15 0.104991 0.105526 0.934131
O O16 0.966849 0.019229 0.788186
O O17 0.000000 0.000000 0.000000
#
# Coordination Sequence:
#
# PCOD9019203 Si02
#       8
#     2   2   2   2   2   2   2   2
#     4  11  23  42  70  94 131 177 227 271 330 397
#     4  10  21  44  69  93 129 178 224 268 334 399
#     4  11  23  41  68  96 132 172 228 273 331 390
#     4  10  23  42  65  96 131 176 218 275 326 396
#     4  10  24  40  65  99 131 171 225 275 329 393
#     4  11  23  41  63  99 131 172 220 276 333 391
#     4  12  25  42  66  99 139 172 218 279 336 389
#     4  11  24  44  66  94 137 175 220 268 337 393
#
# _framework density 22.455427
#
# number of rings (size 3 to 8) (size 9 to 14) (size 15 to 20)
#    0.000    1.250    1.250    4.500    3.500    1.500 
#    0.000    4.375    0.000    0.000    0.000    0.000 
#    0.000    0.000    0.000    0.000    0.000    0.000 
#
# Total GULP energy -89298.927976 kJ/mol
# GULP energy per Si atom -5581.182998 kJ/mol
# Density = 2.240432 g / cm^3
# Si number density = 22.455427 Si / 1000 Ang^3
#
#
#
# Elastic Constant Matrix: (Units=GPa)
#
#
# Indices 1 2 3 4 5 6 
#
# 1 68.4592 14.4539 26.9629 5.2664 -5.0677 9.4436
# 2 14.4539 94.5037 14.5727 21.7099 -20.3653 5.9618
# 3 26.9629 14.5727 62.8939 18.2123 -4.5550 5.8085
# 4 5.2664 21.7099 18.2123 34.9234 -6.6933 1.4875
# 5 -5.0677 -20.3653 -4.5550 -6.6933 42.9826 1.3654
# 6 9.4436 5.9618 5.8085 1.4875 1.3654 20.0006
#
#
#
# Elastic Compliance Matrix: (Units=1/GPa)
#
#
# Indices 1 2 3 4 5 6 
#
# 1 0.018785 -0.001631 -0.007791 0.002757 0.001249 -0.006411
# 2 -0.001631 0.013831 0.000312 -0.007350 0.005353 -0.003262
# 3 -0.007791 0.000312 0.022445 -0.010629 0.000021 -0.002144
# 4 0.002757 -0.007350 -0.010629 0.038613 0.001698 0.000988
# 5 0.001249 0.005353 0.000021 0.001698 0.026346 -0.004116
# 6 -0.006411 -0.003262 -0.002144 0.000988 -0.004116 0.054828
#
#
# Mechanical properties :
#
#
# Convention : Reuss Voigt Hill
#
# Bulk Modulus (GPa) = 27.14472 37.53729 32.34101
# Shear Modulus (GPa) = 24.34889 30.90582 27.62735
#
# Velocity S-wave (km/s) = 3.29648 3.71390 3.51140
# Velocity P-wave (km/s) = 5.15786 5.92819 5.55639
#
# Compressibility (1/GPa) = 0.03683958
#
# Stress axis : x y z
#
# Youngs Moduli (GPa) = 53.23420 72.30296 44.55393
#
# Poissons Ratio (x) = 0.11795 0.34712
# Poissons Ratio (y) = 0.08684 -0.01390
# Poissons Ratio (z) = 0.41474 -0.02255
#
# Static dielectric constant tensor:
#      x y z
#    x 1.844670 -0.137760 -0.066000 
#    y -0.137760 1.808020 -0.002180 
#    z -0.066000 -0.002180 1.781370 
# 
# From -- ./inp_files/399271.got.cif
#   From: 2010.05.17/outbox.cif.g08.bks.cpg/sg2_200_cif.got.tgz:399271.got - 2010.06.03 11:33:40.
