data_PCOD9019229
_publ_section_title
;
Structure prediction by ZEFSAII (Michael W. Deem and Ramdas Pophale) SiO2 
 PCOD9019229
Probable space group: P -1
;
_chemical_formula_sum "Si O2"
_cell_formula_units_Z 15
_cell_length_a 11.144474
_cell_length_b 10.650409
_cell_length_c 14.144966
_cell_angle_alpha 150.561126
_cell_angle_beta 129.087591
_cell_angle_gamma 66.954448
_cell_volume 583.251992
_symmetry_space_group_name_H-M "P -1"
_symmetry_group_IT_number 2
_symmetry_cell_setting 'triclinic'
loop_
_space_group_symop_operation_xyz
x,y,z
-x,-y,-z
loop_
_atom_site_type_symbol
_atom_site_label
_atom_site_fract_x
_atom_site_fract_y
_atom_site_fract_z
Si Si1 0.488294 0.117547 0.223744
Si Si2 0.802686 0.129474 0.928945
Si Si3 0.660108 0.828099 0.012603
Si Si4 0.007070 0.594934 0.457841
Si Si5 0.727147 0.350455 0.647479
Si Si6 0.775129 0.881392 0.567581
Si Si7 0.000000 0.500000 0.000000
Si Si8 0.516490 0.252011 0.788429
O O1 0.444910 0.202928 0.156283
O O2 0.645267 0.363565 0.515221
O O3 0.324126 0.013395 0.140508
O O4 0.546354 0.864751 0.063969
O O5 0.973012 0.348556 0.204473
O O6 0.813254 0.904566 0.713375
O O7 0.704300 0.271201 0.907055
O O8 0.724534 0.580116 0.874622
O O9 0.824151 0.123465 0.287181
O O10 0.000000 0.500000 0.500000
O O11 0.846312 0.674605 0.420299
O O12 0.919495 0.398732 0.785045
O O13 0.601122 0.042124 0.414139
O O14 0.882055 0.183777 0.773216
O O15 0.575715 0.776750 0.377180
O O16 0.500000 0.500000 0.000000
#
# Coordination Sequence:
#
# PCOD9019229 Si02
#       8
#     2   2   2   2   2   2   1   2
#     4  10  24  45  68  99 135 184 233 276 345 411
#     4  11  24  44  69 104 134 181 227 286 350 403
#     4  11  23  45  70  96 138 186 229 286 338 414
#     4  12  25  44  69 104 141 178 232 285 346 410
#     4  10  22  42  67  96 134 175 227 281 343 409
#     4  11  24  45  72  98 140 177 227 291 342 416
#     4  10  22  44  64  98 132 174 224 272 342 408
#     4  10  21  44  69  98 133 177 231 282 344 414
#
# _framework density 25.717872
#
# number of rings (size 3 to 8) (size 9 to 14) (size 15 to 20)
#    0.000    1.333    4.000    0.800    1.867    2.667 
#   12.000    1.333    0.000    0.000    0.000    0.000 
#    0.000    0.000    0.000    0.000    0.000    0.000 
#
# Total GULP energy -83679.547563 kJ/mol
# GULP energy per Si atom -5578.636504 kJ/mol
# Density = 2.565934 g / cm^3
# Si number density = 25.717872 Si / 1000 Ang^3
#
#
#
# Elastic Constant Matrix: (Units=GPa)
#
#
# Indices 1 2 3 4 5 6 
#
# 1 72.3187 6.5154 14.2985 8.1997 -9.5736 18.5035
# 2 6.5154 57.3954 36.0851 -20.2518 9.0187 15.6301
# 3 14.2985 36.0851 157.6121 -32.3454 -0.7403 12.2479
# 4 8.1997 -20.2518 -32.3454 61.7112 -3.1782 -4.0148
# 5 -9.5736 9.0187 -0.7403 -3.1782 45.7035 -8.0710
# 6 18.5035 15.6301 12.2479 -4.0148 -8.0710 28.5902
#
#
#
# Elastic Compliance Matrix: (Units=1/GPa)
#
#
# Indices 1 2 3 4 5 6 
#
# 1 0.017519 0.000539 -0.001592 -0.003638 0.001327 -0.011087
# 2 0.000539 0.026959 -0.004019 0.005324 -0.007504 -0.014737
# 3 -0.001592 -0.004019 0.008028 0.003178 0.000897 0.000487
# 4 -0.003638 0.005324 0.003178 0.020146 -0.000210 0.000852
# 5 0.001327 -0.007504 0.000897 -0.000210 0.025405 0.010002
# 6 -0.011087 -0.014737 0.000487 0.000852 0.010002 0.052944
#
#
# Mechanical properties :
#
#
# Convention : Reuss Voigt Hill
#
# Bulk Modulus (GPa) = 23.60512 44.56936 34.08724
# Shear Modulus (GPa) = 28.52851 42.56279 35.54565
#
# Velocity S-wave (km/s) = 3.33421 4.07257 3.72174
# Velocity P-wave (km/s) = 4.90112 6.28348 5.63485
#
# Compressibility (1/GPa) = 0.04236370
#
# Stress axis : x y z
#
# Youngs Moduli (GPa) = 57.08186 37.09302 124.56845
#
# Poissons Ratio (x) = -0.02000 0.19825
# Poissons Ratio (y) = -0.03078 0.50060
# Poissons Ratio (z) = 0.09085 0.14907
#
# Static dielectric constant tensor:
#      x y z
#    x 1.993630 -0.148910 -0.108230 
#    y -0.148910 2.220490 -0.034660 
#    z -0.108230 -0.034660 1.949740 
# 
# From -- ./inp_files/519966.got.cif
#   From: 2010.05.17/outbox.cif.g08.bks.cpg/sg2_260_cif.got.tgz:519966.got - 2010.06.03 11:33:40.
