data_PCOD9019024
_publ_section_title
;
Structure prediction by ZEFSAII (Michael W. Deem and Ramdas Pophale) SiO2 
 PCOD9019024
Probable space group: P -1
;
_chemical_formula_sum "Si O2"
_cell_formula_units_Z 14
_cell_length_a 16.816294
_cell_length_b 6.495187
_cell_length_c 6.063335
_cell_angle_alpha 111.933121
_cell_angle_beta 75.342090
_cell_angle_gamma 107.232554
_cell_volume 579.128360
_symmetry_space_group_name_H-M "P -1"
_symmetry_group_IT_number 2
_symmetry_cell_setting 'triclinic'
loop_
_space_group_symop_operation_xyz
x,y,z
-x,-y,-z
loop_
_atom_site_type_symbol
_atom_site_label
_atom_site_fract_x
_atom_site_fract_y
_atom_site_fract_z
Si Si1 0.549328 0.165566 0.716432
Si Si2 0.825001 0.514982 0.629596
Si Si3 0.335303 0.574951 0.600003
Si Si4 0.719371 0.706021 0.084646
Si Si5 0.382592 0.044701 0.029456
Si Si6 0.962378 0.989659 0.763163
Si Si7 0.872816 0.107203 0.214592
O O1 0.599493 0.380743 0.631539
O O2 0.500000 0.000000 0.500000
O O3 0.612103 0.044752 0.762523
O O4 0.476652 0.183273 0.949081
O O5 0.758939 0.497045 0.463631
O O6 0.894783 0.746712 0.705688
O O7 0.870354 0.312449 0.460123
O O8 0.767170 0.514917 0.887212
O O9 0.343538 0.398962 0.717536
O O10 0.353801 0.819486 0.807499
O O11 0.785585 0.925833 0.214474
O O12 0.680030 0.800843 0.937039
O O13 0.053277 0.019408 0.830796
O O14 0.000000 0.000000 0.500000
O O15 0.906132 0.164176 0.961608
#
# Coordination Sequence:
#
# PCOD9019024 Si02
#       7
#     2   2   2   2   2   2   2
#     4   9  21  41  69  97 133 181 225 281 345 401
#     4  11  23  40  64  99 135 183 224 277 343 400
#     4  11  22  41  64 101 136 174 233 281 336 403
#     4  11  24  41  68 102 134 181 231 276 341 406
#     4  10  21  44  67  95 140 177 225 287 337 408
#     4  10  22  40  65  96 134 179 228 273 336 402
#     4  10  22  43  63  97 138 175 225 281 333 402
#
# _framework density 24.174261000000001
#
# number of rings (size 3 to 8) (size 9 to 14) (size 15 to 20)
#    0.000    1.714    1.429    2.143    0.000    4.571 
#    7.714   10.000    0.000    0.000    0.000    0.000 
#    0.000    0.000    0.000    0.000    0.000    0.000 
#
# Total GULP energy -78061.553859 kJ/mol
# GULP energy per Si atom -5575.825276 kJ/mol
# Density = 2.411924 g / cm^3
# Si number density = 24.174261 Si / 1000 Ang^3
#
#
#
# Elastic Constant Matrix: (Units=GPa)
#
#
# Indices 1 2 3 4 5 6 
#
# 1 92.3894 43.3828 17.7554 -2.9431 15.6351 22.0651
# 2 43.3828 60.2049 51.0165 2.0172 -6.7173 22.5000
# 3 17.7554 51.0165 91.1295 1.1975 -6.7707 8.8869
# 4 -2.9431 2.0172 1.1975 49.6422 6.7410 1.6319
# 5 15.6351 -6.7173 -6.7707 6.7410 48.1251 7.2693
# 6 22.0651 22.5000 8.8869 1.6319 7.2693 30.8317
#
#
#
# Elastic Compliance Matrix: (Units=1/GPa)
#
#
# Indices 1 2 3 4 5 6 
#
# 1 0.022920 -0.026989 0.009508 0.003600 -0.010820 0.002913
# 2 -0.026989 0.081557 -0.035360 -0.005803 0.021233 -0.034709
# 3 0.009508 -0.035360 0.027196 0.001793 -0.006347 0.012563
# 4 0.003600 -0.005803 0.001793 0.021173 -0.004870 0.001170
# 5 -0.010820 0.021233 -0.006347 -0.004870 0.028933 -0.012486
# 6 0.002913 -0.034709 0.012563 0.001170 -0.012486 0.054940
#
#
# Mechanical properties :
#
#
# Convention : Reuss Voigt Hill
#
# Bulk Modulus (GPa) = 38.47615 52.00370 45.23992
# Shear Modulus (GPa) = 14.24241 34.49107 24.36674
#
# Velocity S-wave (km/s) = 2.42989 3.78136 3.17829
# Velocity P-wave (km/s) = 4.88090 6.37366 5.67656
#
# Compressibility (1/GPa) = 0.02599013
#
# Stress axis : x y z
#
# Youngs Moduli (GPa) = 43.63063 12.26141 36.77003
#
# Poissons Ratio (x) = 0.33093 -0.34962
# Poissons Ratio (y) = 1.17756 1.30020
# Poissons Ratio (z) = -0.41486 0.43357
#
# Static dielectric constant tensor:
#      x y z
#    x 1.900640 -0.030150 -0.143320 
#    y -0.030150 1.993830 -0.093840 
#    z -0.143320 -0.093840 1.878920 
# 
# From -- ./inp_files/102919.got.cif
#   From: 2010.05.17/outbox.cif.g08.bks.cpg/sg2_52_cif.got.tgz:102919.got - 2010.06.03 11:33:40.
