data_PCOD9019201
_publ_section_title
;
Structure prediction by ZEFSAII (Michael W. Deem and Ramdas Pophale) SiO2 
 PCOD9019201
Probable space group: P -1
;
_chemical_formula_sum "Si O2"
_cell_formula_units_Z 10
_cell_length_a 15.663072
_cell_length_b 5.262587
_cell_length_c 16.036484
_cell_angle_alpha 61.778354
_cell_angle_beta 161.898746
_cell_angle_gamma 117.763206
_cell_volume 361.231339
_symmetry_space_group_name_H-M "P -1"
_symmetry_group_IT_number 2
_symmetry_cell_setting 'triclinic'
loop_
_space_group_symop_operation_xyz
x,y,z
-x,-y,-z
loop_
_atom_site_type_symbol
_atom_site_label
_atom_site_fract_x
_atom_site_fract_y
_atom_site_fract_z
Si Si1 0.449682 0.438253 0.605880
Si Si2 0.098651 0.353835 0.894384
Si Si3 0.770859 0.139034 0.321511
Si Si4 0.187961 0.222872 0.231906
Si Si5 0.207067 0.217776 0.833176
O O1 0.329468 0.226210 0.454960
O O2 0.563543 0.709038 0.612144
O O3 0.193924 0.515560 0.412810
O O4 0.710980 0.417051 0.911638
O O5 0.237957 0.262913 0.952812
O O6 0.011240 0.064551 0.910331
O O7 0.769558 0.465668 0.236607
O O8 0.901061 0.112339 0.538462
O O9 0.449939 0.041756 0.045070
O O10 0.000000 0.000000 0.500000
O O11 0.000000 0.500000 0.000000
#
# Coordination Sequence:
#
# PCOD9019201 Si02
#       5
#     2   2   2   2   2
#     4  11  25  42  65  91 131 181 214 269 331 378
#     4  12  25  42  66  96 134 170 217 279 323 380
#     4  10  21  44  69  92 132 171 208 271 339 397
#     4  11  25  43  64  94 131 176 229 262 319 397
#     4  10  23  42  65 100 129 166 223 268 327 406
#
# _framework density 27.68309
#
# number of rings (size 3 to 8) (size 9 to 14) (size 15 to 20)
#    0.000    1.200    2.000    3.000    5.600    1.600 
#    3.600    0.000    0.000    0.000    0.000    0.000 
#    0.000    0.000    0.000    0.000    0.000    0.000 
#
# Total GULP energy -55971.371151 kJ/mol
# GULP energy per Si atom -5597.137115 kJ/mol
# Density = 2.762008 g / cm^3
# Si number density = 27.683090 Si / 1000 Ang^3
#
#
#
# Elastic Constant Matrix: (Units=GPa)
#
#
# Indices 1 2 3 4 5 6 
#
# 1 134.3532 7.3217 39.0744 -7.1170 1.7588 -9.0442
# 2 7.3217 98.7106 23.7025 -0.6542 3.7261 23.1506
# 3 39.0744 23.7025 181.3990 13.2328 20.3950 -15.3547
# 4 -7.1170 -0.6542 13.2328 34.1952 -22.4638 -5.4885
# 5 1.7588 3.7261 20.3950 -22.4638 43.2560 -6.9362
# 6 -9.0442 23.1506 -15.3547 -5.4885 -6.9362 47.7703
#
#
#
# Elastic Compliance Matrix: (Units=1/GPa)
#
#
# Indices 1 2 3 4 5 6 
#
# 1 0.008646 -0.000771 -0.002491 0.006091 0.004463 0.002558
# 2 -0.000771 0.012366 -0.001624 -0.002134 -0.002543 -0.007275
# 3 -0.002491 -0.001624 0.007823 -0.008579 -0.007788 0.000713
# 4 0.006091 -0.002134 -0.008579 0.059976 0.037003 0.011693
# 5 0.004463 -0.002543 -0.007788 0.037003 0.047770 0.010761
# 6 0.002558 -0.007275 0.000713 0.011693 0.010761 0.028079
#
#
# Mechanical properties :
#
#
# Convention : Reuss Voigt Hill
#
# Bulk Modulus (GPa) = 52.45845 61.62888 57.04367
# Shear Modulus (GPa) = 27.65696 48.00192 37.82944
#
# Velocity S-wave (km/s) = 3.16421 4.16863 3.70065
# Velocity P-wave (km/s) = 5.68687 6.74393 6.23783
#
# Compressibility (1/GPa) = 0.01906271
#
# Stress axis : x y z
#
# Youngs Moduli (GPa) = 115.65983 80.86794 127.82157
#
# Poissons Ratio (x) = 0.06235 0.31844
# Poissons Ratio (y) = 0.08918 0.20758
# Poissons Ratio (z) = 0.28814 0.13133
#
# Static dielectric constant tensor:
#      x y z
#    x 2.206650 -0.049280 -0.039670 
#    y -0.049280 2.171690 -0.009230 
#    z -0.039670 -0.009230 2.124910 
# 
# From -- ./inp_files/4103.got.cif
#   From: 2010.05.17/outbox.cif.g08.bks.cpg/sg2_3_cif.got.tgz:4103.got - 2010.06.03 11:33:40.
