data_PCOD9019905
_publ_section_title
;
Structure prediction by ZEFSAII (Michael W. Deem and Ramdas Pophale) SiO2 
 PCOD9019905
Probable space group: P -1
;
_chemical_formula_sum "Si O2"
_cell_formula_units_Z 16
_cell_length_a 14.994380
_cell_length_b 8.285597
_cell_length_c 19.595265
_cell_angle_alpha 51.375347
_cell_angle_beta 158.507584
_cell_angle_gamma 120.681287
_cell_volume 675.327769
_symmetry_space_group_name_H-M "P -1"
_symmetry_group_IT_number 2
_symmetry_cell_setting 'triclinic'
loop_
_space_group_symop_operation_xyz
x,y,z
-x,-y,-z
loop_
_atom_site_type_symbol
_atom_site_label
_atom_site_fract_x
_atom_site_fract_y
_atom_site_fract_z
Si Si1 0.460648 0.097852 0.872184
Si Si2 0.847121 0.362435 0.034535
Si Si3 0.604649 0.877213 0.538689
Si Si4 0.538818 0.468158 0.659707
Si Si5 0.393261 0.250706 0.052431
Si Si6 0.993382 0.620468 0.710396
Si Si7 0.942584 0.097733 0.508255
Si Si8 0.247815 0.979892 0.137554
O O1 0.539643 0.904134 0.924550
O O2 0.166408 0.214285 0.638954
O O3 0.633502 0.252770 0.937305
O O4 0.500000 0.000000 0.000000
O O5 0.948843 0.456290 0.149629
O O6 0.093763 0.188479 0.230499
O O7 0.704164 0.506487 0.832737
O O8 0.520054 0.657336 0.543580
O O9 0.473906 0.990262 0.347847
O O10 0.500000 0.000000 0.500000
O O11 0.690801 0.250974 0.792071
O O12 0.263633 0.427950 0.487151
O O13 0.245694 0.136897 0.031242
O O14 0.222610 0.489694 0.861831
O O15 0.665606 0.242607 0.280151
O O16 0.969007 0.875623 0.627346
O O17 0.000000 0.000000 0.500000
O O18 0.000000 0.000000 0.000000
#
# Coordination Sequence:
#
# PCOD9019905 Si02
#       8
#     2   2   2   2   2   2   2   2
#     4  11  23  45  74 100 144 189 239 317 362 421
#     4  12  25  47  71 104 148 189 247 304 367 436
#     4  12  28  44  72 108 148 197 249 299 369 450
#     4  12  25  48  71 107 152 194 241 308 366 441
#     4  11  25  45  76 105 144 197 244 298 376 447
#     4  12  25  46  74 108 145 192 243 303 372 439
#     4  10  21  45  71  99 140 187 243 303 364 423
#     4  12  24  44  73 105 151 195 244 297 373 443
#
# _framework density 23.692201000000001
#
# number of rings (size 3 to 8) (size 9 to 14) (size 15 to 20)
#    0.000    0.500    5.000    3.000    5.250    2.000 
#    2.250    0.625    0.000    0.000    0.000    0.000 
#    0.000    0.000    0.000    0.000    0.000    0.000 
#
# Total GULP energy -89424.477528 kJ/mol
# GULP energy per Si atom -5589.029845 kJ/mol
# Density = 2.363828 g / cm^3
# Si number density = 23.692201 Si / 1000 Ang^3
#
#
#
# Elastic Constant Matrix: (Units=GPa)
#
#
# Indices 1 2 3 4 5 6 
#
# 1 104.2880 11.7199 32.4193 4.3479 4.2496 -7.3825
# 2 11.7199 46.0176 25.1230 -5.5167 13.2268 2.6878
# 3 32.4193 25.1230 152.6544 11.7994 32.9736 1.8054
# 4 4.3479 -5.5167 11.7994 37.3269 -3.6915 8.2838
# 5 4.2496 13.2268 32.9736 -3.6915 52.0083 14.0586
# 6 -7.3825 2.6878 1.8054 8.2838 14.0586 35.8503
#
#
#
# Elastic Compliance Matrix: (Units=1/GPa)
#
#
# Indices 1 2 3 4 5 6 
#
# 1 0.010656 -0.002059 -0.001817 -0.001610 -0.000078 0.002843
# 2 -0.002059 0.025862 -0.003509 0.005331 -0.003224 -0.002154
# 3 -0.001817 -0.003509 0.009055 -0.004332 -0.005733 0.002682
# 4 -0.001610 0.005331 -0.004332 0.032134 0.006654 -0.010548
# 5 -0.000078 -0.003224 -0.005733 0.006654 0.027335 -0.011743
# 6 0.002843 -0.002154 0.002682 -0.010548 -0.011743 0.035548
#
#
# Mechanical properties :
#
#
# Convention : Reuss Voigt Hill
#
# Bulk Modulus (GPa) = 32.46236 49.05382 40.75809
# Shear Modulus (GPa) = 30.18801 40.61695 35.40248
#
# Velocity S-wave (km/s) = 3.57343 4.14497 3.86977
# Velocity P-wave (km/s) = 5.54593 6.60737 6.09978
#
# Compressibility (1/GPa) = 0.03080490
#
# Stress axis : x y z
#
# Youngs Moduli (GPa) = 93.83961 38.66608 110.43072
#
# Poissons Ratio (x) = 0.07961 0.20061
# Poissons Ratio (y) = 0.19320 0.38753
# Poissons Ratio (z) = 0.17047 0.13569
#
# Static dielectric constant tensor:
#      x y z
#    x 2.465290 0.113150 -0.383650 
#    y 0.113150 1.850800 -0.190170 
#    z -0.383650 -0.190170 2.047800 
# 
# From -- ./inp_files/356512.got.cif
#   From: 2010.05.17/outbox.cif.g08.bks.cpg/sg2_179_cif.got.tgz:356512.got - 2010.06.03 11:33:40.
