data_PCOD9019843
_publ_section_title
;
Structure prediction by ZEFSAII (Michael W. Deem and Ramdas Pophale) SiO2 
 PCOD9019843
Probable space group: P -1
;
_chemical_formula_sum "Si O2"
_cell_formula_units_Z 14
_cell_length_a 5.310622
_cell_length_b 20.340420
_cell_length_c 11.818340
_cell_angle_alpha 148.694416
_cell_angle_beta 61.947270
_cell_angle_gamma 117.495715
_cell_volume 580.392626
_symmetry_space_group_name_H-M "P -1"
_symmetry_group_IT_number 2
_symmetry_cell_setting 'triclinic'
loop_
_space_group_symop_operation_xyz
x,y,z
-x,-y,-z
loop_
_atom_site_type_symbol
_atom_site_label
_atom_site_fract_x
_atom_site_fract_y
_atom_site_fract_z
Si Si1 0.346906 0.645697 0.067889
Si Si2 0.867643 0.468349 0.289617
Si Si3 0.932414 0.772826 0.049908
Si Si4 0.289318 0.276585 0.346815
Si Si5 0.480496 0.606747 0.298344
Si Si6 0.455026 0.101709 0.864859
Si Si7 0.749018 0.193106 0.491927
O O1 0.665823 0.725291 0.117850
O O2 0.150099 0.733613 0.305250
O O3 0.296259 0.610433 0.894795
O O4 0.332233 0.507653 0.927265
O O5 0.733231 0.596537 0.538413
O O6 0.160420 0.532082 0.262595
O O7 0.944641 0.361693 0.204494
O O8 0.777156 0.843948 0.088739
O O9 0.204650 0.860576 0.176829
O O10 0.463912 0.333380 0.501688
O O11 0.992625 0.210670 0.369379
O O12 0.420780 0.171022 0.093488
O O13 0.484530 0.721153 0.379495
O O14 0.370109 0.951392 0.672415
#
# Coordination Sequence:
#
# PCOD9019843 Si02
#       7
#     2   2   2   2   2   2   2
#     4  10  21  45  70 101 134 170 231 281 337 393
#     4   9  20  44  69 100 132 173 225 285 334 385
#     4  11  25  47  68 100 135 182 224 275 332 398
#     4  10  24  43  68 101 133 176 228 277 338 393
#     4   9  21  40  68 102 130 175 223 283 340 385
#     4  12  28  45  68  99 141 182 224 267 333 411
#     4  11  25  42  68  99 136 183 217 284 331 403
#
# _framework density 24.121604000000001
#
# number of rings (size 3 to 8) (size 9 to 14) (size 15 to 20)
#    0.000    1.714    1.429    0.857    6.000   10.286 
#    0.000    0.000    0.000    0.000    0.000    0.000 
#    0.000    0.000    0.000    0.000    0.000    0.000 
#
# Total GULP energy -78200.640946 kJ/mol
# GULP energy per Si atom -5585.760068 kJ/mol
# Density = 2.406670 g / cm^3
# Si number density = 24.121604 Si / 1000 Ang^3
#
#
#
# Elastic Constant Matrix: (Units=GPa)
#
#
# Indices 1 2 3 4 5 6 
#
# 1 106.8185 54.0595 32.4003 22.1300 0.4856 5.3510
# 2 54.0595 107.2940 64.0980 47.6367 -1.3841 -11.9902
# 3 32.4003 64.0980 136.9754 35.3496 1.2101 -11.9329
# 4 22.1300 47.6367 35.3496 49.1396 -1.0971 -2.9296
# 5 0.4856 -1.3841 1.2101 -1.0971 15.7127 0.0769
# 6 5.3510 -11.9902 -11.9329 -2.9296 0.0769 29.3420
#
#
#
# Elastic Compliance Matrix: (Units=1/GPa)
#
#
# Indices 1 2 3 4 5 6 
#
# 1 0.013424 -0.007833 -0.000370 0.001456 -0.000947 -0.005651
# 2 -0.007833 0.023953 -0.004593 -0.015892 0.001558 0.007758
# 3 -0.000370 -0.004593 0.010464 -0.002811 -0.001406 0.002169
# 4 0.001456 -0.015892 -0.002811 0.036901 0.001369 -0.004222
# 5 -0.000947 0.001558 -0.001406 0.001369 0.064012 0.000207
# 6 -0.005651 0.007758 0.002169 -0.004222 0.000207 0.038742
#
#
# Mechanical properties :
#
#
# Convention : Reuss Voigt Hill
#
# Bulk Modulus (GPa) = 44.94228 72.46706 58.70467
# Shear Modulus (GPa) = 22.67543 32.20754 27.44148
#
# Velocity S-wave (km/s) = 3.06934 3.65802 3.37654
# Velocity P-wave (km/s) = 5.58866 6.92453 6.29215
#
# Compressibility (1/GPa) = 0.02225076
#
# Stress axis : x y z
#
# Youngs Moduli (GPa) = 74.49560 41.74809 95.56573
#
# Poissons Ratio (x) = 0.32700 0.03531
# Poissons Ratio (y) = 0.58350 0.43892
# Poissons Ratio (z) = 0.02753 0.19174
#
# Static dielectric constant tensor:
#      x y z
#    x 2.036960 -0.017720 -0.041540 
#    y -0.017720 1.951890 -0.044080 
#    z -0.041540 -0.044080 1.911190 
# 
# From -- ./inp_files/67056.got.cif
#   From: 2010.05.17/outbox.cif.g08.bks.cpg/sg2_34_cif.got.tgz:67056.got - 2010.06.03 11:33:40.
