data_PCOD9019260
_publ_section_title
;
Structure prediction by ZEFSAII (Michael W. Deem and Ramdas Pophale) SiO2 
 PCOD9019260
Probable space group: P -1
;
_chemical_formula_sum "Si O2"
_cell_formula_units_Z 12
_cell_length_a 11.148198
_cell_length_b 9.179047
_cell_length_c 9.950498
_cell_angle_alpha 44.481558
_cell_angle_beta 54.761683
_cell_angle_gamma 83.434904
_cell_volume 497.901996
_symmetry_space_group_name_H-M "P -1"
_symmetry_group_IT_number 2
_symmetry_cell_setting 'triclinic'
loop_
_space_group_symop_operation_xyz
x,y,z
-x,-y,-z
loop_
_atom_site_type_symbol
_atom_site_label
_atom_site_fract_x
_atom_site_fract_y
_atom_site_fract_z
Si Si1 0.458135 0.733663 0.748939
Si Si2 0.582715 0.781828 0.222699
Si Si3 0.482495 0.148609 0.063687
Si Si4 0.868171 0.487483 0.486829
Si Si5 0.221660 0.112705 0.716517
Si Si6 0.081531 0.584206 0.037886
O O1 0.590501 0.702300 0.593534
O O2 0.252695 0.570217 0.965107
O O3 0.500000 0.000000 0.500000
O O4 0.514463 0.752902 0.855205
O O5 0.500000 0.500000 0.500000
O O6 0.623735 0.832969 0.003833
O O7 0.737330 0.924953 0.132982
O O8 0.454849 0.879839 0.274798
O O9 0.677457 0.298720 0.783403
O O10 0.876425 0.743679 0.308693
O O11 0.000000 0.500000 0.500000
O O12 0.931994 0.437715 0.339068
O O13 0.141246 0.866370 0.844875
O O14 0.000000 0.500000 0.000000
#
# Coordination Sequence:
#
# PCOD9019260 Si02
#       6
#     2   2   2   2   2   2
#     4  10  21  44  70 102 146 183 245 300 358 422
#     4  11  22  41  69 110 138 187 240 299 359 430
#     4  11  23  40  71 107 143 184 239 305 357 432
#     4  12  24  46  70 102 149 191 244 300 362 432
#     4  11  24  46  73 105 146 193 246 296 363 433
#     4  11  25  44  72 102 148 194 234 297 371 429
#
# _framework density 24.101130000000001
#
# number of rings (size 3 to 8) (size 9 to 14) (size 15 to 20)
#    0.000    1.000    6.667    0.500    2.333    2.000 
#    0.000    0.833    0.000    0.000    0.000    0.000 
#    0.000    0.000    0.000    0.000    0.000    0.000 
#
# Total GULP energy -67112.713269 kJ/mol
# GULP energy per Si atom -5592.726106 kJ/mol
# Density = 2.404627 g / cm^3
# Si number density = 24.101130 Si / 1000 Ang^3
#
#
#
# Elastic Constant Matrix: (Units=GPa)
#
#
# Indices 1 2 3 4 5 6 
#
# 1 165.7513 82.5912 43.2553 25.6590 25.7531 25.6957
# 2 82.5912 124.9678 36.5932 19.2901 17.1137 30.5373
# 3 43.2553 36.5932 99.0625 19.9026 4.8074 8.1483
# 4 25.6590 19.2901 19.9026 58.4415 -2.2868 10.7048
# 5 25.7531 17.1137 4.8074 -2.2868 56.5142 12.1362
# 6 25.6957 30.5373 8.1483 10.7048 12.1362 54.7756
#
#
#
# Elastic Compliance Matrix: (Units=1/GPa)
#
#
# Indices 1 2 3 4 5 6 
#
# 1 0.009928 -0.005220 -0.001825 -0.002038 -0.002771 -0.000464
# 2 -0.005220 0.013324 -0.002133 -0.000591 -0.000548 -0.004425
# 3 -0.001825 -0.002133 0.012166 -0.002766 0.000172 0.000738
# 4 -0.002038 -0.000591 -0.002766 0.019758 0.002737 -0.002771
# 5 -0.002771 -0.000548 0.000172 0.002737 0.019944 -0.003374
# 6 -0.000464 -0.004425 0.000738 -0.002771 -0.003374 0.022120
#
#
# Mechanical properties :
#
#
# Convention : Reuss Voigt Hill
#
# Bulk Modulus (GPa) = 58.60815 79.40678 69.00746
# Shear Modulus (GPa) = 41.22544 49.10238 45.16391
#
# Velocity S-wave (km/s) = 4.14033 4.51860 4.33359
# Velocity P-wave (km/s) = 6.87218 7.76160 7.33039
#
# Compressibility (1/GPa) = 0.01706247
#
# Stress axis : x y z
#
# Youngs Moduli (GPa) = 100.72241 75.05162 82.19465
#
# Poissons Ratio (x) = 0.39176 0.14999
# Poissons Ratio (y) = 0.52575 0.17535
# Poissons Ratio (z) = 0.18380 0.16012
#
# Static dielectric constant tensor:
#      x y z
#    x 1.940320 0.013410 -0.003780 
#    y 0.013410 2.011030 -0.067560 
#    z -0.003780 -0.067560 2.040160 
# 
# From -- ./inp_files/236503.got.cif
#   From: 2010.05.17/outbox.cif.g08.bks.cpg/sg2_119_cif.got.tgz:236503.got - 2010.06.03 11:33:40.
