data_PCOD9019655
_publ_section_title
;
Structure prediction by ZEFSAII (Michael W. Deem and Ramdas Pophale) SiO2 
 PCOD9019655
Probable space group: P -1
;
_chemical_formula_sum "Si O2"
_cell_formula_units_Z 15
_cell_length_a 12.063390
_cell_length_b 20.530714
_cell_length_c 5.114747
_cell_angle_alpha 68.522871
_cell_angle_beta 78.679387
_cell_angle_gamma 29.719183
_cell_volume 563.702458
_symmetry_space_group_name_H-M "P -1"
_symmetry_group_IT_number 2
_symmetry_cell_setting 'triclinic'
loop_
_space_group_symop_operation_xyz
x,y,z
-x,-y,-z
loop_
_atom_site_type_symbol
_atom_site_label
_atom_site_fract_x
_atom_site_fract_y
_atom_site_fract_z
Si Si1 0.877045 0.617674 0.092022
Si Si2 0.274716 0.471437 0.421885
Si Si3 0.227840 0.099234 0.729227
Si Si4 0.582799 0.145402 0.749010
Si Si5 0.730970 0.369032 0.754595
Si Si6 0.000000 0.000000 0.000000
Si Si7 0.407601 0.139433 0.480552
Si Si8 0.579288 0.303977 0.045241
O O1 0.796001 0.733201 0.817380
O O2 0.638587 0.716064 0.175946
O O3 0.000000 0.500000 0.000000
O O4 0.046117 0.550744 0.346639
O O5 0.232775 0.575727 0.209222
O O6 0.379791 0.417414 0.745271
O O7 0.466170 0.342143 0.313594
O O8 0.297308 0.140278 0.717443
O O9 0.954599 0.236752 0.663061
O O10 0.354844 0.020681 0.509036
O O11 0.336561 0.976876 0.019695
O O12 0.810549 0.066668 0.792404
O O13 0.476109 0.180736 0.472226
O O14 0.500000 0.500000 0.500000
O O15 0.692192 0.320208 0.012443
O O16 0.781333 0.146877 0.067141
#
# Coordination Sequence:
#
# PCOD9019655 Si02
#       8
#     2   2   2   2   2   1   2   2
#     4  11  26  45  69 105 141 189 246 306 370 444
#     4  11  26  46  75 104 150 186 253 303 372 427
#     4  10  21  45  65 108 137 177 246 298 368 434
#     4  11  24  45  68 102 140 192 238 305 366 438
#     4  10  22  42  70 101 145 187 241 300 364 431
#     4  12  26  48  72 102 150 196 248 290 376 454
#     4  10  24  41  74 100 138 188 237 306 371 432
#     4  11  26  48  71 111 142 203 238 308 365 449
#
# _framework density 26.609784000000001
#
# number of rings (size 3 to 8) (size 9 to 14) (size 15 to 20)
#    0.000    1.333    1.333    2.400    7.467    5.333 
#    0.000    0.000    0.000    0.000    0.000    0.000 
#    0.000    0.000    0.000    0.000    0.000    0.000 
#
# Total GULP energy -83728.426232 kJ/mol
# GULP energy per Si atom -5581.895082 kJ/mol
# Density = 2.654922 g / cm^3
# Si number density = 26.609784 Si / 1000 Ang^3
#
#
#
# Elastic Constant Matrix: (Units=GPa)
#
#
# Indices 1 2 3 4 5 6 
#
# 1 132.1205 31.1238 29.1788 -12.7227 30.6281 -19.7392
# 2 31.1238 170.4352 21.6690 -10.1236 14.8716 -22.3844
# 3 29.1788 21.6690 86.1094 -10.6006 18.2867 -18.3447
# 4 -12.7227 -10.1236 -10.6006 38.8655 0.5891 5.9219
# 5 30.6281 14.8716 18.2867 0.5891 38.3575 -6.7145
# 6 -19.7392 -22.3844 -18.3447 5.9219 -6.7145 57.5547
#
#
#
# Elastic Compliance Matrix: (Units=1/GPa)
#
#
# Indices 1 2 3 4 5 6 
#
# 1 0.010121 -0.000710 -0.001051 0.002680 -0.007038 0.001763
# 2 -0.000710 0.006493 -0.000585 0.001041 -0.001367 0.001829
# 3 -0.001051 -0.000585 0.014245 0.003007 -0.005241 0.003032
# 4 0.002680 0.001041 0.003007 0.027940 -0.004604 -0.001130
# 5 -0.007038 -0.001367 -0.005241 -0.004604 0.034775 -0.000086
# 6 0.001763 0.001829 0.003032 -0.001130 -0.000086 0.019763
#
#
# Mechanical properties :
#
#
# Convention : Reuss Voigt Hill
#
# Bulk Modulus (GPa) = 38.21499 61.40092 49.80796
# Shear Modulus (GPa) = 39.44722 47.40179 43.42450
#
# Velocity S-wave (km/s) = 3.85441 4.22520 4.04406
# Velocity P-wave (km/s) = 5.84817 6.85039 6.36902
#
# Compressibility (1/GPa) = 0.02616774
#
# Stress axis : x y z
#
# Youngs Moduli (GPa) = 98.80280 154.01973 70.19770
#
# Poissons Ratio (x) = 0.10932 0.07377
# Poissons Ratio (y) = 0.07013 0.04108
# Poissons Ratio (z) = 0.10382 0.09013
#
# Static dielectric constant tensor:
#      x y z
#    x 2.177880 0.137040 0.021850 
#    y 0.137040 2.077720 0.078310 
#    z 0.021850 0.078310 2.471320 
# 
# From -- ./inp_files/80566.got.cif
#   From: 2010.05.17/outbox.cif.g08.bks.cpg/sg2_41_cif.got.tgz:80566.got - 2010.06.03 11:33:40.
