data_PCOD9019174
_publ_section_title
;
Structure prediction by ZEFSAII (Michael W. Deem and Ramdas Pophale) SiO2 
 PCOD9019174
Probable space group: P -1
;
_chemical_formula_sum "Si O2"
_cell_formula_units_Z 14
_cell_length_a 20.912196
_cell_length_b 12.395517
_cell_length_c 5.609095
_cell_angle_alpha 55.083952
_cell_angle_beta 116.093220
_cell_angle_gamma 150.594792
_cell_volume 579.095776
_symmetry_space_group_name_H-M "P -1"
_symmetry_group_IT_number 2
_symmetry_cell_setting 'triclinic'
loop_
_space_group_symop_operation_xyz
x,y,z
-x,-y,-z
loop_
_atom_site_type_symbol
_atom_site_label
_atom_site_fract_x
_atom_site_fract_y
_atom_site_fract_z
Si Si1 0.502423 0.899808 0.421472
Si Si2 0.029984 0.621210 0.645702
Si Si3 0.795017 0.722365 0.928831
Si Si4 0.937731 0.752973 0.476342
Si Si5 0.278931 0.636299 0.026403
Si Si6 0.306697 0.176778 0.505651
Si Si7 0.555564 0.480494 0.295497
O O1 0.390211 0.788093 0.212476
O O2 0.451517 0.672781 0.640784
O O3 0.500000 0.000000 0.500000
O O4 0.656930 0.142157 0.288158
O O5 0.000000 0.500000 0.500000
O O6 0.952310 0.641133 0.489124
O O7 0.182245 0.895484 0.591672
O O8 0.000000 0.500000 0.000000
O O9 0.714700 0.484807 0.967550
O O10 0.714630 0.730484 0.820700
O O11 0.853598 0.738101 0.233345
O O12 0.916583 0.958027 0.658443
O O13 0.864595 0.590671 0.801047
O O14 0.438574 0.297456 0.536154
O O15 0.320198 0.268362 0.671929
O O16 0.500000 0.500000 0.000000
#
# Coordination Sequence:
#
# PCOD9019174 Si02
#       7
#     2   2   2   2   2   2   2
#     4  11  26  43  66 103 143 192 243 311 375 444
#     4  11  28  50  76 112 157 197 253 316 396 467
#     4  10  21  44  69 102 138 181 249 300 380 444
#     4  10  24  42  73 103 137 194 239 305 375 454
#     4  11  23  41  69  96 143 178 243 303 367 438
#     4  10  25  47  72 104 143 199 253 317 379 465
#     4  11  26  45  75 101 146 202 258 312 388 458
#
# _framework density 24.175622000000001
#
# number of rings (size 3 to 8) (size 9 to 14) (size 15 to 20)
#    0.000    1.429    1.429    1.286   10.000    2.286 
#    5.143    0.000    0.000    0.000    0.000    0.000 
#    0.000    0.000    0.000    0.000    0.000    0.000 
#
# Total GULP energy -78086.384900 kJ/mol
# GULP energy per Si atom -5577.598921 kJ/mol
# Density = 2.412060 g / cm^3
# Si number density = 24.175622 Si / 1000 Ang^3
#
#
#
# Elastic Constant Matrix: (Units=GPa)
#
#
# Indices 1 2 3 4 5 6 
#
# 1 103.5636 39.1966 16.1461 0.9303 3.0354 -22.2845
# 2 39.1966 158.1582 48.6138 -7.6102 -6.8433 -36.8973
# 3 16.1461 48.6138 89.4689 -13.8731 -4.9727 -14.2697
# 4 0.9303 -7.6102 -13.8731 43.2442 12.4435 -0.9569
# 5 3.0354 -6.8433 -4.9727 12.4435 26.0517 -3.7483
# 6 -22.2845 -36.8973 -14.2697 -0.9569 -3.7483 51.6285
#
#
#
# Elastic Compliance Matrix: (Units=1/GPa)
#
#
# Indices 1 2 3 4 5 6 
#
# 1 0.011205 -0.001921 -0.000591 -0.000321 -0.001309 0.003199
# 2 -0.001921 0.009205 -0.003755 -0.000222 0.002737 0.004906
# 3 -0.000591 -0.003755 0.014094 0.003876 0.000070 0.001034
# 4 -0.000321 -0.000222 0.003876 0.027965 -0.012584 0.000378
# 5 -0.001309 0.002737 0.000070 -0.012584 0.045930 0.004512
# 6 0.003199 0.004906 0.001034 0.000378 0.004512 0.024877
#
#
# Mechanical properties :
#
#
# Convention : Reuss Voigt Hill
#
# Bulk Modulus (GPa) = 45.51526 62.12263 53.81894
# Shear Modulus (GPa) = 32.65137 40.66715 36.65926
#
# Velocity S-wave (km/s) = 3.67903 4.10586 3.89829
# Velocity P-wave (km/s) = 6.07575 6.94475 6.52474
#
# Compressibility (1/GPa) = 0.02197066
#
# Stress axis : x y z
#
# Youngs Moduli (GPa) = 89.24824 108.63120 70.95345
#
# Poissons Ratio (x) = 0.20870 0.04190
# Poissons Ratio (y) = 0.17146 0.26643
# Poissons Ratio (z) = 0.05270 0.40791
#
# Static dielectric constant tensor:
#      x y z
#    x 2.030000 0.041350 -0.134780 
#    y 0.041350 1.853280 -0.047580 
#    z -0.134780 -0.047580 2.131820 
# 
# From -- ./inp_files/118548.got.cif
#   From: 2010.05.17/outbox.cif.g08.bks.cpg/sg2_60_cif.got.tgz:118548.got - 2010.06.03 11:33:40.
