data_PCOD9019393
_publ_section_title
;
Structure prediction by ZEFSAII (Michael W. Deem and Ramdas Pophale) SiO2 
 PCOD9019393
Probable space group: P -1
;
_chemical_formula_sum "Si O2"
_cell_formula_units_Z 16
_cell_length_a 11.046776
_cell_length_b 18.581122
_cell_length_c 5.128605
_cell_angle_alpha 74.847267
_cell_angle_beta 61.109647
_cell_angle_gamma 46.245763
_cell_volume 661.332899
_symmetry_space_group_name_H-M "P -1"
_symmetry_group_IT_number 2
_symmetry_cell_setting 'triclinic'
loop_
_space_group_symop_operation_xyz
x,y,z
-x,-y,-z
loop_
_atom_site_type_symbol
_atom_site_label
_atom_site_fract_x
_atom_site_fract_y
_atom_site_fract_z
Si Si1 0.793555 0.433510 0.092564
Si Si2 0.316739 0.440977 0.397380
Si Si3 0.968244 0.800357 0.361570
Si Si4 0.292934 0.206513 0.103270
Si Si5 0.790925 0.682121 0.411334
Si Si6 0.953114 0.930612 0.640890
Si Si7 0.269912 0.710020 0.765141
Si Si8 0.651661 0.943856 0.165910
O O1 0.780351 0.485539 0.322423
O O2 0.736887 0.369457 0.277970
O O3 0.665851 0.512694 0.917776
O O4 0.996898 0.367532 0.807771
O O5 0.209493 0.405364 0.458902
O O6 0.520056 0.341954 0.375031
O O7 0.908639 0.759066 0.666826
O O8 0.924743 0.897365 0.430614
O O9 0.828569 0.840030 0.226421
O O10 0.178012 0.725705 0.126554
O O11 0.323765 0.236271 0.315715
O O12 0.302500 0.263574 0.816429
O O13 0.396293 0.095703 0.986895
O O14 0.128527 0.821963 0.685260
O O15 0.758557 0.981590 0.940929
O O16 0.000000 0.000000 0.500000
O O17 0.500000 0.000000 0.500000
#
# Coordination Sequence:
#
# PCOD9019393 Si02
#       8
#     2   2   2   2   2   2   2   2
#     4  12  24  45  73 102 145 196 246 297 367 439
#     4  12  28  43  67 115 144 187 246 310 364 426
#     4  10  21  44  71  96 138 193 241 285 365 442
#     4  11  21  43  71 100 137 198 235 286 368 440
#     4  12  23  45  70 102 147 185 243 299 371 431
#     4  10  24  46  73 105 146 193 243 303 383 435
#     4  11  25  45  72  99 146 193 246 293 362 451
#     4  10  22  43  69 109 140 186 250 307 361 447
#
# _framework density 24.193567000000002
#
# number of rings (size 3 to 8) (size 9 to 14) (size 15 to 20)
#    0.000    1.000    2.500    4.500    3.500    4.000 
#    6.750    0.000    0.000    0.000    0.000    0.000 
#    0.000    0.000    0.000    0.000    0.000    0.000 
#
# Total GULP energy -89392.832524 kJ/mol
# GULP energy per Si atom -5587.052033 kJ/mol
# Density = 2.413850 g / cm^3
# Si number density = 24.193567 Si / 1000 Ang^3
#
#
#
# Elastic Constant Matrix: (Units=GPa)
#
#
# Indices 1 2 3 4 5 6 
#
# 1 76.2780 37.0515 32.5214 -2.4068 -13.2866 20.6446
# 2 37.0515 116.2039 41.8806 -8.9415 -13.6757 22.7554
# 3 32.5214 41.8806 126.2006 13.3996 15.4031 22.8916
# 4 -2.4068 -8.9415 13.3996 47.0231 2.6784 -6.5174
# 5 -13.2866 -13.6757 15.4031 2.6784 45.9580 9.2704
# 6 20.6446 22.7554 22.8916 -6.5174 9.2704 38.0125
#
#
#
# Elastic Compliance Matrix: (Units=1/GPa)
#
#
# Indices 1 2 3 4 5 6 
#
# 1 0.019608 -0.002212 -0.003639 -0.000104 0.008076 -0.009121
# 2 -0.002212 0.012289 -0.003471 0.002245 0.005040 -0.004909
# 3 -0.003639 -0.003471 0.011513 -0.004149 -0.005235 -0.002313
# 4 -0.000104 0.002245 -0.004149 0.023639 -0.000432 0.005370
# 5 0.008076 0.005040 -0.005235 -0.000432 0.029707 -0.011570
# 6 -0.009121 -0.004909 -0.002313 0.005370 -0.011570 0.039335
#
#
# Mechanical properties :
#
#
# Convention : Reuss Voigt Hill
#
# Bulk Modulus (GPa) = 40.37907 60.17660 50.27783
# Shear Modulus (GPa) = 30.67660 40.01399 35.34530
#
# Velocity S-wave (km/s) = 3.56471 4.07124 3.82637
# Velocity P-wave (km/s) = 5.80251 6.85762 6.35201
#
# Compressibility (1/GPa) = 0.02476531
#
# Stress axis : x y z
#
# Youngs Moduli (GPa) = 50.99989 81.37234 86.85963
#
# Poissons Ratio (x) = 0.17999 0.31608
# Poissons Ratio (y) = 0.11281 0.30152
# Poissons Ratio (z) = 0.18559 0.28247
#
# Static dielectric constant tensor:
#      x y z
#    x 1.968640 -0.056250 0.070650 
#    y -0.056250 2.021900 -0.025120 
#    z 0.070650 -0.025120 1.933920 
# 
# From -- ./inp_files/81330.got.cif
#   From: 2010.05.17/outbox.cif.g08.bks.cpg/sg2_41_cif.got.tgz:81330.got - 2010.06.03 11:33:40.
