data_PCOD9019697
_publ_section_title
;
Structure prediction by ZEFSAII (Michael W. Deem and Ramdas Pophale) SiO2 
 PCOD9019697
Probable space group: P -1
;
_chemical_formula_sum "Si O2"
_cell_formula_units_Z 16
_cell_length_a 8.816162
_cell_length_b 9.495241
_cell_length_c 12.482035
_cell_angle_alpha 131.227745
_cell_angle_beta 114.888502
_cell_angle_gamma 59.084685
_cell_volume 668.709179
_symmetry_space_group_name_H-M "P -1"
_symmetry_group_IT_number 2
_symmetry_cell_setting 'triclinic'
loop_
_space_group_symop_operation_xyz
x,y,z
-x,-y,-z
loop_
_atom_site_type_symbol
_atom_site_label
_atom_site_fract_x
_atom_site_fract_y
_atom_site_fract_z
Si Si1 0.213303 0.775116 0.678379
Si Si2 0.918505 0.878378 0.334813
Si Si3 0.879680 0.810514 0.722288
Si Si4 0.826220 0.537711 0.253586
Si Si5 0.308703 0.759431 0.069349
Si Si6 0.295671 0.645181 0.247470
Si Si7 0.393960 0.341687 0.529774
Si Si8 0.516296 0.200900 0.060996
O O1 0.302292 0.791931 0.826806
O O2 0.010889 0.789361 0.648690
O O3 0.460983 0.787418 0.053280
O O4 0.215899 0.956145 0.697238
O O5 0.085619 0.742457 0.246002
O O6 0.843720 0.730406 0.300132
O O7 0.000000 0.000000 0.500000
O O8 0.688578 0.802280 0.627120
O O9 0.983654 0.622063 0.732221
O O10 0.847302 0.025206 0.870912
O O11 0.709812 0.606654 0.360999
O O12 0.746270 0.414983 0.087786
O O13 0.350704 0.705740 0.178667
O O14 0.400921 0.720430 0.407985
O O15 0.364070 0.405014 0.154278
O O16 0.325313 0.556874 0.558337
O O17 0.500000 0.000000 0.000000
#
# Coordination Sequence:
#
# PCOD9019697 Si02
#       8
#     2   2   2   2   2   2   2   2
#     4  10  21  45  66  98 133 183 234 289 343 425
#     4  12  26  45  69 107 145 182 238 295 350 414
#     4  11  21  41  71  99 131 186 241 284 345 424
#     4  11  24  41  74  97 142 187 237 289 352 413
#     4  12  24  43  71 103 140 180 243 281 355 419
#     4  11  26  46  68 103 146 184 236 295 353 417
#     4  10  22  46  71  94 138 191 238 287 352 423
#     4  11  26  45  70 100 145 181 233 294 358 416
#
# _framework density 23.926694000000001
#
# number of rings (size 3 to 8) (size 9 to 14) (size 15 to 20)
#    0.000    1.000    5.000    3.750    3.500    1.000 
#    2.250    1.875    0.000    0.000    0.000    0.000 
#    0.000    0.000    0.000    0.000    0.000    0.000 
#
# Total GULP energy -89588.741077 kJ/mol
# GULP energy per Si atom -5599.296317 kJ/mol
# Density = 2.387224 g / cm^3
# Si number density = 23.926694 Si / 1000 Ang^3
#
#
#
# Elastic Constant Matrix: (Units=GPa)
#
#
# Indices 1 2 3 4 5 6 
#
# 1 48.7870 31.8683 19.7055 6.3842 0.7429 16.3909
# 2 31.8683 167.8265 37.1970 11.7719 3.7823 35.6999
# 3 19.7055 37.1970 59.4194 9.7620 2.4365 4.0922
# 4 6.3842 11.7719 9.7620 29.6223 3.4911 9.3859
# 5 0.7429 3.7823 2.4365 3.4911 29.0038 6.8685
# 6 16.3909 35.6999 4.0922 9.3859 6.8685 35.9503
#
#
#
# Elastic Compliance Matrix: (Units=1/GPa)
#
#
# Indices 1 2 3 4 5 6 
#
# 1 0.028268 -0.001280 -0.007956 0.000299 0.002755 -0.011315
# 2 -0.001280 0.008908 -0.004761 0.000750 0.001105 -0.008127
# 3 -0.007956 -0.004761 0.023019 -0.006181 -0.002205 0.007770
# 4 0.000299 0.000750 -0.006181 0.038809 -0.001902 -0.009946
# 5 0.002755 0.001105 -0.002205 -0.001902 0.036719 -0.008622
# 6 -0.011315 -0.008127 0.007770 -0.009946 -0.008622 0.044405
#
#
# Mechanical properties :
#
#
# Convention : Reuss Voigt Hill
#
# Bulk Modulus (GPa) = 31.05494 50.39716 40.72605
# Shear Modulus (GPa) = 22.84609 31.39941 27.12275
#
# Velocity S-wave (km/s) = 3.09340 3.62652 3.37052
# Velocity P-wave (km/s) = 5.07604 6.21646 5.67497
#
# Compressibility (1/GPa) = 0.03220099
#
# Stress axis : x y z
#
# Youngs Moduli (GPa) = 35.37621 112.25625 43.44226
#
# Poissons Ratio (x) = 0.14374 0.34562
# Poissons Ratio (y) = 0.04530 0.20682
# Poissons Ratio (z) = 0.28144 0.53442
#
# Static dielectric constant tensor:
#      x y z
#    x 1.926050 -0.012500 0.014340 
#    y -0.012500 1.905940 -0.019340 
#    z 0.014340 -0.019340 1.919030 
# 
# From -- ./inp_files/418465.got.cif
#   From: 2010.05.17/outbox.cif.g08.bks.cpg/sg2_210_cif.got.tgz:418465.got - 2010.06.03 11:33:40.
