data_PCOD9019037
_publ_section_title
;
Structure prediction by ZEFSAII (Michael W. Deem and Ramdas Pophale) SiO2 
 PCOD9019037
Probable space group: P -1
;
_chemical_formula_sum "Si O2"
_cell_formula_units_Z 16
_cell_length_a 8.866660
_cell_length_b 8.853149
_cell_length_c 15.208977
_cell_angle_alpha 77.712451
_cell_angle_beta 74.922679
_cell_angle_gamma 128.113491
_cell_volume 789.893965
_symmetry_space_group_name_H-M "P -1"
_symmetry_group_IT_number 2
_symmetry_cell_setting 'triclinic'
loop_
_space_group_symop_operation_xyz
x,y,z
-x,-y,-z
loop_
_atom_site_type_symbol
_atom_site_label
_atom_site_fract_x
_atom_site_fract_y
_atom_site_fract_z
Si Si1 0.039947 0.518218 0.719310
Si Si2 0.527001 0.376869 0.079098
Si Si3 0.545156 0.891704 0.573954
Si Si4 0.154075 0.639966 0.043942
Si Si5 0.946190 0.103114 0.752869
Si Si6 0.730764 0.721847 0.475428
Si Si7 0.932110 0.794686 0.082262
Si Si8 0.021835 0.676690 0.523388
O O1 0.305269 0.677121 0.673496
O O2 0.935327 0.283553 0.728574
O O3 0.937008 0.486959 0.833070
O O4 0.020099 0.633245 0.632557
O O5 0.708335 0.562703 0.101719
O O6 0.500000 0.500000 0.000000
O O7 0.625198 0.296962 0.022269
O O8 0.288915 0.151063 0.178266
O O9 0.667802 0.837131 0.515246
O O10 0.500000 0.000000 0.500000
O O11 0.742833 0.093996 0.578496
O O12 0.130645 0.807996 0.038768
O O13 0.000000 0.500000 0.000000
O O14 0.093737 0.143078 0.646530
O O15 0.075701 0.173498 0.817219
O O16 0.500000 0.500000 0.500000
O O17 0.833603 0.667582 0.531758
O O18 0.000000 0.000000 0.000000
O O19 0.000000 0.500000 0.500000
#
# Coordination Sequence:
#
# PCOD9019037 Si02
#       8
#     2   2   2   2   2   2   2   2
#     4  10  21  44  68  97 134 177 222 271 349 396
#     4  11  23  43  69  98 135 173 227 284 334 404
#     4  10  22  42  69  95 133 176 221 281 330 406
#     4   9  22  42  68  96 132 169 221 275 337 403
#     4  11  23  42  71  95 139 176 225 280 343 404
#     4  12  23  44  67  97 137 178 227 277 340 400
#     4  10  21  44  67  97 134 173 223 281 339 403
#     4  11  22  42  66  99 136 172 228 281 329 412
#
# _framework density 20.255884999999999
#
# number of rings (size 3 to 8) (size 9 to 14) (size 15 to 20)
#    0.000    1.500    3.750    1.125    0.000    7.000 
#    4.500    0.000    0.000    0.000    0.000    0.000 
#    0.000    0.000    0.000    0.000    0.000    0.000 
#
# Total GULP energy -89242.781956 kJ/mol
# GULP energy per Si atom -5577.673872 kJ/mol
# Density = 2.020978 g / cm^3
# Si number density = 20.255885 Si / 1000 Ang^3
#
#
#
# Elastic Constant Matrix: (Units=GPa)
#
#
# Indices 1 2 3 4 5 6 
#
# 1 137.3275 36.4339 53.6874 -6.2364 2.3473 1.3224
# 2 36.4339 123.5328 48.4469 -19.6744 -12.2488 8.0334
# 3 53.6874 48.4469 138.3461 -6.2770 -10.5206 7.1369
# 4 -6.2364 -19.6744 -6.2770 42.3735 3.7806 -3.0624
# 5 2.3473 -12.2488 -10.5206 3.7806 39.7699 0.5048
# 6 1.3224 8.0334 7.1369 -3.0624 0.5048 32.0643
#
#
#
# Elastic Compliance Matrix: (Units=1/GPa)
#
#
# Indices 1 2 3 4 5 6 
#
# 1 0.008954 -0.001619 -0.003076 0.000335 -0.001883 0.000783
# 2 -0.001619 0.010571 -0.002634 0.003955 0.002299 -0.001654
# 3 -0.003076 -0.002634 0.009543 -0.000540 0.001964 -0.001420
# 4 0.000335 0.003955 -0.000540 0.025645 -0.001403 0.001587
# 5 -0.001883 0.002299 0.001964 -0.001403 0.026636 -0.001489
# 6 0.000783 -0.001654 -0.001420 0.001587 -0.001489 0.032060
#
#
# Mechanical properties :
#
#
# Convention : Reuss Voigt Hill
#
# Bulk Modulus (GPa) = 69.39819 75.14922 72.27371
# Shear Modulus (GPa) = 37.63102 40.21741 38.92422
#
# Velocity S-wave (km/s) = 4.31488 4.46069 4.38839
# Velocity P-wave (km/s) = 7.69151 7.98191 7.83805
#
# Compressibility (1/GPa) = 0.01440960
#
# Stress axis : x y z
#
# Youngs Moduli (GPa) = 111.68517 94.59987 104.79430
#
# Poissons Ratio (x) = 0.15311 0.32237
# Poissons Ratio (y) = 0.18076 0.27603
# Poissons Ratio (z) = 0.34356 0.24918
#
# Static dielectric constant tensor:
#      x y z
#    x 1.737130 0.019230 0.022810 
#    y 0.019230 1.698350 -0.007790 
#    z 0.022810 -0.007790 1.717640 
# 
# From -- ./inp_files/398229.got.cif
#   From: 2010.05.17/outbox.cif.g08.bks.cpg/sg2_200_cif.got.tgz:398229.got - 2010.06.03 11:33:40.
