data_PCOD9019530
_publ_section_title
;
Structure prediction by ZEFSAII (Michael W. Deem and Ramdas Pophale) SiO2 
 PCOD9019530
Probable space group: P -1
;
_chemical_formula_sum "Si O2"
_cell_formula_units_Z 13
_cell_length_a 9.427954
_cell_length_b 9.077594
_cell_length_c 16.024193
_cell_angle_alpha 48.607343
_cell_angle_beta 33.414213
_cell_angle_gamma 65.703518
_cell_volume 532.803816
_symmetry_space_group_name_H-M "P -1"
_symmetry_group_IT_number 2
_symmetry_cell_setting 'triclinic'
loop_
_space_group_symop_operation_xyz
x,y,z
-x,-y,-z
loop_
_atom_site_type_symbol
_atom_site_label
_atom_site_fract_x
_atom_site_fract_y
_atom_site_fract_z
Si Si1 0.132724 0.317884 0.752951
Si Si2 0.363014 0.279632 0.478889
Si Si3 0.000000 0.000000 0.500000
Si Si4 0.129180 0.743586 0.676387
Si Si5 0.674869 0.907743 0.113095
Si Si6 0.794365 0.623455 0.036647
Si Si7 0.951163 0.270180 0.568262
O O1 0.268369 0.362182 0.579113
O O2 0.126445 0.523652 0.723052
O O3 0.298531 0.203544 0.771320
O O4 0.826649 0.152493 0.957708
O O5 0.594747 0.187824 0.429032
O O6 0.083341 0.158691 0.614110
O O7 0.512408 0.460361 0.270536
O O8 0.137720 0.903678 0.540255
O O9 0.931784 0.774099 0.561444
O O10 0.853886 0.691407 0.886868
O O11 0.372509 0.846227 0.246960
O O12 0.849772 0.821413 0.995209
O O13 0.000000 0.500000 0.000000
O O14 0.000000 0.500000 0.500000
#
# Coordination Sequence:
#
# PCOD9019530 Si02
#       7
#     2   2   1   2   2   2   2
#     4  11  23  44  79 112 152 201 256 326 384 475
#     4  11  23  44  81 106 152 207 249 324 397 462
#     4  12  30  48  76 114 154 210 270 314 392 462
#     4  11  24  49  76 113 152 201 266 327 382 466
#     4  11  24  45  76 119 156 199 257 315 411 466
#     4  10  21  44  73 110 150 196 255 317 387 462
#     4  12  25  50  75 113 159 202 258 325 386 474
#
# _framework density 24.399227
#
# number of rings (size 3 to 8) (size 9 to 14) (size 15 to 20)
#    0.000    0.923    4.615    2.308    2.154    2.462 
#    5.538    1.538    0.000    0.000    0.000    1.077 
#    0.000    0.000    0.000    0.000    0.000    0.000 
#
# Total GULP energy -72371.237810 kJ/mol
# GULP energy per Si atom -5567.018293 kJ/mol
# Density = 2.434369 g / cm^3
# Si number density = 24.399227 Si / 1000 Ang^3
#
#
#
# Elastic Constant Matrix: (Units=GPa)
#
#
# Indices 1 2 3 4 5 6 
#
# 1 183.6781 49.2915 59.1695 -1.7304 -23.5247 -6.9416
# 2 49.2915 111.6211 49.2828 -18.4632 -4.1188 28.8504
# 3 59.1695 49.2828 83.5878 -4.5628 -21.8490 -1.3053
# 4 -1.7304 -18.4632 -4.5628 41.6904 15.8587 3.5245
# 5 -23.5247 -4.1188 -21.8490 15.8587 25.2540 -1.8250
# 6 -6.9416 28.8504 -1.3053 3.5245 -1.8250 55.0432
#
#
#
# Elastic Compliance Matrix: (Units=1/GPa)
#
#
# Indices 1 2 3 4 5 6 
#
# 1 0.008705 -0.006199 0.000467 -0.007589 0.012648 0.005263
# 2 -0.006199 0.029178 -0.021484 0.026218 -0.037478 -0.019506
# 3 0.000467 -0.021484 0.034297 -0.023048 0.042162 0.015007
# 4 -0.007589 0.026218 -0.023048 0.057484 -0.060345 -0.020927
# 5 0.012648 -0.037478 0.042162 -0.060345 0.121817 0.030141
# 6 0.005263 -0.019506 0.015007 -0.020927 0.030141 0.031750
#
#
# Mechanical properties :
#
#
# Convention : Reuss Voigt Hill
#
# Bulk Modulus (GPa) = 56.35015 77.15275 66.75145
# Shear Modulus (GPa) = 14.55271 39.14039 26.84655
#
# Velocity S-wave (km/s) = 2.44486 4.00955 3.32068
# Velocity P-wave (km/s) = 5.57808 7.28869 6.48999
#
# Compressibility (1/GPa) = 0.01774618
#
# Stress axis : x y z
#
# Youngs Moduli (GPa) = 114.87974 34.27280 29.15734
#
# Poissons Ratio (x) = 0.21247 -0.01362
# Poissons Ratio (y) = 0.71217 0.62643
# Poissons Ratio (z) = -0.05367 0.73633
#
# Static dielectric constant tensor:
#      x y z
#    x 1.918310 0.045580 -0.036600 
#    y 0.045580 1.991140 0.021230 
#    z -0.036600 0.021230 2.041450 
# 
# From -- ./inp_files/491917.got.cif
#   From: 2010.05.17/outbox.cif.g08.bks.cpg/sg2_246_cif.got.tgz:491917.got - 2010.06.03 11:33:40.
