data_PCOD9019294
_publ_section_title
;
Structure prediction by ZEFSAII (Michael W. Deem and Ramdas Pophale) SiO2 
 PCOD9019294
Probable space group: P -1
;
_chemical_formula_sum "Si O2"
_cell_formula_units_Z 16
_cell_length_a 11.760527
_cell_length_b 15.187824
_cell_length_c 8.820979
_cell_angle_alpha 91.272405
_cell_angle_beta 77.303163
_cell_angle_gamma 32.583346
_cell_volume 760.504137
_symmetry_space_group_name_H-M "P -1"
_symmetry_group_IT_number 2
_symmetry_cell_setting 'triclinic'
loop_
_space_group_symop_operation_xyz
x,y,z
-x,-y,-z
loop_
_atom_site_type_symbol
_atom_site_label
_atom_site_fract_x
_atom_site_fract_y
_atom_site_fract_z
Si Si1 0.608270 0.070931 0.897551
Si Si2 0.654510 0.624501 0.242337
Si Si3 0.025514 0.343965 0.884726
Si Si4 0.540945 0.931764 0.780409
Si Si5 0.024617 0.880857 0.964307
Si Si6 0.799153 0.655303 0.444381
Si Si7 0.515925 0.511974 0.322287
Si Si8 0.241986 0.642991 0.147459
O O1 0.500216 0.210987 0.815650
O O2 0.666158 0.941955 0.786864
O O3 0.821407 0.975558 0.921651
O O4 0.436487 0.149770 0.086858
O O5 0.674328 0.653005 0.404902
O O6 0.565712 0.582277 0.277896
O O7 0.906456 0.457229 0.076744
O O8 0.096998 0.364315 0.734081
O O9 0.827858 0.410192 0.872315
O O10 0.265369 0.136881 0.851843
O O11 0.628183 0.831116 0.596331
O O12 0.267402 0.688715 0.811109
O O13 0.043406 0.828220 0.125584
O O14 0.000000 0.000000 0.000000
O O15 0.000000 0.500000 0.500000
O O16 0.500000 0.500000 0.500000
O O17 0.276911 0.640777 0.311944
O O18 0.500000 0.500000 0.000000
#
# Coordination Sequence:
#
# PCOD9019294 Si02
#       8
#     2   2   2   2   2   2   2   2
#     4  11  24  42  75  96 143 181 232 279 348 420
#     4  12  25  46  68  98 138 185 231 280 349 416
#     4  12  23  46  74  97 139 184 231 279 350 412
#     4  11  25  46  67 108 141 180 228 287 345 409
#     4  11  23  43  72  98 127 179 233 279 340 412
#     4  12  29  42  68 105 143 181 231 283 346 408
#     4  11  26  46  67 100 137 179 231 292 344 401
#     4  10  21  44  70  95 130 179 230 275 335 412
#
# _framework density 21.038677
#
# number of rings (size 3 to 8) (size 9 to 14) (size 15 to 20)
#    0.000    0.750    5.000    2.250    8.750    1.000 
#    0.000    1.250    0.000    0.000    0.000    0.000 
#    0.000    0.000    0.000    0.000    0.000    0.000 
#
# Total GULP energy -89384.399692 kJ/mol
# GULP energy per Si atom -5586.524981 kJ/mol
# Density = 2.099079 g / cm^3
# Si number density = 21.038677 Si / 1000 Ang^3
#
#
#
# Elastic Constant Matrix: (Units=GPa)
#
#
# Indices 1 2 3 4 5 6 
#
# 1 143.5191 47.9346 47.7095 5.1529 40.6748 -1.3742
# 2 47.9346 122.8015 46.0161 -17.1499 22.6233 -7.2337
# 3 47.7095 46.0161 106.3907 -11.9109 34.3511 7.0829
# 4 5.1529 -17.1499 -11.9109 36.7655 2.1596 5.8747
# 5 40.6748 22.6233 34.3511 2.1596 39.0975 -8.8515
# 6 -1.3742 -7.2337 7.0829 5.8747 -8.8515 42.5368
#
#
#
# Elastic Compliance Matrix: (Units=1/GPa)
#
#
# Indices 1 2 3 4 5 6 
#
# 1 0.010796 -0.002587 -0.000914 -0.002233 -0.009156 -0.001536
# 2 -0.002587 0.011156 -0.002891 0.004467 -0.001144 0.001440
# 3 -0.000914 -0.002891 0.016755 0.006164 -0.014042 -0.007085
# 4 -0.002233 0.004467 0.006164 0.033213 -0.009054 -0.006810
# 5 -0.009156 -0.001144 -0.014042 -0.009054 0.051741 0.013865
# 6 -0.001536 0.001440 -0.007085 -0.006810 0.013865 0.028710
#
#
# Mechanical properties :
#
#
# Convention : Reuss Voigt Hill
#
# Bulk Modulus (GPa) = 38.57655 72.89243 55.73449
# Shear Modulus (GPa) = 28.76934 39.08338 33.92636
#
# Velocity S-wave (km/s) = 3.70192 4.31477 4.02004
# Velocity P-wave (km/s) = 6.05376 7.71655 6.93517
#
# Compressibility (1/GPa) = 0.02592249
#
# Stress axis : x y z
#
# Youngs Moduli (GPa) = 92.62732 89.63794 59.68286
#
# Poissons Ratio (x) = 0.23191 0.05453
# Poissons Ratio (y) = 0.23965 0.17257
# Poissons Ratio (z) = 0.08463 0.25918
#
# Static dielectric constant tensor:
#      x y z
#    x 1.971520 0.042380 0.141170 
#    y 0.042380 1.791320 0.012330 
#    z 0.141170 0.012330 1.882610 
# 
# From -- ./inp_files/273118.got.cif
#   From: 2010.05.17/outbox.cif.g08.bks.cpg/sg2_137_cif.got.tgz:273118.got - 2010.06.03 11:33:40.
