data_PCOD9019591
_publ_section_title
;
Structure prediction by ZEFSAII (Michael W. Deem and Ramdas Pophale) SiO2 
 PCOD9019591
Probable space group: P -1
;
_chemical_formula_sum "Si O2"
_cell_formula_units_Z 15
_cell_length_a 20.118995
_cell_length_b 13.437249
_cell_length_c 10.471375
_cell_angle_alpha 135.914303
_cell_angle_beta 33.474951
_cell_angle_gamma 154.855784
_cell_volume 655.225442
_symmetry_space_group_name_H-M "P -1"
_symmetry_group_IT_number 2
_symmetry_cell_setting 'triclinic'
loop_
_space_group_symop_operation_xyz
x,y,z
-x,-y,-z
loop_
_atom_site_type_symbol
_atom_site_label
_atom_site_fract_x
_atom_site_fract_y
_atom_site_fract_z
Si Si1 0.785638 0.673658 0.247596
Si Si2 0.000000 0.000000 0.500000
Si Si3 0.034849 0.370987 0.761178
Si Si4 0.768963 0.848614 0.962628
Si Si5 0.664461 0.997865 0.842575
Si Si6 0.496028 0.841944 0.710671
Si Si7 0.503730 0.161105 0.585092
Si Si8 0.474572 0.539404 0.785197
O O1 0.702563 0.438237 0.199149
O O2 0.688983 0.676328 0.521082
O O3 0.674824 0.612967 0.237623
O O4 0.021770 0.913636 0.082767
O O5 0.992095 0.172810 0.708782
O O6 0.159810 0.178598 0.295202
O O7 0.264736 0.585281 0.555282
O O8 0.886136 0.224938 0.745329
O O9 0.000000 0.500000 0.000000
O O10 0.639220 0.861946 0.139732
O O11 0.626850 0.628983 0.087110
O O12 0.650896 0.942158 0.664122
O O13 0.536055 0.760949 0.907477
O O14 0.556200 0.044190 0.080171
O O15 0.564543 0.891002 0.501943
O O16 0.500000 0.000000 0.500000
#
# Coordination Sequence:
#
# PCOD9019591 Si02
#       8
#     2   1   2   2   2   2   2   2
#     4  10  21  44  76 108 146 192 245 318 386 460
#     4  12  30  48  74 110 154 204 266 314 388 458
#     4  12  26  51  78 107 158 211 257 326 395 463
#     4  12  26  46  74 110 155 199 260 322 383 462
#     4  10  23  42  78 108 149 192 252 321 385 457
#     4  10  21  45  74 109 145 196 252 314 385 460
#     4  12  27  45  74 111 153 207 266 311 388 481
#     4  10  22  44  76 111 145 189 250 314 394 461
#
# _framework density 22.892883000000001
#
# number of rings (size 3 to 8) (size 9 to 14) (size 15 to 20)
#    0.000    1.067    2.667    2.800    3.733    1.600 
#    2.400    0.667    0.000    0.000    0.000    0.000 
#    0.000    0.000    0.000    0.000    0.000    0.000 
#
# Total GULP energy -83613.583323 kJ/mol
# GULP energy per Si atom -5574.238888 kJ/mol
# Density = 2.284078 g / cm^3
# Si number density = 22.892883 Si / 1000 Ang^3
#
#
#
# Elastic Constant Matrix: (Units=GPa)
#
#
# Indices 1 2 3 4 5 6 
#
# 1 108.4386 32.1066 40.4370 -0.8179 1.6576 -7.9380
# 2 32.1066 101.9757 33.9130 19.2938 -13.2322 -37.3611
# 3 40.4370 33.9130 132.7539 -4.4058 -8.0885 -18.0304
# 4 -0.8179 19.2938 -4.4058 35.7899 -2.5263 -8.8876
# 5 1.6576 -13.2322 -8.0885 -2.5263 40.0734 -1.9829
# 6 -7.9380 -37.3611 -18.0304 -8.8876 -1.9829 49.7105
#
#
#
# Elastic Compliance Matrix: (Units=1/GPa)
#
#
# Indices 1 2 3 4 5 6 
#
# 1 0.011337 -0.003935 -0.002820 0.001366 -0.002351 -0.002020
# 2 -0.003935 0.017679 -0.001680 -0.006665 0.005790 0.011088
# 3 -0.002820 -0.001680 0.009314 0.002658 0.001719 0.002209
# 4 0.001366 -0.006665 0.002658 0.032415 0.000421 0.001985
# 5 -0.002351 0.005790 0.001719 0.000421 0.027622 0.005776
# 6 -0.002020 0.011088 0.002209 0.001985 0.005776 0.029514
#
#
# Mechanical properties :
#
#
# Convention : Reuss Voigt Hill
#
# Bulk Modulus (GPa) = 46.60032 61.78683 54.19357
# Shear Modulus (GPa) = 32.91548 40.89553 36.90550
#
# Velocity S-wave (km/s) = 3.79595 4.23115 4.01945
# Velocity P-wave (km/s) = 6.29383 7.13571 6.72795
#
# Compressibility (1/GPa) = 0.02145908
#
# Stress axis : x y z
#
# Youngs Moduli (GPa) = 88.20716 56.56575 107.36650
#
# Poissons Ratio (x) = 0.22258 0.30280
# Poissons Ratio (y) = 0.34709 0.18037
# Poissons Ratio (z) = 0.24877 0.09503
#
# Static dielectric constant tensor:
#      x y z
#    x 2.209150 0.047580 0.144610 
#    y 0.047580 1.932630 0.087140 
#    z 0.144610 0.087140 1.923670 
# 
# From -- ./inp_files/475181.got.cif
#   From: 2010.05.17/outbox.cif.g08.bks.cpg/sg2_238_cif.got.tgz:475181.got - 2010.06.03 11:33:40.
