data_PCOD9019115
_publ_section_title
;
Structure prediction by ZEFSAII (Michael W. Deem and Ramdas Pophale) SiO2 
 PCOD9019115
Probable space group: P -1
;
_chemical_formula_sum "Si O2"
_cell_formula_units_Z 15
_cell_length_a 7.556536
_cell_length_b 8.211220
_cell_length_c 13.634178
_cell_angle_alpha 58.808944
_cell_angle_beta 127.976973
_cell_angle_gamma 108.017601
_cell_volume 570.398062
_symmetry_space_group_name_H-M "P -1"
_symmetry_group_IT_number 2
_symmetry_cell_setting 'triclinic'
loop_
_space_group_symop_operation_xyz
x,y,z
-x,-y,-z
loop_
_atom_site_type_symbol
_atom_site_label
_atom_site_fract_x
_atom_site_fract_y
_atom_site_fract_z
Si Si1 0.500000 0.000000 0.000000
Si Si2 0.285959 0.457514 0.055250
Si Si3 0.078557 0.183951 0.906230
Si Si4 0.971684 0.740367 0.811328
Si Si5 0.908494 0.786193 0.549921
Si Si6 0.658586 0.772778 0.297635
Si Si7 0.853495 0.163401 0.650394
Si Si8 0.334692 0.633207 0.654259
O O1 0.280504 0.130901 0.917171
O O2 0.485765 0.077684 0.857072
O O3 0.163028 0.416924 0.128299
O O4 0.525800 0.367610 0.195204
O O5 0.172767 0.341713 0.964362
O O6 0.233684 0.683779 0.944058
O O7 0.882455 0.254038 0.740622
O O8 0.000000 0.000000 0.000000
O O9 0.919265 0.741495 0.680440
O O10 0.872524 0.939793 0.752290
O O11 0.080818 0.637353 0.605541
O O12 0.670683 0.786899 0.414540
O O13 0.000000 0.000000 0.500000
O O14 0.597143 0.564297 0.309289
O O15 0.917059 0.805451 0.342962
O O16 0.668905 0.220381 0.486109
#
# Coordination Sequence:
#
# PCOD9019115 Si02
#       8
#     1   2   2   2   2   2   2   2
#     4  10  26  40  72 102 136 178 248 278 352 422
#     4  11  28  44  68 104 140 185 237 281 354 420
#     4  11  24  46  72  99 138 191 231 291 354 422
#     4  11  24  45  68  97 145 179 228 285 355 421
#     4  11  22  41  69 100 133 179 231 288 357 403
#     4  10  23  41  67 100 138 179 229 291 353 417
#     4  10  21  44  68  95 138 185 227 286 361 412
#     4  11  25  42  68 103 135 177 234 288 347 427
#
# _framework density 26.297425
#
# number of rings (size 3 to 8) (size 9 to 14) (size 15 to 20)
#    0.000    1.333    4.000    1.600   11.200    1.067 
#    2.400    0.667    0.000    0.000    0.000    0.000 
#    0.000    0.000    0.000    0.000    0.000    0.000 
#
# Total GULP energy -83520.139657 kJ/mol
# GULP energy per Si atom -5568.009310 kJ/mol
# Density = 2.623757 g / cm^3
# Si number density = 26.297425 Si / 1000 Ang^3
#
#
#
# Elastic Constant Matrix: (Units=GPa)
#
#
# Indices 1 2 3 4 5 6 
#
# 1 42.7611 -10.5341 15.2435 1.4932 -10.7201 -8.2698
# 2 -10.5341 77.5005 63.1326 7.7719 -3.9786 -11.5427
# 3 15.2435 63.1326 262.7056 19.8295 -14.4952 -13.0871
# 4 1.4932 7.7719 19.8295 47.0752 -5.7144 -16.5803
# 5 -10.7201 -3.9786 -14.4952 -5.7144 43.7138 9.9097
# 6 -8.2698 -11.5427 -13.0871 -16.5803 9.9097 19.6371
#
#
#
# Elastic Compliance Matrix: (Units=1/GPa)
#
#
# Indices 1 2 3 4 5 6 
#
# 1 0.031612 0.009647 -0.003423 0.006430 0.003748 0.020240
# 2 0.009647 0.020260 -0.004956 0.004176 -0.000631 0.016513
# 3 -0.003423 -0.004956 0.005258 -0.002331 0.000889 -0.003267
# 4 0.006430 0.004176 -0.002331 0.032313 -0.001801 0.031801
# 5 0.003748 -0.000631 0.000889 -0.001801 0.026800 -0.013245
# 6 0.020240 0.016513 -0.003267 0.031801 -0.013245 0.100512
#
#
# Mechanical properties :
#
#
# Convention : Reuss Voigt Hill
#
# Bulk Modulus (GPa) = 16.75977 57.62792 37.19385
# Shear Modulus (GPa) = 21.35776 43.09357 32.22567
#
# Velocity S-wave (km/s) = 2.85294 4.05248 3.50441
# Velocity P-wave (km/s) = 4.15203 6.62255 5.52710
#
# Compressibility (1/GPa) = 0.05966668
#
# Stress axis : x y z
#
# Youngs Moduli (GPa) = 31.63371 49.35867 190.17119
#
# Poissons Ratio (x) = -0.47617 0.65095
# Poissons Ratio (y) = -0.30518 0.94249
# Poissons Ratio (z) = 0.10828 0.24462
#
# Static dielectric constant tensor:
#      x y z
#    x 2.202620 0.004240 0.097980 
#    y 0.004240 1.992450 -0.056470 
#    z 0.097980 -0.056470 2.155410 
# 
# From -- ./inp_files/492168.got.cif
#   From: 2010.05.17/outbox.cif.g08.bks.cpg/sg2_247_cif.got.tgz:492168.got - 2010.06.03 11:33:40.
