data_PCOD9019164
_publ_section_title
;
Structure prediction by ZEFSAII (Michael W. Deem and Ramdas Pophale) SiO2 
 PCOD9019164
Probable space group: P -1
;
_chemical_formula_sum "Si O2"
_cell_formula_units_Z 12
_cell_length_a 12.423190
_cell_length_b 5.883085
_cell_length_c 9.448281
_cell_angle_alpha 83.255818
_cell_angle_beta 56.734480
_cell_angle_gamma 68.200734
_cell_volume 532.781172
_symmetry_space_group_name_H-M "P -1"
_symmetry_group_IT_number 2
_symmetry_cell_setting 'triclinic'
loop_
_space_group_symop_operation_xyz
x,y,z
-x,-y,-z
loop_
_atom_site_type_symbol
_atom_site_label
_atom_site_fract_x
_atom_site_fract_y
_atom_site_fract_z
Si Si1 0.889489 0.171464 0.680411
Si Si2 0.964238 0.771167 0.174769
Si Si3 0.206477 0.290811 0.927152
Si Si4 0.657103 0.983328 0.868192
Si Si5 0.778956 0.644462 0.551719
Si Si6 0.574638 0.695215 0.457137
O O1 0.862584 0.440235 0.618964
O O2 0.964865 0.091772 0.783221
O O3 0.731539 0.182291 0.805227
O O4 0.000000 0.000000 0.500000
O O5 0.855127 0.871355 0.118241
O O6 0.880887 0.678787 0.358178
O O7 0.087103 0.548886 0.031692
O O8 0.322253 0.336091 0.746060
O O9 0.265912 0.180096 0.042278
O O10 0.703109 0.878535 0.686240
O O11 0.500000 0.000000 0.000000
O O12 0.661055 0.601968 0.546434
O O13 0.500000 0.500000 0.500000
O O14 0.500000 0.000000 0.500000
#
# Coordination Sequence:
#
# PCOD9019164 Si02
#       6
#     2   2   2   2   2   2
#     4  12  24  41  76 103 139 196 247 305 377 447
#     4  10  21  44  69 101 137 187 246 310 366 439
#     4  10  23  43  70 102 145 183 246 313 363 439
#     4  12  26  42  67 106 147 187 243 304 375 445
#     4  11  24  44  70 100 148 184 247 305 371 446
#     4  11  27  48  74 102 150 203 248 300 381 458
#
# _framework density 22.523319000000001
#
# number of rings (size 3 to 8) (size 9 to 14) (size 15 to 20)
#    0.000    1.000    3.333    2.500    4.667    4.000 
#    0.000    0.000    0.000    0.000    0.000    0.000 
#    0.000    0.000    0.000    0.000    0.000    0.000 
#
# Total GULP energy -66831.103128 kJ/mol
# GULP energy per Si atom -5569.258594 kJ/mol
# Density = 2.247205 g / cm^3
# Si number density = 22.523319 Si / 1000 Ang^3
#
#
#
# Elastic Constant Matrix: (Units=GPa)
#
#
# Indices 1 2 3 4 5 6 
#
# 1 146.2242 28.4883 36.3191 -5.7174 -2.6079 24.4053
# 2 28.4883 35.1605 30.4967 -7.8075 -12.5842 9.0942
# 3 36.3191 30.4967 153.8325 0.1863 -9.6431 15.6101
# 4 -5.7174 -7.8075 0.1863 34.1980 -1.1609 1.6081
# 5 -2.6079 -12.5842 -9.6431 -1.1609 46.7579 3.3719
# 6 24.4053 9.0942 15.6101 1.6081 3.3719 22.2138
#
#
#
# Elastic Compliance Matrix: (Units=1/GPa)
#
#
# Indices 1 2 3 4 5 6 
#
# 1 0.009256 -0.005093 -0.000408 0.000742 -0.000358 -0.007797
# 2 -0.005093 0.048265 -0.006329 0.011214 0.012576 -0.012437
# 3 -0.000408 -0.006329 0.008121 -0.001433 0.000099 -0.002579
# 4 0.000742 0.011214 -0.001433 0.032419 0.004100 -0.007368
# 5 -0.000358 0.012576 0.000099 0.004100 0.025522 -0.008996
# 6 -0.007797 -0.012437 -0.002579 -0.007368 -0.008996 0.062387
#
#
# Mechanical properties :
#
#
# Convention : Reuss Voigt Hill
#
# Bulk Modulus (GPa) = 23.81914 58.42503 41.12209
# Shear Modulus (GPa) = 22.35895 36.62816 29.49355
#
# Velocity S-wave (km/s) = 3.15414 4.03703 3.62258
# Velocity P-wave (km/s) = 4.88498 6.90842 5.98286
#
# Compressibility (1/GPa) = 0.04198304
#
# Stress axis : x y z
#
# Youngs Moduli (GPa) = 108.03421 20.71902 123.13351
#
# Poissons Ratio (x) = 0.10552 0.05022
# Poissons Ratio (y) = 0.55018 0.77933
# Poissons Ratio (z) = 0.04406 0.13113
#
# Static dielectric constant tensor:
#      x y z
#    x 2.054440 0.139930 -0.020470 
#    y 0.139930 1.948170 0.074230 
#    z -0.020470 0.074230 1.750280 
# 
# From -- ./inp_files/22167.got.cif
#   From: 2010.05.17/outbox.cif.g08.bks.cpg/sg2_12_cif.got.tgz:22167.got - 2010.06.03 11:33:40.
