data_PCOD9019757
_publ_section_title
;
Structure prediction by ZEFSAII (Michael W. Deem and Ramdas Pophale) SiO2 
 PCOD9019757
Probable space group: P -1
;
_chemical_formula_sum "Si O2"
_cell_formula_units_Z 10
_cell_length_a 11.407415
_cell_length_b 7.898652
_cell_length_c 4.957584
_cell_angle_alpha 97.842314
_cell_angle_beta 112.739599
_cell_angle_gamma 65.646739
_cell_volume 375.175921
_symmetry_space_group_name_H-M "P -1"
_symmetry_group_IT_number 2
_symmetry_cell_setting 'triclinic'
loop_
_space_group_symop_operation_xyz
x,y,z
-x,-y,-z
loop_
_atom_site_type_symbol
_atom_site_label
_atom_site_fract_x
_atom_site_fract_y
_atom_site_fract_z
Si Si1 0.387743 0.998666 0.111824
Si Si2 0.048768 0.857158 0.754645
Si Si3 0.275857 0.379059 0.332832
Si Si4 0.149372 0.304021 0.707754
Si Si5 0.629411 0.373284 0.897394
O O1 0.402987 0.808171 0.217851
O O2 0.246534 0.091575 0.830218
O O3 0.500000 0.000000 0.000000
O O4 0.367900 0.161235 0.338331
O O5 0.212027 0.732875 0.879968
O O6 0.971335 0.718269 0.579826
O O7 0.000000 0.000000 0.500000
O O8 0.000000 0.000000 0.000000
O O9 0.228292 0.392107 0.597891
O O10 0.150042 0.401463 0.017473
O O11 0.350691 0.506459 0.309202
O O12 0.500000 0.500000 0.000000
#
# Coordination Sequence:
#
# PCOD9019757 Si02
#       5
#     2   2   2   2   2
#     4  10  21  45  68 101 149 192 233 303 372 432
#     4  12  25  47  79 109 149 201 247 302 374 451
#     4  10  24  44  70 107 145 189 245 305 362 438
#     4  10  22  46  68 103 145 195 238 299 366 440
#     4  12  24  47  76 115 146 196 254 309 368 442
#
# _framework density 26.654160999999998
#
# number of rings (size 3 to 8) (size 9 to 14) (size 15 to 20)
#    1.200    0.000    4.000    2.400    0.000    4.000 
#    3.600    5.000    0.000    0.000    0.000    0.000 
#    0.000    0.000    0.000    0.000    0.000    0.000 
#
# Total GULP energy -55837.051223 kJ/mol
# GULP energy per Si atom -5583.705122 kJ/mol
# Density = 2.659349 g / cm^3
# Si number density = 26.654161 Si / 1000 Ang^3
#
#
#
# Elastic Constant Matrix: (Units=GPa)
#
#
# Indices 1 2 3 4 5 6 
#
# 1 149.7315 72.3634 47.7707 -3.5431 13.9001 16.0920
# 2 72.3634 187.6906 38.2315 -19.2369 -5.1790 24.3352
# 3 47.7707 38.2315 138.1849 -1.7012 3.2572 -3.0885
# 4 -3.5431 -19.2369 -1.7012 40.8722 9.5306 -4.8634
# 5 13.9001 -5.1790 3.2572 9.5306 71.3953 -12.9317
# 6 16.0920 24.3352 -3.0885 -4.8634 -12.9317 72.7641
#
#
#
# Elastic Compliance Matrix: (Units=1/GPa)
#
#
# Indices 1 2 3 4 5 6 
#
# 1 0.009222 -0.002973 -0.002355 -0.000385 -0.002133 -0.001550
# 2 -0.002973 0.007165 -0.000966 0.002779 0.000499 -0.001505
# 3 -0.002355 -0.000966 0.008336 -0.000226 0.000261 0.001229
# 4 -0.000385 0.002779 -0.000226 0.026517 -0.003189 0.000352
# 5 -0.002133 0.000499 0.000261 -0.003189 0.015386 0.002837
# 6 -0.001550 -0.001505 0.001229 0.000352 0.002837 0.015169
#
#
# Mechanical properties :
#
#
# Convention : Reuss Voigt Hill
#
# Bulk Modulus (GPa) = 82.39770 88.03757 85.21763
# Shear Modulus (GPa) = 50.79869 58.15577 54.47723
#
# Velocity S-wave (km/s) = 4.37033 4.67611 4.52581
# Velocity P-wave (km/s) = 7.51313 7.89024 7.70400
#
# Compressibility (1/GPa) = 0.01213626
#
# Stress axis : x y z
#
# Youngs Moduli (GPa) = 108.43245 139.57342 119.95663
#
# Poissons Ratio (x) = 0.41500 0.28245
# Poissons Ratio (y) = 0.32241 0.11582
# Poissons Ratio (z) = 0.25532 0.13476
#
# Static dielectric constant tensor:
#      x y z
#    x 2.169420 -0.145310 0.060920 
#    y -0.145310 2.268150 0.130360 
#    z 0.060920 0.130360 2.225460 
# 
# From -- ./inp_files/61116.got.cif
#   From: 2010.05.17/outbox.cif.g08.bks.cpg/sg2_31_cif.got.tgz:61116.got - 2010.06.03 11:33:40.
