data_PCOD9019389
_publ_section_title
;
Structure prediction by ZEFSAII (Michael W. Deem and Ramdas Pophale) SiO2 
 PCOD9019389
Probable space group: P -1
;
_chemical_formula_sum "Si O2"
_cell_formula_units_Z 16
_cell_length_a 9.992756
_cell_length_b 13.146918
_cell_length_c 17.792677
_cell_angle_alpha 34.946076
_cell_angle_beta 35.273020
_cell_angle_gamma 34.877878
_cell_volume 687.728890
_symmetry_space_group_name_H-M "P -1"
_symmetry_group_IT_number 2
_symmetry_cell_setting 'triclinic'
loop_
_space_group_symop_operation_xyz
x,y,z
-x,-y,-z
loop_
_atom_site_type_symbol
_atom_site_label
_atom_site_fract_x
_atom_site_fract_y
_atom_site_fract_z
Si Si1 0.570339 0.121792 0.613106
Si Si2 0.785164 0.208730 0.696658
Si Si3 0.068566 0.757444 0.811915
Si Si4 0.967767 0.282988 0.327185
Si Si5 0.764308 0.007441 0.054480
Si Si6 0.204302 0.284558 0.896248
Si Si7 0.911651 0.547380 0.426288
Si Si8 0.384782 0.599495 0.178048
O O1 0.723276 0.248304 0.486417
O O2 0.388687 0.099074 0.772708
O O3 0.358024 0.249930 0.571357
O O4 0.787007 0.895540 0.637428
O O5 0.511084 0.218506 0.792559
O O6 0.853705 0.372007 0.527329
O O7 0.733524 0.281302 0.762599
O O8 0.003687 0.985071 0.720434
O O9 0.024091 0.750516 0.747381
O O10 0.359087 0.598967 0.798475
O O11 0.881947 0.704331 0.983687
O O12 0.931823 0.505808 0.212221
O O13 0.862411 0.880155 0.010638
O O14 0.571224 0.239894 0.988276
O O15 0.000000 0.000000 0.000000
O O16 0.000000 0.500000 0.500000
O O17 0.154636 0.563729 0.267818
#
# Coordination Sequence:
#
# PCOD9019389 Si02
#       8
#     2   2   2   2   2   2   2   2
#     4  11  23  45  69  99 149 186 232 292 352 424
#     4  11  23  42  73 109 136 183 238 291 359 406
#     4  12  24  42  73 113 143 178 241 298 349 426
#     4  11  24  43  70 112 141 183 232 304 360 408
#     4  12  26  46  70  99 143 200 230 286 362 419
#     4  12  24  44  73 106 143 186 239 295 354 424
#     4  10  21  44  71  95 141 190 234 287 342 423
#     4  11  23  45  71 103 145 187 234 288 352 419
#
# _framework density 23.264980999999999
#
# number of rings (size 3 to 8) (size 9 to 14) (size 15 to 20)
#    0.000    0.750    5.000    3.000    1.750    1.000 
#    4.500    6.250    0.000    0.000    0.000    0.000 
#    0.000    0.000    0.000    0.000    0.000    0.000 
#
# Total GULP energy -89447.252621 kJ/mol
# GULP energy per Si atom -5590.453289 kJ/mol
# Density = 2.321203 g / cm^3
# Si number density = 23.264981 Si / 1000 Ang^3
#
#
#
# Elastic Constant Matrix: (Units=GPa)
#
#
# Indices 1 2 3 4 5 6 
#
# 1 91.3169 58.4881 41.0034 -6.7724 -19.2697 -22.2570
# 2 58.4881 167.8994 45.3647 -36.2578 -9.7763 -38.0749
# 3 41.0034 45.3647 127.2019 -18.7688 -8.3282 -3.3857
# 4 -6.7724 -36.2578 -18.7688 39.5564 -4.9791 9.7352
# 5 -19.2697 -9.7763 -8.3282 -4.9791 27.4024 -7.7977
# 6 -22.2570 -38.0749 -3.3857 9.7352 -7.7977 44.4587
#
#
#
# Elastic Compliance Matrix: (Units=1/GPa)
#
#
# Indices 1 2 3 4 5 6 
#
# 1 0.020356 -0.003263 -0.004548 -0.002350 0.014203 0.010056
# 2 -0.003263 0.010874 -0.001207 0.007762 0.004530 0.006682
# 3 -0.004548 -0.001207 0.010151 0.003683 -0.000869 -0.003496
# 4 -0.002350 0.007762 0.003683 0.034905 0.008462 -0.000408
# 5 0.014203 0.004530 -0.000869 0.008462 0.054681 0.018662
# 6 0.010056 0.006682 -0.003496 -0.000408 0.018662 0.036346
#
#
# Mechanical properties :
#
#
# Convention : Reuss Voigt Hill
#
# Bulk Modulus (GPa) = 42.83003 75.12564 58.97783
# Shear Modulus (GPa) = 25.88928 38.38764 32.13846
#
# Velocity S-wave (km/s) = 3.33949 4.06645 3.72076
# Velocity P-wave (km/s) = 5.77228 7.37627 6.62301
#
# Compressibility (1/GPa) = 0.02334811
#
# Stress axis : x y z
#
# Youngs Moduli (GPa) = 49.12462 91.96535 98.51021
#
# Poissons Ratio (x) = 0.30004 0.44798
# Poissons Ratio (y) = 0.16027 0.11886
# Poissons Ratio (z) = 0.22339 0.11096
#
# Static dielectric constant tensor:
#      x y z
#    x 1.923290 0.049630 0.047280 
#    y 0.049630 1.888550 0.024900 
#    z 0.047280 0.024900 1.974320 
# 
# From -- ./inp_files/595448.got.cif
#   From: 2010.05.17/outbox.cif.g08.bks.cpg/sg2_298_cif.got.tgz:595448.got - 2010.06.03 11:33:40.
