data_PCOD9019983
_publ_section_title
;
Structure prediction by ZEFSAII (Michael W. Deem and Ramdas Pophale) SiO2 
 PCOD9019983
Probable space group: P -1
;
_chemical_formula_sum "Si O2"
_cell_formula_units_Z 14
_cell_length_a 9.129988
_cell_length_b 16.911686
_cell_length_c 12.924444
_cell_angle_alpha 37.230611
_cell_angle_beta 28.521587
_cell_angle_gamma 41.916836
_cell_volume 569.616612
_symmetry_space_group_name_H-M "P -1"
_symmetry_group_IT_number 2
_symmetry_cell_setting 'triclinic'
loop_
_space_group_symop_operation_xyz
x,y,z
-x,-y,-z
loop_
_atom_site_type_symbol
_atom_site_label
_atom_site_fract_x
_atom_site_fract_y
_atom_site_fract_z
Si Si1 0.889406 0.613566 0.369303
Si Si2 0.744225 0.995989 0.758629
Si Si3 0.299421 0.809124 0.840344
Si Si4 0.963560 0.801202 0.508279
Si Si5 0.133787 0.497287 0.728614
Si Si6 0.835476 0.037145 0.953078
Si Si7 0.774762 0.275277 0.251480
O O1 0.928621 0.549158 0.299599
O O2 0.533827 0.684039 0.531227
O O3 0.000000 0.500000 0.500000
O O4 0.125714 0.718977 0.116378
O O5 0.007502 0.137300 0.263903
O O6 0.901098 0.121947 0.562590
O O7 0.511271 0.996249 0.805076
O O8 0.500000 0.000000 0.000000
O O9 0.603290 0.848273 0.660885
O O10 0.363696 0.737471 0.765496
O O11 0.048326 0.938051 0.846618
O O12 0.984109 0.647677 0.682347
O O13 0.141872 0.824737 0.264103
O O14 0.500000 0.500000 0.500000
O O15 0.987292 0.392223 0.999177
O O16 0.000000 0.000000 0.000000
#
# Coordination Sequence:
#
# PCOD9019983 Si02
#       7
#     2   2   2   2   2   2   2
#     4  11  26  45  72 103 146 194 246 290 353 435
#     4  10  21  45  75 102 144 189 231 297 363 426
#     4  11  24  43  72 105 142 186 240 300 355 420
#     4  11  23  44  74 101 144 192 235 293 368 421
#     4  11  25  45  72 104 147 188 240 299 354 425
#     4  11  25  42  71 107 144 181 238 300 360 427
#     4  11  23  47  77 102 147 197 239 293 364 427
#
# _framework density 24.577936000000001
#
# number of rings (size 3 to 8) (size 9 to 14) (size 15 to 20)
#    0.000    1.143    2.857    3.857    6.000    2.857 
#    2.571    1.429    3.143    0.000    0.000    0.000 
#    0.000    0.000    0.000    0.000    0.000    0.000 
#
# Total GULP energy -78327.085519 kJ/mol
# GULP energy per Si atom -5594.791823 kJ/mol
# Density = 2.452200 g / cm^3
# Si number density = 24.577936 Si / 1000 Ang^3
#
#
#
# Elastic Constant Matrix: (Units=GPa)
#
#
# Indices 1 2 3 4 5 6 
#
# 1 142.0153 32.7555 51.9822 0.9953 -26.5070 -3.9361
# 2 32.7555 139.5169 50.0795 -7.3515 -14.4752 -5.6899
# 3 51.9822 50.0795 136.5725 -2.4723 -31.0933 12.7813
# 4 0.9953 -7.3515 -2.4723 28.8393 -0.6056 -16.1343
# 5 -26.5070 -14.4752 -31.0933 -0.6056 45.9572 6.6816
# 6 -3.9361 -5.6899 12.7813 -16.1343 6.6816 31.2973
#
#
#
# Elastic Compliance Matrix: (Units=1/GPa)
#
#
# Indices 1 2 3 4 5 6 
#
# 1 0.008715 -0.000780 -0.002509 0.000153 0.002876 0.001444
# 2 -0.000780 0.009126 -0.003725 0.005407 -0.000906 0.006063
# 3 -0.002509 -0.003725 0.012085 -0.005381 0.006967 -0.010190
# 4 0.000153 0.005407 -0.005381 0.053327 -0.005788 0.031927
# 5 0.002876 -0.000906 0.006967 -0.005788 0.029505 -0.011931
# 6 0.001444 0.006063 -0.010190 0.031927 -0.011931 0.056403
#
#
# Mechanical properties :
#
#
# Convention : Reuss Voigt Hill
#
# Bulk Modulus (GPa) = 62.90045 76.41543 69.65794
# Shear Modulus (GPa) = 26.52673 40.10459 33.31566
#
# Velocity S-wave (km/s) = 3.28882 4.04385 3.68572
# Velocity P-wave (km/s) = 6.33005 7.27751 6.82026
#
# Compressibility (1/GPa) = 0.01589814
#
# Stress axis : x y z
#
# Youngs Moduli (GPa) = 114.73835 109.57508 82.74466
#
# Poissons Ratio (x) = 0.08551 0.20759
# Poissons Ratio (y) = 0.08954 0.30825
# Poissons Ratio (z) = 0.28785 0.40821
#
# Static dielectric constant tensor:
#      x y z
#    x 1.929920 0.196670 0.013960 
#    y 0.196670 1.318630 0.104290 
#    z 0.013960 0.104290 1.977110 
# 
# From -- ./inp_files/84355.got.cif
#   From: 2010.05.17/outbox.cif.g08.bks.cpg/sg2_43_cif.got.tgz:84355.got - 2010.06.03 11:33:40.
