data_PCOD9019248
_publ_section_title
;
Structure prediction by ZEFSAII (Michael W. Deem and Ramdas Pophale) SiO2 
 PCOD9019248
Probable space group: P -1
;
_chemical_formula_sum "Si O2"
_cell_formula_units_Z 16
_cell_length_a 16.311527
_cell_length_b 5.541846
_cell_length_c 14.927692
_cell_angle_alpha 55.816270
_cell_angle_beta 145.753775
_cell_angle_gamma 125.540867
_cell_volume 608.078506
_symmetry_space_group_name_H-M "P -1"
_symmetry_group_IT_number 2
_symmetry_cell_setting 'triclinic'
loop_
_space_group_symop_operation_xyz
x,y,z
-x,-y,-z
loop_
_atom_site_type_symbol
_atom_site_label
_atom_site_fract_x
_atom_site_fract_y
_atom_site_fract_z
Si Si1 0.368763 0.419412 0.707368
Si Si2 0.067986 0.166889 0.432752
Si Si3 0.040462 0.385080 0.656894
Si Si4 0.947834 0.643958 0.040675
Si Si5 0.464318 0.122516 0.602696
Si Si6 0.243021 0.532643 0.275371
Si Si7 0.649706 0.312157 0.908165
Si Si8 0.328549 0.336776 0.887354
O O1 0.246601 0.213242 0.574741
O O2 0.528988 0.344452 0.866372
O O3 0.286827 0.336574 0.745248
O O4 0.402708 0.771958 0.642064
O O5 0.041911 0.494710 0.362797
O O6 0.000000 0.000000 0.500000
O O7 0.993402 0.969352 0.322103
O O8 0.218911 0.501706 0.804061
O O9 0.000000 0.500000 0.500000
O O10 0.106235 0.550397 0.214349
O O11 0.851525 0.495695 0.896872
O O12 0.809181 0.555581 0.003598
O O13 0.000000 0.000000 0.000000
O O14 0.327907 0.264971 0.419994
O O15 0.608806 0.183019 0.652596
O O16 0.549051 0.301606 0.729053
O O17 0.682384 0.987500 0.013964
O O18 0.500000 0.500000 0.000000
#
# Coordination Sequence:
#
# PCOD9019248 Si02
#       8
#     2   2   2   2   2   2   2   2
#     4  12  24  41  67  94 139 184 233 286 347 418
#     4  10  22  39  66  89 128 177 234 290 336 405
#     4  10  22  43  65  92 123 184 239 285 342 407
#     4  10  21  44  70 101 135 169 214 285 352 426
#     4  10  22  43  67 101 129 177 227 283 346 428
#     4   9  21  43  73  97 134 168 220 287 355 413
#     4  11  26  41  64  99 134 179 235 279 346 422
#     4  12  25  43  68  95 138 188 230 292 347 410
#
# _framework density 26.312391000000002
#
# number of rings (size 3 to 8) (size 9 to 14) (size 15 to 20)
#    0.000    1.500    3.750    1.125    5.250    3.000 
#    2.250    3.750    0.000    0.000    0.000    0.000 
#    0.000    0.000    0.000    0.000    0.000    0.000 
#
# Total GULP energy -89435.679628 kJ/mol
# GULP energy per Si atom -5589.729977 kJ/mol
# Density = 2.625250 g / cm^3
# Si number density = 26.312391 Si / 1000 Ang^3
#
#
#
# Elastic Constant Matrix: (Units=GPa)
#
#
# Indices 1 2 3 4 5 6 
#
# 1 112.7894 9.6356 44.9085 12.0413 35.1831 6.2253
# 2 9.6356 68.9479 36.2074 21.4719 14.9802 4.7830
# 3 44.9085 36.2074 180.8953 17.6829 49.1002 20.2248
# 4 12.0413 21.4719 17.6829 46.5768 10.2065 7.7980
# 5 35.1831 14.9802 49.1002 10.2065 54.1450 5.1134
# 6 6.2253 4.7830 20.2248 7.7980 5.1134 33.6844
#
#
#
# Elastic Compliance Matrix: (Units=1/GPa)
#
#
# Indices 1 2 3 4 5 6 
#
# 1 0.011378 0.000843 -0.001104 -0.001483 -0.006322 -0.000257
# 2 0.000843 0.018501 -0.002792 -0.007438 -0.001817 0.000891
# 3 -0.001104 -0.002792 0.008292 0.000281 -0.005746 -0.003571
# 4 -0.001483 -0.007438 0.000281 0.026343 -0.001758 -0.004670
# 5 -0.006322 -0.001817 -0.005746 -0.001758 0.028531 0.000952
# 6 -0.000257 0.000891 -0.003571 -0.004670 0.000952 0.032689
#
#
# Mechanical properties :
#
#
# Convention : Reuss Voigt Hill
#
# Bulk Modulus (GPa) = 31.18605 60.45952 45.82278
# Shear Modulus (GPa) = 35.08053 45.00664 40.04359
#
# Velocity S-wave (km/s) = 3.65531 4.14027 3.90533
# Velocity P-wave (km/s) = 5.44913 6.77372 6.14721
#
# Compressibility (1/GPa) = 0.03206562
#
# Stress axis : x y z
#
# Youngs Moduli (GPa) = 87.88860 54.05023 120.59476
#
# Poissons Ratio (x) = -0.04554 0.13311
# Poissons Ratio (y) = -0.07405 0.33668
# Poissons Ratio (z) = 0.09701 0.15090
#
# Static dielectric constant tensor:
#      x y z
#    x 2.161090 -0.030020 -0.040000 
#    y -0.030020 2.044390 0.076790 
#    z -0.040000 0.076790 2.029760 
# 
# From -- ./inp_files/574893.got.cif
#   From: 2010.05.17/outbox.cif.g08.bks.cpg/sg2_288_cif.got.tgz:574893.got - 2010.06.03 11:33:40.
