data_PCOD9019861
_publ_section_title
;
Structure prediction by ZEFSAII (Michael W. Deem and Ramdas Pophale) SiO2 
 PCOD9019861
Probable space group: P -1
;
_chemical_formula_sum "Si O2"
_cell_formula_units_Z 12
_cell_length_a 9.359590
_cell_length_b 13.482389
_cell_length_c 7.636729
_cell_angle_alpha 43.092004
_cell_angle_beta 114.255020
_cell_angle_gamma 136.841715
_cell_volume 434.734608
_symmetry_space_group_name_H-M "P -1"
_symmetry_group_IT_number 2
_symmetry_cell_setting 'triclinic'
loop_
_space_group_symop_operation_xyz
x,y,z
-x,-y,-z
loop_
_atom_site_type_symbol
_atom_site_label
_atom_site_fract_x
_atom_site_fract_y
_atom_site_fract_z
Si Si1 0.388440 0.332673 0.510497
Si Si2 0.434852 0.644564 0.948343
Si Si3 0.071447 0.072069 0.239594
Si Si4 0.382353 0.789037 0.087199
Si Si5 0.967520 0.308123 0.750675
Si Si6 0.325581 0.842440 0.467349
O O1 0.500000 0.500000 0.500000
O O2 0.387914 0.443487 0.203407
O O3 0.529079 0.274671 0.648706
O O4 0.147179 0.128432 0.702578
O O5 0.354324 0.671226 0.052143
O O6 0.691216 0.839119 0.796684
O O7 0.314908 0.663060 0.718213
O O8 0.000000 0.000000 0.500000
O O9 0.097965 0.252344 0.947689
O O10 0.184345 0.767020 0.054969
O O11 0.568266 0.022200 0.827819
O O12 0.908359 0.244641 0.591407
O O13 0.000000 0.500000 0.500000
O O14 0.500000 0.000000 0.500000
#
# Coordination Sequence:
#
# PCOD9019861 Si02
#       6
#     2   2   2   2   2   2
#     4  10  23  44  71 102 139 189 235 288 355 419
#     4  10  24  45  72 101 144 186 237 289 360 420
#     4  12  27  45  72 112 143 181 242 302 346 422
#     4  10  21  45  70  95 138 189 227 281 359 412
#     4  12  26  45  73 106 142 183 240 294 353 421
#     4  10  22  45  70  99 138 191 227 285 358 421
#
# _framework density 27.603045999999999
#
# number of rings (size 3 to 8) (size 9 to 14) (size 15 to 20)
#    0.000    1.333    1.667    2.500    4.667    3.333 
#   12.000    1.667    0.000    0.000    0.000    0.000 
#    0.000    0.000    0.000    0.000    0.000    0.000 
#
# Total GULP energy -66823.026975 kJ/mol
# GULP energy per Si atom -5568.585581 kJ/mol
# Density = 2.754022 g / cm^3
# Si number density = 27.603046 Si / 1000 Ang^3
#
#
#
# Elastic Constant Matrix: (Units=GPa)
#
#
# Indices 1 2 3 4 5 6 
#
# 1 118.8475 23.2232 6.2699 24.3049 24.7512 13.8746
# 2 23.2232 94.9676 16.1328 12.0338 12.4143 -3.2316
# 3 6.2699 16.1328 176.7896 24.8936 56.9527 0.5140
# 4 24.3049 12.0338 24.8936 56.8354 9.3189 7.8306
# 5 24.7512 12.4143 56.9527 9.3189 65.1806 5.3120
# 6 13.8746 -3.2316 0.5140 7.8306 5.3120 31.8569
#
#
#
# Elastic Compliance Matrix: (Units=1/GPa)
#
#
# Indices 1 2 3 4 5 6 
#
# 1 0.010796 -0.001988 0.001783 -0.003795 -0.004471 -0.003254
# 2 -0.001988 0.011516 -0.000425 -0.001588 -0.001052 0.002607
# 3 0.001783 -0.000425 0.008581 -0.003324 -0.007712 0.001145
# 4 -0.003795 -0.001588 -0.003324 0.021243 0.001937 -0.003999
# 5 -0.004471 -0.001052 -0.007712 0.001937 0.023905 -0.002497
# 6 -0.003254 0.002607 0.001145 -0.003999 -0.002497 0.034453
#
#
# Mechanical properties :
#
#
# Convention : Reuss Voigt Hill
#
# Bulk Modulus (GPa) = 33.74876 53.53960 43.64418
# Shear Modulus (GPa) = 41.10733 53.77315 47.44024
#
# Velocity S-wave (km/s) = 3.86324 4.41850 4.15017
# Velocity P-wave (km/s) = 5.67032 6.74309 6.22984
#
# Compressibility (1/GPa) = 0.02963072
#
# Stress axis : x y z
#
# Youngs Moduli (GPa) = 92.62993 86.83677 116.53441
#
# Poissons Ratio (x) = 0.17265 -0.20774
# Poissons Ratio (y) = 0.18417 0.04957
# Poissons Ratio (z) = -0.16512 0.03694
#
# Static dielectric constant tensor:
#      x y z
#    x 2.051190 1.023910 0.811560 
#    y 1.023910 6.044750 1.235210 
#    z 0.811560 1.235210 1.810430 
# 
# From -- ./inp_files/199102.got.cif
#   From: 2010.05.17/outbox.cif.g08.bks.cpg/sg2_100_cif.got.tgz:199102.got - 2010.06.03 11:33:40.
