data_PCOD9019392
_publ_section_title
;
Structure prediction by ZEFSAII (Michael W. Deem and Ramdas Pophale) SiO2 
 PCOD9019392
Probable space group: P -1
;
_chemical_formula_sum "Si O2"
_cell_formula_units_Z 16
_cell_length_a 24.779843
_cell_length_b 15.386490
_cell_length_c 18.211585
_cell_angle_alpha 147.413905
_cell_angle_beta 160.143541
_cell_angle_gamma 20.663882
_cell_volume 790.603211
_symmetry_space_group_name_H-M "P -1"
_symmetry_group_IT_number 2
_symmetry_cell_setting 'triclinic'
loop_
_space_group_symop_operation_xyz
x,y,z
-x,-y,-z
loop_
_atom_site_type_symbol
_atom_site_label
_atom_site_fract_x
_atom_site_fract_y
_atom_site_fract_z
Si Si1 0.550351 0.406492 0.415410
Si Si2 0.947724 0.726849 0.574355
Si Si3 0.504408 0.084159 0.143799
Si Si4 0.934749 0.774454 0.267012
Si Si5 0.524635 0.796286 0.412615
Si Si6 0.751281 0.104790 0.723946
Si Si7 0.556370 0.457371 0.956284
Si Si8 0.000332 0.974346 0.376757
O O1 0.500000 0.500000 0.500000
O O2 0.431278 0.324148 0.201793
O O3 0.423591 0.623968 0.348147
O O4 0.851743 0.154565 0.602223
O O5 0.000000 0.500000 0.500000
O O6 0.768101 0.876442 0.378800
O O7 0.823069 0.918067 0.620296
O O8 0.207633 0.616631 0.812754
O O9 0.302940 0.154760 0.988406
O O10 0.500000 0.000000 0.000000
O O11 0.176147 0.487201 0.402986
O O12 0.866030 0.984465 0.379185
O O13 0.018318 0.790023 0.309389
O O14 0.395066 0.864691 0.374345
O O15 0.407223 0.752083 0.177372
O O16 0.500000 0.000000 0.500000
O O17 0.000000 0.000000 0.000000
O O18 0.294319 0.741624 0.792721
O O19 0.500000 0.500000 0.000000
#
# Coordination Sequence:
#
# PCOD9019392 Si02
#       8
#     2   2   2   2   2   2   2   2
#     4  12  25  47  72 104 147 189 242 298 361 433
#     4  12  28  47  71 110 147 192 247 295 365 436
#     4  12  26  43  72 106 144 189 244 296 356 432
#     4  10  22  41  69 102 133 182 238 288 349 425
#     4  11  26  47  73 107 142 191 238 297 373 434
#     4  12  27  48  74 106 149 194 239 304 372 432
#     4  11  25  44  72 104 145 187 237 299 360 433
#     4  10  21  44  71  96 137 184 236 288 356 421
#
# _framework density 20.237711000000001
#
# number of rings (size 3 to 8) (size 9 to 14) (size 15 to 20)
#    0.000    0.750    5.000    1.500    7.000    0.000 
#    0.000    1.250    0.000    0.000    0.000    0.000 
#    0.000    0.000    0.000    0.000    0.000    0.000 
#
# Total GULP energy -89397.361453 kJ/mol
# GULP energy per Si atom -5587.335091 kJ/mol
# Density = 2.019165 g / cm^3
# Si number density = 20.237711 Si / 1000 Ang^3
#
#
#
# Elastic Constant Matrix: (Units=GPa)
#
#
# Indices 1 2 3 4 5 6 
#
# 1 143.7079 66.3380 55.3199 22.3635 12.9407 -3.2099
# 2 66.3380 118.4451 62.1545 29.6371 13.3223 15.0411
# 3 55.3199 62.1545 132.1897 13.9139 18.3509 3.8621
# 4 22.3635 29.6371 13.9139 35.3953 0.6518 2.7221
# 5 12.9407 13.3223 18.3509 0.6518 44.7674 6.3246
# 6 -3.2099 15.0411 3.8621 2.7221 6.3246 49.6243
#
#
#
# Elastic Compliance Matrix: (Units=1/GPa)
#
#
# Indices 1 2 3 4 5 6 
#
# 1 0.010195 -0.004321 -0.001904 -0.002236 -0.001186 0.002391
# 2 -0.004321 0.016050 -0.004585 -0.008567 -0.000930 -0.004199
# 3 -0.001904 -0.004585 0.010776 0.000799 -0.002615 0.000717
# 4 -0.002236 -0.008567 0.000799 0.036474 0.002324 0.000093
# 5 -0.001186 -0.000930 -0.002615 0.002324 0.024395 -0.002828
# 6 0.002391 -0.004199 0.000717 0.000093 -0.002828 0.021878
#
#
# Mechanical properties :
#
#
# Convention : Reuss Voigt Hill
#
# Bulk Modulus (GPa) = 64.93700 84.66305 74.80002
# Shear Modulus (GPa) = 34.12475 39.99277 37.05876
#
# Velocity S-wave (km/s) = 4.11079 4.45021 4.28386
# Velocity P-wave (km/s) = 7.39515 8.26626 7.84281
#
# Compressibility (1/GPa) = 0.01539954
#
# Stress axis : x y z
#
# Youngs Moduli (GPa) = 98.09183 62.30515 92.80242
#
# Poissons Ratio (x) = 0.26922 0.17674
# Poissons Ratio (y) = 0.42385 0.42548
# Poissons Ratio (z) = 0.18681 0.28566
#
# Static dielectric constant tensor:
#      x y z
#    x 1.620300 0.066950 0.048640 
#    y 0.066950 1.618830 -0.053240 
#    z 0.048640 -0.053240 1.660650 
# 
# From -- ./inp_files/579335.got.cif
#   From: 2010.05.17/outbox.cif.g08.bks.cpg/sg2_290_cif.got.tgz:579335.got - 2010.06.03 11:33:40.
