data_PCOD9019542
_publ_section_title
;
Structure prediction by ZEFSAII (Michael W. Deem and Ramdas Pophale) SiO2 
 PCOD9019542
Probable space group: P -1
;
_chemical_formula_sum "Si O2"
_cell_formula_units_Z 16
_cell_length_a 12.313528
_cell_length_b 8.872856
_cell_length_c 9.632697
_cell_angle_alpha 103.922002
_cell_angle_beta 53.641582
_cell_angle_gamma 129.782002
_cell_volume 634.751484
_symmetry_space_group_name_H-M "P -1"
_symmetry_group_IT_number 2
_symmetry_cell_setting 'triclinic'
loop_
_space_group_symop_operation_xyz
x,y,z
-x,-y,-z
loop_
_atom_site_type_symbol
_atom_site_label
_atom_site_fract_x
_atom_site_fract_y
_atom_site_fract_z
Si Si1 0.436842 0.307204 0.410412
Si Si2 0.908971 0.779554 0.373884
Si Si3 0.238371 0.079308 0.998480
Si Si4 0.320264 0.682475 0.593778
Si Si5 0.083954 0.737363 0.480891
Si Si6 0.310407 0.482454 0.991392
Si Si7 0.598176 0.211267 0.770684
Si Si8 0.917383 0.201098 0.186237
O O1 0.500000 0.500000 0.500000
O O2 0.235921 0.192928 0.504647
O O3 0.501890 0.209570 0.431020
O O4 0.541241 0.381992 0.204452
O O5 0.806403 0.556288 0.340331
O O6 0.075252 0.942870 0.192791
O O7 0.975667 0.766132 0.467644
O O8 0.835059 0.000282 0.119034
O O9 0.315959 0.308001 0.996698
O O10 0.389967 0.065918 0.913237
O O11 0.366014 0.723173 0.404406
O O12 0.207568 0.745979 0.739698
O O13 0.282783 0.852310 0.305424
O O14 0.000000 0.500000 0.500000
O O15 0.082439 0.804767 0.649914
O O16 0.668919 0.391711 0.864307
O O17 0.121929 0.372213 0.037423
#
# Coordination Sequence:
#
# PCOD9019542 Si02
#       8
#     2   2   2   2   2   2   2   2
#     4  10  23  41  69  98 137 182 234 280 337 422
#     4  11  22  45  66 103 141 179 233 284 344 409
#     4  12  28  41  65 107 149 174 227 298 344 400
#     4  10  21  44  73  99 136 184 233 281 344 423
#     4  11  21  45  78 100 131 187 230 276 338 426
#     4  12  24  45  70  98 140 193 233 277 346 421
#     4  11  24  47  73  99 135 189 235 278 346 419
#     4  11  23  43  73 106 137 179 233 286 348 403
#
# _framework density 25.206716
#
# number of rings (size 3 to 8) (size 9 to 14) (size 15 to 20)
#    0.000    1.000    3.750    3.750    0.000    7.500 
#    0.000    9.375    0.000    0.000    0.000    0.000 
#    0.000    0.000    0.000    0.000    0.000    0.000 
#
# Total GULP energy -89741.520432 kJ/mol
# GULP energy per Si atom -5608.845027 kJ/mol
# Density = 2.514934 g / cm^3
# Si number density = 25.206716 Si / 1000 Ang^3
#
#
#
# Elastic Constant Matrix: (Units=GPa)
#
#
# Indices 1 2 3 4 5 6 
#
# 1 188.6249 25.9867 50.8230 -4.3092 -40.4329 -3.7610
# 2 25.9867 61.3382 23.2082 -2.7690 4.0614 11.5857
# 3 50.8230 23.2082 128.0542 -15.7245 -39.1453 -0.7786
# 4 -4.3092 -2.7690 -15.7245 25.8338 5.1856 3.2058
# 5 -40.4329 4.0614 -39.1453 5.1856 56.6846 5.0588
# 6 -3.7610 11.5857 -0.7786 3.2058 5.0588 42.1971
#
#
#
# Elastic Compliance Matrix: (Units=1/GPa)
#
#
# Indices 1 2 3 4 5 6 
#
# 1 0.006949 -0.003128 -0.000886 -0.000750 0.004550 0.000973
# 2 -0.003128 0.020763 -0.004375 0.000982 -0.006350 -0.005374
# 3 -0.000886 -0.004375 0.011837 0.005098 0.007384 0.000068
# 4 -0.000750 0.000982 0.005098 0.042343 -0.000657 -0.003381
# 5 0.004550 -0.006350 0.007384 -0.000657 0.026577 -0.000851
# 6 0.000973 -0.005374 0.000068 -0.003381 -0.000851 0.025621
#
#
# Mechanical properties :
#
#
# Convention : Reuss Voigt Hill
#
# Bulk Modulus (GPa) = 43.91396 64.22811 54.07104
# Shear Modulus (GPa) = 31.55393 43.47643 37.51518
#
# Velocity S-wave (km/s) = 3.54193 4.15757 3.86204
# Velocity P-wave (km/s) = 5.84691 6.97016 6.43309
#
# Compressibility (1/GPa) = 0.02277180
#
# Stress axis : x y z
#
# Youngs Moduli (GPa) = 143.90811 48.16201 84.47853
#
# Poissons Ratio (x) = 0.15063 0.07486
# Poissons Ratio (y) = 0.45009 0.36960
# Poissons Ratio (z) = 0.12753 0.21071
#
# Static dielectric constant tensor:
#      x y z
#    x 2.010820 0.005050 -0.042300 
#    y 0.005050 2.017860 -0.008550 
#    z -0.042300 -0.008550 1.943670 
# 
# From -- ./inp_files/444698.got.cif
#   From: 2010.05.17/outbox.cif.g08.bks.cpg/sg2_223_cif.got.tgz:444698.got - 2010.06.03 11:33:40.
