data_PCOD9019312
_publ_section_title
;
Structure prediction by ZEFSAII (Michael W. Deem and Ramdas Pophale) SiO2 
 PCOD9019312
Probable space group: P -1
;
_chemical_formula_sum "Si O2"
_cell_formula_units_Z 16
_cell_length_a 9.418147
_cell_length_b 19.637133
_cell_length_c 12.149045
_cell_angle_alpha 147.612112
_cell_angle_beta 143.244732
_cell_angle_gamma 35.853660
_cell_volume 654.300165
_symmetry_space_group_name_H-M "P -1"
_symmetry_group_IT_number 2
_symmetry_cell_setting 'triclinic'
loop_
_space_group_symop_operation_xyz
x,y,z
-x,-y,-z
loop_
_atom_site_type_symbol
_atom_site_label
_atom_site_fract_x
_atom_site_fract_y
_atom_site_fract_z
Si Si1 0.165681 0.425593 0.871246
Si Si2 0.779998 0.381890 0.979615
Si Si3 0.025230 0.706582 0.593801
Si Si4 0.604687 0.621300 0.837879
Si Si5 0.216679 0.923893 0.439250
Si Si6 0.277993 0.114793 0.164418
Si Si7 0.910121 0.120615 0.328124
Si Si8 0.359076 0.267655 0.220237
O O1 0.170939 0.352513 0.659017
O O2 0.865057 0.478498 0.793838
O O3 0.205308 0.565792 0.064111
O O4 0.360158 0.328983 0.950952
O O5 0.784627 0.228809 0.788206
O O6 0.500000 0.500000 0.000000
O O7 0.051694 0.377225 0.194987
O O8 0.334474 0.605413 0.644068
O O9 0.998247 0.823861 0.646121
O O10 0.956759 0.761247 0.749192
O O11 0.623279 0.718326 0.882747
O O12 0.483490 0.910871 0.641104
O O13 0.000000 0.000000 0.500000
O O14 0.132462 0.026242 0.421481
O O15 0.342687 0.151993 0.134317
O O16 0.210110 0.984051 0.933161
O O17 0.658681 0.245632 0.400968
#
# Coordination Sequence:
#
# PCOD9019312 Si02
#       8
#     2   2   2   2   2   2   2   2
#     4  10  22  45  67  96 138 186 237 278 344 429
#     4  11  24  43  68 104 145 182 229 292 352 410
#     4  11  25  41  69 103 136 180 229 289 361 410
#     4   9  22  43  67  92 132 183 226 284 341 417
#     4  12  25  44  74 103 136 189 239 286 349 415
#     4  12  24  42  67 105 138 176 231 292 347 416
#     4  11  24  46  70  99 142 183 237 291 346 419
#     4  10  21  44  70  97 137 181 231 282 343 418
#
# _framework density 24.453607999999999
#
# number of rings (size 3 to 8) (size 9 to 14) (size 15 to 20)
#    0.000    1.250    2.500    2.625    1.750    6.500 
#    4.500    3.125    0.000    0.000    0.000    0.000 
#    0.000    0.000    0.000    0.000    0.000    0.000 
#
# Total GULP energy -89148.685572 kJ/mol
# GULP energy per Si atom -5571.792848 kJ/mol
# Density = 2.439795 g / cm^3
# Si number density = 24.453608 Si / 1000 Ang^3
#
#
#
# Elastic Constant Matrix: (Units=GPa)
#
#
# Indices 1 2 3 4 5 6 
#
# 1 70.3413 32.1430 13.6036 -6.5479 11.4089 3.8344
# 2 32.1430 117.0324 29.7474 -26.6541 1.4791 18.7720
# 3 13.6036 29.7474 87.8257 -19.3841 4.2219 7.6990
# 4 -6.5479 -26.6541 -19.3841 31.3920 -3.2148 5.6725
# 5 11.4089 1.4791 4.2219 -3.2148 24.3913 2.2042
# 6 3.8344 18.7720 7.6990 5.6725 2.2042 59.0138
#
#
#
# Elastic Compliance Matrix: (Units=1/GPa)
#
#
# Indices 1 2 3 4 5 6 
#
# 1 0.017912 -0.005286 -0.001271 -0.002611 -0.008294 0.001244
# 2 -0.005286 0.013537 -0.001074 0.011019 0.003744 -0.005021
# 3 -0.001271 -0.001074 0.013858 0.007705 -0.000533 -0.002104
# 4 -0.002611 0.011019 0.007705 0.047730 0.006338 -0.009165
# 5 -0.008294 0.003744 -0.000533 0.006338 0.045841 -0.002904
# 6 0.001244 -0.005021 -0.002104 -0.009165 -0.002904 0.019726
#
#
# Mechanical properties :
#
#
# Convention : Reuss Voigt Hill
#
# Bulk Modulus (GPa) = 33.28298 47.35416 40.31857
# Shear Modulus (GPa) = 27.19174 36.27314 31.73244
#
# Velocity S-wave (km/s) = 3.33824 3.85560 3.60621
# Velocity P-wave (km/s) = 5.33842 6.26321 5.81921
#
# Compressibility (1/GPa) = 0.03004538
#
# Stress axis : x y z
#
# Youngs Moduli (GPa) = 55.82852 73.87085 72.16255
#
# Poissons Ratio (x) = 0.39047 0.09169
# Poissons Ratio (y) = 0.29510 0.07752
# Poissons Ratio (z) = 0.07094 0.07935
#
# Static dielectric constant tensor:
#      x y z
#    x 2.114730 -0.190510 -0.068810 
#    y -0.190510 2.133350 0.046260 
#    z -0.068810 0.046260 2.030220 
# 
# From -- ./inp_files/403443.got.cif
#   From: 2010.05.17/outbox.cif.g08.bks.cpg/sg2_202_cif.got.tgz:403443.got - 2010.06.03 11:33:40.
