data_PCOD9019101
_publ_section_title
;
Structure prediction by ZEFSAII (Michael W. Deem and Ramdas Pophale) SiO2 
 PCOD9019101
Probable space group: P -1
;
_chemical_formula_sum "Si O2"
_cell_formula_units_Z 14
_cell_length_a 12.064774
_cell_length_b 17.424968
_cell_length_c 8.606530
_cell_angle_alpha 41.621041
_cell_angle_beta 66.762679
_cell_angle_gamma 36.872151
_cell_volume 620.021761
_symmetry_space_group_name_H-M "P -1"
_symmetry_group_IT_number 2
_symmetry_cell_setting 'triclinic'
loop_
_space_group_symop_operation_xyz
x,y,z
-x,-y,-z
loop_
_atom_site_type_symbol
_atom_site_label
_atom_site_fract_x
_atom_site_fract_y
_atom_site_fract_z
Si Si1 0.967101 0.069658 0.669392
Si Si2 0.178508 0.497373 0.193139
Si Si3 0.340150 0.126995 0.752446
Si Si4 0.540199 0.769190 0.843452
Si Si5 0.737138 0.829656 0.755698
Si Si6 0.772976 0.034568 0.037460
Si Si7 0.253861 0.679346 0.904581
O O1 0.806317 0.100160 0.781669
O O2 0.868435 0.212223 0.358661
O O3 0.167945 0.842606 0.825171
O O4 0.045035 0.080600 0.759303
O O5 0.207741 0.350665 0.481123
O O6 0.365305 0.364965 0.158504
O O7 0.204337 0.592399 0.134192
O O8 0.944857 0.683416 0.963307
O O9 0.513766 0.999464 0.713461
O O10 0.500000 0.000000 0.000000
O O11 0.220307 0.100844 0.831282
O O12 0.733252 0.707217 0.864693
O O13 0.322158 0.014193 0.553315
O O14 0.457553 0.768719 0.042549
O O15 0.500000 0.500000 0.000000
#
# Coordination Sequence:
#
# PCOD9019101 Si02
#       7
#     2   2   2   2   2   2   2
#     4  10  24  45  68  91 131 177 218 265 315 383
#     4  11  22  37  65  94 124 168 217 259 323 392
#     4  10  24  40  64  95 136 167 206 276 333 382
#     4   9  18  36  60  91 128 160 206 263 316 376
#     4   9  19  35  58  90 126 168 204 253 319 387
#     4  10  21  44  68  93 130 175 211 266 330 373
#     4  11  25  43  67  95 127 173 223 265 315 388
#
# _framework density 22.579851999999999
#
# number of rings (size 3 to 8) (size 9 to 14) (size 15 to 20)
#    0.000    2.000    0.000    3.000    4.000    4.000 
#    0.000    7.857    0.000    0.000    0.000    0.000 
#    0.000    0.000    0.000    0.000    0.000    0.000 
#
# Total GULP energy -78089.240394 kJ/mol
# GULP energy per Si atom -5577.802885 kJ/mol
# Density = 2.252846 g / cm^3
# Si number density = 22.579852 Si / 1000 Ang^3
#
#
#
# Elastic Constant Matrix: (Units=GPa)
#
#
# Indices 1 2 3 4 5 6 
#
# 1 138.6597 0.6174 60.2228 -10.9690 -13.4572 -1.8357
# 2 0.6174 46.2438 10.9562 0.9382 -11.8302 -16.9463
# 3 60.2228 10.9562 70.3515 -8.7546 -5.8584 -2.0718
# 4 -10.9690 0.9382 -8.7546 32.2421 -8.1607 -0.4249
# 5 -13.4572 -11.8302 -5.8584 -8.1607 35.4390 5.6766
# 6 -1.8357 -16.9463 -2.0718 -0.4249 5.6766 36.9069
#
#
#
# Elastic Compliance Matrix: (Units=1/GPa)
#
#
# Indices 1 2 3 4 5 6 
#
# 1 0.012420 0.003876 -0.010510 0.002453 0.004658 0.001119
# 2 0.003876 0.029821 -0.006772 0.000942 0.008570 0.012198
# 3 -0.010510 -0.006772 0.024470 0.002934 -0.001204 -0.002040
# 4 0.002453 0.000942 0.002934 0.035115 0.009880 -0.000396
# 5 0.004658 0.008570 -0.001204 0.009880 0.035114 -0.001188
# 6 0.001119 0.012198 -0.002040 -0.000396 -0.001188 0.032815
#
#
# Mechanical properties :
#
#
# Convention : Reuss Voigt Hill
#
# Bulk Modulus (GPa) = 25.06263 44.31643 34.68953
# Shear Modulus (GPa) = 23.82476 33.14818 28.48647
#
# Velocity S-wave (km/s) = 3.25181 3.83566 3.55574
# Velocity P-wave (km/s) = 5.02221 6.26782 5.67927
#
# Compressibility (1/GPa) = 0.03990005
#
# Stress axis : x y z
#
# Youngs Moduli (GPa) = 80.51454 33.53397 40.86582
#
# Poissons Ratio (x) = -0.12999 0.42948
# Poissons Ratio (y) = -0.31210 0.27675
# Poissons Ratio (z) = 0.84617 0.22710
#
# Static dielectric constant tensor:
#      x y z
#    x 1.995770 0.159350 -0.011210 
#    y 0.159350 2.031020 0.110780 
#    z -0.011210 0.110780 1.916100 
# 
# From -- ./inp_files/81357.got.cif
#   From: 2010.05.17/outbox.cif.g08.bks.cpg/sg2_41_cif.got.tgz:81357.got - 2010.06.03 11:33:40.
