data_PCOD9019571
_publ_section_title
;
Structure prediction by ZEFSAII (Michael W. Deem and Ramdas Pophale) SiO2 
 PCOD9019571
Probable space group: P -1
;
_chemical_formula_sum "Si O2"
_cell_formula_units_Z 16
_cell_length_a 17.616942
_cell_length_b 7.612423
_cell_length_c 8.609847
_cell_angle_alpha 67.727069
_cell_angle_beta 143.111775
_cell_angle_gamma 108.581283
_cell_volume 641.121379
_symmetry_space_group_name_H-M "P -1"
_symmetry_group_IT_number 2
_symmetry_cell_setting 'triclinic'
loop_
_space_group_symop_operation_xyz
x,y,z
-x,-y,-z
loop_
_atom_site_type_symbol
_atom_site_label
_atom_site_fract_x
_atom_site_fract_y
_atom_site_fract_z
Si Si1 0.795304 0.183830 0.545256
Si Si2 0.526747 0.152891 0.257351
Si Si3 0.014398 0.503540 0.323248
Si Si4 0.597189 0.760394 0.662044
Si Si5 0.746557 0.530194 0.764060
Si Si6 0.095355 0.788010 0.961287
Si Si7 0.724900 0.817565 0.352381
Si Si8 0.861444 0.830495 0.239986
O O1 0.657901 0.226818 0.374056
O O2 0.863634 0.360325 0.514739
O O3 0.776243 0.999816 0.470993
O O4 0.887310 0.156402 0.852005
O O5 0.484709 0.264314 0.306958
O O6 0.544377 0.934557 0.416215
O O7 0.419250 0.162203 0.947628
O O8 0.005974 0.377830 0.189841
O O9 0.037832 0.337791 0.542571
O O10 0.877769 0.594504 0.045989
O O11 0.631281 0.583485 0.668146
O O12 0.736004 0.826233 0.929317
O O13 0.734475 0.642092 0.545579
O O14 0.775715 0.309834 0.855749
O O15 0.071699 0.972950 0.762854
O O16 0.799390 0.815371 0.313418
#
# Coordination Sequence:
#
# PCOD9019571 Si02
#       8
#     2   2   2   2   2   2   2   2
#     4  12  22  45  71 104 140 187 227 282 355 406
#     4  10  22  43  77  99 140 183 236 286 341 411
#     4  10  26  43  69 101 153 172 234 287 343 425
#     4  10  21  44  74  99 137 183 233 291 340 408
#     4  10  23  44  67 106 143 177 227 289 346 410
#     4  10  23  44  68  99 141 187 225 284 342 417
#     4  11  24  40  71 106 140 180 234 287 345 416
#     4  11  22  45  69 101 138 187 232 281 353 408
#
# _framework density 24.956271999999998
#
# number of rings (size 3 to 8) (size 9 to 14) (size 15 to 20)
#    0.750    0.750    2.500    1.875    1.750    2.000 
#    4.500    6.250    0.000    0.000    0.000    0.000 
#    0.000    0.000    0.000    0.000    0.000    0.000 
#
# Total GULP energy -89467.049794 kJ/mol
# GULP energy per Si atom -5591.690612 kJ/mol
# Density = 2.489947 g / cm^3
# Si number density = 24.956272 Si / 1000 Ang^3
#
#
#
# Elastic Constant Matrix: (Units=GPa)
#
#
# Indices 1 2 3 4 5 6 
#
# 1 79.8111 33.5894 12.0681 -18.3604 10.4607 4.6613
# 2 33.5894 102.8753 22.2696 -30.5077 -0.2741 0.9700
# 3 12.0681 22.2696 143.2465 -20.7585 -11.1458 6.2237
# 4 -18.3604 -30.5077 -20.7585 44.3299 4.6754 0.2193
# 5 10.4607 -0.2741 -11.1458 4.6754 42.4170 2.7258
# 6 4.6613 0.9700 6.2237 0.2193 2.7258 36.9250
#
#
#
# Elastic Compliance Matrix: (Units=1/GPa)
#
#
# Indices 1 2 3 4 5 6 
#
# 1 0.015838 -0.003834 -0.000405 0.004203 -0.004402 -0.001530
# 2 -0.003834 0.013258 -0.000700 0.007203 0.000040 0.000208
# 3 -0.000405 -0.000700 0.007736 0.002778 0.001911 -0.001392
# 4 0.004203 0.007203 0.002778 0.030942 -0.003599 -0.001106
# 5 -0.004402 0.000040 0.001911 -0.003599 0.025666 -0.001641
# 6 -0.001530 0.000208 -0.001392 -0.001106 -0.001641 0.027632
#
#
# Mechanical properties :
#
#
# Convention : Reuss Voigt Hill
#
# Bulk Modulus (GPa) = 37.10255 51.30966 44.20610
# Shear Modulus (GPa) = 35.73088 41.93477 38.83283
#
# Velocity S-wave (km/s) = 3.78794 4.10363 3.94894
# Velocity P-wave (km/s) = 5.83358 6.56182 6.20839
#
# Compressibility (1/GPa) = 0.02695233
#
# Stress axis : x y z
#
# Youngs Moduli (GPa) = 63.14011 75.42488 129.27013
#
# Poissons Ratio (x) = 0.28920 0.05237
# Poissons Ratio (y) = 0.24210 0.09052
# Poissons Ratio (z) = 0.02558 0.05282
#
# Static dielectric constant tensor:
#      x y z
#    x 2.019100 -0.084040 -0.003630 
#    y -0.084040 2.017680 0.029370 
#    z -0.003630 0.029370 2.001590 
# 
# From -- ./inp_files/342725.got.cif
#   From: 2010.05.17/outbox.cif.g08.bks.cpg/sg2_172_cif.got.tgz:342725.got - 2010.06.03 11:33:40.
