data_PCOD9019524
_publ_section_title
;
Structure prediction by ZEFSAII (Michael W. Deem and Ramdas Pophale) SiO2 
 PCOD9019524
Probable space group: P -1
;
_chemical_formula_sum "Si O2"
_cell_formula_units_Z 14
_cell_length_a 5.020453
_cell_length_b 15.503597
_cell_length_c 9.804910
_cell_angle_alpha 47.376899
_cell_angle_beta 107.308445
_cell_angle_gamma 117.802207
_cell_volume 496.534539
_symmetry_space_group_name_H-M "P -1"
_symmetry_group_IT_number 2
_symmetry_cell_setting 'triclinic'
loop_
_space_group_symop_operation_xyz
x,y,z
-x,-y,-z
loop_
_atom_site_type_symbol
_atom_site_label
_atom_site_fract_x
_atom_site_fract_y
_atom_site_fract_z
Si Si1 0.019757 0.810522 0.521796
Si Si2 0.094032 0.553492 0.802625
Si Si3 0.228563 0.879642 0.026092
Si Si4 0.418032 0.424626 0.748913
Si Si5 0.310722 0.292151 0.154743
Si Si6 0.369411 0.090466 0.192514
Si Si7 0.529700 0.310966 0.617059
O O1 0.941122 0.787856 0.692893
O O2 0.717578 0.787085 0.413534
O O3 0.097881 0.692043 0.616945
O O4 0.259989 0.947566 0.379786
O O5 0.456767 0.602118 0.826027
O O6 0.780396 0.467052 0.775375
O O7 0.000000 0.500000 0.000000
O O8 0.343916 0.874297 0.896900
O O9 0.915191 0.899692 0.946590
O O10 0.244037 0.756064 0.234660
O O11 0.500000 0.000000 0.000000
O O12 0.374156 0.340202 0.697807
O O13 0.338388 0.548979 0.580553
O O14 0.259509 0.360490 0.935683
O O15 0.429438 0.191328 0.214141
#
# Coordination Sequence:
#
# PCOD9019524 Si02
#       7
#     2   2   2   2   2   2   2
#     4  11  25  42  69 108 147 195 248 305 374 445
#     4   9  22  41  68  97 145 189 246 305 370 431
#     4  12  26  49  77 110 153 196 248 311 372 437
#     4   9  20  44  74 104 147 195 253 307 378 441
#     4  11  24  45  69 105 148 197 244 306 369 447
#     4  12  28  46  78 110 151 201 250 304 371 448
#     4  10  21  44  73 106 146 192 255 310 377 441
#
# _framework density 28.195418
#
# number of rings (size 3 to 8) (size 9 to 14) (size 15 to 20)
#    0.000    1.429    2.857    0.857    4.000    5.714 
#    2.571    1.429    0.000    0.000    0.000    0.000 
#    0.000    0.000    0.000    0.000    0.000    0.000 
#
# Total GULP energy -78436.938971 kJ/mol
# GULP energy per Si atom -5602.638498 kJ/mol
# Density = 2.813124 g / cm^3
# Si number density = 28.195418 Si / 1000 Ang^3
#
#
#
# Elastic Constant Matrix: (Units=GPa)
#
#
# Indices 1 2 3 4 5 6 
#
# 1 66.5707 23.9107 41.8774 10.5123 3.7165 15.9136
# 2 23.9107 138.9146 37.4943 15.3238 -8.7533 2.1771
# 3 41.8774 37.4943 233.8864 -13.6882 -12.9252 8.7600
# 4 10.5123 15.3238 -13.6882 57.5607 0.7208 4.0073
# 5 3.7165 -8.7533 -12.9252 0.7208 40.9581 -1.4175
# 6 15.9136 2.1771 8.7600 4.0073 -1.4175 30.8622
#
#
#
# Elastic Compliance Matrix: (Units=1/GPa)
#
#
# Indices 1 2 3 4 5 6 
#
# 1 0.021039 -0.002421 -0.003427 -0.003308 -0.003777 -0.009449
# 2 -0.002421 0.008192 -0.000953 -0.002077 0.001751 0.001291
# 3 -0.003427 -0.000953 0.005255 0.002097 0.001734 0.000150
# 4 -0.003308 -0.002077 0.002097 0.019112 0.000140 -0.001218
# 5 -0.003777 0.001751 0.001734 0.000140 0.025763 0.002497
# 6 -0.009449 0.001291 0.000150 -0.001218 0.002497 0.037413
#
#
# Mechanical properties :
#
#
# Convention : Reuss Voigt Hill
#
# Bulk Modulus (GPa) = 47.88585 71.77070 59.82827
# Shear Modulus (GPa) = 36.40640 48.28216 42.34428
#
# Velocity S-wave (km/s) = 3.59725 4.14262 3.87953
# Velocity P-wave (km/s) = 5.85440 6.95642 6.42906
#
# Compressibility (1/GPa) = 0.02088300
#
# Stress axis : x y z
#
# Youngs Moduli (GPa) = 47.53018 122.07278 190.29795
#
# Poissons Ratio (x) = 0.29558 0.65221
# Poissons Ratio (y) = 0.11509 0.18132
# Poissons Ratio (z) = 0.16290 0.11632
#
# Static dielectric constant tensor:
#      x y z
#    x 2.446940 -0.241000 0.011970 
#    y -0.241000 2.503300 0.077350 
#    z 0.011970 0.077350 2.239630 
# 
# From -- ./inp_files/81276.got.cif
#   From: 2010.05.17/outbox.cif.g08.bks.cpg/sg2_41_cif.got.tgz:81276.got - 2010.06.03 11:33:40.
