data_PCOD9019170
_publ_section_title
;
Structure prediction by ZEFSAII (Michael W. Deem and Ramdas Pophale) SiO2 
 PCOD9019170
Probable space group: P -1
;
_chemical_formula_sum "Si O2"
_cell_formula_units_Z 14
_cell_length_a 9.699172
_cell_length_b 20.445459
_cell_length_c 5.246899
_cell_angle_alpha 79.197306
_cell_angle_beta 112.954133
_cell_angle_gamma 146.202534
_cell_volume 513.628661
_symmetry_space_group_name_H-M "P -1"
_symmetry_group_IT_number 2
_symmetry_cell_setting 'triclinic'
loop_
_space_group_symop_operation_xyz
x,y,z
-x,-y,-z
loop_
_atom_site_type_symbol
_atom_site_label
_atom_site_fract_x
_atom_site_fract_y
_atom_site_fract_z
Si Si1 0.968535 0.849407 0.016803
Si Si2 0.909557 0.238378 0.042372
Si Si3 0.680101 0.391562 0.947509
Si Si4 0.469869 0.225620 0.449361
Si Si5 0.283809 0.012896 0.618034
Si Si6 0.690368 0.613423 0.366966
Si Si7 0.049957 0.408602 0.718724
O O1 0.689387 0.788050 0.860129
O O2 0.114698 0.931969 0.807329
O O3 0.924525 0.754406 0.011632
O O4 0.151907 0.930439 0.335240
O O5 0.595928 0.108539 0.837641
O O6 0.959544 0.335734 0.966521
O O7 0.013616 0.261898 0.380725
O O8 0.535065 0.286859 0.717661
O O9 0.477176 0.380350 0.768685
O O10 0.786448 0.462335 0.247256
O O11 0.000000 0.500000 0.000000
O O12 0.300666 0.097035 0.495602
O O13 0.752181 0.308095 0.453474
O O14 0.500000 0.500000 0.500000
O O15 0.761063 0.579774 0.252059
#
# Coordination Sequence:
#
# PCOD9019170 Si02
#       7
#     2   2   2   2   2   2   2
#     4  12  25  48  72 110 140 195 247 308 351 429
#     4  11  25  42  73 100 145 188 240 296 368 424
#     4  10  21  44  69 101 142 179 235 290 360 435
#     4  10  23  46  73 103 146 194 237 299 366 425
#     4  11  27  46  71 105 149 188 250 301 362 419
#     4  12  24  44  71 105 141 186 238 292 363 439
#     4  10  24  45  71 104 148 185 234 297 362 445
#
# _framework density 27.257047
#
# number of rings (size 3 to 8) (size 9 to 14) (size 15 to 20)
#    0.000    1.143    2.857    2.143    6.000    0.000 
#    2.571    5.714    0.000    0.000    0.000    0.000 
#    0.000    0.000    0.000    0.000    0.000    0.000 
#
# Total GULP energy -78133.702746 kJ/mol
# GULP energy per Si atom -5580.978768 kJ/mol
# Density = 2.719501 g / cm^3
# Si number density = 27.257047 Si / 1000 Ang^3
#
#
#
# Elastic Constant Matrix: (Units=GPa)
#
#
# Indices 1 2 3 4 5 6 
#
# 1 156.7292 18.1063 18.1289 4.4797 15.5333 -16.6052
# 2 18.1063 85.1917 14.0599 -2.2158 -3.0550 -32.1827
# 3 18.1289 14.0599 121.1005 17.9629 10.0717 -5.2849
# 4 4.4797 -2.2158 17.9629 38.6411 -0.7566 6.9796
# 5 15.5333 -3.0550 10.0717 -0.7566 71.1615 12.7668
# 6 -16.6052 -32.1827 -5.2849 6.9796 12.7668 48.7130
#
#
#
# Elastic Compliance Matrix: (Units=1/GPa)
#
#
# Indices 1 2 3 4 5 6 
#
# 1 0.007011 -0.000485 -0.000548 -0.001109 -0.001967 0.002685
# 2 -0.000485 0.015986 -0.001184 -0.000405 -0.000941 0.010573
# 3 -0.000548 -0.001184 0.009326 -0.004566 -0.001495 0.001089
# 4 -0.001109 -0.000405 -0.004566 0.029219 0.002243 -0.005915
# 5 -0.001967 -0.000941 -0.001495 0.002243 0.015735 -0.005900
# 6 0.002685 0.010573 0.001089 -0.005915 -0.005900 0.030940
#
#
# Mechanical properties :
#
#
# Convention : Reuss Voigt Hill
#
# Bulk Modulus (GPa) = 35.85472 51.51242 43.68357
# Shear Modulus (GPa) = 41.00090 52.55154 46.77622
#
# Velocity S-wave (km/s) = 3.88265 4.39566 4.14710
# Velocity P-wave (km/s) = 5.76913 6.68597 6.24440
#
# Compressibility (1/GPa) = 0.02789033
#
# Stress axis : x y z
#
# Youngs Moduli (GPa) = 142.63486 62.55341 107.22515
#
# Poissons Ratio (x) = 0.03033 0.05876
# Poissons Ratio (y) = 0.06916 0.12692
# Poissons Ratio (z) = 0.07816 0.07404
#
# Static dielectric constant tensor:
#      x y z
#    x 4.507890 4.757120 -3.457800 
#    y 4.757120 11.674530 -6.991060 
#    z -3.457800 -6.991060 7.383880 
# 
# From -- ./inp_files/53161.got.cif
#   From: 2010.05.17/outbox.cif.g08.bks.cpg/sg2_27_cif.got.tgz:53161.got - 2010.06.03 11:33:40.
