data_PCOD9019705
_publ_section_title
;
Structure prediction by ZEFSAII (Michael W. Deem and Ramdas Pophale) SiO2 
 PCOD9019705
Probable space group: P -1
;
_chemical_formula_sum "Si O2"
_cell_formula_units_Z 13
_cell_length_a 17.873373
_cell_length_b 3.377168
_cell_length_c 6.438115
_cell_angle_alpha 89.929970
_cell_angle_beta 78.470952
_cell_angle_gamma 99.310737
_cell_volume 375.529772
_symmetry_space_group_name_H-M "P -1"
_symmetry_group_IT_number 2
_symmetry_cell_setting 'triclinic'
loop_
_space_group_symop_operation_xyz
x,y,z
-x,-y,-z
loop_
_atom_site_type_symbol
_atom_site_label
_atom_site_fract_x
_atom_site_fract_y
_atom_site_fract_z
Si Si1 0.075741 0.346482 0.042809
Si Si2 0.306129 0.076389 0.737413
Si Si3 0.387806 0.902934 0.079821
Si Si4 0.848540 0.046035 0.393926
Si Si5 0.565756 0.556310 0.638629
Si Si6 0.000000 0.000000 0.500000
Si Si7 0.225341 0.461909 0.170188
O O1 0.152236 0.609229 0.101882
O O2 0.042579 0.073051 0.254976
O O3 0.113308 0.170364 0.817554
O O4 0.000000 0.500000 0.000000
O O5 0.229639 0.839978 0.664883
O O6 0.353359 0.348555 0.533910
O O7 0.265413 0.284779 0.948626
O O8 0.375193 0.923400 0.835753
O O9 0.439576 0.945891 0.284705
O O10 0.298296 0.785337 0.204424
O O11 0.413022 0.424141 0.097118
O O12 0.812235 0.764063 0.605118
O O13 0.929393 0.275393 0.453879
O O14 0.500000 0.500000 0.500000
#
# Coordination Sequence:
#
# PCOD9019705 Si02
#       7
#     2   2   2   2   2   1   2
#     4  10  23  41  62  99 142 191 238 306 366 419
#     4  11  24  46  76 101 150 195 244 306 367 434
#     4  12  25  49  74 112 145 190 249 297 365 450
#     4  10  21  45  66  99 146 190 249 301 365 426
#     4  12  29  50  77 112 151 189 240 305 375 445
#     4  10  22  38  60  94 132 180 242 288 348 426
#     4  10  23  46  69 105 142 193 255 297 359 446
#
# _framework density 34.617764999999999
#
# number of rings (size 3 to 8) (size 9 to 14) (size 15 to 20)
#    0.000    1.231    3.077    0.923    4.308    3.692 
#   11.077    0.000    0.000    0.000    0.000    0.000 
#    0.000    0.000    0.000    0.000    0.000    0.000 
#
# Total GULP energy -72437.881486 kJ/mol
# GULP energy per Si atom -5572.144730 kJ/mol
# Density = 3.453897 g / cm^3
# Si number density = 34.617765 Si / 1000 Ang^3
#
#
#
# Elastic Constant Matrix: (Units=GPa)
#
#
# Indices 1 2 3 4 5 6 
#
# 1 323.1541 62.1167 88.0752 -5.0620 68.1383 11.6063
# 2 62.1167 145.3751 66.5532 22.0370 46.1596 13.2727
# 3 88.0752 66.5532 271.0422 -31.3684 53.9890 -12.2700
# 4 -5.0620 22.0370 -31.3684 117.8821 -10.3337 21.4776
# 5 68.1383 46.1596 53.9890 -10.3337 121.7123 -0.0631
# 6 11.6063 13.2727 -12.2700 21.4776 -0.0631 97.3862
#
#
#
# Elastic Compliance Matrix: (Units=1/GPa)
#
#
# Indices 1 2 3 4 5 6 
#
# 1 0.003778 -0.000762 -0.000759 0.000056 -0.001485 -0.000455
# 2 -0.000762 0.009263 -0.001843 -0.002308 -0.002465 -0.000896
# 3 -0.000759 -0.001843 0.004750 0.001385 -0.000865 0.000634
# 4 0.000056 -0.002308 0.001385 0.009678 0.001051 -0.001651
# 5 -0.001485 -0.002465 -0.000865 0.001051 0.010455 0.000179
# 6 -0.000455 -0.000896 0.000634 -0.001651 0.000179 0.010889
#
#
# Mechanical properties :
#
#
# Convention : Reuss Voigt Hill
#
# Bulk Modulus (GPa) = 90.40260 130.34018 110.37139
# Shear Modulus (GPa) = 84.41695 102.25120 93.33408
#
# Velocity S-wave (km/s) = 4.94352 5.44071 5.19806
# Velocity P-wave (km/s) = 7.66523 8.78643 8.24491
#
# Compressibility (1/GPa) = 0.01106163
#
# Stress axis : x y z
#
# Youngs Moduli (GPa) = 264.67651 107.96049 210.52662
#
# Poissons Ratio (x) = 0.08230 0.15978
# Poissons Ratio (y) = 0.20176 0.38808
# Poissons Ratio (z) = 0.20087 0.19901
#
# Static dielectric constant tensor:
#      x y z
#    x 2.600040 -0.208340 0.115330 
#    y -0.208340 4.165090 -0.102730 
#    z 0.115330 -0.102730 2.462670 
# 
# From -- ./inp_files/6689.got.cif
#   From: 2010.05.17/outbox.cif.g08.bks.cpg/sg2_4_cif.got.tgz:6689.got - 2010.06.03 11:33:40.
