data_PCOD9019425
_publ_section_title
;
Structure prediction by ZEFSAII (Michael W. Deem and Ramdas Pophale) SiO2 
 PCOD9019425
Probable space group: P -1
;
_chemical_formula_sum "Si O2"
_cell_formula_units_Z 15
_cell_length_a 12.049155
_cell_length_b 7.772013
_cell_length_c 10.174215
_cell_angle_alpha 132.135750
_cell_angle_beta 55.557580
_cell_angle_gamma 116.321180
_cell_volume 579.482998
_symmetry_space_group_name_H-M "P -1"
_symmetry_group_IT_number 2
_symmetry_cell_setting 'triclinic'
loop_
_space_group_symop_operation_xyz
x,y,z
-x,-y,-z
loop_
_atom_site_type_symbol
_atom_site_label
_atom_site_fract_x
_atom_site_fract_y
_atom_site_fract_z
Si Si1 0.619340 0.727932 0.092342
Si Si2 0.626733 0.848303 0.858282
Si Si3 0.869465 0.114378 0.193106
Si Si4 0.661146 0.420188 0.435487
Si Si5 0.851506 0.014123 0.441091
Si Si6 0.708717 0.551932 0.195373
Si Si7 0.500000 0.000000 0.500000
Si Si8 0.872854 0.204863 0.806159
O O1 0.381698 0.294204 0.072252
O O2 0.748738 0.913243 0.136220
O O3 0.635615 0.536429 0.095443
O O4 0.491871 0.849505 0.291522
O O5 0.653815 0.670410 0.633179
O O6 0.762263 0.028685 0.865507
O O7 0.500000 0.000000 0.000000
O O8 0.882527 0.159479 0.362955
O O9 0.815866 0.347917 0.293020
O O10 0.000000 0.000000 0.000000
O O11 0.629993 0.421787 0.301961
O O12 0.573162 0.230698 0.485679
O O13 0.733259 0.818391 0.368628
O O14 0.833689 0.168154 0.659783
O O15 0.978876 0.871266 0.313495
O O16 0.848091 0.452287 0.011097
#
# Coordination Sequence:
#
# PCOD9019425 Si02
#       8
#     2   2   2   2   2   2   1   2
#     4  10  25  43  69 104 138 189 244 298 365 435
#     4  12  28  47  70 105 152 195 250 305 358 437
#     4  10  21  44  72 100 145 186 243 296 367 440
#     4  11  25  45  74 102 146 189 247 307 365 438
#     4  10  22  42  71 108 145 188 236 306 363 446
#     4  11  23  44  73 105 146 189 240 304 376 433
#     4  10  24  46  70  96 136 186 254 292 362 422
#     4  11  23  43  71 106 148 187 250 290 373 439
#
# _framework density 25.885141999999998
#
# number of rings (size 3 to 8) (size 9 to 14) (size 15 to 20)
#    0.000    1.333    1.333    3.600    5.600    3.200 
#    0.000    1.333    0.000    0.000    0.000    0.000 
#    0.000    0.000    0.000    0.000    0.000    0.000 
#
# Total GULP energy -83614.623208 kJ/mol
# GULP energy per Si atom -5574.308214 kJ/mol
# Density = 2.582623 g / cm^3
# Si number density = 25.885142 Si / 1000 Ang^3
#
#
#
# Elastic Constant Matrix: (Units=GPa)
#
#
# Indices 1 2 3 4 5 6 
#
# 1 96.3032 22.1487 43.5801 -11.8253 6.2380 -12.1365
# 2 22.1487 65.6784 37.2144 -18.4720 8.2761 -21.7126
# 3 43.5801 37.2144 167.3179 -11.8919 3.5161 -20.7542
# 4 -11.8253 -18.4720 -11.8919 43.8034 -14.0656 13.0732
# 5 6.2380 8.2761 3.5161 -14.0656 46.9100 -9.8824
# 6 -12.1365 -21.7126 -20.7542 13.0732 -9.8824 42.2422
#
#
#
# Elastic Compliance Matrix: (Units=1/GPa)
#
#
# Indices 1 2 3 4 5 6 
#
# 1 0.012297 -0.002009 -0.002560 0.001405 -0.000523 0.000685
# 2 -0.002009 0.021575 -0.002973 0.005528 -0.000118 0.007313
# 3 -0.002560 -0.002973 0.007477 -0.000209 0.000581 0.001611
# 4 0.001405 0.005528 -0.000209 0.028875 0.006617 -0.004246
# 5 -0.000523 -0.000118 0.000581 0.006617 0.024121 0.003670
# 6 0.000685 0.007313 0.001611 -0.004246 0.003670 0.030593
#
#
# Mechanical properties :
#
#
# Convention : Reuss Voigt Hill
#
# Bulk Modulus (GPa) = 38.07193 59.46509 48.76851
# Shear Modulus (GPa) = 33.60706 41.68154 37.64430
#
# Velocity S-wave (km/s) = 3.60712 4.01714 3.81764
# Velocity P-wave (km/s) = 5.66466 6.67377 6.18981
#
# Compressibility (1/GPa) = 0.02626607
#
# Stress axis : x y z
#
# Youngs Moduli (GPa) = 81.31884 46.34993 133.73469
#
# Poissons Ratio (x) = 0.09310 0.34241
# Poissons Ratio (y) = 0.16333 0.39759
# Poissons Ratio (z) = 0.20821 0.13780
#
# Static dielectric constant tensor:
#      x y z
#    x 1.899980 0.559450 0.116430 
#    y 0.559450 0.509580 -0.615270 
#    z 0.116430 -0.615270 1.793960 
# 
# From -- ./inp_files/445299.got.cif
#   From: 2010.05.17/outbox.cif.g08.bks.cpg/sg2_223_cif.got.tgz:445299.got - 2010.06.03 11:33:40.
