data_PCOD9019728
_publ_section_title
;
Structure prediction by ZEFSAII (Michael W. Deem and Ramdas Pophale) SiO2 
 PCOD9019728
Probable space group: P -1
;
_chemical_formula_sum "Si O2"
_cell_formula_units_Z 14
_cell_length_a 16.417393
_cell_length_b 13.516842
_cell_length_c 8.357190
_cell_angle_alpha 124.456402
_cell_angle_beta 124.445505
_cell_angle_gamma 21.410467
_cell_volume 553.546227
_symmetry_space_group_name_H-M "P -1"
_symmetry_group_IT_number 2
_symmetry_cell_setting 'triclinic'
loop_
_space_group_symop_operation_xyz
x,y,z
-x,-y,-z
loop_
_atom_site_type_symbol
_atom_site_label
_atom_site_fract_x
_atom_site_fract_y
_atom_site_fract_z
Si Si1 0.619872 0.029276 0.094037
Si Si2 0.477351 0.076602 0.316665
Si Si3 0.820502 0.394258 0.011877
Si Si4 0.553507 0.575542 0.179004
Si Si5 0.955716 0.073113 0.336416
Si Si6 0.837442 0.808780 0.652171
Si Si7 0.995169 0.291423 0.582637
O O1 0.587799 0.992972 0.191807
O O2 0.854558 0.839601 0.215361
O O3 0.395057 0.352021 0.110358
O O4 0.624737 0.942124 0.859577
O O5 0.266143 0.395906 0.392931
O O6 0.659879 0.893557 0.494392
O O7 0.714911 0.465016 0.127752
O O8 0.961872 0.364312 0.164778
O O9 0.971642 0.119699 0.863851
O O10 0.696278 0.392604 0.326869
O O11 0.337072 0.891713 0.249052
O O12 0.500000 0.500000 0.000000
O O13 0.069551 0.075407 0.421581
O O14 0.000000 0.000000 0.500000
O O15 0.953261 0.686618 0.495656
#
# Coordination Sequence:
#
# PCOD9019728 Si02
#       7
#     2   2   2   2   2   2   2
#     4  10  25  40  67  96 133 167 219 268 320 384
#     4  10  21  45  67  95 126 176 216 267 322 378
#     4  12  25  43  63 104 131 168 215 265 327 383
#     4  12  24  43  65  93 136 175 209 264 325 384
#     4  12  25  40  67  98 129 168 215 263 321 389
#     4  11  22  41  69  90 129 174 212 264 323 380
#     4  11  22  42  66  94 129 173 216 265 320 385
#
# _framework density 25.291474000000001
#
# number of rings (size 3 to 8) (size 9 to 14) (size 15 to 20)
#    0.000    0.857    4.286    2.571    4.000    2.286 
#    0.000    2.857    0.000    0.000    0.000    0.000 
#    0.000    0.000    0.000    0.000    0.000    0.000 
#
# Total GULP energy -78184.215010 kJ/mol
# GULP energy per Si atom -5584.586786 kJ/mol
# Density = 2.523391 g / cm^3
# Si number density = 25.291474 Si / 1000 Ang^3
#
#
#
# Elastic Constant Matrix: (Units=GPa)
#
#
# Indices 1 2 3 4 5 6 
#
# 1 45.1583 12.4141 19.0916 -16.3016 9.4037 -10.0642
# 2 12.4141 127.7576 51.5982 -10.5502 9.3503 13.5654
# 3 19.0916 51.5982 138.4781 -5.5910 24.4279 -9.7003
# 4 -16.3016 -10.5502 -5.5910 59.6760 1.9730 0.4730
# 5 9.4037 9.3503 24.4279 1.9730 48.5230 -0.4452
# 6 -10.0642 13.5654 -9.7003 0.4730 -0.4452 29.3667
#
#
#
# Elastic Compliance Matrix: (Units=1/GPa)
#
#
# Indices 1 2 3 4 5 6 
#
# 1 0.029465 -0.002527 -0.001218 0.007563 -0.004820 0.010668
# 2 -0.002527 0.010523 -0.004113 0.000827 0.000434 -0.007092
# 3 -0.001218 -0.004113 0.009944 -0.000035 -0.003933 0.004708
# 4 0.007563 0.000827 -0.000035 0.019029 -0.002364 0.001856
# 5 -0.004820 0.000434 -0.003933 -0.002364 0.023510 -0.002757
# 6 0.010668 -0.007092 0.004708 0.001856 -0.002757 0.042468
#
#
# Mechanical properties :
#
#
# Convention : Reuss Voigt Hill
#
# Bulk Modulus (GPa) = 29.22454 53.06685 41.14570
# Shear Modulus (GPa) = 30.85276 42.73247 36.79261
#
# Velocity S-wave (km/s) = 3.49648 4.11493 3.81825
# Velocity P-wave (km/s) = 5.28021 6.60338 5.97851
#
# Compressibility (1/GPa) = 0.03421782
#
# Stress axis : x y z
#
# Youngs Moduli (GPa) = 33.93847 95.02572 100.56492
#
# Poissons Ratio (x) = 0.24009 0.12248
# Poissons Ratio (y) = 0.08575 0.41359
# Poissons Ratio (z) = 0.04134 0.39081
#
# Static dielectric constant tensor:
#      x y z
#    x 2.321850 -0.029520 0.186600 
#    y -0.029520 1.988780 -0.078830 
#    z 0.186600 -0.078830 2.107430 
# 
# From -- ./inp_files/23933.got.cif
#   From: 2010.05.17/outbox.cif.g08.bks.cpg/sg2_12_cif.got.tgz:23933.got - 2010.06.03 11:33:40.
