data_PCOD9019756
_publ_section_title
;
Structure prediction by ZEFSAII (Michael W. Deem and Ramdas Pophale) SiO2 
 PCOD9019756
Probable space group: P -1
;
_chemical_formula_sum "Si O2"
_cell_formula_units_Z 14
_cell_length_a 8.802434
_cell_length_b 5.388999
_cell_length_c 20.383521
_cell_angle_alpha 103.130464
_cell_angle_beta 34.133778
_cell_angle_gamma 103.134238
_cell_volume 527.018090
_symmetry_space_group_name_H-M "P -1"
_symmetry_group_IT_number 2
_symmetry_cell_setting 'triclinic'
loop_
_space_group_symop_operation_xyz
x,y,z
-x,-y,-z
loop_
_atom_site_type_symbol
_atom_site_label
_atom_site_fract_x
_atom_site_fract_y
_atom_site_fract_z
Si Si1 0.230494 0.303631 0.396869
Si Si2 0.445328 0.131401 0.440220
Si Si3 0.234877 0.333718 0.756805
Si Si4 0.675366 0.755371 0.930857
Si Si5 0.899453 0.607175 0.327857
Si Si6 0.115184 0.895037 0.018290
Si Si7 0.703230 0.692624 0.773073
O O1 0.243631 0.152478 0.451069
O O2 0.533994 0.444296 0.299496
O O3 0.211806 0.204492 0.322596
O O4 0.000000 0.500000 0.500000
O O5 0.664138 0.372711 0.390707
O O6 0.255483 0.154101 0.573386
O O7 0.601331 0.892956 0.346167
O O8 0.023021 0.367485 0.775120
O O9 0.087931 0.277094 0.874203
O O10 0.814802 0.775195 0.810584
O O11 0.851713 0.846560 0.934731
O O12 0.500000 0.500000 0.000000
O O13 0.500000 0.000000 0.000000
O O14 0.151648 0.574896 0.285959
O O15 0.387199 0.746394 0.898591
O O16 0.000000 0.000000 0.000000
#
# Coordination Sequence:
#
# PCOD9019756 Si02
#       7
#     2   2   2   2   2   2   2
#     4  11  24  46  69 105 145 198 251 317 388 464
#     4  10  21  45  68 101 141 189 249 312 383 465
#     4  11  25  43  70 106 144 194 255 314 396 464
#     4  10  25  48  75 112 152 206 264 324 392 476
#     4  10  22  41  72 100 142 192 243 317 386 460
#     4  11  26  49  76 111 152 205 256 322 397 474
#     4  11  24  44  72 104 151 194 256 312 390 467
#
# _framework density 26.564550000000001
#
# number of rings (size 3 to 8) (size 9 to 14) (size 15 to 20)
#    0.000    1.429    1.429    2.143    6.000    2.286 
#    2.571    0.000    0.000    0.000    0.000    0.000 
#    0.000    0.000    0.000    0.000    0.000    0.000 
#
# Total GULP energy -78071.477050 kJ/mol
# GULP energy per Si atom -5576.534075 kJ/mol
# Density = 2.650409 g / cm^3
# Si number density = 26.564550 Si / 1000 Ang^3
#
#
#
# Elastic Constant Matrix: (Units=GPa)
#
#
# Indices 1 2 3 4 5 6 
#
# 1 191.3079 27.0968 72.7193 -13.1932 25.7711 -37.5256
# 2 27.0968 39.2586 -3.5026 -9.0586 5.3153 9.3174
# 3 72.7193 -3.5026 156.9595 0.1766 28.4716 -14.8293
# 4 -13.1932 -9.0586 0.1766 37.8477 -9.5859 0.9712
# 5 25.7711 5.3153 28.4716 -9.5859 64.3640 1.1836
# 6 -37.5256 9.3174 -14.8293 0.9712 1.1836 53.5572
#
#
#
# Elastic Compliance Matrix: (Units=1/GPa)
#
#
# Indices 1 2 3 4 5 6 
#
# 1 0.009356 -0.008048 -0.003582 0.000791 -0.001508 0.006983
# 2 -0.008048 0.035306 0.003510 0.005865 -0.000172 -0.010912
# 3 -0.003582 0.003510 0.008554 -0.001140 -0.002797 -0.000669
# 4 0.000791 0.005865 -0.001140 0.029174 0.004074 -0.001401
# 5 -0.001508 -0.000172 -0.002797 0.004074 0.018040 -0.002274
# 6 0.006983 -0.010912 -0.000669 -0.001401 -0.002274 0.025353
#
#
# Mechanical properties :
#
#
# Convention : Reuss Voigt Hill
#
# Bulk Modulus (GPa) = 27.04360 64.46145 45.75253
# Shear Modulus (GPa) = 32.39420 50.56793 41.48107
#
# Velocity S-wave (km/s) = 3.49585 4.36774 3.95589
# Velocity P-wave (km/s) = 5.14753 7.05372 6.17463
#
# Compressibility (1/GPa) = 0.03697732
#
# Stress axis : x y z
#
# Youngs Moduli (GPa) = 106.88490 28.32361 116.90006
#
# Poissons Ratio (x) = 0.22794 0.41872
# Poissons Ratio (y) = 0.86018 -0.41032
# Poissons Ratio (z) = 0.38285 -0.09942
#
# Static dielectric constant tensor:
#      x y z
#    x 2.308080 0.011270 -0.065300 
#    y 0.011270 2.341730 0.136890 
#    z -0.065300 0.136890 2.412610 
# 
# From -- ./inp_files/585301.got.cif
#   From: 2010.05.17/outbox.cif.g08.bks.cpg/sg2_293_cif.got.tgz:585301.got - 2010.06.03 11:33:40.
