data_PCOD9019273
_publ_section_title
;
Structure prediction by ZEFSAII (Michael W. Deem and Ramdas Pophale) SiO2 
 PCOD9019273
Probable space group: P -1
;
_chemical_formula_sum "Si O2"
_cell_formula_units_Z 14
_cell_length_a 7.099182
_cell_length_b 13.658122
_cell_length_c 8.681783
_cell_angle_alpha 131.806134
_cell_angle_beta 59.081865
_cell_angle_gamma 97.143610
_cell_volume 506.023714
_symmetry_space_group_name_H-M "P -1"
_symmetry_group_IT_number 2
_symmetry_cell_setting 'triclinic'
loop_
_space_group_symop_operation_xyz
x,y,z
-x,-y,-z
loop_
_atom_site_type_symbol
_atom_site_label
_atom_site_fract_x
_atom_site_fract_y
_atom_site_fract_z
Si Si1 0.707469 0.442712 0.656112
Si Si2 0.754468 0.076648 0.769302
Si Si3 0.272366 0.210004 0.528695
Si Si4 0.072638 0.851177 0.905015
Si Si5 0.604306 0.838789 0.234146
Si Si6 0.817750 0.414237 0.993691
Si Si7 0.181722 0.443517 0.580251
O O1 0.912766 0.449372 0.689747
O O2 0.562462 0.489265 0.114856
O O3 0.738219 0.538756 0.603654
O O4 0.782025 0.280951 0.399868
O O5 0.579431 0.181509 0.831558
O O6 0.804453 0.129547 0.968147
O O7 0.644549 0.953131 0.712684
O O8 0.000000 0.000000 0.500000
O O9 0.352773 0.234610 0.693424
O O10 0.317563 0.303011 0.470059
O O11 0.988754 0.264201 0.716145
O O12 0.842099 0.819059 0.022847
O O13 0.000000 0.000000 0.000000
O O14 0.500000 0.000000 0.500000
O O15 0.781762 0.428796 0.208547
O O16 0.000000 0.500000 0.000000
#
# Coordination Sequence:
#
# PCOD9019273 Si02
#       7
#     2   2   2   2   2   2   2
#     4  11  25  46  69 108 154 193 245 310 382 434
#     4  11  23  46  75 106 144 195 239 308 372 434
#     4  10  21  44  70 105 141 188 258 297 368 444
#     4  12  26  45  73 114 148 191 242 309 380 443
#     4  10  22  44  69 100 146 185 241 301 358 442
#     4  10  23  44  70 103 139 192 250 308 363 440
#     4  10  23  44  67 101 148 195 243 298 371 445
#
# _framework density 27.666688000000001
#
# number of rings (size 3 to 8) (size 9 to 14) (size 15 to 20)
#    0.000    1.429    2.857    2.143    0.000    8.571 
#   12.857    0.000    0.000    0.857    0.000    0.000 
#    0.000    0.000    0.000    0.000    0.000    0.000 
#
# Total GULP energy -78401.712354 kJ/mol
# GULP energy per Si atom -5600.122311 kJ/mol
# Density = 2.760372 g / cm^3
# Si number density = 27.666688 Si / 1000 Ang^3
#
#
#
# Elastic Constant Matrix: (Units=GPa)
#
#
# Indices 1 2 3 4 5 6 
#
# 1 214.9342 65.3503 62.4403 -27.6233 -1.9584 -42.6231
# 2 65.3503 204.1876 39.2145 1.3544 13.5016 -23.4428
# 3 62.4403 39.2145 101.7307 12.2753 -0.7192 -19.0253
# 4 -27.6233 1.3544 12.2753 48.6644 -5.7697 11.5962
# 5 -1.9584 13.5016 -0.7192 -5.7697 65.0152 -15.1112
# 6 -42.6231 -23.4428 -19.0253 11.5962 -15.1112 47.8690
#
#
#
# Elastic Compliance Matrix: (Units=1/GPa)
#
#
# Indices 1 2 3 4 5 6 
#
# 1 0.007618 -0.001372 -0.003944 0.004620 0.001810 0.003996
# 2 -0.001372 0.005742 -0.001047 -0.001063 -0.001087 0.001088
# 3 -0.003944 -0.001047 0.014051 -0.006481 0.000438 0.003268
# 4 0.004620 -0.001063 -0.006481 0.026168 0.001482 -0.004854
# 5 0.001810 -0.001087 0.000438 0.001482 0.017273 0.006347
# 6 0.003996 0.001088 0.003268 -0.004854 0.006347 0.029459
#
#
# Mechanical properties :
#
#
# Convention : Reuss Voigt Hill
#
# Bulk Modulus (GPa) = 68.10364 94.98475 81.54419
# Shear Modulus (GPa) = 42.39720 55.89952 49.14836
#
# Velocity S-wave (km/s) = 3.91887 4.49983 4.21936
# Velocity P-wave (km/s) = 6.71907 7.83609 7.29898
#
# Compressibility (1/GPa) = 0.01468350
#
# Stress axis : x y z
#
# Youngs Moduli (GPa) = 131.26213 174.16901 71.17100
#
# Poissons Ratio (x) = 0.23901 0.28073
# Poissons Ratio (y) = 0.18013 0.07451
# Poissons Ratio (z) = 0.51775 0.18233
#
# Static dielectric constant tensor:
#      x y z
#    x 2.154500 0.029290 -0.019790 
#    y 0.029290 2.213890 0.015150 
#    z -0.019790 0.015150 2.227140 
# 
# From -- ./inp_files/194006.got.cif
#   From: 2010.05.17/outbox.cif.g08.bks.cpg/sg2_98_cif.got.tgz:194006.got - 2010.06.03 11:33:40.
