data_PCOD9019734
_publ_section_title
;
Structure prediction by ZEFSAII (Michael W. Deem and Ramdas Pophale) SiO2 
 PCOD9019734
Probable space group: P -1
;
_chemical_formula_sum "Si O2"
_cell_formula_units_Z 16
_cell_length_a 6.755845
_cell_length_b 11.931566
_cell_length_c 22.479661
_cell_angle_alpha 143.425709
_cell_angle_beta 141.552011
_cell_angle_gamma 45.477608
_cell_volume 658.496763
_symmetry_space_group_name_H-M "P -1"
_symmetry_group_IT_number 2
_symmetry_cell_setting 'triclinic'
loop_
_space_group_symop_operation_xyz
x,y,z
-x,-y,-z
loop_
_atom_site_type_symbol
_atom_site_label
_atom_site_fract_x
_atom_site_fract_y
_atom_site_fract_z
Si Si1 0.886220 0.441072 0.555993
Si Si2 0.914358 0.430499 0.876475
Si Si3 0.085318 0.141457 0.258371
Si Si4 0.797012 0.610867 0.269989
Si Si5 0.007414 0.835587 0.880659
Si Si6 0.732105 0.806775 0.043335
Si Si7 0.114846 0.808099 0.337658
Si Si8 0.225285 0.145169 0.424789
O O1 0.500000 0.500000 0.500000
O O2 0.037658 0.631257 0.673043
O O3 0.056864 0.333783 0.608772
O O4 0.967244 0.327795 0.465692
O O5 0.579472 0.401121 0.816753
O O6 0.859832 0.382436 0.776258
O O7 0.208191 0.289281 0.918208
O O8 0.957060 0.646994 0.988003
O O9 0.279591 0.114931 0.354724
O O10 0.212050 0.101023 0.202898
O O11 0.827101 0.009603 0.152510
O O12 0.990781 0.392716 0.204700
O O13 0.840040 0.778432 0.306341
O O14 0.377180 0.820646 0.940614
O O15 0.000000 0.000000 0.000000
O O16 0.436180 0.824573 0.455787
O O17 0.096949 0.972464 0.353801
#
# Coordination Sequence:
#
# PCOD9019734 Si02
#       8
#     2   2   2   2   2   2   2   2
#     4  11  24  42  62  98 140 178 221 274 327 404
#     4  10  21  45  67  96 135 171 225 282 329 400
#     4  11  23  41  67  97 133 181 217 270 340 398
#     4  10  23  43  66  98 130 177 225 274 335 391
#     4  10  24  43  64 100 136 174 224 271 333 407
#     4  10  22  42  67  95 128 175 223 273 339 384
#     4  11  23  43  72  96 135 176 222 284 333 391
#     4  11  24  43  66 102 132 175 231 268 341 396
#
# _framework density 24.297767
#
# number of rings (size 3 to 8) (size 9 to 14) (size 15 to 20)
#    0.000    1.500    2.500    1.500    1.750    4.500 
#    2.250    1.875    0.000    0.000    0.000    0.000 
#    0.000    0.000    0.000    0.000    0.000    0.000 
#
# Total GULP energy -89240.034259 kJ/mol
# GULP energy per Si atom -5577.502141 kJ/mol
# Density = 2.424246 g / cm^3
# Si number density = 24.297767 Si / 1000 Ang^3
#
#
#
# Elastic Constant Matrix: (Units=GPa)
#
#
# Indices 1 2 3 4 5 6 
#
# 1 61.3807 38.8167 27.7561 3.8519 -29.3248 11.9423
# 2 38.8167 63.5638 28.8886 -7.0780 -21.0611 13.5007
# 3 27.7561 28.8886 119.2173 -13.9578 -29.8658 11.3469
# 4 3.8519 -7.0780 -13.9578 31.2776 11.6808 -2.0206
# 5 -29.3248 -21.0611 -29.8658 11.6808 34.5116 -9.3332
# 6 11.9423 13.5007 11.3469 -2.0206 -9.3332 32.9519
#
#
#
# Elastic Compliance Matrix: (Units=1/GPa)
#
#
# Indices 1 2 3 4 5 6 
#
# 1 0.047836 -0.019664 0.000048 -0.024061 0.036732 -0.000368
# 2 -0.019664 0.029061 -0.002241 0.009754 -0.005563 -0.004986
# 3 0.000048 -0.002241 0.011053 0.001565 0.007525 -0.000678
# 4 -0.024061 0.009754 0.001565 0.048988 -0.030078 -0.001330
# 5 0.036732 -0.005563 0.007525 -0.030078 0.075050 0.005788
# 6 -0.000368 -0.004986 -0.000678 -0.001330 0.005788 0.034315
#
#
# Mechanical properties :
#
#
# Convention : Reuss Voigt Hill
#
# Bulk Modulus (GPa) = 22.60658 48.34273 35.47465
# Shear Modulus (GPa) = 16.40622 29.66157 23.03389
#
# Velocity S-wave (km/s) = 2.60131 3.49772 3.08228
# Velocity P-wave (km/s) = 4.28329 6.02090 5.22483
#
# Compressibility (1/GPa) = 0.04423492
#
# Stress axis : x y z
#
# Youngs Moduli (GPa) = 20.90470 34.41030 90.47456
#
# Poissons Ratio (x) = 0.67666 -0.00432
# Poissons Ratio (y) = 0.41108 0.20275
# Poissons Ratio (z) = -0.00100 0.07711
#
# Static dielectric constant tensor:
#      x y z
#    x 1.942500 0.008480 -0.068370 
#    y 0.008480 2.015680 0.023360 
#    z -0.068370 0.023360 1.943740 
# 
# From -- ./inp_files/583335.got.cif
#   From: 2010.05.17/outbox.cif.g08.bks.cpg/sg2_292_cif.got.tgz:583335.got - 2010.06.03 11:33:40.
