data_PCOD9019545
_publ_section_title
;
Structure prediction by ZEFSAII (Michael W. Deem and Ramdas Pophale) SiO2 
 PCOD9019545
Probable space group: P -1
;
_chemical_formula_sum "Si O2"
_cell_formula_units_Z 16
_cell_length_a 17.353096
_cell_length_b 8.520491
_cell_length_c 10.606871
_cell_angle_alpha 45.174460
_cell_angle_beta 130.441597
_cell_angle_gamma 140.686334
_cell_volume 685.872513
_symmetry_space_group_name_H-M "P -1"
_symmetry_group_IT_number 2
_symmetry_cell_setting 'triclinic'
loop_
_space_group_symop_operation_xyz
x,y,z
-x,-y,-z
loop_
_atom_site_type_symbol
_atom_site_label
_atom_site_fract_x
_atom_site_fract_y
_atom_site_fract_z
Si Si1 0.328520 0.917804 0.386704
Si Si2 0.022905 0.230486 0.992988
Si Si3 0.644843 0.831008 0.184658
Si Si4 0.382042 0.434839 0.028461
Si Si5 0.309503 0.610539 0.097437
Si Si6 0.062899 0.517831 0.424319
Si Si7 0.415624 0.659608 0.451704
Si Si8 0.162477 0.171854 0.766278
O O1 0.349216 0.135248 0.181989
O O2 0.446788 0.084391 0.509222
O O3 0.328363 0.689703 0.437539
O O4 0.203048 0.791382 0.402611
O O5 0.163925 0.397511 0.095691
O O6 0.923266 0.070772 0.088675
O O7 0.008241 0.443771 0.783456
O O8 0.000000 0.000000 0.000000
O O9 0.531784 0.660703 0.057992
O O10 0.603800 0.619684 0.373970
O O11 0.775017 0.905818 0.226162
O O12 0.659960 0.104139 0.078572
O O13 0.343301 0.491088 0.088919
O O14 0.287309 0.415301 0.836844
O O15 0.385513 0.665682 0.273232
O O16 0.082305 0.278429 0.573823
O O17 0.000000 0.500000 0.500000
#
# Coordination Sequence:
#
# PCOD9019545 Si02
#       8
#     2   2   2   2   2   2   2   2
#     4  10  21  44  74 101 141 179 241 284 346 423
#     4  12  25  49  68 101 138 185 243 283 345 411
#     4  11  26  44  68 108 140 185 232 288 361 422
#     4  11  23  45  71 106 143 183 235 294 352 416
#     4  12  26  46  71 100 149 184 229 300 355 414
#     4  12  23  40  72 103 130 183 238 289 334 406
#     4  10  24  46  70 107 140 184 229 294 358 413
#     4  12  24  44  74  99 140 186 242 288 338 422
#
# _framework density 23.327950999999999
#
# number of rings (size 3 to 8) (size 9 to 14) (size 15 to 20)
#    0.000    0.750    5.000    1.500    1.750    3.500 
#    6.750    1.250    0.000    0.000    0.000    0.000 
#    0.000    0.000    0.000    0.000    0.000    0.000 
#
# Total GULP energy -89618.704149 kJ/mol
# GULP energy per Si atom -5601.169009 kJ/mol
# Density = 2.327486 g / cm^3
# Si number density = 23.327951 Si / 1000 Ang^3
#
#
#
# Elastic Constant Matrix: (Units=GPa)
#
#
# Indices 1 2 3 4 5 6 
#
# 1 102.9106 -0.3075 21.6999 -0.9167 0.5813 27.4405
# 2 -0.3075 42.4849 14.7777 -12.8518 -3.4028 4.7397
# 3 21.6999 14.7777 120.5052 -9.6437 3.3841 -17.3441
# 4 -0.9167 -12.8518 -9.6437 26.3381 6.7342 -9.6624
# 5 0.5813 -3.4028 3.3841 6.7342 27.5669 0.0931
# 6 27.4405 4.7397 -17.3441 -9.6624 0.0931 22.0791
#
#
#
# Elastic Compliance Matrix: (Units=1/GPa)
#
#
# Indices 1 2 3 4 5 6 
#
# 1 0.032612 0.006264 -0.019777 -0.031960 0.010562 -0.071442
# 2 0.006264 0.029712 -0.006995 0.004890 0.003259 -0.017531
# 3 -0.019777 -0.006995 0.023408 0.027925 -0.010333 0.056734
# 4 -0.031960 0.004890 0.027925 0.093150 -0.025249 0.101479
# 5 0.010562 0.003259 -0.010333 -0.025249 0.044003 -0.033179
# 6 -0.071442 -0.017531 0.056734 0.101479 -0.033179 0.226962
#
#
# Mechanical properties :
#
#
# Convention : Reuss Voigt Hill
#
# Bulk Modulus (GPa) = 22.36424 37.58233 29.97329
# Shear Modulus (GPa) = 9.88590 30.51220 20.19905
#
# Velocity S-wave (km/s) = 2.06082 3.62051 2.94576
# Velocity P-wave (km/s) = 3.90773 5.79852 4.94435
#
# Compressibility (1/GPa) = 0.04471423
#
# Stress axis : x y z
#
# Youngs Moduli (GPa) = 30.66402 33.65603 42.72011
#
# Poissons Ratio (x) = -0.21081 0.84490
# Poissons Ratio (y) = -0.19207 0.29883
# Poissons Ratio (z) = 0.60646 0.23542
#
# Static dielectric constant tensor:
#      x y z
#    x 1.874870 0.007940 0.027080 
#    y 0.007940 1.846150 0.001620 
#    z 0.027080 0.001620 1.883550 
# 
# From -- ./inp_files/469783.got.cif
#   From: 2010.05.17/outbox.cif.g08.bks.cpg/sg2_235_cif.got.tgz:469783.got - 2010.06.03 11:33:40.
