data_PCOD9019698
_publ_section_title
;
Structure prediction by ZEFSAII (Michael W. Deem and Ramdas Pophale) SiO2 
 PCOD9019698
Probable space group: P -1
;
_chemical_formula_sum "Si O2"
_cell_formula_units_Z 12
_cell_length_a 7.047781
_cell_length_b 13.256658
_cell_length_c 5.282193
_cell_angle_alpha 110.077935
_cell_angle_beta 108.971228
_cell_angle_gamma 67.231029
_cell_volume 416.739868
_symmetry_space_group_name_H-M "P -1"
_symmetry_group_IT_number 2
_symmetry_cell_setting 'triclinic'
loop_
_space_group_symop_operation_xyz
x,y,z
-x,-y,-z
loop_
_atom_site_type_symbol
_atom_site_label
_atom_site_fract_x
_atom_site_fract_y
_atom_site_fract_z
Si Si1 0.601586 0.995676 0.763823
Si Si2 0.507551 0.245219 0.077461
Si Si3 0.508219 0.628720 0.390962
Si Si4 0.697591 0.151103 0.646965
Si Si5 0.147815 0.550477 0.937885
Si Si6 0.903010 0.798259 0.980070
O O1 0.395038 0.958791 0.507669
O O2 0.799740 0.880677 0.773798
O O3 0.500000 0.000000 0.000000
O O4 0.675563 0.115221 0.927056
O O5 0.442670 0.371518 0.284997
O O6 0.607841 0.213122 0.391136
O O7 0.288366 0.212926 0.942433
O O8 0.460824 0.723010 0.190546
O O9 0.700628 0.405479 0.775805
O O10 0.714843 0.538828 0.280119
O O11 0.940761 0.146496 0.759333
O O12 0.000000 0.500000 0.000000
O O13 0.024116 0.669965 0.845274
#
# Coordination Sequence:
#
# PCOD9019698 Si02
#       6
#     2   2   2   2   2   2
#     4  10  22  43  67  95 138 174 216 278 333 391
#     4  10  23  39  67  96 134 174 211 278 334 386
#     4  10  21  45  66  98 137 168 222 273 337 390
#     4   9  22  39  64  99 132 170 216 274 328 398
#     4  10  23  42  71  99 132 177 220 276 324 399
#     4  11  21  42  66 101 129 173 228 262 334 401
#
# _framework density 28.794938999999999
#
# number of rings (size 3 to 8) (size 9 to 14) (size 15 to 20)
#    1.000    1.000    0.000    3.000    0.000    2.000 
#    6.000   15.833    0.000    0.000    0.000    0.000 
#    0.000    0.000    0.000    0.000    0.000    0.000 
#
# Total GULP energy -66991.742488 kJ/mol
# GULP energy per Si atom -5582.645207 kJ/mol
# Density = 2.872940 g / cm^3
# Si number density = 28.794939 Si / 1000 Ang^3
#
#
#
# Elastic Constant Matrix: (Units=GPa)
#
#
# Indices 1 2 3 4 5 6 
#
# 1 179.3787 43.0144 146.4298 5.0212 -1.5174 15.1265
# 2 43.0144 271.8076 49.3070 -16.3747 5.5114 34.1215
# 3 146.4298 49.3070 257.9864 -2.9609 -41.4235 11.3846
# 4 5.0212 -16.3747 -2.9609 43.4735 -4.7157 5.6809
# 5 -1.5174 5.5114 -41.4235 -4.7157 94.1767 10.4681
# 6 15.1265 34.1215 11.3846 5.6809 10.4681 53.0508
#
#
#
# Elastic Compliance Matrix: (Units=1/GPa)
#
#
# Indices 1 2 3 4 5 6 
#
# 1 0.011325 -0.000562 -0.006768 -0.002203 -0.002802 -0.000627
# 2 -0.000562 0.004299 -0.000361 0.002016 -0.000014 -0.002741
# 3 -0.006768 -0.000361 0.008438 0.001705 0.003773 -0.000576
# 4 -0.002203 0.002016 0.001705 0.024926 0.002307 -0.004159
# 5 -0.002802 -0.000014 0.003773 0.002307 0.012654 -0.002746
# 6 -0.000627 -0.002741 -0.000576 -0.004159 -0.002746 0.021902
#
#
# Mechanical properties :
#
#
# Convention : Reuss Voigt Hill
#
# Bulk Modulus (GPa) = 115.20674 131.85280 123.52977
# Shear Modulus (GPa) = 49.10615 69.50163 59.30389
#
# Velocity S-wave (km/s) = 4.13410 4.91825 4.54312
# Velocity P-wave (km/s) = 7.92994 8.83979 8.39720
#
# Compressibility (1/GPa) = 0.00868005
#
# Stress axis : x y z
#
# Youngs Moduli (GPa) = 88.29659 232.59773 118.51754
#
# Poissons Ratio (x) = 0.13065 0.80218
# Poissons Ratio (y) = 0.04959 0.04279
# Poissons Ratio (z) = 0.59763 0.08397
#
# Static dielectric constant tensor:
#      x y z
#    x 2.100370 -0.115900 -0.054080 
#    y -0.115900 2.818710 0.256810 
#    z -0.054080 0.256810 2.240850 
# 
# From -- ./inp_files/456254.got.cif
#   From: 2010.05.17/outbox.cif.g08.bks.cpg/sg2_229_cif.got.tgz:456254.got - 2010.06.03 11:33:40.
