data_PCOD9019361
_publ_section_title
;
Structure prediction by ZEFSAII (Michael W. Deem and Ramdas Pophale) SiO2 
 PCOD9019361
Probable space group: P -1
;
_chemical_formula_sum "Si O2"
_cell_formula_units_Z 14
_cell_length_a 9.260647
_cell_length_b 8.435846
_cell_length_c 12.481287
_cell_angle_alpha 127.533831
_cell_angle_beta 121.905002
_cell_angle_gamma 51.356967
_cell_volume 586.407880
_symmetry_space_group_name_H-M "P -1"
_symmetry_group_IT_number 2
_symmetry_cell_setting 'triclinic'
loop_
_space_group_symop_operation_xyz
x,y,z
-x,-y,-z
loop_
_atom_site_type_symbol
_atom_site_label
_atom_site_fract_x
_atom_site_fract_y
_atom_site_fract_z
Si Si1 0.523881 0.423525 0.601700
Si Si2 0.793689 0.692654 0.481017
Si Si3 0.195782 0.017874 0.575072
Si Si4 0.830349 0.746000 0.135368
Si Si5 0.120019 0.126321 0.205034
Si Si6 0.234846 0.357460 0.154429
Si Si7 0.268131 0.633726 0.965154
O O1 0.500000 0.500000 0.500000
O O2 0.356062 0.397785 0.584620
O O3 0.587075 0.589851 0.754453
O O4 0.681527 0.174770 0.537997
O O5 0.796613 0.773572 0.395595
O O6 0.791634 0.864830 0.642201
O O7 0.000000 0.500000 0.500000
O O8 0.249081 0.045960 0.729462
O O9 0.000000 0.000000 0.500000
O O10 0.776312 0.551442 0.070756
O O11 0.058798 0.606518 0.175978
O O12 0.770405 0.792840 0.008246
O O13 0.205792 0.245539 0.204683
O O14 0.888090 0.266766 0.154841
O O15 0.197097 0.866497 0.098118
O O16 0.500000 0.500000 0.000000
#
# Coordination Sequence:
#
# PCOD9019361 Si02
#       7
#     2   2   2   2   2   2   2
#     4  12  25  46  74 108 147 192 249 305 368 448
#     4  12  26  46  73 103 150 193 248 309 372 439
#     4  12  26  46  73 108 145 194 245 300 374 444
#     4  10  23  42  71 100 144 185 244 301 369 432
#     4  10  23  45  70 104 147 192 246 306 370 436
#     4  10  21  44  71 103 141 191 236 306 364 435
#     4  10  23  41  69 100 143 189 243 302 366 440
#
# _framework density 23.874168000000001
#
# number of rings (size 3 to 8) (size 9 to 14) (size 15 to 20)
#    0.000    1.143    2.857    3.000    4.000    4.571 
#    0.000    4.286    0.000    0.000    0.000    0.000 
#    0.000    0.000    0.000    0.000    0.000    0.000 
#
# Total GULP energy -78155.529961 kJ/mol
# GULP energy per Si atom -5582.537854 kJ/mol
# Density = 2.381983 g / cm^3
# Si number density = 23.874168 Si / 1000 Ang^3
#
#
#
# Elastic Constant Matrix: (Units=GPa)
#
#
# Indices 1 2 3 4 5 6 
#
# 1 169.6139 48.7865 38.5226 -5.1142 22.2470 -16.2750
# 2 48.7865 74.2689 18.5670 0.2351 5.8791 -8.2215
# 3 38.5226 18.5670 128.5704 10.1731 -3.7152 6.4614
# 4 -5.1142 0.2351 10.1731 29.9970 8.0484 -2.0196
# 5 22.2470 5.8791 -3.7152 8.0484 39.1405 -4.7175
# 6 -16.2750 -8.2215 6.4614 -2.0196 -4.7175 23.9299
#
#
#
# Elastic Compliance Matrix: (Units=1/GPa)
#
#
# Indices 1 2 3 4 5 6 
#
# 1 0.009013 -0.004310 -0.002794 0.004188 -0.005027 0.004766
# 2 -0.004310 0.016964 -0.001295 -0.000270 0.000228 0.003269
# 3 -0.002794 -0.001295 0.009512 -0.004845 0.003114 -0.004709
# 4 0.004188 -0.000270 -0.004845 0.038773 -0.010129 0.005339
# 5 -0.005027 0.000228 0.003114 -0.010129 0.030877 0.001050
# 6 0.004766 0.003269 -0.004709 0.005339 0.001050 0.048082
#
#
# Mechanical properties :
#
#
# Convention : Reuss Voigt Hill
#
# Bulk Modulus (GPa) = 53.50076 64.91172 59.20624
# Shear Modulus (GPa) = 28.36884 36.38528 32.37706
#
# Velocity S-wave (km/s) = 3.45086 3.90814 3.68660
# Velocity P-wave (km/s) = 6.19161 6.90020 6.55549
#
# Compressibility (1/GPa) = 0.01869132
#
# Stress axis : x y z
#
# Youngs Moduli (GPa) = 110.95105 58.94853 105.12998
#
# Poissons Ratio (x) = 0.25405 0.29376
# Poissons Ratio (y) = 0.47816 0.13613
# Poissons Ratio (z) = 0.31003 0.07633
#
# Static dielectric constant tensor:
#      x y z
#    x 1.694380 0.078100 0.348290 
#    y 0.078100 1.739410 -0.358630 
#    z 0.348290 -0.358630 1.300990 
# 
# From -- ./inp_files/383340.got.cif
#   From: 2010.05.17/outbox.cif.g08.bks.cpg/sg2_192_cif.got.tgz:383340.got - 2010.06.03 11:33:40.
