data_PCOD9019288
_publ_section_title
;
Structure prediction by ZEFSAII (Michael W. Deem and Ramdas Pophale) SiO2 
 PCOD9019288
Probable space group: P -1
;
_chemical_formula_sum "Si O2"
_cell_formula_units_Z 12
_cell_length_a 13.073170
_cell_length_b 17.703352
_cell_length_c 8.782680
_cell_angle_alpha 41.360950
_cell_angle_beta 46.472051
_cell_angle_gamma 20.369429
_cell_volume 466.538241
_symmetry_space_group_name_H-M "P -1"
_symmetry_group_IT_number 2
_symmetry_cell_setting 'triclinic'
loop_
_space_group_symop_operation_xyz
x,y,z
-x,-y,-z
loop_
_atom_site_type_symbol
_atom_site_label
_atom_site_fract_x
_atom_site_fract_y
_atom_site_fract_z
Si Si1 0.531185 0.725215 0.825334
Si Si2 0.595257 0.845033 0.308812
Si Si3 0.141927 0.123749 0.868505
Si Si4 0.889157 0.333992 0.287043
Si Si5 0.343462 0.408677 0.549165
Si Si6 0.903368 0.056028 0.310296
O O1 0.671360 0.709324 0.580538
O O2 0.385231 0.909820 0.821878
O O3 0.740769 0.488414 0.054536
O O4 0.281348 0.834470 0.822271
O O5 0.733210 0.868764 0.160550
O O6 0.691920 0.701206 0.282980
O O7 0.240147 0.106927 0.276266
O O8 0.878310 0.364137 0.676080
O O9 0.037028 0.085566 0.119902
O O10 0.736156 0.502636 0.332789
O O11 0.129281 0.789954 0.489508
O O12 0.666814 0.209993 0.454910
#
# Coordination Sequence:
#
# PCOD9019288 Si02
#       6
#     2   2   2   2   2   2
#     4  10  22  42  73  98 132 183 225 284 335 407
#     4  10  24  45  69  99 137 180 225 283 340 408
#     4  12  21  44  71 100 137 182 222 280 351 405
#     4  10  22  46  68 103 133 174 237 275 343 404
#     4  10  21  44  70  93 140 179 228 281 331 412
#     4  10  24  45  69  99 137 180 225 283 340 408
#
# _framework density 25.721366
#
# number of rings (size 3 to 8) (size 9 to 14) (size 15 to 20)
#    0.000    2.000    3.333    2.000    0.000    1.333 
#   12.000    1.667    0.000    0.000    0.000    0.000 
#    0.000    0.000    0.000    0.000    0.000    0.000 
#
# Total GULP energy -67421.314005 kJ/mol
# GULP energy per Si atom -5618.442834 kJ/mol
# Density = 2.566282 g / cm^3
# Si number density = 25.721366 Si / 1000 Ang^3
#
#
#
# Elastic Constant Matrix: (Units=GPa)
#
#
# Indices 1 2 3 4 5 6 
#
# 1 232.1331 64.7826 89.6146 -3.9288 -27.9088 22.6676
# 2 64.7826 124.7887 66.1881 -10.5772 10.7630 35.1630
# 3 89.6146 66.1881 181.8738 -44.4851 1.5113 8.0885
# 4 -3.9288 -10.5772 -44.4851 33.9130 1.8780 7.1174
# 5 -27.9088 10.7630 1.5113 1.8780 39.5522 8.6759
# 6 22.6676 35.1630 8.0885 7.1174 8.6759 34.1969
#
#
#
# Elastic Compliance Matrix: (Units=1/GPa)
#
#
# Indices 1 2 3 4 5 6 
#
# 1 0.007409 -0.001930 -0.004093 -0.004931 0.006722 -0.002638
# 2 -0.001930 0.014899 -0.003019 0.003414 -0.002524 -0.013397
# 3 -0.004093 -0.003019 0.012175 0.014582 -0.003391 0.000764
# 4 -0.004931 0.003414 0.014582 0.052171 -0.004502 -0.013407
# 5 0.006722 -0.002524 -0.003391 -0.004502 0.032915 -0.008472
# 6 -0.002638 -0.013397 0.000764 -0.013407 -0.008472 0.049525
#
#
# Mechanical properties :
#
#
# Convention : Reuss Voigt Hill
#
# Bulk Modulus (GPa) = 60.98269 108.88514 84.93391
# Shear Modulus (GPa) = 25.95475 42.74643 34.35059
#
# Velocity S-wave (km/s) = 3.18004 4.08107 3.65840
# Velocity P-wave (km/s) = 6.10278 8.03936 7.13706
#
# Compressibility (1/GPa) = 0.01639810
#
# Stress axis : x y z
#
# Youngs Moduli (GPa) = 134.97558 67.11949 82.13811
#
# Poissons Ratio (x) = 0.12953 0.33618
# Poissons Ratio (y) = 0.26047 0.24801
# Poissons Ratio (z) = 0.55244 0.20266
#
# Static dielectric constant tensor:
#      x y z
#    x 2.001690 -0.044780 0.022900 
#    y -0.044780 2.023000 -0.007340 
#    z 0.022900 -0.007340 2.003350 
# 
# From -- ./inp_files/350083.got.cif
#   From: 2010.05.17/outbox.cif.g08.bks.cpg/sg2_176_cif.got.tgz:350083.got - 2010.06.03 11:33:40.
