data_PCOD9019096
_publ_section_title
;
Structure prediction by ZEFSAII (Michael W. Deem and Ramdas Pophale) SiO2 
 PCOD9019096
Probable space group: P -1
;
_chemical_formula_sum "Si O2"
_cell_formula_units_Z 14
_cell_length_a 6.998221
_cell_length_b 17.007038
_cell_length_c 10.265927
_cell_angle_alpha 41.162347
_cell_angle_beta 67.964686
_cell_angle_gamma 54.217746
_cell_volume 647.556038
_symmetry_space_group_name_H-M "P -1"
_symmetry_group_IT_number 2
_symmetry_cell_setting 'triclinic'
loop_
_space_group_symop_operation_xyz
x,y,z
-x,-y,-z
loop_
_atom_site_type_symbol
_atom_site_label
_atom_site_fract_x
_atom_site_fract_y
_atom_site_fract_z
Si Si1 0.740927 0.501649 0.898178
Si Si2 0.176526 0.976557 0.365931
Si Si3 0.217599 0.217592 0.144505
Si Si4 0.687981 0.787611 0.588422
Si Si5 0.455766 0.701662 0.192671
Si Si6 0.886322 0.188030 0.639408
Si Si7 0.409704 0.453676 0.402598
O O1 0.749567 0.631152 0.794628
O O2 0.736740 0.526355 0.713281
O O3 0.500000 0.500000 0.000000
O O4 0.969043 0.356955 0.050595
O O5 0.435732 0.861424 0.490843
O O6 0.104635 0.925834 0.318634
O O7 0.182934 0.117424 0.180425
O O8 0.000000 0.000000 0.500000
O O9 0.298582 0.153956 0.346677
O O10 0.420722 0.243385 0.003027
O O11 0.874110 0.805545 0.429428
O O12 0.224461 0.813480 0.190282
O O13 0.395627 0.595432 0.269195
O O14 0.638292 0.611810 0.374987
O O15 0.683562 0.337645 0.449436
#
# Coordination Sequence:
#
# PCOD9019096 Si02
#       7
#     2   2   2   2   2   2   2
#     4  12  23  39  67 105 129 167 230 282 313 382
#     4  12  25  45  67  96 135 174 219 271 329 395
#     4  12  25  39  66 101 131 170 225 271 329 385
#     4  12  23  44  72  90 129 181 218 264 342 380
#     4   9  21  42  64  96 135 170 218 272 328 389
#     4  10  21  44  68  92 128 178 216 261 324 404
#     4   9  19  42  66  90 141 166 208 271 334 373
#
# _framework density 21.61975
#
# number of rings (size 3 to 8) (size 9 to 14) (size 15 to 20)
#    0.857    0.286    2.857    4.286    0.000    1.143 
#    2.571    0.714    0.000    0.000    0.000    0.000 
#    0.000    0.000    0.000    0.000    0.000    0.000 
#
# Total GULP energy -78217.358732 kJ/mol
# GULP energy per Si atom -5586.954195 kJ/mol
# Density = 2.157054 g / cm^3
# Si number density = 21.619750 Si / 1000 Ang^3
#
#
#
# Elastic Constant Matrix: (Units=GPa)
#
#
# Indices 1 2 3 4 5 6 
#
# 1 49.9040 32.4763 2.5172 0.1565 -0.0180 5.6458
# 2 32.4763 108.3331 18.5601 -4.0739 -19.6233 -0.3904
# 3 2.5172 18.5601 21.5528 0.2750 -7.0322 -18.3524
# 4 0.1565 -4.0739 0.2750 41.6814 -0.7384 -10.2990
# 5 -0.0180 -19.6233 -7.0322 -0.7384 29.8888 -0.8662
# 6 5.6458 -0.3904 -18.3524 -10.2990 -0.8662 38.5457
#
#
#
# Elastic Compliance Matrix: (Units=1/GPa)
#
#
# Indices 1 2 3 4 5 6 
#
# 1 0.026639 -0.008803 -0.003052 -0.002615 -0.006728 -0.006294
# 2 -0.008803 0.015598 -0.014781 0.000458 0.006615 -0.005319
# 3 -0.003052 -0.014781 0.116619 0.012903 0.019781 0.059714
# 4 -0.002615 0.000458 0.012903 0.027493 0.004419 0.013976
# 5 -0.006728 0.006615 0.019781 0.004419 0.042925 0.012616
# 6 -0.006294 -0.005319 0.059714 0.013976 0.012616 0.059260
#
#
# Mechanical properties :
#
#
# Convention : Reuss Voigt Hill
#
# Bulk Modulus (GPa) = 9.47111 31.87747 20.67429
# Shear Modulus (GPa) = 13.26254 30.43893 21.85074
#
# Velocity S-wave (km/s) = 2.47947 3.75630 3.18257
# Velocity P-wave (km/s) = 3.54786 5.79566 4.80505
#
# Compressibility (1/GPa) = 0.10558428
#
# Stress axis : x y z
#
# Youngs Moduli (GPa) = 37.53909 64.10899 8.57490
#
# Poissons Ratio (x) = 0.56434 0.02617
# Poissons Ratio (y) = 0.33045 0.12675
# Poissons Ratio (z) = 0.11457 0.94762
#
# Static dielectric constant tensor:
#      x y z
#    x 1.773600 0.006860 -0.011090 
#    y 0.006860 1.808410 -0.018710 
#    z -0.011090 -0.018710 1.791060 
# 
# From -- ./inp_files/369294.got.cif
#   From: 2010.05.17/outbox.cif.g08.bks.cpg/sg2_185_cif.got.tgz:369294.got - 2010.06.03 11:33:40.
