data_PCOD9019052
_publ_section_title
;
Structure prediction by ZEFSAII (Michael W. Deem and Ramdas Pophale) SiO2 
 PCOD9019052
Probable space group: P -1
;
_chemical_formula_sum "Si O2"
_cell_formula_units_Z 14
_cell_length_a 15.208660
_cell_length_b 6.953249
_cell_length_c 15.838949
_cell_angle_alpha 64.470159
_cell_angle_beta 25.893414
_cell_angle_gamma 65.662097
_cell_volume 658.768163
_symmetry_space_group_name_H-M "P -1"
_symmetry_group_IT_number 2
_symmetry_cell_setting 'triclinic'
loop_
_space_group_symop_operation_xyz
x,y,z
-x,-y,-z
loop_
_atom_site_type_symbol
_atom_site_label
_atom_site_fract_x
_atom_site_fract_y
_atom_site_fract_z
Si Si1 0.039479 0.521803 0.218643
Si Si2 0.752774 0.704334 0.077819
Si Si3 0.951073 0.989048 0.142469
Si Si4 0.293059 0.629882 0.675040
Si Si5 0.730673 0.236672 0.516417
Si Si6 0.263511 0.545528 0.192501
Si Si7 0.965559 0.860610 0.472885
O O1 0.185695 0.565996 0.160530
O O2 0.849272 0.398124 0.441628
O O3 0.169829 0.381817 0.063422
O O4 0.953407 0.745478 0.213034
O O5 0.789957 0.512756 0.150924
O O6 0.511119 0.761402 0.269804
O O7 0.878897 0.893061 0.972695
O O8 0.738836 0.126864 0.311892
O O9 0.000000 0.000000 0.000000
O O10 0.500000 0.500000 0.500000
O O11 0.213674 0.666353 0.641400
O O12 0.841599 0.008392 0.483652
O O13 0.163528 0.339799 0.356497
O O14 0.176878 0.759236 0.274010
O O15 0.500000 0.500000 0.000000
O O16 0.000000 0.000000 0.500000
#
# Coordination Sequence:
#
# PCOD9019052 Si02
#       7
#     2   2   2   2   2   2   2
#     4  12  25  44  70 104 138 182 231 285 345 410
#     4  11  25  44  70 102 140 184 228 286 341 412
#     4  12  23  42  70 101 140 178 230 284 333 409
#     4  10  21  44  67  99 139 182 223 277 344 405
#     4  11  24  45  71  96 142 185 225 280 352 406
#     4  11  28  45  73 107 135 176 240 286 343 418
#     4  11  25  49  69 101 141 181 226 292 348 408
#
# _framework density 21.251784000000001
#
# number of rings (size 3 to 8) (size 9 to 14) (size 15 to 20)
#    0.000    0.857    4.286    2.143    4.000    0.571 
#    5.143    4.286    0.000    0.000    0.000    0.000 
#    0.000    0.000    0.000    0.000    0.000    0.000 
#
# Total GULP energy -78099.786683 kJ/mol
# GULP energy per Si atom -5578.556192 kJ/mol
# Density = 2.120341 g / cm^3
# Si number density = 21.251784 Si / 1000 Ang^3
#
#
#
# Elastic Constant Matrix: (Units=GPa)
#
#
# Indices 1 2 3 4 5 6 
#
# 1 96.3776 48.4466 42.8652 27.2470 -4.1845 -9.1617
# 2 48.4466 150.8006 51.7167 19.7378 -11.4009 -13.4778
# 3 42.8652 51.7167 93.8162 31.4075 -24.8941 2.5655
# 4 27.2470 19.7378 31.4075 40.7602 -11.1154 6.8378
# 5 -4.1845 -11.4009 -24.8941 -11.1154 30.4481 5.4700
# 6 -9.1617 -13.4778 2.5655 6.8378 5.4700 52.2931
#
#
#
# Elastic Compliance Matrix: (Units=1/GPa)
#
#
# Indices 1 2 3 4 5 6 
#
# 1 0.016438 -0.002522 -0.005266 -0.008277 -0.006781 0.004280
# 2 -0.002522 0.008967 -0.003987 -0.000132 -0.000684 0.002154
# 3 -0.005266 -0.003987 0.021080 -0.006593 0.013241 -0.003507
# 4 -0.008277 -0.000132 -0.006593 0.038837 0.008889 -0.007169
# 5 -0.006781 -0.000684 0.013241 0.008889 0.047183 -0.008112
# 6 0.004280 0.002154 -0.003507 -0.007169 -0.008112 0.022386
#
#
# Mechanical properties :
#
#
# Convention : Reuss Voigt Hill
#
# Bulk Modulus (GPa) = 43.60174 69.67236 56.63705
# Shear Modulus (GPa) = 26.86958 37.89802 32.38380
#
# Velocity S-wave (km/s) = 3.55962 4.22748 3.90784
# Velocity P-wave (km/s) = 6.12011 7.52889 6.86076
#
# Compressibility (1/GPa) = 0.02293487
#
# Stress axis : x y z
#
# Youngs Moduli (GPa) = 60.83501 111.52256 47.43941
#
# Poissons Ratio (x) = 0.28124 0.24981
# Poissons Ratio (y) = 0.15341 0.18914
# Poissons Ratio (z) = 0.32036 0.44463
#
# Static dielectric constant tensor:
#      x y z
#    x 1.806690 -0.228220 0.084670 
#    y -0.228220 0.531290 0.427250 
#    z 0.084670 0.427250 1.680920 
# 
# From -- ./inp_files/126504.got.cif
#   From: 2010.05.17/outbox.cif.g08.bks.cpg/sg2_64_cif.got.tgz:126504.got - 2010.06.03 11:33:40.
