data_PCOD9019925
_publ_section_title
;
Structure prediction by ZEFSAII (Michael W. Deem and Ramdas Pophale) SiO2 
 PCOD9019925
Probable space group: P -1
;
_chemical_formula_sum "Si O2"
_cell_formula_units_Z 16
_cell_length_a 9.260061
_cell_length_b 18.090896
_cell_length_c 10.864594
_cell_angle_alpha 55.010016
_cell_angle_beta 102.942337
_cell_angle_gamma 144.606785
_cell_volume 741.241498
_symmetry_space_group_name_H-M "P -1"
_symmetry_group_IT_number 2
_symmetry_cell_setting 'triclinic'
loop_
_space_group_symop_operation_xyz
x,y,z
-x,-y,-z
loop_
_atom_site_type_symbol
_atom_site_label
_atom_site_fract_x
_atom_site_fract_y
_atom_site_fract_z
Si Si1 0.331496 0.487070 0.904868
Si Si2 0.067371 0.799424 0.088936
Si Si3 0.751542 0.251611 0.995051
Si Si4 0.212151 0.997800 0.309371
Si Si5 0.821489 0.440492 0.642551
Si Si6 0.837509 0.658139 0.446644
Si Si7 0.660992 0.846206 0.577635
Si Si8 0.245183 0.084716 0.744846
O O1 0.500232 0.668807 0.747902
O O2 0.237469 0.396451 0.841555
O O3 0.013758 0.345298 0.034219
O O4 0.500000 0.500000 0.000000
O O5 0.286907 0.839548 0.037475
O O6 0.020688 0.776417 0.245882
O O7 0.140304 0.934152 0.918352
O O8 0.871066 0.402973 0.805189
O O9 0.467843 0.119636 0.144040
O O10 0.977913 0.794428 0.448401
O O11 0.025654 0.989507 0.249306
O O12 0.364821 0.092661 0.379889
O O13 0.877847 0.573392 0.557237
O O14 0.483932 0.251715 0.721205
O O15 0.000000 0.500000 0.500000
O O16 0.500000 0.500000 0.500000
O O17 0.606202 0.847484 0.426166
O O18 0.000000 0.000000 0.500000
#
# Coordination Sequence:
#
# PCOD9019925 Si02
#       8
#     2   2   2   2   2   2   2   2
#     4  10  21  45  72  97 130 179 233 276 344 411
#     4  10  24  43  69 100 129 184 225 275 349 410
#     4  10  25  43  67 104 135 176 231 283 348 407
#     4  11  25  43  66 102 140 179 230 285 339 407
#     4  12  23  42  70 100 138 182 227 287 346 406
#     4  12  25  43  67 106 139 177 233 284 344 408
#     4  10  22  42  69  97 133 182 229 277 338 410
#     4  11  23  43  71  95 142 185 227 279 344 412
#
# _framework density 21.585407
#
# number of rings (size 3 to 8) (size 9 to 14) (size 15 to 20)
#    0.750    0.500    2.500    3.750    5.250    2.500 
#    0.000    0.625    0.000    0.000    0.000    0.000 
#    0.000    0.000    0.000    0.000    0.000    0.000 
#
# Total GULP energy -89389.596406 kJ/mol
# GULP energy per Si atom -5586.849775 kJ/mol
# Density = 2.153628 g / cm^3
# Si number density = 21.585407 Si / 1000 Ang^3
#
#
#
# Elastic Constant Matrix: (Units=GPa)
#
#
# Indices 1 2 3 4 5 6 
#
# 1 122.6584 31.7879 64.3315 -3.9796 13.8172 -2.2329
# 2 31.7879 99.4305 41.8160 -8.1367 16.6427 -12.8193
# 3 64.3315 41.8160 94.2766 -20.0732 8.4452 -17.2322
# 4 -3.9796 -8.1367 -20.0732 31.1127 -7.0868 5.5231
# 5 13.8172 16.6427 8.4452 -7.0868 47.3722 -14.8471
# 6 -2.2329 -12.8193 -17.2322 5.5231 -14.8471 39.4822
#
#
#
# Elastic Compliance Matrix: (Units=1/GPa)
#
#
# Indices 1 2 3 4 5 6 
#
# 1 0.014523 -0.000126 -0.011630 -0.005805 -0.004623 -0.005222
# 2 -0.000126 0.012979 -0.005463 -0.001060 -0.003503 0.000654
# 3 -0.011630 -0.005463 0.024780 0.012790 0.005525 0.008672
# 4 -0.005805 -0.001060 0.012790 0.040532 0.006360 0.001631
# 5 -0.004623 -0.003503 0.005525 0.006360 0.026859 0.010223
# 6 -0.005222 0.000654 0.008672 0.001631 0.010223 0.032646
#
#
# Mechanical properties :
#
#
# Convention : Reuss Voigt Hill
#
# Bulk Modulus (GPa) = 56.04693 65.80405 60.92549
# Shear Modulus (GPa) = 25.94638 35.48876 30.71757
#
# Velocity S-wave (km/s) = 3.47080 4.05916 3.77645
# Velocity P-wave (km/s) = 6.48718 7.24711 6.87765
#
# Compressibility (1/GPa) = 0.01784219
#
# Stress axis : x y z
#
# Youngs Moduli (GPa) = 68.85831 77.04764 40.35560
#
# Poissons Ratio (x) = 0.00973 0.46934
# Poissons Ratio (y) = 0.00869 0.22047
# Poissons Ratio (z) = 0.80083 0.42092
#
# Static dielectric constant tensor:
#      x y z
#    x 1.793310 -0.020960 -0.021190 
#    y -0.020960 1.913350 -0.014720 
#    z -0.021190 -0.014720 1.755980 
# 
# From -- ./inp_files/403014.got.cif
#   From: 2010.05.17/outbox.cif.g08.bks.cpg/sg2_202_cif.got.tgz:403014.got - 2010.06.03 11:33:40.
