data_PCOD9019436
_publ_section_title
;
Structure prediction by ZEFSAII (Michael W. Deem and Ramdas Pophale) SiO2 
 PCOD9019436
Probable space group: P -1
;
_chemical_formula_sum "Si O2"
_cell_formula_units_Z 14
_cell_length_a 19.758688
_cell_length_b 8.721792
_cell_length_c 7.546585
_cell_angle_alpha 81.096011
_cell_angle_beta 51.564970
_cell_angle_gamma 42.581420
_cell_volume 565.611529
_symmetry_space_group_name_H-M "P -1"
_symmetry_group_IT_number 2
_symmetry_cell_setting 'triclinic'
loop_
_space_group_symop_operation_xyz
x,y,z
-x,-y,-z
loop_
_atom_site_type_symbol
_atom_site_label
_atom_site_fract_x
_atom_site_fract_y
_atom_site_fract_z
Si Si1 0.437812 0.916612 0.644393
Si Si2 0.246208 0.710878 0.675573
Si Si3 0.128186 0.751924 0.197657
Si Si4 0.673584 0.386546 0.829496
Si Si5 0.850718 0.817207 0.119154
Si Si6 0.665644 0.049834 0.824423
Si Si7 0.935871 0.462990 0.486316
O O1 0.584556 0.581868 0.470254
O O2 0.500000 0.000000 0.500000
O O3 0.377318 0.988870 0.929451
O O4 0.295749 0.068476 0.726134
O O5 0.254357 0.653353 0.464562
O O6 0.130618 0.791398 0.980543
O O7 0.207620 0.951012 0.710071
O O8 0.275591 0.605136 0.078506
O O9 0.119458 0.584641 0.280023
O O10 0.000000 0.000000 0.500000
O O11 0.719060 0.138363 0.792594
O O12 0.491025 0.677497 0.067719
O O13 0.931962 0.779589 0.822316
O O14 0.000000 0.500000 0.000000
O O15 0.790540 0.760651 0.572740
O O16 0.000000 0.500000 0.500000
#
# Coordination Sequence:
#
# PCOD9019436 Si02
#       7
#     2   2   2   2   2   2   2
#     4  11  24  46  74 106 146 197 249 301 367 442
#     4  11  25  48  75 108 143 195 244 304 360 450
#     4  12  25  45  71 106 141 189 236 294 371 426
#     4  10  24  45  73 106 142 184 246 297 355 438
#     4  12  26  44  71 110 147 191 244 302 376 432
#     4  10  21  44  72 101 141 192 230 297 364 425
#     4  12  24  44  70  98 144 189 234 292 366 429
#
# _framework density 24.751971999999999
#
# number of rings (size 3 to 8) (size 9 to 14) (size 15 to 20)
#    0.000    0.857    2.857    3.857    0.000    6.857 
#    0.000    0.000    0.000    0.000    0.000    0.000 
#    0.000    0.000    0.000    0.000    0.000    0.000 
#
# Total GULP energy -78282.787158 kJ/mol
# GULP energy per Si atom -5591.627654 kJ/mol
# Density = 2.469564 g / cm^3
# Si number density = 24.751972 Si / 1000 Ang^3
#
#
#
# Elastic Constant Matrix: (Units=GPa)
#
#
# Indices 1 2 3 4 5 6 
#
# 1 52.4410 24.6257 16.8901 -8.8370 -2.5166 2.3833
# 2 24.6257 136.9968 42.5285 0.8628 -14.7523 11.8268
# 3 16.8901 42.5285 129.3827 -4.3837 16.5001 0.1873
# 4 -8.8370 0.8628 -4.3837 60.5936 2.6846 -3.8556
# 5 -2.5166 -14.7523 16.5001 2.6846 34.4593 -4.8088
# 6 2.3833 11.8268 0.1873 -3.8556 -4.8088 43.0124
#
#
#
# Elastic Compliance Matrix: (Units=1/GPa)
#
#
# Indices 1 2 3 4 5 6 
#
# 1 0.021734 -0.003306 -0.001746 0.003061 0.000780 0.000074
# 2 -0.003306 0.009745 -0.003503 -0.001241 0.005427 -0.001985
# 3 -0.001746 -0.003503 0.009952 0.000823 -0.006405 0.000374
# 4 0.003061 -0.001241 0.000823 0.017204 -0.001832 0.001505
# 5 0.000780 0.005427 -0.006405 -0.001832 0.034921 0.002232
# 6 0.000074 -0.001985 0.000374 0.001505 0.002232 0.024174
#
#
# Mechanical properties :
#
#
# Convention : Reuss Voigt Hill
#
# Bulk Modulus (GPa) = 41.11792 54.10100 47.60946
# Shear Modulus (GPa) = 34.97782 43.26481 39.12132
#
# Velocity S-wave (km/s) = 3.76324 4.18537 3.97991
# Velocity P-wave (km/s) = 5.96076 6.72764 6.35578
#
# Compressibility (1/GPa) = 0.02432030
#
# Stress axis : x y z
#
# Youngs Moduli (GPa) = 46.01103 102.61860 100.47749
#
# Poissons Ratio (x) = 0.33929 0.17546
# Poissons Ratio (y) = 0.15213 0.35196
# Poissons Ratio (z) = 0.08035 0.35946
#
# Static dielectric constant tensor:
#      x y z
#    x 1.952310 -0.006870 -0.074070 
#    y -0.006870 2.029750 0.022660 
#    z -0.074070 0.022660 2.142160 
# 
# From -- ./inp_files/343517.got.cif
#   From: 2010.05.17/outbox.cif.g08.bks.cpg/sg2_172_cif.got.tgz:343517.got - 2010.06.03 11:33:40.
