data_PCOD9019536
_publ_section_title
;
Structure prediction by ZEFSAII (Michael W. Deem and Ramdas Pophale) SiO2 
 PCOD9019536
Probable space group: P -1
;
_chemical_formula_sum "Si O2"
_cell_formula_units_Z 16
_cell_length_a 12.515767
_cell_length_b 13.172679
_cell_length_c 9.597416
_cell_angle_alpha 62.096630
_cell_angle_beta 75.027449
_cell_angle_gamma 32.449666
_cell_volume 718.499394
_symmetry_space_group_name_H-M "P -1"
_symmetry_group_IT_number 2
_symmetry_cell_setting 'triclinic'
loop_
_space_group_symop_operation_xyz
x,y,z
-x,-y,-z
loop_
_atom_site_type_symbol
_atom_site_label
_atom_site_fract_x
_atom_site_fract_y
_atom_site_fract_z
Si Si1 0.061559 0.638233 0.469292
Si Si2 0.728241 0.056634 0.724362
Si Si3 0.250041 0.493763 0.198251
Si Si4 0.577816 0.013491 0.342217
Si Si5 0.625059 0.804953 0.213419
Si Si6 0.086177 0.323678 0.994903
Si Si7 0.063209 0.889020 0.902883
Si Si8 0.113626 0.993422 0.562894
O O1 0.198490 0.546845 0.345394
O O2 0.167900 0.436167 0.635714
O O3 0.823883 0.819711 0.390875
O O4 0.036945 0.769673 0.494487
O O5 0.519219 0.180593 0.770122
O O6 0.848793 0.035415 0.803353
O O7 0.710964 0.115982 0.533645
O O8 0.882522 0.812254 0.828850
O O9 0.065101 0.580692 0.138461
O O10 0.455668 0.241361 0.251743
O O11 0.214065 0.649452 0.040082
O O12 0.533816 0.974410 0.247604
O O13 0.500000 0.000000 0.500000
O O14 0.705901 0.811364 0.056760
O O15 0.000000 0.500000 0.000000
O O16 0.168075 0.883261 0.760303
O O17 0.000000 0.000000 0.000000
O O18 0.000000 0.000000 0.500000
#
# Coordination Sequence:
#
# PCOD9019536 Si02
#       8
#     2   2   2   2   2   2   2   2
#     4  12  23  41  68  99 140 181 233 284 338 409
#     4  10  23  40  66 102 133 177 228 275 351 412
#     4  11  23  41  68 102 133 185 231 279 343 408
#     4  12  23  39  65 104 144 180 230 274 343 422
#     4  12  23  41  67 102 144 183 222 279 342 419
#     4  11  22  41  63  96 143 183 224 277 340 413
#     4  10  21  44  73  96 134 178 232 297 342 399
#     4  10  22  44  70  94 134 177 231 298 343 396
#
# _framework density 22.268633000000001
#
# number of rings (size 3 to 8) (size 9 to 14) (size 15 to 20)
#    0.000    1.000    3.750    3.750    0.000    0.000 
#    0.000    4.375    2.750    0.000    0.000    0.000 
#    0.000    0.000    0.000    0.000    0.000    0.000 
#
# Total GULP energy -89392.637559 kJ/mol
# GULP energy per Si atom -5587.039847 kJ/mol
# Density = 2.221795 g / cm^3
# Si number density = 22.268633 Si / 1000 Ang^3
#
#
#
# Elastic Constant Matrix: (Units=GPa)
#
#
# Indices 1 2 3 4 5 6 
#
# 1 94.4591 42.4526 39.0935 7.7643 1.4768 10.3028
# 2 42.4526 94.8998 41.7442 5.3397 0.3665 18.0297
# 3 39.0935 41.7442 122.8499 20.2653 -16.4218 10.3702
# 4 7.7643 5.3397 20.2653 45.8574 -3.8735 3.5860
# 5 1.4768 0.3665 -16.4218 -3.8735 29.7218 0.3799
# 6 10.3028 18.0297 10.3702 3.5860 0.3799 45.7182
#
#
#
# Elastic Compliance Matrix: (Units=1/GPa)
#
#
# Indices 1 2 3 4 5 6 
#
# 1 0.014173 -0.004865 -0.003025 -0.000658 -0.002395 -0.000518
# 2 -0.004865 0.015024 -0.003586 0.000828 -0.001765 -0.004065
# 3 -0.003025 -0.003586 0.011798 -0.003731 0.006231 -0.000339
# 4 -0.000658 0.000828 -0.003731 0.023654 0.001059 -0.001196
# 5 -0.002395 -0.001765 0.006231 0.001059 0.037374 -0.000571
# 6 -0.000518 -0.004065 -0.000339 -0.001196 -0.000571 0.023769
#
#
# Mechanical properties :
#
#
# Convention : Reuss Voigt Hill
#
# Bulk Modulus (GPa) = 55.42345 62.08772 58.75559
# Shear Modulus (GPa) = 32.30846 36.85404 34.58125
#
# Velocity S-wave (km/s) = 3.81314 4.07255 3.94498
# Velocity P-wave (km/s) = 6.65802 7.07503 6.86969
#
# Compressibility (1/GPa) = 0.01804290
#
# Stress axis : x y z
#
# Youngs Moduli (GPa) = 70.55703 66.56084 84.75761
#
# Poissons Ratio (x) = 0.32381 0.25638
# Poissons Ratio (y) = 0.34326 0.30397
# Poissons Ratio (z) = 0.21342 0.23871
#
# Static dielectric constant tensor:
#      x y z
#    x 1.756570 -0.407680 0.127220 
#    y -0.407680 0.407520 0.342890 
#    z 0.127220 0.342890 1.768950 
# 
# From -- ./inp_files/427775.got.cif
#   From: 2010.05.17/outbox.cif.g08.bks.cpg/sg2_214_cif.got.tgz:427775.got - 2010.06.03 11:33:40.
