data_PCOD9019870
_publ_section_title
;
Structure prediction by ZEFSAII (Michael W. Deem and Ramdas Pophale) SiO2 
 PCOD9019870
Probable space group: P -1
;
_chemical_formula_sum "Si O2"
_cell_formula_units_Z 11
_cell_length_a 9.723776
_cell_length_b 15.533790
_cell_length_c 12.253462
_cell_angle_alpha 25.211431
_cell_angle_beta 38.333498
_cell_angle_gamma 31.542307
_cell_volume 411.687522
_symmetry_space_group_name_H-M "P -1"
_symmetry_group_IT_number 2
_symmetry_cell_setting 'triclinic'
loop_
_space_group_symop_operation_xyz
x,y,z
-x,-y,-z
loop_
_atom_site_type_symbol
_atom_site_label
_atom_site_fract_x
_atom_site_fract_y
_atom_site_fract_z
Si Si1 0.666070 0.070242 0.741699
Si Si2 0.455791 0.780448 0.773956
Si Si3 0.000000 0.000000 0.000000
Si Si4 0.282179 0.284722 0.534013
Si Si5 0.106190 0.781410 0.385074
Si Si6 0.931032 0.456561 0.972448
O O1 0.493379 0.196995 0.598643
O O2 0.924349 0.822051 0.825791
O O3 0.736484 0.217668 0.609899
O O4 0.500000 0.000000 0.000000
O O5 0.591179 0.663274 0.708659
O O6 0.624507 0.596728 0.973875
O O7 0.500000 0.000000 0.500000
O O8 0.138278 0.929547 0.809034
O O9 0.786387 0.914686 0.220828
O O10 0.198953 0.758706 0.230998
O O11 0.000000 0.500000 0.500000
O O12 0.029091 0.590728 0.678258
O O13 0.000000 0.500000 0.000000
#
# Coordination Sequence:
#
# PCOD9019870 Si02
#       6
#     2   2   1   2   2   2
#     4  12  26  44  69 107 144 180 238 296 349 418
#     4  10  21  45  70  97 142 183 234 281 343 423
#     4  12  24  44  76 102 140 192 236 280 366 412
#     4  12  26  47  71 103 141 187 237 293 349 423
#     4  11  26  46  74 105 142 190 237 288 356 419
#     4  11  25  44  72 105 143 184 232 296 353 410
#
# _framework density 26.719294000000001
#
# number of rings (size 3 to 8) (size 9 to 14) (size 15 to 20)
#    0.000    0.727    5.455    3.273    0.000    5.818 
#    0.000    0.000    0.000    0.000    0.000    0.000 
#    0.000    0.000    0.000    0.000    0.000    0.000 
#
# Total GULP energy -61414.343498 kJ/mol
# GULP energy per Si atom -5583.122136 kJ/mol
# Density = 2.665848 g / cm^3
# Si number density = 26.719294 Si / 1000 Ang^3
#
#
#
# Elastic Constant Matrix: (Units=GPa)
#
#
# Indices 1 2 3 4 5 6 
#
# 1 209.2790 20.9906 41.2805 -14.6226 26.6957 -7.5217
# 2 20.9906 112.1000 19.6606 -18.8552 17.7603 -18.5867
# 3 41.2805 19.6606 118.8055 7.5834 11.7294 -2.1353
# 4 -14.6226 -18.8552 7.5834 32.8461 -7.1017 5.3687
# 5 26.6957 17.7603 11.7294 -7.1017 63.5216 -5.9469
# 6 -7.5217 -18.5867 -2.1353 5.3687 -5.9469 36.3633
#
#
#
# Elastic Compliance Matrix: (Units=1/GPa)
#
#
# Indices 1 2 3 4 5 6 
#
# 1 0.005558 0.000056 -0.001929 0.002521 -0.001674 0.000419
# 2 0.000056 0.011266 -0.002005 0.005845 -0.001728 0.004507
# 3 -0.001929 -0.002005 0.009790 -0.004421 -0.000964 -0.000354
# 4 0.002521 0.005845 -0.004421 0.036687 0.002052 -0.001831
# 5 -0.001674 -0.001728 -0.000964 0.002052 0.017455 0.001266
# 6 0.000419 0.004507 -0.000354 -0.001831 0.001266 0.030347
#
#
# Mechanical properties :
#
#
# Convention : Reuss Voigt Hill
#
# Bulk Modulus (GPa) = 53.02622 67.11643 60.07133
# Shear Modulus (GPa) = 39.95385 50.42971 45.19178
#
# Velocity S-wave (km/s) = 3.87113 4.34912 4.11707
# Velocity P-wave (km/s) = 6.31424 7.09883 6.71800
#
# Compressibility (1/GPa) = 0.01885859
#
# Stress axis : x y z
#
# Youngs Moduli (GPa) = 179.92458 88.76327 102.14419
#
# Poissons Ratio (x) = -0.00501 0.19700
# Poissons Ratio (y) = -0.01015 0.20484
# Poissons Ratio (z) = 0.34700 0.17801
#
# Static dielectric constant tensor:
#      x y z
#    x 1.828230 -0.267930 -0.218980 
#    y -0.267930 1.913480 -0.219720 
#    z -0.218980 -0.219720 1.935290 
# 
# From -- ./inp_files/150133.got.cif
#   From: 2010.05.17/outbox.cif.g08.bks.cpg/sg2_76_cif.got.tgz:150133.got - 2010.06.03 11:33:40.
