data_PCOD9019920
_publ_section_title
;
Structure prediction by ZEFSAII (Michael W. Deem and Ramdas Pophale) SiO2 
 PCOD9019920
Probable space group: P -1
;
_chemical_formula_sum "Si O2"
_cell_formula_units_Z 14
_cell_length_a 12.845346
_cell_length_b 16.920643
_cell_length_c 16.936830
_cell_angle_alpha 159.400039
_cell_angle_beta 26.065191
_cell_angle_gamma 152.240456
_cell_volume 545.514147
_symmetry_space_group_name_H-M "P -1"
_symmetry_group_IT_number 2
_symmetry_cell_setting 'triclinic'
loop_
_space_group_symop_operation_xyz
x,y,z
-x,-y,-z
loop_
_atom_site_type_symbol
_atom_site_label
_atom_site_fract_x
_atom_site_fract_y
_atom_site_fract_z
Si Si1 0.997095 0.329496 0.683872
Si Si2 0.278966 0.374999 0.682525
Si Si3 0.602078 0.847924 0.849410
Si Si4 0.477393 0.331003 0.666979
Si Si5 0.726234 0.719417 0.069875
Si Si6 0.210306 0.727310 0.801980
Si Si7 0.421983 0.138670 0.854912
O O1 0.045999 0.280862 0.696336
O O2 0.192204 0.233675 0.413138
O O3 0.104323 0.599179 0.836153
O O4 0.720874 0.225719 0.744218
O O5 0.379381 0.648846 0.851122
O O6 0.275574 0.329155 0.734326
O O7 0.520510 0.300974 0.420737
O O8 0.500000 0.000000 0.000000
O O9 0.743996 0.997244 0.965201
O O10 0.339854 0.225909 0.744276
O O11 0.619395 0.143228 0.363208
O O12 0.621753 0.613531 0.846313
O O13 0.708648 0.884838 0.164056
O O14 0.500000 0.500000 0.000000
O O15 0.975856 0.640520 0.824525
#
# Coordination Sequence:
#
# PCOD9019920 Si02
#       7
#     2   2   2   2   2   2   2
#     4  11  21  38  67  97 128 173 225 268 326 399
#     4  11  25  38  63 102 137 167 214 281 339 394
#     4  11  20  36  66  93 132 177 220 265 321 404
#     4  11  25  44  67 100 138 173 216 280 340 384
#     4  10  21  45  72  91 127 177 234 272 317 402
#     4  11  20  42  64  97 125 175 227 267 327 392
#     4  11  25  45  71  96 130 179 229 270 325 400
#
# _framework density 25.663862000000002
#
# number of rings (size 3 to 8) (size 9 to 14) (size 15 to 20)
#    0.000    1.143    5.714    2.143    2.000    1.143 
#    2.571    3.571    0.000    0.000    0.000    0.000 
#    0.000    0.000    0.000    0.000    0.000    0.000 
#
# Total GULP energy -78001.608259 kJ/mol
# GULP energy per Si atom -5571.543447 kJ/mol
# Density = 2.560545 g / cm^3
# Si number density = 25.663862 Si / 1000 Ang^3
#
#
#
# Elastic Constant Matrix: (Units=GPa)
#
#
# Indices 1 2 3 4 5 6 
#
# 1 163.6369 17.6867 23.8689 -9.3504 -17.1115 12.6026
# 2 17.6867 43.3457 39.9285 -4.1724 6.8323 8.1412
# 3 23.8689 39.9285 117.6347 14.6535 0.2992 -3.4171
# 4 -9.3504 -4.1724 14.6535 28.0013 -7.8765 -2.1635
# 5 -17.1115 6.8323 0.2992 -7.8765 43.6283 2.6331
# 6 12.6026 8.1412 -3.4171 -2.1635 2.6331 31.4539
#
#
#
# Elastic Compliance Matrix: (Units=1/GPa)
#
#
# Indices 1 2 3 4 5 6 
#
# 1 0.007355 -0.001106 -0.001721 0.004088 0.003983 -0.002900
# 2 -0.001106 0.042007 -0.015863 0.012208 -0.004037 -0.010975
# 3 -0.001721 -0.015863 0.015764 -0.010913 -0.000620 0.005809
# 4 0.004088 0.012208 -0.010913 0.046705 0.008408 -0.003475
# 5 0.003983 -0.004037 -0.000620 0.008408 0.026775 -0.002281
# 6 -0.002900 -0.010975 0.005809 -0.003475 -0.002281 0.036378
#
#
# Mechanical properties :
#
#
# Convention : Reuss Voigt Hill
#
# Bulk Modulus (GPa) = 36.04000 54.17618 45.10809
# Shear Modulus (GPa) = 22.56191 36.82559 29.69375
#
# Velocity S-wave (km/s) = 2.96823 3.79214 3.40520
# Velocity P-wave (km/s) = 5.08142 6.35055 5.75110
#
# Compressibility (1/GPa) = 0.02774694
#
# Stress axis : x y z
#
# Youngs Moduli (GPa) = 135.96219 23.80554 63.43468
#
# Poissons Ratio (x) = 0.02632 0.10915
# Poissons Ratio (y) = 0.15034 1.00628
# Poissons Ratio (z) = 0.23394 0.37763
#
# Static dielectric constant tensor:
#      x y z
#    x 2.210790 -0.038780 0.032810 
#    y -0.038780 2.000310 0.056220 
#    z 0.032810 0.056220 2.186720 
# 
# From -- ./inp_files/484315.got.cif
#   From: 2010.05.17/outbox.cif.g08.bks.cpg/sg2_243_cif.got.tgz:484315.got - 2010.06.03 11:33:40.
