data_PCOD9019180
_publ_section_title
;
Structure prediction by ZEFSAII (Michael W. Deem and Ramdas Pophale) SiO2 
 PCOD9019180
Probable space group: P -1
;
_chemical_formula_sum "Si O2"
_cell_formula_units_Z 11
_cell_length_a 6.860406
_cell_length_b 15.446430
_cell_length_c 4.928808
_cell_angle_alpha 84.793221
_cell_angle_beta 73.783463
_cell_angle_gamma 121.500508
_cell_volume 409.356582
_symmetry_space_group_name_H-M "P -1"
_symmetry_group_IT_number 2
_symmetry_cell_setting 'triclinic'
loop_
_space_group_symop_operation_xyz
x,y,z
-x,-y,-z
loop_
_atom_site_type_symbol
_atom_site_label
_atom_site_fract_x
_atom_site_fract_y
_atom_site_fract_z
Si Si1 0.686325 0.169704 0.816100
Si Si2 0.828805 0.936103 0.834502
Si Si3 0.190693 0.257975 0.306642
Si Si4 0.000000 0.500000 0.500000
Si Si5 0.976450 0.630634 0.006785
Si Si6 0.388556 0.673862 0.461275
O O1 0.813816 0.253505 0.987498
O O2 0.587181 0.218220 0.628813
O O3 0.917584 0.181814 0.574555
O O4 0.425619 0.071532 0.056090
O O5 0.770819 0.818885 0.865217
O O6 0.000000 0.000000 0.500000
O O7 0.000000 0.000000 0.000000
O O8 0.193670 0.345191 0.100854
O O9 0.394771 0.307810 0.448102
O O10 0.886541 0.555715 0.321549
O O11 0.291452 0.598544 0.261386
O O12 0.102463 0.600360 0.729310
#
# Coordination Sequence:
#
# PCOD9019180 Si02
#       6
#     2   2   2   1   2   2
#     4  10  24  45  71 104 146 196 241 300 378 441
#     4  12  28  48  76 111 149 193 254 320 371 447
#     4  11  25  44  76 101 145 205 240 296 391 432
#     4  10  22  40  72 110 148 184 252 306 352 436
#     4  10  22  42  70 103 145 191 241 303 360 451
#     4  10  21  44  69 102 151 193 238 308 359 442
#
# _framework density 26.871442999999999
#
# number of rings (size 3 to 8) (size 9 to 14) (size 15 to 20)
#    0.000    1.455    1.818    1.636    7.636    2.182 
#    0.000    9.091    0.000    0.000    0.000    0.000 
#    0.000    0.000    0.000    0.000    0.000    0.000 
#
# Total GULP energy -61387.533898 kJ/mol
# GULP energy per Si atom -5580.684900 kJ/mol
# Density = 2.681028 g / cm^3
# Si number density = 26.871443 Si / 1000 Ang^3
#
#
#
# Elastic Constant Matrix: (Units=GPa)
#
#
# Indices 1 2 3 4 5 6 
#
# 1 213.4418 55.8998 48.9298 8.3110 8.4033 7.5238
# 2 55.8998 83.9659 -1.5015 19.2609 1.9961 6.4344
# 3 48.9298 -1.5015 117.1096 11.0594 5.2489 -13.5205
# 4 8.3110 19.2609 11.0594 40.5381 0.3111 3.7874
# 5 8.4033 1.9961 5.2489 0.3111 66.7537 6.4922
# 6 7.5238 6.4344 -13.5205 3.7874 6.4922 38.5277
#
#
#
# Elastic Compliance Matrix: (Units=1/GPa)
#
#
# Indices 1 2 3 4 5 6 
#
# 1 0.006685 -0.004817 -0.003234 0.001969 -0.000279 -0.001783
# 2 -0.004817 0.016986 0.002972 -0.007887 -0.000092 -0.000062
# 3 -0.003234 0.002972 0.010884 -0.004134 -0.000958 0.004522
# 4 0.001969 -0.007887 -0.004134 0.029463 0.000516 -0.003501
# 5 -0.000279 -0.000092 -0.000958 0.000516 0.015374 -0.002908
# 6 -0.001783 -0.000062 0.004522 -0.003501 -0.002908 0.028735
#
#
# Mechanical properties :
#
#
# Convention : Reuss Voigt Hill
#
# Bulk Modulus (GPa) = 40.98874 69.01927 55.00401
# Shear Modulus (GPa) = 39.55169 49.90985 44.73077
#
# Velocity S-wave (km/s) = 3.84068 4.31438 4.08440
# Velocity P-wave (km/s) = 5.91223 7.11050 6.53887
#
# Compressibility (1/GPa) = 0.02439694
#
# Stress axis : x y z
#
# Youngs Moduli (GPa) = 149.58393 58.87275 91.87955
#
# Poissons Ratio (x) = 0.28359 0.29715
# Poissons Ratio (y) = 0.72053 -0.27308
# Poissons Ratio (z) = 0.48378 -0.17498
#
# Static dielectric constant tensor:
#      x y z
#    x 2.147460 -0.066010 -0.092390 
#    y -0.066010 2.441110 0.008500 
#    z -0.092390 0.008500 2.332020 
# 
# From -- ./inp_files/5738.got.cif
#   From: 2010.05.17/outbox.cif.g08.bks.cpg/sg2_3_cif.got.tgz:5738.got - 2010.06.03 11:33:40.
