data_PCOD9019129
_publ_section_title
;
Structure prediction by ZEFSAII (Michael W. Deem and Ramdas Pophale) SiO2 
 PCOD9019129
Probable space group: P -1
;
_chemical_formula_sum "Si O2"
_cell_formula_units_Z 10
_cell_length_a 8.952896
_cell_length_b 9.671330
_cell_length_c 15.593212
_cell_angle_alpha 46.283542
_cell_angle_beta 117.118287
_cell_angle_gamma 80.169061
_cell_volume 569.454188
_symmetry_space_group_name_H-M "P -1"
_symmetry_group_IT_number 2
_symmetry_cell_setting 'triclinic'
loop_
_space_group_symop_operation_xyz
x,y,z
-x,-y,-z
loop_
_atom_site_type_symbol
_atom_site_label
_atom_site_fract_x
_atom_site_fract_y
_atom_site_fract_z
Si Si1 0.228593 0.375067 0.172545
Si Si2 0.084697 0.581866 0.418575
Si Si3 0.700152 0.686386 0.586436
Si Si4 0.382777 0.687543 0.273743
Si Si5 0.857591 0.126696 0.048445
O O1 0.174679 0.398585 0.250560
O O2 0.481139 0.032505 0.369483
O O3 0.262843 0.571773 0.081230
O O4 0.000000 0.500000 0.000000
O O5 0.110158 0.474331 0.375453
O O6 0.365229 0.420599 0.585419
O O7 0.000000 0.500000 0.500000
O O8 0.897863 0.925216 0.213719
O O9 0.581364 0.573696 0.604218
O O10 0.296147 0.813288 0.100969
O O11 0.141699 0.931273 0.168878
#
# Coordination Sequence:
#
# PCOD9019129 Si02
#       5
#     2   2   2   2   2
#     4  10  17  30  55  77  96 122 164 215 248 279
#     4  11  21  33  50  74 106 136 161 199 249 298
#     4   9  19  32  51  78  98 124 167 205 245 293
#     4   9  17  33  53  73  98 127 169 212 241 284
#     4   9  18  32  53  75  94 129 172 206 244 287
#
# _framework density 17.560676999999998
#
# number of rings (size 3 to 8) (size 9 to 14) (size 15 to 20)
#    0.000    2.400    0.000    6.000    0.000    0.800 
#    0.000    1.000    0.000   16.800    0.000    0.000 
#    0.000    0.000    0.000    0.000    0.000    0.000 
#
# Total GULP energy -55767.960258 kJ/mol
# GULP energy per Si atom -5576.796026 kJ/mol
# Density = 1.752071 g / cm^3
# Si number density = 17.560677 Si / 1000 Ang^3
#
#
#
# Elastic Constant Matrix: (Units=GPa)
#
#
# Indices 1 2 3 4 5 6 
#
# 1 61.1906 26.5953 37.8310 2.5120 -28.7998 -3.6794
# 2 26.5953 71.1098 38.4831 -2.9963 -6.2921 -0.2224
# 3 37.8310 38.4831 119.0951 -1.5875 -29.0524 8.1279
# 4 2.5120 -2.9963 -1.5875 42.1483 9.0412 -6.4417
# 5 -28.7998 -6.2921 -29.0524 9.0412 25.9906 1.1577
# 6 -3.6794 -0.2224 8.1279 -6.4417 1.1577 11.3486
#
#
#
# Elastic Compliance Matrix: (Units=1/GPa)
#
#
# Indices 1 2 3 4 5 6 
#
# 1 0.052736 -0.017515 0.005362 -0.019338 0.067135 -0.004911
# 2 -0.017515 0.023745 -0.009575 0.010001 -0.028296 0.010208
# 3 0.005362 -0.009575 0.017641 -0.009117 0.027363 -0.019050
# 4 -0.019338 0.010001 -0.009117 0.038778 -0.043887 0.026944
# 5 0.067135 -0.028296 0.027363 -0.043887 0.153605 -0.038966
# 6 -0.004911 0.010208 -0.019050 0.026944 -0.038966 0.119637
#
#
# Mechanical properties :
#
#
# Convention : Reuss Voigt Hill
#
# Bulk Modulus (GPa) = 19.73708 50.80159 35.26934
# Shear Modulus (GPa) = 10.71846 25.79657 18.25751
#
# Velocity S-wave (km/s) = 2.47324 3.83691 3.22791
# Velocity P-wave (km/s) = 4.40677 6.97288 5.83270
#
# Compressibility (1/GPa) = 0.05066605
#
# Stress axis : x y z
#
# Youngs Moduli (GPa) = 18.96244 42.11452 56.68713
#
# Poissons Ratio (x) = 0.73764 -0.30398
# Poissons Ratio (y) = 0.33213 0.54277
# Poissons Ratio (z) = -0.10169 0.40324
#
# Static dielectric constant tensor:
#      x y z
#    x 1.568010 0.006200 -0.023900 
#    y 0.006200 1.632490 0.002350 
#    z -0.023900 0.002350 1.627450 
# 
# From -- ./inp_files/146059.got.cif
#   From: 2010.05.17/outbox.cif.g08.bks.cpg/sg2_74_cif.got.tgz:146059.got - 2010.06.03 11:33:40.
