data_PCOD9019261
_publ_section_title
;
Structure prediction by ZEFSAII (Michael W. Deem and Ramdas Pophale) SiO2 
 PCOD9019261
Probable space group: P -1
;
_chemical_formula_sum "Si O2"
_cell_formula_units_Z 14
_cell_length_a 5.013316
_cell_length_b 21.737772
_cell_length_c 5.161629
_cell_angle_alpha 74.141327
_cell_angle_beta 94.524355
_cell_angle_gamma 95.305558
_cell_volume 537.933000
_symmetry_space_group_name_H-M "P -1"
_symmetry_group_IT_number 2
_symmetry_cell_setting 'triclinic'
loop_
_space_group_symop_operation_xyz
x,y,z
-x,-y,-z
loop_
_atom_site_type_symbol
_atom_site_label
_atom_site_fract_x
_atom_site_fract_y
_atom_site_fract_z
Si Si1 0.825547 0.514447 0.724560
Si Si2 0.741361 0.812009 0.779056
Si Si3 0.807779 0.270486 0.279555
Si Si4 0.572014 0.383735 0.863990
Si Si5 0.848169 0.895460 0.194425
Si Si6 0.762444 0.009954 0.681744
Si Si7 0.946123 0.647804 0.404331
O O1 0.577000 0.460847 0.792748
O O2 0.796459 0.590285 0.629937
O O3 0.000000 0.500000 0.500000
O O4 0.000000 0.500000 0.000000
O O5 0.471344 0.770223 0.730658
O O6 0.757030 0.867287 0.496927
O O7 0.990539 0.768217 0.826402
O O8 0.768393 0.843051 0.029363
O O9 0.980823 0.284535 0.535895
O O10 0.726848 0.342933 0.129973
O O11 0.274996 0.352328 0.838077
O O12 0.769808 0.372616 0.651989
O O13 0.157896 0.921102 0.255744
O O14 0.749025 0.958881 0.974831
O O15 0.500000 0.000000 0.500000
O O16 0.000000 0.000000 0.500000
#
# Coordination Sequence:
#
# PCOD9019261 Si02
#       7
#     2   2   2   2   2   2   2
#     4  10  21  44  70 103 137 181 240 308 382 437
#     4  12  30  47  78 103 156 200 242 296 354 434
#     4  12  28  47  70 105 144 200 250 296 358 432
#     4  11  24  45  70 101 140 188 242 311 370 438
#     4  11  28  54  76 116 152 193 244 296 360 423
#     4  11  26  50  83 117 149 190 238 304 357 421
#     4  11  24  45  70 101 140 188 242 311 370 438
#
# _framework density 26.025548000000001
#
# number of rings (size 3 to 8) (size 9 to 14) (size 15 to 20)
#    0.000    0.857    2.857    2.143    8.000    4.571 
#    0.000    2.857    0.000    0.000    0.000    0.000 
#    0.000    0.000    0.000    0.000    0.000    0.000 
#
# Total GULP energy -78244.672222 kJ/mol
# GULP energy per Si atom -5588.905159 kJ/mol
# Density = 2.596631 g / cm^3
# Si number density = 26.025548 Si / 1000 Ang^3
#
#
#
# Elastic Constant Matrix: (Units=GPa)
#
#
# Indices 1 2 3 4 5 6 
#
# 1 135.4755 39.7075 23.4460 1.6513 28.9747 23.3227
# 2 39.7075 110.8375 30.5951 12.7567 5.5157 38.4492
# 3 23.4460 30.5951 150.0433 -2.9646 12.0335 13.0883
# 4 1.6513 12.7567 -2.9646 53.8572 7.4012 7.0836
# 5 28.9747 5.5157 12.0335 7.4012 36.4191 7.8037
# 6 23.3227 38.4492 13.0883 7.0836 7.8037 47.8267
#
#
#
# Elastic Compliance Matrix: (Units=1/GPa)
#
#
# Indices 1 2 3 4 5 6 
#
# 1 0.010111 -0.002805 -0.000232 0.001588 -0.007518 -0.001621
# 2 -0.002805 0.013978 -0.001896 -0.002531 0.003294 -0.009513
# 3 -0.000232 -0.001896 0.007299 0.001176 -0.002139 -0.000185
# 4 0.001588 -0.002531 0.001176 0.020040 -0.005084 -0.001200
# 5 -0.007518 0.003294 -0.002139 -0.005084 0.035414 -0.003422
# 6 -0.001621 -0.009513 -0.000185 -0.001200 -0.003422 0.030134
#
#
# Mechanical properties :
#
#
# Convention : Reuss Voigt Hill
#
# Bulk Modulus (GPa) = 46.46537 64.87260 55.66898
# Shear Modulus (GPa) = 37.30918 47.79444 42.55181
#
# Velocity S-wave (km/s) = 3.79035 4.29002 4.04790
# Velocity P-wave (km/s) = 6.08672 7.03702 6.57905
#
# Compressibility (1/GPa) = 0.02152140
#
# Stress axis : x y z
#
# Youngs Moduli (GPa) = 98.89924 71.54178 137.01208
#
# Poissons Ratio (x) = 0.20064 0.03184
# Poissons Ratio (y) = 0.27736 0.25981
# Poissons Ratio (z) = 0.02298 0.13566
#
# Static dielectric constant tensor:
#      x y z
#    x 1.999510 -0.014170 -0.012170 
#    y -0.014170 2.160710 -0.010920 
#    z -0.012170 -0.010920 2.017770 
# 
# From -- ./inp_files/9555.got.cif
#   From: 2010.05.17/outbox.cif.g08.bks.cpg/sg2_5_cif.got.tgz:9555.got - 2010.06.03 11:33:40.
