data_PCOD9019387
_publ_section_title
;
Structure prediction by ZEFSAII (Michael W. Deem and Ramdas Pophale) SiO2 
 PCOD9019387
Probable space group: P -1
;
_chemical_formula_sum "Si O2"
_cell_formula_units_Z 16
_cell_length_a 15.344469
_cell_length_b 13.536139
_cell_length_c 14.742055
_cell_angle_alpha 148.415632
_cell_angle_beta 29.296110
_cell_angle_gamma 127.159077
_cell_volume 659.517835
_symmetry_space_group_name_H-M "P -1"
_symmetry_group_IT_number 2
_symmetry_cell_setting 'triclinic'
loop_
_space_group_symop_operation_xyz
x,y,z
-x,-y,-z
loop_
_atom_site_type_symbol
_atom_site_label
_atom_site_fract_x
_atom_site_fract_y
_atom_site_fract_z
Si Si1 0.485819 0.378947 0.328447
Si Si2 0.042908 0.802925 0.572807
Si Si3 0.613953 0.719740 0.172064
Si Si4 0.985345 0.483656 0.108517
Si Si5 0.658523 0.400296 0.555068
Si Si6 0.905043 0.927921 0.606644
Si Si7 0.136798 0.109991 0.816107
Si Si8 0.763722 0.678892 0.812661
O O1 0.500000 0.500000 0.500000
O O2 0.252079 0.436141 0.590818
O O3 0.489092 0.481826 0.307788
O O4 0.655534 0.113322 0.972636
O O5 0.981372 0.947080 0.650769
O O6 0.821700 0.845508 0.845214
O O7 0.197118 0.544942 0.204077
O O8 0.165568 0.873571 0.582602
O O9 0.602447 0.763421 0.108387
O O10 0.433341 0.719507 0.395318
O O11 0.711620 0.857396 0.230628
O O12 0.998552 0.670560 0.297378
O O13 0.000000 0.500000 0.000000
O O14 0.130443 0.241117 0.833044
O O15 0.680883 0.575293 0.733976
O O16 0.900016 0.237408 0.174205
O O17 0.000000 0.000000 0.500000
O O18 0.000000 0.500000 0.500000
#
# Coordination Sequence:
#
# PCOD9019387 Si02
#       8
#     2   2   2   2   2   2   2   2
#     4  11  24  39  63 101 132 175 223 269 333 405
#     4  11  22  43  68  95 139 178 222 273 337 402
#     4  11  23  44  71  97 132 177 226 278 339 396
#     4  11  23  40  62  91 136 176 226 274 329 402
#     4  11  22  44  69  97 138 172 224 281 330 403
#     4  12  22  40  64  97 134 181 219 271 339 399
#     4  11  23  43  65  97 136 176 216 281 333 394
#     4  10  21  44  71  94 130 180 221 281 346 388
#
# _framework density 24.260147
#
# number of rings (size 3 to 8) (size 9 to 14) (size 15 to 20)
#    0.000    1.000    3.750    5.250    1.750    0.500 
#    2.250    0.625    0.000    0.000    0.000    0.000 
#    0.000    0.000    0.000    0.000    0.000    0.000 
#
# Total GULP energy -89455.549555 kJ/mol
# GULP energy per Si atom -5590.971847 kJ/mol
# Density = 2.420493 g / cm^3
# Si number density = 24.260147 Si / 1000 Ang^3
#
#
#
# Elastic Constant Matrix: (Units=GPa)
#
#
# Indices 1 2 3 4 5 6 
#
# 1 150.3749 65.1089 29.1564 -3.9264 30.0666 2.8334
# 2 65.1089 159.7872 25.2682 -16.0681 25.7899 9.8307
# 3 29.1564 25.2682 58.2741 -5.8675 12.9778 -3.1931
# 4 -3.9264 -16.0681 -5.8675 41.7848 4.0585 10.6299
# 5 30.0666 25.7899 12.9778 4.0585 32.6107 -2.2270
# 6 2.8334 9.8307 -3.1931 10.6299 -2.2270 50.8769
#
#
#
# Elastic Compliance Matrix: (Units=1/GPa)
#
#
# Indices 1 2 3 4 5 6 
#
# 1 0.009337 -0.002433 -0.002313 0.000316 -0.005839 -0.000517
# 2 -0.002433 0.008834 -0.001239 0.004172 -0.004956 -0.002738
# 3 -0.002313 -0.001239 0.020310 0.002434 -0.005211 0.000906
# 4 0.000316 0.004172 0.002434 0.028524 -0.008587 -0.007007
# 5 -0.005839 -0.004956 -0.005211 -0.008587 0.043427 0.004651
# 6 -0.000517 -0.002738 0.000906 -0.007007 0.004651 0.021937
#
#
# Mechanical properties :
#
#
# Convention : Reuss Voigt Hill
#
# Bulk Modulus (GPa) = 37.72113 67.50034 52.61073
# Shear Modulus (GPa) = 32.64188 41.64801 37.14494
#
# Velocity S-wave (km/s) = 3.67208 4.14783 3.91718
# Velocity P-wave (km/s) = 5.79320 7.12905 6.49556
#
# Compressibility (1/GPa) = 0.02651034
#
# Stress axis : x y z
#
# Youngs Moduli (GPa) = 107.09630 113.20516 49.23657
#
# Poissons Ratio (x) = 0.27543 0.11388
# Poissons Ratio (y) = 0.26057 0.06102
# Poissons Ratio (z) = 0.24772 0.14029
#
# Static dielectric constant tensor:
#      x y z
#    x 2.074850 -0.083820 -0.055750 
#    y -0.083820 1.959090 0.029420 
#    z -0.055750 0.029420 1.975200 
# 
# From -- ./inp_files/534497.got.cif
#   From: 2010.05.17/outbox.cif.g08.bks.cpg/sg2_268_cif.got.tgz:534497.got - 2010.06.03 11:33:40.
