data_PCOD9019472
_publ_section_title
;
Structure prediction by ZEFSAII (Michael W. Deem and Ramdas Pophale) SiO2 
 PCOD9019472
Probable space group: P -1
;
_chemical_formula_sum "Si O2"
_cell_formula_units_Z 16
_cell_length_a 5.364342
_cell_length_b 30.581378
_cell_length_c 5.347354
_cell_angle_alpha 48.533229
_cell_angle_beta 87.135399
_cell_angle_gamma 105.866633
_cell_volume 598.941934
_symmetry_space_group_name_H-M "P -1"
_symmetry_group_IT_number 2
_symmetry_cell_setting 'triclinic'
loop_
_space_group_symop_operation_xyz
x,y,z
-x,-y,-z
loop_
_atom_site_type_symbol
_atom_site_label
_atom_site_fract_x
_atom_site_fract_y
_atom_site_fract_z
Si Si1 0.363197 0.778533 0.582057
Si Si2 0.180908 0.985461 0.335579
Si Si3 0.124340 0.574636 0.641056
Si Si4 0.061573 0.252792 0.888650
Si Si5 0.669738 0.313630 0.443626
Si Si6 0.122285 0.136255 0.472642
Si Si7 0.345133 0.897851 0.983858
Si Si8 0.578672 0.543735 0.577666
O O1 0.414662 0.719506 0.696503
O O2 0.569564 0.817721 0.643568
O O3 0.412562 0.836803 0.167260
O O4 0.058325 0.750756 0.813082
O O5 0.964749 0.935433 0.349064
O O6 0.336886 0.942581 0.591639
O O7 0.000000 0.000000 0.500000
O O8 0.428078 0.053899 0.018800
O O9 0.173049 0.613954 0.746114
O O10 0.400783 0.585191 0.441448
O O11 0.901394 0.584750 0.439668
O O12 0.000000 0.500000 0.000000
O O13 0.031676 0.180022 0.124323
O O14 0.379655 0.293851 0.671890
O O15 0.876202 0.281110 0.640356
O O16 0.942914 0.126199 0.769876
O O17 0.500000 0.500000 0.500000
O O18 0.500000 0.500000 0.000000
#
# Coordination Sequence:
#
# PCOD9019472 Si02
#       8
#     2   2   2   2   2   2   2   2
#     4  11  26  46  73 101 145 193 241 311 364 438
#     4  11  24  40  65  99 134 184 237 297 369 440
#     4  10  23  47  72 112 145 196 241 309 376 454
#     4  11  26  46  71 107 141 192 247 297 362 436
#     4  12  26  48  75 105 151 188 251 296 375 436
#     4  11  24  44  66 101 139 182 244 299 366 433
#     4  10  24  41  65  95 136 186 233 296 371 427
#     4  10  21  44  72 109 151 200 245 300 376 455
#
# _framework density 26.713774999999998
#
# number of rings (size 3 to 8) (size 9 to 14) (size 15 to 20)
#    0.000    1.250    1.250    3.000    7.000    6.000 
#   13.500    0.000    0.000    0.000    0.000    0.000 
#    0.000    0.000    0.000    0.000    0.000    0.000 
#
# Total GULP energy -89463.834796 kJ/mol
# GULP energy per Si atom -5591.489675 kJ/mol
# Density = 2.665297 g / cm^3
# Si number density = 26.713775 Si / 1000 Ang^3
#
#
#
# Elastic Constant Matrix: (Units=GPa)
#
#
# Indices 1 2 3 4 5 6 
#
# 1 176.1908 46.7232 18.8907 -2.7346 0.8743 5.6504
# 2 46.7232 220.6973 36.8172 -30.6756 -7.9187 -13.2779
# 3 18.8907 36.8172 41.3895 -16.6127 -0.6935 0.5236
# 4 -2.7346 -30.6756 -16.6127 48.2249 0.0140 3.5601
# 5 0.8743 -7.9187 -0.6935 0.0140 33.7822 3.9276
# 6 5.6504 -13.2779 0.5236 3.5601 3.9276 39.8834
#
#
#
# Elastic Compliance Matrix: (Units=1/GPa)
#
#
# Indices 1 2 3 4 5 6 
#
# 1 0.006249 -0.001182 -0.002227 -0.001082 -0.000354 -0.001118
# 2 -0.001182 0.005877 -0.003800 0.002224 0.001112 0.001866
# 3 -0.002227 -0.003800 0.032062 0.008660 0.000071 -0.002151
# 4 -0.001082 0.002224 0.008660 0.025187 0.000898 -0.001557
# 5 -0.000354 0.001112 0.000071 0.000898 0.030178 -0.002633
# 6 -0.001118 0.001866 -0.002151 -0.001557 -0.002633 0.026279
#
#
# Mechanical properties :
#
#
# Convention : Reuss Voigt Hill
#
# Bulk Modulus (GPa) = 33.59173 71.46000 52.52586
# Shear Modulus (GPa) = 33.29506 46.76786 40.03146
#
# Velocity S-wave (km/s) = 3.53422 4.18868 3.87529
# Velocity P-wave (km/s) = 5.40890 7.08531 6.30309
#
# Compressibility (1/GPa) = 0.02976924
#
# Stress axis : x y z
#
# Youngs Moduli (GPa) = 160.03553 170.16923 31.18974
#
# Poissons Ratio (x) = 0.20109 0.06945
# Poissons Ratio (y) = 0.18912 0.11853
# Poissons Ratio (z) = 0.35636 0.64670
#
# Static dielectric constant tensor:
#      x y z
#    x 2.222520 0.069640 0.041260 
#    y 0.069640 2.126150 0.047510 
#    z 0.041260 0.047510 2.017750 
# 
# From -- ./inp_files/14571.got.cif
#   From: 2010.05.17/outbox.cif.g08.bks.cpg/sg2_8_cif.got.tgz:14571.got - 2010.06.03 11:33:40.
