data_PCOD9019441
_publ_section_title
;
Structure prediction by ZEFSAII (Michael W. Deem and Ramdas Pophale) SiO2 
 PCOD9019441
Probable space group: P -1
;
_chemical_formula_sum "Si O2"
_cell_formula_units_Z 16
_cell_length_a 16.026815
_cell_length_b 16.673191
_cell_length_c 7.564906
_cell_angle_alpha 139.964841
_cell_angle_beta 68.892293
_cell_angle_gamma 142.887252
_cell_volume 599.408803
_symmetry_space_group_name_H-M "P -1"
_symmetry_group_IT_number 2
_symmetry_cell_setting 'triclinic'
loop_
_space_group_symop_operation_xyz
x,y,z
-x,-y,-z
loop_
_atom_site_type_symbol
_atom_site_label
_atom_site_fract_x
_atom_site_fract_y
_atom_site_fract_z
Si Si1 0.000211 0.977962 0.176915
Si Si2 0.291792 0.512427 0.918025
Si Si3 0.576844 0.730556 0.869632
Si Si4 0.742714 0.248175 0.099339
Si Si5 0.651008 0.667045 0.019335
Si Si6 0.823115 0.190740 0.247739
Si Si7 0.691738 0.446722 0.612245
Si Si8 0.182794 0.647795 0.158141
O O1 0.195456 0.260062 0.561229
O O2 0.866161 0.905044 0.272406
O O3 0.000000 0.000000 0.000000
O O4 0.904751 0.733059 0.886100
O O5 0.438132 0.672945 0.922688
O O6 0.340806 0.591625 0.218127
O O7 0.169863 0.483087 0.906302
O O8 0.500000 0.500000 0.500000
O O9 0.648933 0.787265 0.106707
O O10 0.740402 0.967894 0.021289
O O11 0.733824 0.113430 0.996875
O O12 0.647482 0.258431 0.254943
O O13 0.959509 0.539933 0.454931
O O14 0.696189 0.176168 0.808123
O O15 0.500000 0.500000 0.000000
O O16 0.606995 0.473418 0.645743
O O17 0.760827 0.227909 0.488135
O O18 0.000000 0.500000 0.000000
#
# Coordination Sequence:
#
# PCOD9019441 Si02
#       8
#     2   2   2   2   2   2   2   2
#     4  10  22  37  66  97 131 186 234 285 343 417
#     4  12  23  43  66 103 138 186 236 284 354 425
#     4  12  27  44  69 100 147 182 231 289 356 420
#     4  10  21  44  72 102 134 177 243 288 350 424
#     4  10  23  44  61  99 141 184 225 291 355 411
#     4  10  24  46  67 103 138 183 229 299 349 418
#     4  10  22  38  68  97 141 176 233 287 348 422
#     4  10  23  42  71  99 133 178 235 289 348 415
#
# _framework density 26.692968
#
# number of rings (size 3 to 8) (size 9 to 14) (size 15 to 20)
#    0.750    0.750    2.500    1.875    8.750    0.500 
#    2.250    0.625    0.000    0.000    0.000    0.000 
#    0.000    0.000    0.000    0.000    0.000    0.000 
#
# Total GULP energy -89319.510052 kJ/mol
# GULP energy per Si atom -5582.469378 kJ/mol
# Density = 2.663221 g / cm^3
# Si number density = 26.692968 Si / 1000 Ang^3
#
#
#
# Elastic Constant Matrix: (Units=GPa)
#
#
# Indices 1 2 3 4 5 6 
#
# 1 107.7232 33.1966 11.1161 3.1945 -28.9321 -0.1811
# 2 33.1966 135.1795 21.9436 6.8107 -11.1058 -6.9556
# 3 11.1161 21.9436 50.0983 7.3514 -16.7441 4.7147
# 4 3.1945 6.8107 7.3514 59.7222 -5.3459 -5.2335
# 5 -28.9321 -11.1058 -16.7441 -5.3459 35.1118 3.5235
# 6 -0.1811 -6.9556 4.7147 -5.2335 3.5235 52.4950
#
#
#
# Elastic Compliance Matrix: (Units=1/GPa)
#
#
# Indices 1 2 3 4 5 6 
#
# 1 0.012788 -0.002652 0.002017 0.000234 0.010815 -0.001191
# 2 -0.002652 0.008639 -0.003774 -0.000375 -0.001464 0.001535
# 3 0.002017 -0.003774 0.026200 -0.002079 0.013040 -0.003929
# 4 0.000234 -0.000375 -0.002079 0.017323 0.001543 0.001761
# 5 0.010815 -0.001464 0.013040 0.001543 0.043795 -0.004114
# 6 -0.001191 0.001535 -0.003929 0.001761 -0.004114 0.020053
#
#
# Mechanical properties :
#
#
# Convention : Reuss Voigt Hill
#
# Bulk Modulus (GPa) = 25.76845 47.27929 36.52387
# Shear Modulus (GPa) = 33.21067 44.58212 38.89640
#
# Velocity S-wave (km/s) = 3.53111 4.09122 3.82144
# Velocity P-wave (km/s) = 5.12831 6.32994 5.76054
#
# Compressibility (1/GPa) = 0.03880715
#
# Stress axis : x y z
#
# Youngs Moduli (GPa) = 78.19750 115.75104 38.16861
#
# Poissons Ratio (x) = 0.30701 -0.07698
# Poissons Ratio (y) = 0.20741 0.14406
# Poissons Ratio (z) = -0.15771 0.43688
#
# Static dielectric constant tensor:
#      x y z
#    x 2.194080 -0.063220 0.109760 
#    y -0.063220 2.189160 -0.007960 
#    z 0.109760 -0.007960 2.172560 
# 
# From -- ./inp_files/336611.got.cif
#   From: 2010.05.17/outbox.cif.g08.bks.cpg/sg2_169_cif.got.tgz:336611.got - 2010.06.03 11:33:40.
