data_PCOD9019689
_publ_section_title
;
Structure prediction by ZEFSAII (Michael W. Deem and Ramdas Pophale) SiO2 
 PCOD9019689
Probable space group: P -1
;
_chemical_formula_sum "Si O2"
_cell_formula_units_Z 16
_cell_length_a 17.818737
_cell_length_b 5.109131
_cell_length_c 8.543572
_cell_angle_alpha 123.633661
_cell_angle_beta 97.711970
_cell_angle_gamma 88.717402
_cell_volume 640.456125
_symmetry_space_group_name_H-M "P -1"
_symmetry_group_IT_number 2
_symmetry_cell_setting 'triclinic'
loop_
_space_group_symop_operation_xyz
x,y,z
-x,-y,-z
loop_
_atom_site_type_symbol
_atom_site_label
_atom_site_fract_x
_atom_site_fract_y
_atom_site_fract_z
Si Si1 0.350183 0.540166 0.382229
Si Si2 0.197460 0.381567 0.441600
Si Si3 0.427308 0.069260 0.788188
Si Si4 0.302092 0.529838 0.018938
Si Si5 0.060494 0.280537 0.171687
Si Si6 0.998519 0.919512 0.293708
Si Si7 0.418181 0.961552 0.097237
Si Si8 0.167202 0.118438 0.692976
O O1 0.287499 0.391954 0.437368
O O2 0.388156 0.856520 0.573304
O O3 0.305336 0.586772 0.223274
O O4 0.416326 0.318261 0.276629
O O5 0.148795 0.250584 0.231962
O O6 0.172887 0.209076 0.539931
O O7 0.180119 0.748394 0.579821
O O8 0.515577 0.174212 0.823020
O O9 0.372063 0.333810 0.911460
O O10 0.432646 0.884003 0.894232
O O11 0.328791 0.860177 0.059367
O O12 0.229277 0.343897 0.871665
O O13 0.046276 0.608010 0.191881
O O14 0.028343 0.238160 0.323955
O O15 0.000000 0.000000 0.000000
O O16 0.909794 0.831759 0.215852
O O17 0.000000 0.000000 0.500000
#
# Coordination Sequence:
#
# PCOD9019689 Si02
#       8
#     2   2   2   2   2   2   2   2
#     4  11  25  40  66 100 140 176 233 283 352 411
#     4  12  25  46  69  99 140 188 223 286 358 409
#     4  10  21  45  66  95 136 179 226 291 342 415
#     4  11  25  41  65 102 131 183 232 282 348 414
#     4  12  26  44  69 104 141 178 232 292 344 405
#     4  12  23  46  70  99 131 183 239 277 341 418
#     4  10  23  41  69  97 133 180 233 282 346 416
#     4  12  26  44  74  96 139 185 235 285 347 416
#
# _framework density 24.982195999999998
#
# number of rings (size 3 to 8) (size 9 to 14) (size 15 to 20)
#    0.000    0.750    3.750    3.000    5.250    2.500 
#    0.000    0.000    0.000    0.000    0.000    0.000 
#    0.000    0.000    0.000    0.000    0.000    0.000 
#
# Total GULP energy -89264.885770 kJ/mol
# GULP energy per Si atom -5579.055361 kJ/mol
# Density = 2.492534 g / cm^3
# Si number density = 24.982196 Si / 1000 Ang^3
#
#
#
# Elastic Constant Matrix: (Units=GPa)
#
#
# Indices 1 2 3 4 5 6 
#
# 1 103.6139 -3.3871 11.8466 10.4171 20.8069 5.2844
# 2 -3.3871 68.8576 -4.7142 8.3018 -10.9106 4.6640
# 3 11.8466 -4.7142 115.2605 13.6781 18.7692 -5.4452
# 4 10.4171 8.3018 13.6781 28.5541 2.7266 2.9069
# 5 20.8069 -10.9106 18.7692 2.7266 53.0418 4.5649
# 6 5.2844 4.6640 -5.4452 2.9069 4.5649 29.1370
#
#
#
# Elastic Compliance Matrix: (Units=1/GPa)
#
#
# Indices 1 2 3 4 5 6 
#
# 1 0.010866 0.000419 -0.000100 -0.003557 -0.003864 -0.001096
# 2 0.000419 0.015906 0.000539 -0.005101 0.003398 -0.002545
# 3 -0.000100 0.000539 0.009966 -0.004858 -0.003368 0.002807
# 4 -0.003557 -0.005101 -0.004858 0.040461 0.000289 -0.003528
# 5 -0.003864 0.003398 -0.003368 0.000289 0.022592 -0.004041
# 6 -0.001096 -0.002545 0.002807 -0.003528 -0.004041 0.036436
#
#
# Mechanical properties :
#
#
# Convention : Reuss Voigt Hill
#
# Bulk Modulus (GPa) = 26.00568 32.80252 29.40410
# Shear Modulus (GPa) = 33.93751 41.07902 37.50826
#
# Velocity S-wave (km/s) = 3.68974 4.05944 3.87899
# Velocity P-wave (km/s) = 5.34645 5.92713 5.64426
#
# Compressibility (1/GPa) = 0.03845313
#
# Stress axis : x y z
#
# Youngs Moduli (GPa) = 92.03227 62.86930 100.34162
#
# Poissons Ratio (x) = -0.02631 0.01005
# Poissons Ratio (y) = -0.03852 -0.05412
# Poissons Ratio (z) = 0.00922 -0.03391
#
# Static dielectric constant tensor:
#      x y z
#    x 2.001870 -0.080780 -0.014490 
#    y -0.080780 2.097410 -0.137060 
#    z -0.014490 -0.137060 2.026480 
# 
# From -- ./inp_files/53351.got.cif
#   From: 2010.05.17/outbox.cif.g08.bks.cpg/sg2_27_cif.got.tgz:53351.got - 2010.06.03 11:33:40.
