data_PCOD9019421
_publ_section_title
;
Structure prediction by ZEFSAII (Michael W. Deem and Ramdas Pophale) SiO2 
 PCOD9019421
Probable space group: P -1
;
_chemical_formula_sum "Si O2"
_cell_formula_units_Z 12
_cell_length_a 16.650187
_cell_length_b 6.033854
_cell_length_c 5.203227
_cell_angle_alpha 91.021688
_cell_angle_beta 105.863689
_cell_angle_gamma 68.025321
_cell_volume 464.206645
_symmetry_space_group_name_H-M "P -1"
_symmetry_group_IT_number 2
_symmetry_cell_setting 'triclinic'
loop_
_space_group_symop_operation_xyz
x,y,z
-x,-y,-z
loop_
_atom_site_type_symbol
_atom_site_label
_atom_site_fract_x
_atom_site_fract_y
_atom_site_fract_z
Si Si1 0.397261 0.182625 0.453980
Si Si2 0.741761 0.115291 0.992554
Si Si3 0.397503 0.023191 0.954118
Si Si4 0.743498 0.384382 0.499750
Si Si5 0.857997 0.641475 0.381178
Si Si6 0.000708 0.162089 0.260220
O O1 0.361162 0.046555 0.633623
O O2 0.362826 0.441751 0.558521
O O3 0.500000 0.000000 0.500000
O O4 0.360091 0.236178 0.134273
O O5 0.759931 0.263945 0.238664
O O6 0.634479 0.161434 0.926512
O O7 0.796943 0.845178 0.133519
O O8 0.766698 0.198676 0.748467
O O9 0.500000 0.000000 0.000000
O O10 0.802690 0.546452 0.533745
O O11 0.915629 0.755811 0.607595
O O12 0.918129 0.417295 0.248330
O O13 0.000000 0.000000 0.500000
O O14 0.000000 0.000000 0.000000
#
# Coordination Sequence:
#
# PCOD9019421 Si02
#       6
#     2   2   2   2   2   2
#     4  10  21  44  71  99 154 202 247 321 378 430
#     4  12  27  46  77 116 151 206 263 309 393 464
#     4  10  21  44  71  99 154 202 247 321 378 430
#     4  12  27  46  77 116 151 206 263 309 393 464
#     4  11  28  52  84 112 168 196 246 350 374 461
#     4  11  28  55  83 118 151 203 260 303 403 486
#
# _framework density 25.850553000000001
#
# number of rings (size 3 to 8) (size 9 to 14) (size 15 to 20)
#    0.000    1.000    1.667    3.000    0.000   10.667 
#    0.000   22.500    0.000    0.000    0.000    0.000 
#    0.000    0.000    0.000    0.000    0.000    0.000 
#
# Total GULP energy -66867.410674 kJ/mol
# GULP energy per Si atom -5572.284223 kJ/mol
# Density = 2.579172 g / cm^3
# Si number density = 25.850553 Si / 1000 Ang^3
#
#
#
# Elastic Constant Matrix: (Units=GPa)
#
#
# Indices 1 2 3 4 5 6 
#
# 1 161.5771 68.5625 70.3590 -8.5351 4.1542 26.6706
# 2 68.5625 144.3074 69.4332 -0.5811 5.9092 -10.1902
# 3 70.3590 69.4332 182.9721 11.0096 -39.6529 7.3819
# 4 -8.5351 -0.5811 11.0096 54.4993 5.3069 -5.5098
# 5 4.1542 5.9092 -39.6529 5.3069 49.2277 -3.7340
# 6 26.6706 -10.1902 7.3819 -5.5098 -3.7340 56.5985
#
#
#
# Elastic Compliance Matrix: (Units=1/GPa)
#
#
# Indices 1 2 3 4 5 6 
#
# 1 0.010107 -0.003388 -0.003334 0.002080 -0.003734 -0.004982
# 2 -0.003388 0.010869 -0.003917 0.001162 -0.004002 0.003913
# 3 -0.003334 -0.003917 0.010549 -0.003655 0.009625 -0.000231
# 4 0.002080 0.001162 -0.003655 0.020076 -0.005325 0.001309
# 5 -0.003734 -0.004002 0.009625 -0.005325 0.029528 0.001213
# 6 -0.004982 0.003913 -0.000231 0.001309 0.001213 0.020958
#
#
# Mechanical properties :
#
#
# Convention : Reuss Voigt Hill
#
# Bulk Modulus (GPa) = 97.59315 100.61844 99.10579
# Shear Modulus (GPa) = 39.43842 50.76523 45.10182
#
# Velocity S-wave (km/s) = 3.91017 4.43628 4.18151
# Velocity P-wave (km/s) = 7.63025 8.07765 7.85713
#
# Compressibility (1/GPa) = 0.01024662
#
# Stress axis : x y z
#
# Youngs Moduli (GPa) = 98.94479 92.00647 94.79743
#
# Poissons Ratio (x) = 0.31173 0.31605
# Poissons Ratio (y) = 0.33524 0.37129
# Poissons Ratio (z) = 0.32988 0.36036
#
# Static dielectric constant tensor:
#      x y z
#    x 2.280030 -0.049390 0.318060 
#    y -0.049390 2.180680 -0.046230 
#    z 0.318060 -0.046230 2.348610 
# 
# From -- ./inp_files/102499.got.cif
#   From: 2010.05.17/outbox.cif.g08.bks.cpg/sg2_52_cif.got.tgz:102499.got - 2010.06.03 11:33:40.
