data_PCOD9019411
_publ_section_title
;
Structure prediction by ZEFSAII (Michael W. Deem and Ramdas Pophale) SiO2 
 PCOD9019411
Probable space group: P -1
;
_chemical_formula_sum "Si O2"
_cell_formula_units_Z 14
_cell_length_a 22.086099
_cell_length_b 8.806942
_cell_length_c 15.578683
_cell_angle_alpha 28.517420
_cell_angle_beta 29.065123
_cell_angle_gamma 48.259726
_cell_volume 630.810731
_symmetry_space_group_name_H-M "P -1"
_symmetry_group_IT_number 2
_symmetry_cell_setting 'triclinic'
loop_
_space_group_symop_operation_xyz
x,y,z
-x,-y,-z
loop_
_atom_site_type_symbol
_atom_site_label
_atom_site_fract_x
_atom_site_fract_y
_atom_site_fract_z
Si Si1 0.849819 0.242831 0.856232
Si Si2 0.666260 0.602751 0.933337
Si Si3 0.782735 0.133443 0.362935
Si Si4 0.940377 0.778887 0.096325
Si Si5 0.667659 0.707997 0.204313
Si Si6 0.693365 0.080954 0.814636
Si Si7 0.577905 0.603511 0.761502
O O1 0.780391 0.465455 0.878556
O O2 0.000000 0.500000 0.500000
O O3 0.873309 0.982054 0.021881
O O4 0.734313 0.011376 0.043403
O O5 0.729559 0.881138 0.637446
O O6 0.632493 0.784627 0.965239
O O7 0.518837 0.310930 0.225396
O O8 0.727124 0.427459 0.290802
O O9 0.720112 0.919289 0.458009
O O10 0.944689 0.260969 0.085627
O O11 0.829251 0.393129 0.452346
O O12 0.000000 0.000000 0.000000
O O13 0.500000 0.500000 0.500000
O O14 0.724826 0.910431 0.943938
O O15 0.598527 0.272066 0.865270
O O16 0.500000 0.500000 0.000000
#
# Coordination Sequence:
#
# PCOD9019411 Si02
#       7
#     2   2   2   2   2   2   2
#     4  12  26  48  74 104 146 195 240 290 365 433
#     4  11  24  43  73 106 143 186 245 296 359 426
#     4  11  23  45  72 101 147 196 234 293 368 423
#     4  12  26  46  73 105 147 188 246 299 358 431
#     4  12  27  49  74 106 145 193 246 295 365 434
#     4  12  26  43  71 109 144 184 243 301 352 432
#     4  10  21  44  71  98 141 191 232 296 361 424
#
# _framework density 22.193660999999999
#
# number of rings (size 3 to 8) (size 9 to 14) (size 15 to 20)
#    0.000    0.571    2.857    6.429    4.000    2.857 
#    0.000    2.143    0.000    0.000    0.000    0.000 
#    0.000    0.000    0.000    0.000    0.000    0.000 
#
# Total GULP energy -78308.546385 kJ/mol
# GULP energy per Si atom -5593.467599 kJ/mol
# Density = 2.214315 g / cm^3
# Si number density = 22.193661 Si / 1000 Ang^3
#
#
#
# Elastic Constant Matrix: (Units=GPa)
#
#
# Indices 1 2 3 4 5 6 
#
# 1 94.9839 12.7788 21.4968 -6.6671 -0.1544 8.2829
# 2 12.7788 126.9860 7.8312 13.5741 -10.7887 -4.5981
# 3 21.4968 7.8312 62.6076 -2.3813 5.7265 -7.9584
# 4 -6.6671 13.5741 -2.3813 29.8068 -3.6920 2.0129
# 5 -0.1544 -10.7887 5.7265 -3.6920 32.3298 -9.7923
# 6 8.2829 -4.5981 -7.9584 2.0129 -9.7923 48.1588
#
#
#
# Elastic Compliance Matrix: (Units=1/GPa)
#
#
# Indices 1 2 3 4 5 6 
#
# 1 0.012183 -0.001442 -0.004254 0.003222 -0.000247 -0.003121
# 2 -0.001442 0.008847 -0.000833 -0.004147 0.003155 0.001770
# 3 -0.004254 -0.000833 0.018180 0.000355 -0.002531 0.003127
# 4 0.003222 -0.004147 0.000355 0.036587 0.002146 -0.001984
# 5 -0.000247 0.003155 -0.002531 0.002146 0.034768 0.006905
# 6 -0.003121 0.001770 0.003127 -0.001984 0.006905 0.023474
#
#
# Mechanical properties :
#
#
# Convention : Reuss Voigt Hill
#
# Bulk Modulus (GPa) = 38.23898 40.97678 39.60788
# Shear Modulus (GPa) = 32.08963 38.22379 35.15671
#
# Velocity S-wave (km/s) = 3.80661 4.15454 3.98438
# Velocity P-wave (km/s) = 6.04876 6.44337 6.24918
#
# Compressibility (1/GPa) = 0.02615132
#
# Stress axis : x y z
#
# Youngs Moduli (GPa) = 82.08261 113.03549 55.00583
#
# Poissons Ratio (x) = 0.16300 0.23401
# Poissons Ratio (y) = 0.11836 0.04581
# Poissons Ratio (z) = 0.34920 0.09414
#
# Static dielectric constant tensor:
#      x y z
#    x 1.805350 0.004930 -0.064570 
#    y 0.004930 1.817300 0.013120 
#    z -0.064570 0.013120 1.852290 
# 
# From -- ./inp_files/222821.got.cif
#   From: 2010.05.17/outbox.cif.g08.bks.cpg/sg2_112_cif.got.tgz:222821.got - 2010.06.03 11:33:40.
