data_PCOD9019964
_publ_section_title
;
Structure prediction by ZEFSAII (Michael W. Deem and Ramdas Pophale) SiO2 
 PCOD9019964
Probable space group: P -1
;
_chemical_formula_sum "Si O2"
_cell_formula_units_Z 16
_cell_length_a 5.012896
_cell_length_b 14.477199
_cell_length_c 12.699745
_cell_angle_alpha 133.009479
_cell_angle_beta 100.630567
_cell_angle_gamma 68.784033
_cell_volume 625.637682
_symmetry_space_group_name_H-M "P -1"
_symmetry_group_IT_number 2
_symmetry_cell_setting 'triclinic'
loop_
_space_group_symop_operation_xyz
x,y,z
-x,-y,-z
loop_
_atom_site_type_symbol
_atom_site_label
_atom_site_fract_x
_atom_site_fract_y
_atom_site_fract_z
Si Si1 0.891563 0.563177 0.370931
Si Si2 0.181036 0.474948 0.129278
Si Si3 0.614566 0.621700 0.599992
Si Si4 0.808641 0.832771 0.492962
Si Si5 0.105276 0.273102 0.796716
Si Si6 0.467805 0.243759 0.106158
Si Si7 0.963316 0.927932 0.050245
Si Si8 0.786410 0.010158 0.324773
O O1 0.641418 0.640935 0.493588
O O2 0.987453 0.692637 0.453021
O O3 0.892911 0.507189 0.208686
O O4 0.079730 0.439204 0.361067
O O5 0.173655 0.614962 0.188304
O O6 0.401110 0.393018 0.169158
O O7 0.203851 0.368599 0.956636
O O8 0.500000 0.500000 0.500000
O O9 0.436806 0.739665 0.754931
O O10 0.540636 0.924552 0.611176
O O11 0.704765 0.791611 0.341573
O O12 0.022320 0.913384 0.546418
O O13 0.088900 0.147469 0.762523
O O14 0.224236 0.172986 0.047087
O O15 0.704032 0.156588 0.975405
O O16 0.832327 0.019925 0.211104
O O17 0.000000 0.000000 0.000000
#
# Coordination Sequence:
#
# PCOD9019964 Si02
#       8
#     2   2   2   2   2   2   2   2
#     4   9  22  41  64 101 135 177 232 277 352 403
#     4   9  20  45  72 102 135 181 224 298 342 413
#     4  10  23  37  68  97 137 181 227 288 347 408
#     4  11  26  44  71 101 138 183 228 285 342 414
#     4  10  21  45  74 102 139 179 236 283 356 404
#     4  11  25  46  70 102 143 179 236 290 346 413
#     4  12  28  46  70 102 141 190 235 279 346 414
#     4  12  26  46  72 100 142 180 234 283 343 410
#
# _framework density 25.573910000000001
#
# number of rings (size 3 to 8) (size 9 to 14) (size 15 to 20)
#    0.000    1.500    1.250    1.875   10.500    0.000 
#    0.000    1.875    0.000    0.000    0.000    0.000 
#    0.000    0.000    0.000    0.000    0.000    0.000 
#
# Total GULP energy -89153.468594 kJ/mol
# GULP energy per Si atom -5572.091787 kJ/mol
# Density = 2.551570 g / cm^3
# Si number density = 25.573910 Si / 1000 Ang^3
#
#
#
# Elastic Constant Matrix: (Units=GPa)
#
#
# Indices 1 2 3 4 5 6 
#
# 1 63.6556 5.4693 0.4889 8.6984 1.2390 5.5466
# 2 5.4693 142.3240 16.0417 17.7422 -7.0752 6.9403
# 3 0.4889 16.0417 146.4068 -10.2020 -4.2269 -2.0133
# 4 8.6984 17.7422 -10.2020 39.0305 7.3905 2.4123
# 5 1.2390 -7.0752 -4.2269 7.3905 21.5451 10.9746
# 6 5.5466 6.9403 -2.0133 2.4123 10.9746 20.9478
#
#
#
# Elastic Compliance Matrix: (Units=1/GPa)
#
#
# Indices 1 2 3 4 5 6 
#
# 1 0.016722 0.000416 -0.000381 -0.004335 0.003651 -0.006016
# 2 0.000416 0.008496 -0.001170 -0.005308 0.007629 -0.006423
# 3 -0.000381 -0.001170 0.007137 0.002485 -0.000364 0.001079
# 4 -0.004335 -0.005308 0.002485 0.032204 -0.016049 0.007845
# 5 0.003651 0.007629 -0.000364 -0.016049 0.075020 -0.040984
# 6 -0.006016 -0.006423 0.001079 0.007845 -0.040984 0.072131
#
#
# Mechanical properties :
#
#
# Convention : Reuss Voigt Hill
#
# Bulk Modulus (GPa) = 33.23928 44.04288 38.64108
# Shear Modulus (GPa) = 22.32050 38.33045 30.32547
#
# Velocity S-wave (km/s) = 2.95750 3.87565 3.44728
# Velocity P-wave (km/s) = 4.96870 6.10628 5.56663
#
# Compressibility (1/GPa) = 0.03008489
#
# Stress axis : x y z
#
# Youngs Moduli (GPa) = 59.80077 117.69686 140.10999
#
# Poissons Ratio (x) = -0.04891 0.05334
# Poissons Ratio (y) = -0.02485 0.16397
# Poissons Ratio (z) = 0.02277 0.13774
#
# Static dielectric constant tensor:
#      x y z
#    x 2.092260 -0.083500 -0.022770 
#    y -0.083500 2.013500 -0.106660 
#    z -0.022770 -0.106660 2.035550 
# 
# From -- ./inp_files/368060.got.cif
#   From: 2010.05.17/outbox.cif.g08.bks.cpg/sg2_185_cif.got.tgz:368060.got - 2010.06.03 11:33:40.
