data_PCOD9019489
_publ_section_title
;
Structure prediction by ZEFSAII (Michael W. Deem and Ramdas Pophale) SiO2 
 PCOD9019489
Probable space group: P -1
;
_chemical_formula_sum "Si O2"
_cell_formula_units_Z 16
_cell_length_a 11.813297
_cell_length_b 9.369762
_cell_length_c 9.400081
_cell_angle_alpha 105.135270
_cell_angle_beta 119.342873
_cell_angle_gamma 55.171541
_cell_volume 744.255978
_symmetry_space_group_name_H-M "P -1"
_symmetry_group_IT_number 2
_symmetry_cell_setting 'triclinic'
loop_
_space_group_symop_operation_xyz
x,y,z
-x,-y,-z
loop_
_atom_site_type_symbol
_atom_site_label
_atom_site_fract_x
_atom_site_fract_y
_atom_site_fract_z
Si Si1 0.716756 0.611540 0.368336
Si Si2 0.982789 0.239619 0.434728
Si Si3 0.499276 0.528374 0.737502
Si Si4 0.068472 0.051570 0.721549
Si Si5 0.309016 0.070760 0.063878
Si Si6 0.704835 0.231545 0.574560
Si Si7 0.607339 0.724214 0.040216
Si Si8 0.261587 0.111884 0.381299
O O1 0.872612 0.437270 0.464977
O O2 0.587963 0.564114 0.287018
O O3 0.673048 0.780272 0.477090
O O4 0.731018 0.645156 0.220868
O O5 0.088416 0.122849 0.601331
O O6 0.086385 0.218381 0.358427
O O7 0.888530 0.147429 0.314217
O O8 0.633760 0.388909 0.683141
O O9 0.383606 0.688621 0.606363
O O10 0.561721 0.593135 0.917064
O O11 0.885522 0.155412 0.657990
O O12 0.164027 0.075897 0.906082
O O13 0.335490 0.210651 0.038220
O O14 0.285410 0.100145 0.224817
O O15 0.458538 0.887284 0.063975
O O16 0.678529 0.079870 0.570905
#
# Coordination Sequence:
#
# PCOD9019489 Si02
#       8
#     2   2   2   2   2   2   2   2
#     4  12  24  44  69 101 136 179 226 276 336 404
#     4  10  22  41  70 100 131 180 226 274 333 401
#     4  11  24  43  70 101 137 172 228 279 336 401
#     4  10  21  44  72  97 136 180 221 274 337 402
#     4  11  26  44  66 102 137 179 226 275 340 397
#     4  10  24  42  70 103 134 178 222 278 335 402
#     4  11  27  43  68 100 137 177 223 284 334 397
#     4  11  26  42  67 101 137 180 223 278 335 399
#
# _framework density 21.497979999999998
#
# number of rings (size 3 to 8) (size 9 to 14) (size 15 to 20)
#    0.000    1.250    1.250    3.000   10.500    5.000 
#    0.000    1.875    0.000    0.000    0.000    0.000 
#    0.000    0.000    0.000    0.000    0.000    0.000 
#
# Total GULP energy -89512.635017 kJ/mol
# GULP energy per Si atom -5594.539689 kJ/mol
# Density = 2.144905 g / cm^3
# Si number density = 21.497980 Si / 1000 Ang^3
#
#
#
# Elastic Constant Matrix: (Units=GPa)
#
#
# Indices 1 2 3 4 5 6 
#
# 1 97.2995 41.4223 42.5944 7.4831 -19.7858 13.5263
# 2 41.4223 93.9284 61.5532 9.2471 2.9354 18.1657
# 3 42.5944 61.5532 119.2787 25.0229 -14.8932 26.2592
# 4 7.4831 9.2471 25.0229 34.2419 3.0122 5.1916
# 5 -19.7858 2.9354 -14.8932 3.0122 37.0944 2.7356
# 6 13.5263 18.1657 26.2592 5.1916 2.7356 34.0286
#
#
#
# Elastic Compliance Matrix: (Units=1/GPa)
#
#
# Indices 1 2 3 4 5 6 
#
# 1 0.015390 -0.006246 -0.000018 -0.001978 0.009092 -0.003198
# 2 -0.006246 0.019885 -0.009983 0.004151 -0.009227 -0.000320
# 3 -0.000018 -0.009983 0.018852 -0.010672 0.009833 -0.008373
# 4 -0.001978 0.004151 -0.010672 0.036800 -0.008797 0.001899
# 5 0.009092 -0.009227 0.009833 -0.008797 0.037789 -0.007973
# 6 -0.003198 -0.000320 -0.008373 0.001899 -0.007973 0.037642
#
#
# Mechanical properties :
#
#
# Convention : Reuss Voigt Hill
#
# Bulk Modulus (GPa) = 46.22781 66.84959 56.53870
# Shear Modulus (GPa) = 24.26429 32.06877 28.16653
#
# Velocity S-wave (km/s) = 3.36322 3.86646 3.62359
# Velocity P-wave (km/s) = 6.05241 7.14814 6.62298
#
# Compressibility (1/GPa) = 0.02163200
#
# Stress axis : x y z
#
# Youngs Moduli (GPa) = 64.97604 50.28969 53.04419
#
# Poissons Ratio (x) = 0.31411 0.00097
# Poissons Ratio (y) = 0.40584 0.52956
# Poissons Ratio (z) = 0.00119 0.50206
#
# Static dielectric constant tensor:
#      x y z
#    x 1.804820 0.001610 0.002520 
#    y 0.001610 1.787780 -0.021550 
#    z 0.002520 -0.021550 1.744190 
# 
# From -- ./inp_files/244734.got.cif
#   From: 2010.05.17/outbox.cif.g08.bks.cpg/sg2_123_cif.got.tgz:244734.got - 2010.06.03 11:33:40.
