data_PCOD9019051
_publ_section_title
;
Structure prediction by ZEFSAII (Michael W. Deem and Ramdas Pophale) SiO2 
 PCOD9019051
Probable space group: P -1
;
_chemical_formula_sum "Si O2"
_cell_formula_units_Z 12
_cell_length_a 7.061880
_cell_length_b 10.892015
_cell_length_c 12.806591
_cell_angle_alpha 47.144436
_cell_angle_beta 43.313764
_cell_angle_gamma 45.236037
_cell_volume 450.422687
_symmetry_space_group_name_H-M "P -1"
_symmetry_group_IT_number 2
_symmetry_cell_setting 'triclinic'
loop_
_space_group_symop_operation_xyz
x,y,z
-x,-y,-z
loop_
_atom_site_type_symbol
_atom_site_label
_atom_site_fract_x
_atom_site_fract_y
_atom_site_fract_z
Si Si1 0.001839 0.667077 0.647395
Si Si2 0.023243 0.687963 0.847987
Si Si3 0.909477 0.239198 0.781292
Si Si4 0.587557 0.784417 0.558380
Si Si5 0.463339 0.733393 0.289519
Si Si6 0.953476 0.847181 0.012526
O O1 0.850672 0.742976 0.775074
O O2 0.182616 0.772483 0.456529
O O3 0.262459 0.463326 0.681862
O O4 0.760932 0.673677 0.654509
O O5 0.325865 0.717780 0.678451
O O6 0.956615 0.789473 0.925708
O O7 0.000000 0.500000 0.000000
O O8 0.176422 0.274692 0.598384
O O9 0.650767 0.282211 0.772781
O O10 0.842647 0.292738 0.898668
O O11 0.034519 0.019579 0.872547
O O12 0.500000 0.000000 0.500000
O O13 0.608975 0.878837 0.160747
#
# Coordination Sequence:
#
# PCOD9019051 Si02
#       6
#     2   2   2   2   2   2
#     4  10  24  43  69  97 137 182 221 282 336 408
#     4  12  25  45  68 103 139 177 223 282 344 400
#     4  10  23  43  70 101 132 181 227 278 330 406
#     4  11  24  47  70  99 136 181 231 275 340 404
#     4  10  21  44  67  99 136 177 226 276 339 398
#     4  11  22  42  69 100 137 177 224 281 337 392
#
# _framework density 26.641643999999999
#
# number of rings (size 3 to 8) (size 9 to 14) (size 15 to 20)
#    0.000    1.333    3.333    1.500    0.000    4.000 
#    3.000    5.000    0.000    0.000    0.000    0.000 
#    0.000    0.000    0.000    0.000    0.000    0.000 
#
# Total GULP energy -67083.585907 kJ/mol
# GULP energy per Si atom -5590.298826 kJ/mol
# Density = 2.658101 g / cm^3
# Si number density = 26.641644 Si / 1000 Ang^3
#
#
#
# Elastic Constant Matrix: (Units=GPa)
#
#
# Indices 1 2 3 4 5 6 
#
# 1 80.9136 -0.2257 39.5535 4.1107 37.7943 -10.6962
# 2 -0.2257 63.4066 16.0041 -9.4922 11.4898 1.0976
# 3 39.5535 16.0041 125.6303 -11.6746 7.9932 5.4835
# 4 4.1107 -9.4922 -11.6746 28.9239 13.9146 7.6446
# 5 37.7943 11.4898 7.9932 13.9146 81.2851 -0.9391
# 6 -10.6962 1.0976 5.4835 7.6446 -0.9391 33.8512
#
#
#
# Elastic Compliance Matrix: (Units=1/GPa)
#
#
# Indices 1 2 3 4 5 6 
#
# 1 0.021291 0.002965 -0.007113 -0.002718 -0.009059 0.008146
# 2 0.002965 0.018389 -0.002214 0.007445 -0.005047 -0.001122
# 3 -0.007113 -0.002214 0.011108 0.005384 0.001547 -0.005148
# 4 -0.002718 0.007445 0.005384 0.047070 -0.008524 -0.012839
# 5 -0.009059 -0.005047 0.001547 -0.008524 0.018529 -0.000510
# 6 0.008146 -0.001122 -0.005148 -0.012839 -0.000510 0.035870
#
#
# Mechanical properties :
#
#
# Convention : Reuss Voigt Hill
#
# Bulk Modulus (GPa) = 26.27172 42.29047 34.28109
# Shear Modulus (GPa) = 28.14219 43.11996 35.63107
#
# Velocity S-wave (km/s) = 3.25364 4.02744 3.66104
# Velocity P-wave (km/s) = 4.89872 6.12661 5.54675
#
# Compressibility (1/GPa) = 0.03806374
#
# Stress axis : x y z
#
# Youngs Moduli (GPa) = 46.96916 54.37986 90.02602
#
# Poissons Ratio (x) = -0.16122 0.64032
# Poissons Ratio (y) = -0.13925 0.19933
# Poissons Ratio (z) = 0.33407 0.12040
#
# Static dielectric constant tensor:
#      x y z
#    x 2.119010 0.011610 0.011260 
#    y 0.011610 2.192280 0.024300 
#    z 0.011260 0.024300 2.054270 
# 
# From -- ./inp_files/108978.got.cif
#   From: 2010.05.17/outbox.cif.g08.bks.cpg/sg2_55_cif.got.tgz:108978.got - 2010.06.03 11:33:40.
