data_PCOD9019877
_publ_section_title
;
Structure prediction by ZEFSAII (Michael W. Deem and Ramdas Pophale) SiO2 
 PCOD9019877
Probable space group: P -1
;
_chemical_formula_sum "Si O2"
_cell_formula_units_Z 14
_cell_length_a 22.077911
_cell_length_b 8.597867
_cell_length_c 11.576397
_cell_angle_alpha 55.060723
_cell_angle_beta 154.066186
_cell_angle_gamma 141.105819
_cell_volume 534.739518
_symmetry_space_group_name_H-M "P -1"
_symmetry_group_IT_number 2
_symmetry_cell_setting 'triclinic'
loop_
_space_group_symop_operation_xyz
x,y,z
-x,-y,-z
loop_
_atom_site_type_symbol
_atom_site_label
_atom_site_fract_x
_atom_site_fract_y
_atom_site_fract_z
Si Si1 0.447560 0.643042 0.191701
Si Si2 0.222403 0.802955 0.277920
Si Si3 0.708572 0.889911 0.333133
Si Si4 0.990733 0.357643 0.786507
Si Si5 0.572569 0.348929 0.581729
Si Si6 0.566967 0.349741 0.230366
Si Si7 0.114964 0.314632 0.579776
O O1 0.566656 0.855885 0.197385
O O2 0.563997 0.562500 0.451447
O O3 0.423668 0.698540 0.254608
O O4 0.226707 0.405216 0.855545
O O5 0.170729 0.835930 0.302361
O O6 0.373741 0.777677 0.549265
O O7 0.337528 0.051898 0.277782
O O8 0.000000 0.500000 0.000000
O O9 0.623125 0.587324 0.304160
O O10 0.922943 0.154997 0.647961
O O11 0.653921 0.892901 0.106687
O O12 0.982102 0.571810 0.646043
O O13 0.213865 0.523770 0.144790
O O14 0.722195 0.520605 0.316378
O O15 0.000000 0.000000 0.500000
#
# Coordination Sequence:
#
# PCOD9019877 Si02
#       7
#     2   2   2   2   2   2   2
#     4  10  24  44  67  99 146 181 220 301 333 415
#     4  11  26  46  67  98 144 183 226 291 349 411
#     4  10  21  45  71 100 135 181 237 278 352 402
#     4  11  26  44  77 101 132 192 235 284 341 425
#     4  11  26  44  69 106 137 182 238 277 349 414
#     4   9  23  41  69 100 136 183 224 294 341 408
#     4  10  24  44  66 101 143 180 230 291 351 398
#
# _framework density 26.180969999999999
#
# number of rings (size 3 to 8) (size 9 to 14) (size 15 to 20)
#    0.000    1.714    1.429    0.000   10.000    8.000 
#    0.000    0.000    0.000    0.000    0.000    0.000 
#    0.000    0.000    0.000    0.000    0.000    0.000 
#
# Total GULP energy -78071.707838 kJ/mol
# GULP energy per Si atom -5576.550560 kJ/mol
# Density = 2.612138 g / cm^3
# Si number density = 26.180970 Si / 1000 Ang^3
#
#
#
# Elastic Constant Matrix: (Units=GPa)
#
#
# Indices 1 2 3 4 5 6 
#
# 1 100.1875 6.1043 19.3862 12.2451 -9.7854 -9.2130
# 2 6.1043 114.4270 44.9873 -5.4273 2.9902 -14.5578
# 3 19.3862 44.9873 106.5490 -1.3302 -5.5152 -21.0227
# 4 12.2451 -5.4273 -1.3302 46.4369 -9.5920 5.5808
# 5 -9.7854 2.9902 -5.5152 -9.5920 47.3794 12.9563
# 6 -9.2130 -14.5578 -21.0227 5.5808 12.9563 31.8251
#
#
#
# Elastic Compliance Matrix: (Units=1/GPa)
#
#
# Indices 1 2 3 4 5 6 
#
# 1 0.010948 0.000184 -0.001590 -0.003038 0.000789 0.002414
# 2 0.000184 0.010782 -0.004090 0.000352 -0.001862 0.002980
# 3 -0.001590 -0.004090 0.012609 -0.000538 -0.000425 0.006265
# 4 -0.003038 0.000352 -0.000538 0.024666 0.006479 -0.008037
# 5 0.000789 -0.001862 -0.000425 0.006479 0.026114 -0.012672
# 6 0.002414 0.002980 0.006265 -0.008037 -0.012672 0.044191
#
#
# Mechanical properties :
#
#
# Convention : Reuss Voigt Hill
#
# Bulk Modulus (GPa) = 42.83350 51.34659 47.09004
# Shear Modulus (GPa) = 33.76459 41.84064 37.80262
#
# Velocity S-wave (km/s) = 3.59508 4.00200 3.80399
# Velocity P-wave (km/s) = 5.79904 6.40386 6.10894
#
# Compressibility (1/GPa) = 0.02334621
#
# Stress axis : x y z
#
# Youngs Moduli (GPa) = 91.33881 92.74917 79.30890
#
# Poissons Ratio (x) = -0.01703 0.12612
# Poissons Ratio (y) = -0.01677 0.32435
# Poissons Ratio (z) = 0.14525 0.37932
#
# Static dielectric constant tensor:
#      x y z
#    x 2.107190 -0.054710 -0.085080 
#    y -0.054710 2.151250 0.141240 
#    z -0.085080 0.141240 2.242880 
# 
# From -- ./inp_files/469343.got.cif
#   From: 2010.05.17/outbox.cif.g08.bks.cpg/sg2_235_cif.got.tgz:469343.got - 2010.06.03 11:33:40.
