data_PCOD9019212
_publ_section_title
;
Structure prediction by ZEFSAII (Michael W. Deem and Ramdas Pophale) SiO2 
 PCOD9019212
Probable space group: P -1
;
_chemical_formula_sum "Si O2"
_cell_formula_units_Z 12
_cell_length_a 11.144851
_cell_length_b 9.779389
_cell_length_c 14.515080
_cell_angle_alpha 43.118833
_cell_angle_beta 27.244991
_cell_angle_gamma 49.040839
_cell_volume 494.913446
_symmetry_space_group_name_H-M "P -1"
_symmetry_group_IT_number 2
_symmetry_cell_setting 'triclinic'
loop_
_space_group_symop_operation_xyz
x,y,z
-x,-y,-z
loop_
_atom_site_type_symbol
_atom_site_label
_atom_site_fract_x
_atom_site_fract_y
_atom_site_fract_z
Si Si1 0.843170 0.190541 0.058287
Si Si2 0.727603 0.772885 0.656579
Si Si3 0.879110 0.464292 0.404157
Si Si4 0.006714 0.118516 0.186883
Si Si5 0.424668 0.656366 0.553912
Si Si6 0.571328 0.081947 0.739109
O O1 0.548607 0.236082 0.201866
O O2 0.861728 0.137578 0.178885
O O3 0.994490 0.392615 0.828955
O O4 0.000000 0.000000 0.000000
O O5 0.900130 0.571017 0.652431
O O6 0.914105 0.924880 0.400031
O O7 0.671390 0.859266 0.757143
O O8 0.606946 0.588655 0.547482
O O9 0.500404 0.853482 0.349153
O O10 0.879195 0.308878 0.233689
O O11 0.315015 0.106436 0.964186
O O12 0.500000 0.500000 0.500000
O O13 0.219493 0.757651 0.447916
#
# Coordination Sequence:
#
# PCOD9019212 Si02
#       6
#     2   2   2   2   2   2
#     4  12  23  46  70  92 135 185 227 270 328 406
#     4  11  24  43  66 100 138 174 221 279 338 395
#     4  11  23  42  67 101 136 172 218 292 334 383
#     4  11  22  43  71  96 128 183 227 268 334 401
#     4   9  20  40  64  99 129 168 220 271 324 397
#     4  10  21  44  69  95 137 175 224 272 335 403
#
# _framework density 24.246663000000002
#
# number of rings (size 3 to 8) (size 9 to 14) (size 15 to 20)
#    0.000    1.333    3.333    2.500    0.000    3.333 
#    9.000    1.667    0.000    0.000    0.000    0.000 
#    0.000    0.000    0.000    0.000    0.000    0.000 
#
# Total GULP energy -66889.181890 kJ/mol
# GULP energy per Si atom -5574.098491 kJ/mol
# Density = 2.419148 g / cm^3
# Si number density = 24.246663 Si / 1000 Ang^3
#
#
#
# Elastic Constant Matrix: (Units=GPa)
#
#
# Indices 1 2 3 4 5 6 
#
# 1 74.0853 36.0806 37.7970 10.7057 -15.0156 -19.9781
# 2 36.0806 74.9418 52.3788 24.8264 2.3336 -28.4782
# 3 37.7970 52.3788 124.3773 22.0772 -12.5359 -6.3115
# 4 10.7057 24.8264 22.0772 42.0959 -2.5759 -3.0625
# 5 -15.0156 2.3336 -12.5359 -2.5759 40.3455 7.5568
# 6 -19.9781 -28.4782 -6.3115 -3.0625 7.5568 46.8959
#
#
#
# Elastic Compliance Matrix: (Units=1/GPa)
#
#
# Indices 1 2 3 4 5 6 
#
# 1 0.020425 -0.007920 -0.002268 0.001277 0.006960 0.002548
# 2 -0.007920 0.036823 -0.011086 -0.013316 -0.012875 0.018700
# 3 -0.002268 -0.011086 0.013623 -0.000197 0.005278 -0.006728
# 4 0.001277 -0.013316 -0.000197 0.031199 0.004343 -0.006231
# 5 0.006960 -0.012875 0.005278 0.004343 0.031718 -0.008971
# 6 0.002548 0.018700 -0.006728 -0.006231 -0.008971 0.033899
#
#
# Mechanical properties :
#
#
# Convention : Reuss Voigt Hill
#
# Bulk Modulus (GPa) = 35.30433 58.43524 46.86978
# Shear Modulus (GPa) = 22.76077 35.67732 29.21904
#
# Velocity S-wave (km/s) = 3.06717 3.84009 3.47518
# Velocity P-wave (km/s) = 5.20918 6.61924 5.95608
#
# Compressibility (1/GPa) = 0.02832514
#
# Stress axis : x y z
#
# Youngs Moduli (GPa) = 48.95882 27.15670 73.40532
#
# Poissons Ratio (x) = 0.21509 0.16645
# Poissons Ratio (y) = 0.38776 0.81374
# Poissons Ratio (z) = 0.11101 0.30105
#
# Static dielectric constant tensor:
#      x y z
#    x 2.035830 -0.037540 -0.022190 
#    y -0.037540 2.125460 0.026770 
#    z -0.022190 0.026770 1.952720 
# 
# From -- ./inp_files/517558.got.cif
#   From: 2010.05.17/outbox.cif.g08.bks.cpg/sg2_259_cif.got.tgz:517558.got - 2010.06.03 11:33:40.
