data_PCOD9019714
_publ_section_title
;
Structure prediction by ZEFSAII (Michael W. Deem and Ramdas Pophale) SiO2 
 PCOD9019714
Probable space group: P -1
;
_chemical_formula_sum "Si O2"
_cell_formula_units_Z 16
_cell_length_a 12.248827
_cell_length_b 14.285603
_cell_length_c 14.134371
_cell_angle_alpha 149.995539
_cell_angle_beta 55.249139
_cell_angle_gamma 142.168171
_cell_volume 704.279298
_symmetry_space_group_name_H-M "P -1"
_symmetry_group_IT_number 2
_symmetry_cell_setting 'triclinic'
loop_
_space_group_symop_operation_xyz
x,y,z
-x,-y,-z
loop_
_atom_site_type_symbol
_atom_site_label
_atom_site_fract_x
_atom_site_fract_y
_atom_site_fract_z
Si Si1 0.958089 0.482517 0.722229
Si Si2 0.395289 0.111366 0.263263
Si Si3 0.052098 0.265151 0.226742
Si Si4 0.961763 0.624152 0.052477
Si Si5 0.265661 0.041407 0.736089
Si Si6 0.578172 0.518363 0.697139
Si Si7 0.395122 0.031819 0.978921
Si Si8 0.643253 0.553269 0.089205
O O1 0.914880 0.593593 0.762071
O O2 0.819011 0.173131 0.492174
O O3 0.913858 0.489559 0.856861
O O4 0.192304 0.713457 0.804734
O O5 0.476601 0.343552 0.499480
O O6 0.462447 0.162109 0.165345
O O7 0.170736 0.927737 0.206309
O O8 0.452742 0.957519 0.133018
O O9 0.245290 0.443684 0.346717
O O10 0.878486 0.159908 0.284326
O O11 0.000000 0.000000 0.000000
O O12 0.793151 0.602588 0.127284
O O13 0.000000 0.500000 0.000000
O O14 0.254656 0.237077 0.865362
O O15 0.479495 0.256608 0.862360
O O16 0.634141 0.795519 0.903515
O O17 0.462092 0.402751 0.752193
#
# Coordination Sequence:
#
# PCOD9019714 Si02
#       8
#     2   2   2   2   2   2   2   2
#     4  11  24  43  73 102 135 184 233 290 354 414
#     4  10  24  42  68 100 138 185 239 283 352 406
#     4  12  22  42  72 101 137 175 230 292 352 409
#     4  11  26  46  67  97 145 186 232 287 344 422
#     4  11  25  45  71 105 141 182 230 290 353 421
#     4  12  24  42  74 101 140 186 231 288 360 411
#     4  10  21  45  67 105 137 177 239 302 335 417
#     4  11  26  45  67 102 147 181 231 284 347 426
#
# _framework density 22.718260000000001
#
# number of rings (size 3 to 8) (size 9 to 14) (size 15 to 20)
#    0.000    1.000    2.500    3.000    5.250    3.000 
#    6.750    0.000    0.000    0.000    0.000    0.000 
#    0.000    0.000    0.000    0.000    0.000    0.000 
#
# Total GULP energy -89271.273562 kJ/mol
# GULP energy per Si atom -5579.454598 kJ/mol
# Density = 2.266655 g / cm^3
# Si number density = 22.718260 Si / 1000 Ang^3
#
#
#
# Elastic Constant Matrix: (Units=GPa)
#
#
# Indices 1 2 3 4 5 6 
#
# 1 118.4313 20.4169 26.4670 19.4706 10.3741 -0.0556
# 2 20.4169 58.6490 28.8670 5.5985 -2.0515 -3.9795
# 3 26.4670 28.8670 140.6784 2.4350 29.8951 8.9447
# 4 19.4706 5.5985 2.4350 13.2344 -4.1420 4.2950
# 5 10.3741 -2.0515 29.8951 -4.1420 27.3327 5.7378
# 6 -0.0556 -3.9795 8.9447 4.2950 5.7378 39.3975
#
#
#
# Elastic Compliance Matrix: (Units=1/GPa)
#
#
# Indices 1 2 3 4 5 6 
#
# 1 0.013511 -0.002750 0.000298 -0.023051 -0.009915 0.003631
# 2 -0.002750 0.021499 -0.005723 -0.002309 0.008032 0.002549
# 3 0.000298 -0.005723 0.011141 -0.003940 -0.013166 -0.000760
# 4 -0.023051 -0.002309 -0.003940 0.128594 0.036293 -0.018676
# 5 -0.009915 0.008032 -0.013166 0.036293 0.062808 -0.009317
# 6 0.003631 0.002549 -0.000760 -0.018676 -0.009317 0.029210
#
#
# Mechanical properties :
#
#
# Convention : Reuss Voigt Hill
#
# Bulk Modulus (GPa) = 33.55697 52.14006 42.84852
# Shear Modulus (GPa) = 17.06201 32.12678 24.59439
#
# Velocity S-wave (km/s) = 2.74346 3.76458 3.29383
# Velocity P-wave (km/s) = 4.98382 6.47276 5.77646
#
# Compressibility (1/GPa) = 0.02980007
#
# Stress axis : x y z
#
# Youngs Moduli (GPa) = 74.01295 46.51320 89.75737
#
# Poissons Ratio (x) = 0.12791 -0.02670
# Poissons Ratio (y) = 0.20354 0.51370
# Poissons Ratio (z) = -0.02202 0.26621
#
# Static dielectric constant tensor:
#      x y z
#    x 1.934300 0.054050 -0.026590 
#    y 0.054050 2.017100 -0.010980 
#    z -0.026590 -0.010980 1.872890 
# 
# From -- ./inp_files/522628.got.cif
#   From: 2010.05.17/outbox.cif.g08.bks.cpg/sg2_262_cif.got.tgz:522628.got - 2010.06.03 11:33:40.
