data_PCOD9019668
_publ_section_title
;
Structure prediction by ZEFSAII (Michael W. Deem and Ramdas Pophale) SiO2 
 PCOD9019668
Probable space group: P -1
;
_chemical_formula_sum "Si O2"
_cell_formula_units_Z 16
_cell_length_a 13.282752
_cell_length_b 17.360044
_cell_length_c 25.111437
_cell_angle_alpha 158.275408
_cell_angle_beta 157.248489
_cell_angle_gamma 23.478335
_cell_volume 751.168059
_symmetry_space_group_name_H-M "P -1"
_symmetry_group_IT_number 2
_symmetry_cell_setting 'triclinic'
loop_
_space_group_symop_operation_xyz
x,y,z
-x,-y,-z
loop_
_atom_site_type_symbol
_atom_site_label
_atom_site_fract_x
_atom_site_fract_y
_atom_site_fract_z
Si Si1 0.972864 0.660705 0.738973
Si Si2 0.653782 0.171981 0.503422
Si Si3 0.958203 0.265477 0.987157
Si Si4 0.705795 0.336574 0.744795
Si Si5 0.734993 0.769137 0.991082
Si Si6 0.478890 0.223533 0.665102
Si Si7 0.823909 0.751613 0.242255
Si Si8 0.751337 0.000086 0.944712
O O1 0.669247 0.691072 0.586714
O O2 0.909276 0.773090 0.839056
O O3 0.195763 0.398518 0.669483
O O4 0.095041 0.828812 0.878103
O O5 0.655375 0.189789 0.579150
O O6 0.876607 0.263209 0.645270
O O7 0.754985 0.918079 0.366272
O O8 0.736646 0.165493 0.795703
O O9 0.813151 0.515549 0.103261
O O10 0.068335 0.333163 0.030190
O O11 0.205903 0.088991 0.031420
O O12 0.626279 0.588003 0.843775
O O13 0.532830 0.361439 0.730419
O O14 0.043598 0.216713 0.848223
O O15 0.500000 0.000000 0.000000
O O16 0.500000 0.000000 0.500000
O O17 0.571008 0.872764 0.153290
#
# Coordination Sequence:
#
# PCOD9019668 Si02
#       8
#     2   2   2   2   2   2   2   2
#     4  10  23  45  65 100 134 174 230 267 337 402
#     4  10  22  40  71  95 132 174 215 274 346 386
#     4  11  23  41  69  98 126 174 232 269 335 405
#     4  10  23  42  63  92 135 176 211 282 330 384
#     4  10  23  39  65  97 125 175 229 265 332 403
#     4  11  26  44  63  99 139 179 230 273 328 403
#     4  10  21  45  66 100 133 167 219 284 337 395
#     4  10  23  42  74  96 128 180 219 282 330 395
#
# _framework density 21.300160000000002
#
# number of rings (size 3 to 8) (size 9 to 14) (size 15 to 20)
#    0.000    1.750    2.500    0.000    5.250    4.000 
#    0.000    6.875    0.000    0.000    0.000    0.000 
#    0.000    0.000    0.000    0.000    0.000    0.000 
#
# Total GULP energy -89294.644429 kJ/mol
# GULP energy per Si atom -5580.915277 kJ/mol
# Density = 2.125168 g / cm^3
# Si number density = 21.300160 Si / 1000 Ang^3
#
#
#
# Elastic Constant Matrix: (Units=GPa)
#
#
# Indices 1 2 3 4 5 6 
#
# 1 45.1058 17.0537 20.0045 -15.5441 -4.4328 7.1018
# 2 17.0537 106.0788 66.5645 -3.3373 -9.5112 1.6088
# 3 20.0045 66.5645 124.8336 -8.1162 -15.3790 -2.8567
# 4 -15.5441 -3.3373 -8.1162 22.4848 -0.1959 -2.0576
# 5 -4.4328 -9.5112 -15.3790 -0.1959 28.2977 -2.5763
# 6 7.1018 1.6088 -2.8567 -2.0576 -2.5763 37.8963
#
#
#
# Elastic Compliance Matrix: (Units=1/GPa)
#
#
# Indices 1 2 3 4 5 6 
#
# 1 0.032374 -0.002959 -0.002038 0.020791 0.002678 -0.004784
# 2 -0.002959 0.014511 -0.007415 -0.002634 0.000298 -0.000743
# 3 -0.002038 -0.007415 0.013051 0.002435 0.004491 0.002118
# 4 0.020791 -0.002634 0.002435 0.059362 0.004097 -0.000099
# 5 0.002678 0.000298 0.004491 0.004097 0.038570 0.002669
# 6 -0.004784 -0.000743 0.002118 -0.000099 0.002669 0.027652
#
#
# Mechanical properties :
#
#
# Convention : Reuss Voigt Hill
#
# Bulk Modulus (GPa) = 28.48011 53.69595 41.08803
# Shear Modulus (GPa) = 22.51771 29.22879 25.87325
#
# Velocity S-wave (km/s) = 3.25493 3.70839 3.48903
# Velocity P-wave (km/s) = 5.24652 6.60303 5.96347
#
# Compressibility (1/GPa) = 0.03511222
#
# Stress axis : x y z
#
# Youngs Moduli (GPa) = 30.88892 68.91533 76.62239
#
# Poissons Ratio (x) = 0.20392 0.15615
# Poissons Ratio (y) = 0.09140 0.56814
# Poissons Ratio (z) = 0.06295 0.51099
#
# Static dielectric constant tensor:
#      x y z
#    x 1.813870 -0.060320 -0.005170 
#    y -0.060320 1.782710 0.041300 
#    z -0.005170 0.041300 1.803520 
# 
# From -- ./inp_files/619771.got.cif
#   From: 2010.05.17/outbox.cif.g08.bks.cpg/sg2_310_cif.got.tgz:619771.got - 2010.06.03 11:33:40.
