data_PCOD9019197
_publ_section_title
;
Structure prediction by ZEFSAII (Michael W. Deem and Ramdas Pophale) SiO2 
 PCOD9019197
Probable space group: P -1
;
_chemical_formula_sum "Si O2"
_cell_formula_units_Z 16
_cell_length_a 10.409847
_cell_length_b 11.345431
_cell_length_c 9.831869
_cell_angle_alpha 61.694462
_cell_angle_beta 132.103514
_cell_angle_gamma 137.924284
_cell_volume 576.672518
_symmetry_space_group_name_H-M "P -1"
_symmetry_group_IT_number 2
_symmetry_cell_setting 'triclinic'
loop_
_space_group_symop_operation_xyz
x,y,z
-x,-y,-z
loop_
_atom_site_type_symbol
_atom_site_label
_atom_site_fract_x
_atom_site_fract_y
_atom_site_fract_z
Si Si1 0.542123 0.693821 0.849445
Si Si2 0.748554 0.855154 0.345214
Si Si3 0.729198 0.077122 0.752850
Si Si4 0.145791 0.228866 0.179178
Si Si5 0.677951 0.288985 0.751596
Si Si6 0.844322 0.203272 0.171601
Si Si7 0.053832 0.165793 0.734108
Si Si8 0.085834 0.560915 0.683447
O O1 0.609466 0.646694 0.787402
O O2 0.304155 0.571011 0.826237
O O3 0.583029 0.870485 0.749986
O O4 0.748812 0.759838 0.057427
O O5 0.533876 0.723527 0.359818
O O6 0.796168 0.753172 0.337649
O O7 0.000000 0.000000 0.500000
O O8 0.715772 0.992954 0.185105
O O9 0.578273 0.116786 0.685835
O O10 0.868735 0.172026 0.661526
O O11 0.936453 0.162207 0.963257
O O12 0.094772 0.292149 0.240101
O O13 0.085772 0.043333 0.262663
O O14 0.761270 0.273688 0.965491
O O15 0.886113 0.430475 0.722509
O O16 0.832672 0.259319 0.283542
O O17 0.000000 0.500000 0.500000
#
# Coordination Sequence:
#
# PCOD9019197 Si02
#       8
#     2   2   2   2   2   2   2   2
#     4   9  16  35  61  87 122 164 204 253 310 376
#     4  11  23  39  66 101 127 156 206 272 330 373
#     4   8  15  32  63  92 113 146 203 261 303 355
#     4   7  14  30  60  92 112 144 202 256 298 353
#     4  11  23  42  66  95 126 169 218 256 306 388
#     4  10  21  44  69  91 124 172 215 256 312 384
#     4   8  15  31  59  92 120 151 199 254 309 371
#     4  12  27  41  57  90 133 174 213 262 317 370
#
# _framework density 27.745383
#
# number of rings (size 3 to 8) (size 9 to 14) (size 15 to 20)
#    0.000    2.500    0.000    4.500    0.000    4.000 
#    0.000   11.250    0.000    0.000    0.000    0.000 
#    0.000    0.000    0.000    0.000    0.000    0.000 
#
# Total GULP energy -89265.375095 kJ/mol
# GULP energy per Si atom -5579.085943 kJ/mol
# Density = 2.768223 g / cm^3
# Si number density = 27.745383 Si / 1000 Ang^3
#
#
#
# Elastic Constant Matrix: (Units=GPa)
#
#
# Indices 1 2 3 4 5 6 
#
# 1 264.8860 28.0734 44.3162 9.3778 -17.1206 41.6273
# 2 28.0734 99.6460 17.4457 4.7910 -2.3015 27.0962
# 3 44.3162 17.4457 81.0820 1.1314 -15.4708 9.4276
# 4 9.3778 4.7910 1.1314 19.5549 -0.7177 4.0790
# 5 -17.1206 -2.3015 -15.4708 -0.7177 41.2350 8.5046
# 6 41.6273 27.0962 9.4276 4.0790 8.5046 46.5377
#
#
#
# Elastic Compliance Matrix: (Units=1/GPa)
#
#
# Indices 1 2 3 4 5 6 
#
# 1 0.004953 0.000265 -0.001777 -0.001307 0.002317 -0.004533
# 2 0.000265 0.012328 -0.001615 -0.001478 0.001664 -0.007262
# 3 -0.001777 -0.001615 0.014769 0.000882 0.005030 -0.001459
# 4 -0.001307 -0.001478 0.000882 0.052747 0.001243 -0.003000
# 5 0.002317 0.001664 0.005030 0.001243 0.029174 -0.009501
# 6 -0.004533 -0.007262 -0.001459 -0.003000 -0.009501 0.032066
#
#
# Mechanical properties :
#
#
# Convention : Reuss Voigt Hill
#
# Bulk Modulus (GPa) = 38.76513 69.47607 54.12060
# Shear Modulus (GPa) = 31.07745 45.18409 38.13077
#
# Velocity S-wave (km/s) = 3.35041 4.03988 3.71119
# Velocity P-wave (km/s) = 5.38229 6.84513 6.15731
#
# Compressibility (1/GPa) = 0.02579638
#
# Stress axis : x y z
#
# Youngs Moduli (GPa) = 201.90594 81.11699 67.71126
#
# Poissons Ratio (x) = -0.02147 0.12029
# Poissons Ratio (y) = -0.05345 0.10933
# Poissons Ratio (z) = 0.35870 0.13097
#
# Static dielectric constant tensor:
#      x y z
#    x 2.235120 -0.030750 -0.088790 
#    y -0.030750 2.325690 -0.070380 
#    z -0.088790 -0.070380 2.291420 
# 
# From -- ./inp_files/392525.got.cif
#   From: 2010.05.17/outbox.cif.g08.bks.cpg/sg2_197_cif.got.tgz:392525.got - 2010.06.03 11:33:40.
