data_PCOD9019047
_publ_section_title
;
Structure prediction by ZEFSAII (Michael W. Deem and Ramdas Pophale) SiO2 
 PCOD9019047
Probable space group: P -1
;
_chemical_formula_sum "Si O2"
_cell_formula_units_Z 14
_cell_length_a 8.210821
_cell_length_b 19.584212
_cell_length_c 16.298058
_cell_angle_alpha 21.041648
_cell_angle_beta 36.395984
_cell_angle_gamma 39.737285
_cell_volume 556.405647
_symmetry_space_group_name_H-M "P -1"
_symmetry_group_IT_number 2
_symmetry_cell_setting 'triclinic'
loop_
_space_group_symop_operation_xyz
x,y,z
-x,-y,-z
loop_
_atom_site_type_symbol
_atom_site_label
_atom_site_fract_x
_atom_site_fract_y
_atom_site_fract_z
Si Si1 0.171870 0.476043 0.154095
Si Si2 0.699324 0.666352 0.450237
Si Si3 0.647877 0.954938 0.836350
Si Si4 0.139746 0.838464 0.682656
Si Si5 0.279359 0.356275 0.726642
Si Si6 0.312866 0.063767 0.582708
Si Si7 0.738103 0.236429 0.922241
O O1 0.124811 0.253026 0.420662
O O2 0.998794 0.564303 0.202432
O O3 0.500000 0.500000 0.000000
O O4 0.083238 0.615473 0.956647
O O5 0.744094 0.640212 0.364309
O O6 0.658302 0.456156 0.735148
O O7 0.987611 0.754360 0.256101
O O8 0.453571 0.826982 0.379769
O O9 0.977214 0.916850 0.741770
O O10 0.594015 0.848827 0.061428
O O11 0.497907 0.839077 0.955674
O O12 0.461377 0.854428 0.538772
O O13 0.000000 0.000000 0.500000
O O14 0.500000 0.500000 0.500000
O O15 0.500000 0.000000 0.500000
O O16 0.207263 0.897582 0.869062
#
# Coordination Sequence:
#
# PCOD9019047 Si02
#       7
#     2   2   2   2   2   2   2
#     4   9  23  42  67  94 136 184 221 279 357 409
#     4  11  26  43  68 101 136 184 233 286 344 419
#     4  11  23  44  68  97 139 178 226 291 357 398
#     4  10  21  44  67  99 130 175 228 284 348 411
#     4  11  23  42  71  99 138 175 237 287 351 413
#     4  11  25  43  68  99 137 179 234 279 346 428
#     4  11  25  44  65  98 142 177 235 282 346 413
#
# _framework density 25.161498999999999
#
# number of rings (size 3 to 8) (size 9 to 14) (size 15 to 20)
#    0.000    1.429    2.857    0.857    8.000    4.571 
#    0.000    1.429    0.000    0.000    0.000    0.000 
#    0.000    0.000    0.000    0.000    0.000    0.000 
#
# Total GULP energy -78124.976166 kJ/mol
# GULP energy per Si atom -5580.355440 kJ/mol
# Density = 2.510423 g / cm^3
# Si number density = 25.161499 Si / 1000 Ang^3
#
#
#
# Elastic Constant Matrix: (Units=GPa)
#
#
# Indices 1 2 3 4 5 6 
#
# 1 64.1000 2.8183 33.3284 -1.0459 8.6264 -3.0045
# 2 2.8183 87.6332 38.1984 -18.0222 -4.6279 -12.8646
# 3 33.3284 38.1984 211.4741 -37.0812 45.8854 -4.6255
# 4 -1.0459 -18.0222 -37.0812 47.5506 -17.2414 5.0341
# 5 8.6264 -4.6279 45.8854 -17.2414 50.9219 6.1417
# 6 -3.0045 -12.8646 -4.6255 5.0341 6.1417 36.6546
#
#
#
# Elastic Compliance Matrix: (Units=1/GPa)
#
#
# Indices 1 2 3 4 5 6 
#
# 1 0.017307 0.000403 -0.002898 -0.002382 -0.001300 0.001740
# 2 0.000403 0.014342 -0.002845 0.004698 0.005000 0.003225
# 3 -0.002898 -0.002845 0.007361 0.002549 -0.005571 0.000276
# 4 -0.002382 0.004698 0.002549 0.028204 0.008508 -0.003524
# 5 -0.001300 0.005000 -0.005571 0.008508 0.028822 -0.005053
# 6 0.001740 0.003225 0.000276 -0.003524 -0.005053 0.029921
#
#
# Mechanical properties :
#
#
# Convention : Reuss Voigt Hill
#
# Bulk Modulus (GPa) = 35.29642 56.87749 46.08696
# Shear Modulus (GPa) = 34.22758 46.28289 40.25524
#
# Velocity S-wave (km/s) = 3.69225 4.29351 4.00418
# Velocity P-wave (km/s) = 5.67762 6.87263 6.30351
#
# Compressibility (1/GPa) = 0.02833149
#
# Stress axis : x y z
#
# Youngs Moduli (GPa) = 57.77890 69.72629 135.84939
#
# Poissons Ratio (x) = -0.02813 0.39370
# Poissons Ratio (y) = -0.02331 0.38646
# Poissons Ratio (z) = 0.16745 0.19836
#
# Static dielectric constant tensor:
#      x y z
#    x 2.018640 -0.041830 0.008670 
#    y -0.041830 2.042520 0.044260 
#    z 0.008670 0.044260 2.096300 
# 
# From -- ./inp_files/379941.got.cif
#   From: 2010.05.17/outbox.cif.g08.bks.cpg/sg2_190_cif.got.tgz:379941.got - 2010.06.03 11:33:40.
