data_PCOD9019582
_publ_section_title
;
Structure prediction by ZEFSAII (Michael W. Deem and Ramdas Pophale) SiO2 
 PCOD9019582
Probable space group: P -1
;
_chemical_formula_sum "Si O2"
_cell_formula_units_Z 14
_cell_length_a 9.027969
_cell_length_b 23.017485
_cell_length_c 5.214079
_cell_angle_alpha 90.688899
_cell_angle_beta 55.024768
_cell_angle_gamma 129.825728
_cell_volume 562.912784
_symmetry_space_group_name_H-M "P -1"
_symmetry_group_IT_number 2
_symmetry_cell_setting 'triclinic'
loop_
_space_group_symop_operation_xyz
x,y,z
-x,-y,-z
loop_
_atom_site_type_symbol
_atom_site_label
_atom_site_fract_x
_atom_site_fract_y
_atom_site_fract_z
Si Si1 0.310248 0.416154 0.481326
Si Si2 0.221957 0.510843 0.399644
Si Si3 0.898580 0.913073 0.714619
Si Si4 0.600393 0.150551 0.903393
Si Si5 0.611751 0.675372 0.383942
Si Si6 0.155375 0.221969 0.347185
Si Si7 0.365129 0.029465 0.631491
O O1 0.500000 0.500000 0.500000
O O2 0.113611 0.418651 0.565914
O O3 0.188466 0.331655 0.756739
O O4 0.514062 0.438833 0.056882
O O5 0.336476 0.574005 0.539704
O O6 0.000000 0.500000 0.500000
O O7 0.004191 0.879538 0.477562
O O8 0.558927 0.828517 0.993575
O O9 0.000000 0.000000 0.500000
O O10 0.033471 0.945219 0.867476
O O11 0.460044 0.079597 0.806293
O O12 0.932255 0.219843 0.561304
O O13 0.509220 0.102683 0.265840
O O14 0.626158 0.713843 0.635420
O O15 0.707875 0.740964 0.065739
O O16 0.500000 0.000000 0.500000
#
# Coordination Sequence:
#
# PCOD9019582 Si02
#       7
#     2   2   2   2   2   2   2
#     4   9  20  42  71 101 136 174 225 270 329 402
#     4  10  21  44  75 108 135 181 229 275 330 406
#     4  10  25  43  68  96 128 173 239 284 332 403
#     4  11  24  42  64  93 122 174 218 278 344 395
#     4  11  24  45  69  97 142 182 216 277 344 397
#     4  12  25  44  65  94 142 177 222 281 346 402
#     4  11  21  39  68  91 120 162 224 283 334 389
#
# _framework density 24.870639000000001
#
# number of rings (size 3 to 8) (size 9 to 14) (size 15 to 20)
#    0.000    1.429    2.857    1.714    2.000    4.571 
#    2.571    4.286    0.000    0.000    0.000    0.000 
#    0.000    0.000    0.000    0.000    0.000    0.000 
#
# Total GULP energy -78067.948134 kJ/mol
# GULP energy per Si atom -5576.282010 kJ/mol
# Density = 2.481403 g / cm^3
# Si number density = 24.870639 Si / 1000 Ang^3
#
#
#
# Elastic Constant Matrix: (Units=GPa)
#
#
# Indices 1 2 3 4 5 6 
#
# 1 179.4526 55.3000 26.5829 3.0248 -8.3816 -4.6800
# 2 55.3000 125.5545 19.2824 21.5459 19.3741 19.6135
# 3 26.5829 19.2824 51.7131 15.4406 10.8218 4.7826
# 4 3.0248 21.5459 15.4406 25.5512 -1.7256 9.2638
# 5 -8.3816 19.3741 10.8218 -1.7256 40.5553 -5.3837
# 6 -4.6800 19.6135 4.7826 9.2638 -5.3837 38.4817
#
#
#
# Elastic Compliance Matrix: (Units=1/GPa)
#
#
# Indices 1 2 3 4 5 6 
#
# 1 0.008502 -0.005601 -0.005974 0.006313 0.006836 0.004068
# 2 -0.005601 0.014705 0.003960 -0.012236 -0.010719 -0.007223
# 3 -0.005974 0.003960 0.029910 -0.020348 -0.012412 -0.003300
# 4 0.006313 -0.012236 -0.020348 0.063323 0.014791 -0.003642
# 5 0.006836 -0.010719 -0.012412 0.014791 0.036376 0.009365
# 6 0.004068 -0.007223 -0.003300 -0.003642 0.009365 0.032759
#
#
# Mechanical properties :
#
#
# Convention : Reuss Voigt Hill
#
# Bulk Modulus (GPa) = 26.39319 62.11675 44.25497
# Shear Modulus (GPa) = 23.42644 37.95464 30.69054
#
# Velocity S-wave (km/s) = 3.07242 3.91075 3.51665
# Velocity P-wave (km/s) = 4.81888 6.73959 5.85848
#
# Compressibility (1/GPa) = 0.03788856
#
# Stress axis : x y z
#
# Youngs Moduli (GPa) = 117.61436 68.00230 33.43384
#
# Poissons Ratio (x) = 0.38088 0.19973
# Poissons Ratio (y) = 0.65876 -0.13241
# Poissons Ratio (z) = 0.70261 -0.26931
#
# Static dielectric constant tensor:
#      x y z
#    x 2.121270 -0.055560 -0.147980 
#    y -0.055560 2.043110 -0.008040 
#    z -0.147980 -0.008040 2.254140 
# 
# From -- ./inp_files/55488.got.cif
#   From: 2010.05.17/outbox.cif.g08.bks.cpg/sg2_28_cif.got.tgz:55488.got - 2010.06.03 11:33:40.
