data_PCOD9019505
_publ_section_title
;
Structure prediction by ZEFSAII (Michael W. Deem and Ramdas Pophale) SiO2 
 PCOD9019505
Probable space group: P -1
;
_chemical_formula_sum "Si O2"
_cell_formula_units_Z 16
_cell_length_a 24.370555
_cell_length_b 5.507754
_cell_length_c 5.386480
_cell_angle_alpha 80.680138
_cell_angle_beta 115.785840
_cell_angle_gamma 113.014111
_cell_volume 599.174026
_symmetry_space_group_name_H-M "P -1"
_symmetry_group_IT_number 2
_symmetry_cell_setting 'triclinic'
loop_
_space_group_symop_operation_xyz
x,y,z
-x,-y,-z
loop_
_atom_site_type_symbol
_atom_site_label
_atom_site_fract_x
_atom_site_fract_y
_atom_site_fract_z
Si Si1 0.838830 0.155155 0.497715
Si Si2 0.961960 0.111541 0.606050
Si Si3 0.443906 0.714856 0.438557
Si Si4 0.719507 0.873844 0.048486
Si Si5 0.400334 0.536967 0.883554
Si Si6 0.330256 0.812660 0.430397
Si Si7 0.205332 0.340684 0.129737
Si Si8 0.083709 0.389423 0.044092
O O1 0.893398 0.143419 0.406954
O O2 0.879178 0.390906 0.719620
O O3 0.772168 0.135099 0.230929
O O4 0.812133 0.904310 0.673207
O O5 0.937880 0.887352 0.807061
O O6 0.000000 0.000000 0.500000
O O7 0.016261 0.374628 0.786615
O O8 0.439576 0.550429 0.707181
O O9 0.373485 0.750943 0.307115
O O10 0.500000 0.000000 0.500000
O O11 0.443134 0.571332 0.205154
O O12 0.664798 0.714255 0.160944
O O13 0.763319 0.719768 0.048480
O O14 0.682636 0.932392 0.726964
O O15 0.374098 0.782267 0.749998
O O16 0.259529 0.585267 0.331924
O O17 0.137936 0.387644 0.951473
#
# Coordination Sequence:
#
# PCOD9019505 Si02
#       8
#     2   2   2   2   2   2   2   2
#     4  11  23  39  67  95 135 178 239 291 358 432
#     4  10  22  41  61  90 136 177 230 294 354 424
#     4  10  21  44  73 100 146 195 234 295 360 419
#     4  12  23  42  69 103 138 188 235 292 365 421
#     4  10  22  45  66 104 147 185 239 300 348 430
#     4  10  24  40  69 101 140 188 230 300 351 428
#     4  11  22  43  61  96 136 178 231 298 349 431
#     4  10  23  39  62  95 126 181 229 291 357 426
#
# _framework density 26.703430000000001
#
# number of rings (size 3 to 8) (size 9 to 14) (size 15 to 20)
#    0.750    0.750    2.500    2.250    0.000    6.500 
#    0.000    1.250    0.000    0.000    0.000    0.000 
#    0.000    0.000    0.000    0.000    0.000    0.000 
#
# Total GULP energy -89512.134070 kJ/mol
# GULP energy per Si atom -5594.508379 kJ/mol
# Density = 2.664265 g / cm^3
# Si number density = 26.703430 Si / 1000 Ang^3
#
#
#
# Elastic Constant Matrix: (Units=GPa)
#
#
# Indices 1 2 3 4 5 6 
#
# 1 167.3273 49.6579 45.3992 7.8632 -8.7692 26.4586
# 2 49.6579 88.2254 28.6811 1.3462 -7.4272 36.6546
# 3 45.3992 28.6811 119.3757 7.9291 -25.0801 17.8724
# 4 7.8632 1.3462 7.9291 40.4101 0.6668 1.1586
# 5 -8.7692 -7.4272 -25.0801 0.6668 36.7596 -2.5646
# 6 26.4586 36.6546 17.8724 1.1586 -2.5646 46.9099
#
#
#
# Elastic Compliance Matrix: (Units=1/GPa)
#
#
# Indices 1 2 3 4 5 6 
#
# 1 0.007672 -0.003260 -0.001964 -0.000966 -0.000222 -0.001020
# 2 -0.003260 0.018779 -0.001184 0.000572 0.001339 -0.012325
# 3 -0.001964 -0.001184 0.011249 -0.001847 0.006873 -0.001832
# 4 -0.000966 0.000572 -0.001847 0.025305 -0.001828 0.000076
# 5 -0.000222 0.001339 0.006873 -0.001828 0.032022 -0.001743
# 6 -0.001020 -0.012325 -0.001832 0.000076 -0.001743 0.032124
#
#
# Mechanical properties :
#
#
# Convention : Reuss Voigt Hill
#
# Bulk Modulus (GPa) = 40.18596 69.15610 54.67103
# Shear Modulus (GPa) = 33.72446 41.56194 37.64320
#
# Velocity S-wave (km/s) = 3.55762 3.94944 3.75864
# Velocity P-wave (km/s) = 5.65307 6.83750 6.27330
#
# Compressibility (1/GPa) = 0.02488431
#
# Stress axis : x y z
#
# Youngs Moduli (GPa) = 130.35017 53.25231 88.89554
#
# Poissons Ratio (x) = 0.17359 0.17461
# Poissons Ratio (y) = 0.42490 0.10521
# Poissons Ratio (z) = 0.25604 0.06303
#
# Static dielectric constant tensor:
#      x y z
#    x 2.057240 -0.062970 -0.009010 
#    y -0.062970 2.095990 -0.028100 
#    z -0.009010 -0.028100 2.127020 
# 
# From -- ./inp_files/125790.got.cif
#   From: 2010.05.17/outbox.cif.g08.bks.cpg/sg2_63_cif.got.tgz:125790.got - 2010.06.03 11:33:40.
