data_PCOD9019931
_publ_section_title
;
Structure prediction by ZEFSAII (Michael W. Deem and Ramdas Pophale) SiO2 
 PCOD9019931
Probable space group: P -1
;
_chemical_formula_sum "Si O2"
_cell_formula_units_Z 16
_cell_length_a 12.542967
_cell_length_b 7.073667
_cell_length_c 9.538027
_cell_angle_alpha 129.964157
_cell_angle_beta 100.030892
_cell_angle_gamma 87.675929
_cell_volume 635.839168
_symmetry_space_group_name_H-M "P -1"
_symmetry_group_IT_number 2
_symmetry_cell_setting 'triclinic'
loop_
_space_group_symop_operation_xyz
x,y,z
-x,-y,-z
loop_
_atom_site_type_symbol
_atom_site_label
_atom_site_fract_x
_atom_site_fract_y
_atom_site_fract_z
Si Si1 0.408392 0.994998 0.093239
Si Si2 0.003087 0.980891 0.324267
Si Si3 0.526616 0.738470 0.516104
Si Si4 0.759212 0.453729 0.074359
Si Si5 0.148047 0.614011 0.469353
Si Si6 0.321635 0.517007 0.245138
Si Si7 0.005435 0.728780 0.937385
Si Si8 0.230071 0.233499 0.520920
O O1 0.477607 0.037037 0.271687
O O2 0.337894 0.233772 0.164895
O O3 0.500000 0.000000 0.000000
O O4 0.331535 0.742337 0.968453
O O5 0.921050 0.188217 0.376914
O O6 0.133684 0.030410 0.355004
O O7 0.000000 0.000000 0.500000
O O8 0.967993 0.757865 0.104831
O O9 0.500000 0.500000 0.500000
O O10 0.438378 0.675397 0.347460
O O11 0.647960 0.783596 0.507209
O O12 0.769419 0.707995 0.286527
O O13 0.728851 0.487847 0.922348
O O14 0.873064 0.342579 0.067785
O O15 0.251498 0.658870 0.410143
O O16 0.191736 0.464557 0.536610
O O17 0.066601 0.456671 0.268308
O O18 0.000000 0.000000 0.000000
#
# Coordination Sequence:
#
# PCOD9019931 Si02
#       8
#     2   2   2   2   2   2   2   2
#     4  11  24  45  73 105 141 190 247 296 366 443
#     4  12  27  44  68 109 145 188 242 299 367 438
#     4  10  21  45  72  98 141 184 238 301 358 433
#     4  12  26  44  73 109 144 187 245 306 364 437
#     4  12  24  47  72 102 143 191 240 296 366 435
#     4  11  26  47  73 104 145 193 238 305 373 427
#     4  12  24  45  74 102 144 195 244 296 362 440
#     4  12  23  46  72 100 141 188 240 296 364 432
#
# _framework density 25.163594
#
# number of rings (size 3 to 8) (size 9 to 14) (size 15 to 20)
#    0.000    0.500    5.000    4.875    1.750    3.500 
#    0.000    1.250    0.000    0.000    0.000    0.000 
#    0.000    0.000    0.000    0.000    0.000    0.000 
#
# Total GULP energy -89537.521173 kJ/mol
# GULP energy per Si atom -5596.095073 kJ/mol
# Density = 2.510632 g / cm^3
# Si number density = 25.163594 Si / 1000 Ang^3
#
#
#
# Elastic Constant Matrix: (Units=GPa)
#
#
# Indices 1 2 3 4 5 6 
#
# 1 110.8360 11.7686 29.3115 7.6716 10.8009 13.9342
# 2 11.7686 67.4886 9.9113 -6.7691 7.3626 0.2606
# 3 29.3115 9.9113 149.0993 -6.9617 -2.2860 -4.9024
# 4 7.6716 -6.7691 -6.9617 47.7304 -3.6441 1.7265
# 5 10.8009 7.3626 -2.2860 -3.6441 46.5303 -2.7630
# 6 13.9342 0.2606 -4.9024 1.7265 -2.7630 28.2875
#
#
#
# Elastic Compliance Matrix: (Units=1/GPa)
#
#
# Indices 1 2 3 4 5 6 
#
# 1 0.011023 -0.001452 -0.002422 -0.002342 -0.002987 -0.005985
# 2 -0.001452 0.015606 -0.000676 0.002192 -0.001986 0.000127
# 3 -0.002422 -0.000676 0.007395 0.001379 0.001290 0.002523
# 4 -0.002342 0.002192 0.001379 0.021984 0.002000 0.000226
# 5 -0.002987 -0.001986 0.001290 0.002000 0.022947 0.003832
# 6 -0.005985 0.000127 0.002523 0.000226 0.003832 0.039096
#
#
# Mechanical properties :
#
#
# Convention : Reuss Voigt Hill
#
# Bulk Modulus (GPa) = 40.12403 47.71184 43.91793
# Shear Modulus (GPa) = 36.91149 42.93849 39.92499
#
# Velocity S-wave (km/s) = 3.83412 4.13531 3.98756
# Velocity P-wave (km/s) = 5.96494 6.46551 6.22026
#
# Compressibility (1/GPa) = 0.02492272
#
# Stress axis : x y z
#
# Youngs Moduli (GPa) = 90.72126 64.07844 135.22245
#
# Poissons Ratio (x) = 0.09307 0.32756
# Poissons Ratio (y) = 0.13176 0.09138
# Poissons Ratio (z) = 0.21976 0.04330
#
# Static dielectric constant tensor:
#      x y z
#    x 2.178270 0.041250 -0.011820 
#    y 0.041250 2.152550 -0.005890 
#    z -0.011820 -0.005890 1.959130 
# 
# From -- ./inp_files/246102.got.cif
#   From: 2010.05.17/outbox.cif.g08.bks.cpg/sg2_124_cif.got.tgz:246102.got - 2010.06.03 11:33:40.
