data_PCOD9019502
_publ_section_title
;
Structure prediction by ZEFSAII (Michael W. Deem and Ramdas Pophale) SiO2 
 PCOD9019502
Probable space group: P -1
;
_chemical_formula_sum "Si O2"
_cell_formula_units_Z 12
_cell_length_a 7.242657
_cell_length_b 9.951138
_cell_length_c 9.583699
_cell_angle_alpha 71.776039
_cell_angle_beta 54.212947
_cell_angle_gamma 95.829457
_cell_volume 494.613772
_symmetry_space_group_name_H-M "P -1"
_symmetry_group_IT_number 2
_symmetry_cell_setting 'triclinic'
loop_
_space_group_symop_operation_xyz
x,y,z
-x,-y,-z
loop_
_atom_site_type_symbol
_atom_site_label
_atom_site_fract_x
_atom_site_fract_y
_atom_site_fract_z
Si Si1 0.729623 0.940100 0.830775
Si Si2 0.195445 0.041167 0.731954
Si Si3 0.247641 0.766755 0.959615
Si Si4 0.689238 0.646224 0.288674
Si Si5 0.104635 0.187331 0.462008
Si Si6 0.481681 0.536139 0.836905
O O1 0.444104 0.848018 0.969056
O O2 0.841450 0.843925 0.709779
O O3 0.893720 0.979380 0.884897
O O4 0.824162 0.104152 0.655920
O O5 0.328935 0.197196 0.703830
O O6 0.232245 0.098732 0.536003
O O7 0.252777 0.900894 0.808675
O O8 0.329458 0.647345 0.875021
O O9 0.977941 0.679032 0.168827
O O10 0.500000 0.500000 0.500000
O O11 0.636307 0.607357 0.162026
O O12 0.245827 0.363384 0.370150
O O13 0.500000 0.500000 0.000000
#
# Coordination Sequence:
#
# PCOD9019502 Si02
#       6
#     2   2   2   2   2   2
#     4   8  18  38  64 103 132 169 232 282 338 400
#     4  10  21  44  73 100 141 174 236 300 335 402
#     4  11  25  43  75 103 131 196 235 277 351 424
#     4  12  25  48  66 107 148 178 230 298 352 414
#     4   8  17  40  66  98 136 177 221 295 330 403
#     4  11  25  47  71  99 147 190 231 280 353 434
#
# _framework density 24.261355999999999
#
# number of rings (size 3 to 8) (size 9 to 14) (size 15 to 20)
#    1.000    1.000    1.667    1.000    4.667    3.333 
#    6.000    0.833    0.000    0.000    0.000    0.000 
#    0.000    0.000    0.000    0.000    0.000    0.000 
#
# Total GULP energy -66915.622810 kJ/mol
# GULP energy per Si atom -5576.301901 kJ/mol
# Density = 2.420614 g / cm^3
# Si number density = 24.261356 Si / 1000 Ang^3
#
#
#
# Elastic Constant Matrix: (Units=GPa)
#
#
# Indices 1 2 3 4 5 6 
#
# 1 87.3790 58.0175 22.8576 -8.7749 1.4059 33.8082
# 2 58.0175 149.1077 26.9597 -15.4630 9.5082 32.8388
# 3 22.8576 26.9597 86.6862 -13.3878 -2.7207 26.9996
# 4 -8.7749 -15.4630 -13.3878 33.0921 8.3051 -14.4521
# 5 1.4059 9.5082 -2.7207 8.3051 49.0784 -14.8480
# 6 33.8082 32.8388 26.9996 -14.4521 -14.8480 34.0694
#
#
#
# Elastic Compliance Matrix: (Units=1/GPa)
#
#
# Indices 1 2 3 4 5 6 
#
# 1 0.022991 -0.003641 0.002275 -0.004273 -0.006955 -0.025951
# 2 -0.003641 0.010231 0.000305 0.001689 -0.004485 -0.007729
# 3 0.002275 0.000305 0.016103 0.001038 -0.004500 -0.016835
# 4 -0.004273 0.001689 0.001038 0.038243 -0.001347 0.017424
# 5 -0.006955 -0.004485 -0.004500 -0.001347 0.029631 0.027134
# 6 -0.025951 -0.007729 -0.016835 0.017424 0.027134 0.095112
#
#
# Mechanical properties :
#
#
# Convention : Reuss Voigt Hill
#
# Bulk Modulus (GPa) = 21.18462 59.87140 40.52801
# Shear Modulus (GPa) = 21.72330 37.60386 29.66358
#
# Velocity S-wave (km/s) = 2.99555 3.94121 3.50046
# Velocity P-wave (km/s) = 4.55140 6.74108 5.75140
#
# Compressibility (1/GPa) = 0.04720406
#
# Stress axis : x y z
#
# Youngs Moduli (GPa) = 43.49582 97.73825 62.09832
#
# Poissons Ratio (x) = 0.35588 -0.14127
# Poissons Ratio (y) = 0.15837 -0.01897
# Poissons Ratio (z) = -0.09895 -0.02985
#
# Static dielectric constant tensor:
#      x y z
#    x 1.989830 0.003390 -0.041730 
#    y 0.003390 1.965260 0.011660 
#    z -0.041730 0.011660 2.019220 
# 
# From -- ./inp_files/162140.got.cif
#   From: 2010.05.17/outbox.cif.g08.bks.cpg/sg2_82_cif.got.tgz:162140.got - 2010.06.03 11:33:40.
