data_PCOD9019348
_publ_section_title
;
Structure prediction by ZEFSAII (Michael W. Deem and Ramdas Pophale) SiO2 
 PCOD9019348
Probable space group: P -1
;
_chemical_formula_sum "Si O2"
_cell_formula_units_Z 16
_cell_length_a 5.135269
_cell_length_b 25.373275
_cell_length_c 6.727608
_cell_angle_alpha 124.014154
_cell_angle_beta 76.257459
_cell_angle_gamma 104.712220
_cell_volume 697.785450
_symmetry_space_group_name_H-M "P -1"
_symmetry_group_IT_number 2
_symmetry_cell_setting 'triclinic'
loop_
_space_group_symop_operation_xyz
x,y,z
-x,-y,-z
loop_
_atom_site_type_symbol
_atom_site_label
_atom_site_fract_x
_atom_site_fract_y
_atom_site_fract_z
Si Si1 0.250423 0.940335 0.268524
Si Si2 0.998334 0.957106 0.715623
Si Si3 0.187712 0.510984 0.794526
Si Si4 0.855628 0.804946 0.978289
Si Si5 0.284387 0.281224 0.811467
Si Si6 0.413349 0.136595 0.203412
Si Si7 0.217285 0.421975 0.241804
Si Si8 0.185296 0.755405 0.503635
O O1 0.261867 0.948576 0.521269
O O2 0.168436 0.003988 0.321575
O O3 0.497836 0.921815 0.059638
O O4 0.025096 0.875813 0.140184
O O5 0.839728 0.889253 0.670008
O O6 0.000000 0.000000 0.000000
O O7 0.192845 0.447313 0.524534
O O8 0.503809 0.540008 0.824082
O O9 0.041527 0.559209 0.787279
O O10 0.000000 0.500000 0.000000
O O11 0.656764 0.816125 0.857350
O O12 0.043908 0.756348 0.746335
O O13 0.719614 0.772084 0.128244
O O14 0.575514 0.286686 0.661209
O O15 0.041573 0.260262 0.655823
O O16 0.238385 0.347761 0.058105
O O17 0.653031 0.171560 0.370240
#
# Coordination Sequence:
#
# PCOD9019348 Si02
#       8
#     2   2   2   2   2   2   2   2
#     4  10  24  40  64  94 127 172 224 275 353 411
#     4  11  22  43  63  94 129 168 223 289 345 418
#     4  10  21  44  71 101 141 182 222 279 334 384
#     4  11  25  45  66 100 132 183 227 277 345 413
#     4  12  26  43  70 101 144 181 227 285 331 402
#     4  11  23  45  68  94 133 176 228 285 344 414
#     4  10  23  41  67 106 138 179 232 270 331 399
#     4  11  26  46  66  97 136 186 230 278 343 407
#
# _framework density 22.929684000000002
#
# number of rings (size 3 to 8) (size 9 to 14) (size 15 to 20)
#    0.000    1.250    2.500    2.250    3.500    2.500 
#    2.250    0.000    0.000    0.000    0.000    0.000 
#    0.000    0.000    0.000    0.000    0.000    0.000 
#
# Total GULP energy -89406.774033 kJ/mol
# GULP energy per Si atom -5587.923377 kJ/mol
# Density = 2.287749 g / cm^3
# Si number density = 22.929684 Si / 1000 Ang^3
#
#
#
# Elastic Constant Matrix: (Units=GPa)
#
#
# Indices 1 2 3 4 5 6 
#
# 1 97.2764 5.5481 39.3517 0.4413 -7.4287 -6.3976
# 2 5.5481 34.5722 41.5673 10.0109 6.7708 -2.7762
# 3 39.3517 41.5673 142.1358 0.6234 -13.7046 3.5393
# 4 0.4413 10.0109 0.6234 35.6227 0.8101 -12.5763
# 5 -7.4287 6.7708 -13.7046 0.8101 36.3354 2.5541
# 6 -6.3976 -2.7762 3.5393 -12.5763 2.5541 22.7021
#
#
#
# Elastic Compliance Matrix: (Units=1/GPa)
#
#
# Indices 1 2 3 4 5 6 
#
# 1 0.012271 0.004064 -0.004754 0.000587 -0.000411 0.005068
# 2 0.004064 0.062191 -0.021220 -0.014570 -0.018866 0.006110
# 3 -0.004754 -0.021220 0.015557 0.003647 0.009146 -0.005369
# 4 0.000587 -0.014570 0.003647 0.038784 0.002005 0.019075
# 5 -0.000411 -0.018866 0.009146 0.002005 0.034826 -0.006656
# 6 0.005068 0.006110 -0.005369 0.019075 -0.006656 0.058377
#
#
# Mechanical properties :
#
#
# Convention : Reuss Voigt Hill
#
# Bulk Modulus (GPa) = 21.64566 49.65762 35.65164
# Shear Modulus (GPa) = 17.77938 31.43321 24.60630
#
# Velocity S-wave (km/s) = 2.78760 3.70652 3.27940
# Velocity P-wave (km/s) = 4.45213 6.32623 5.47004
#
# Compressibility (1/GPa) = 0.04619864
#
# Stress axis : x y z
#
# Youngs Moduli (GPa) = 81.49493 16.07956 64.27926
#
# Poissons Ratio (x) = -0.06535 0.30560
# Poissons Ratio (y) = -0.33123 1.36401
# Poissons Ratio (z) = 0.38745 0.34121
#
# Static dielectric constant tensor:
#      x y z
#    x 1.870630 -0.018860 0.021790 
#    y -0.018860 1.725430 0.121830 
#    z 0.021790 0.121830 1.777340 
# 
# From -- ./inp_files/13682.got.cif
#   From: 2010.05.17/outbox.cif.g08.bks.cpg/sg2_7_cif.got.tgz:13682.got - 2010.06.03 11:33:40.
