data_PCOD9019555
_publ_section_title
;
Structure prediction by ZEFSAII (Michael W. Deem and Ramdas Pophale) SiO2 
 PCOD9019555
Probable space group: P -1
;
_chemical_formula_sum "Si O2"
_cell_formula_units_Z 14
_cell_length_a 8.137883
_cell_length_b 20.001398
_cell_length_c 6.666539
_cell_angle_alpha 48.423787
_cell_angle_beta 132.566854
_cell_angle_gamma 131.519471
_cell_volume 550.908573
_symmetry_space_group_name_H-M "P -1"
_symmetry_group_IT_number 2
_symmetry_cell_setting 'triclinic'
loop_
_space_group_symop_operation_xyz
x,y,z
-x,-y,-z
loop_
_atom_site_type_symbol
_atom_site_label
_atom_site_fract_x
_atom_site_fract_y
_atom_site_fract_z
Si Si1 0.358913 0.336046 0.134137
Si Si2 0.153626 0.783366 0.114326
Si Si3 0.145062 0.932592 0.471746
Si Si4 0.637323 0.777132 0.251701
Si Si5 0.532288 0.124947 0.429386
Si Si6 0.997625 0.417166 0.815721
Si Si7 0.583899 0.411737 0.777052
O O1 0.395870 0.265010 0.466658
O O2 0.572157 0.388453 0.050615
O O3 0.127149 0.265047 0.956016
O O4 0.259292 0.408673 0.025827
O O5 0.331953 0.817417 0.379430
O O6 0.158049 0.692456 0.170809
O O7 0.187644 0.870992 0.815211
O O8 0.296672 0.926530 0.412889
O O9 0.871946 0.876235 0.285860
O O10 0.264830 0.044652 0.412290
O O11 0.621158 0.679403 0.320268
O O12 0.483918 0.809723 0.898961
O O13 0.843286 0.427087 0.860398
O O14 0.000000 0.500000 0.500000
O O15 0.500000 0.500000 0.500000
#
# Coordination Sequence:
#
# PCOD9019555 Si02
#       7
#     2   2   2   2   2   2   2
#     4   9  23  46  67 102 148 184 236 297 351 425
#     4   9  20  42  68 100 143 186 240 296 354 424
#     4  10  22  42  68 102 144 180 245 305 350 433
#     4  11  25  42  66 104 149 184 238 298 359 433
#     4  11  22  41  71 102 136 195 237 295 372 421
#     4  10  21  44  74 106 143 190 236 297 353 426
#     4  12  23  43  71 106 139 192 240 291 358 426
#
# _framework density 25.412566000000002
#
# number of rings (size 3 to 8) (size 9 to 14) (size 15 to 20)
#    0.857    0.857    1.429    2.571    0.000    2.857 
#    2.571    0.714    0.000   12.000    0.000    0.000 
#    0.000    0.000    0.000    0.000    0.000    0.000 
#
# Total GULP energy -78067.118611 kJ/mol
# GULP energy per Si atom -5576.222758 kJ/mol
# Density = 2.535473 g / cm^3
# Si number density = 25.412566 Si / 1000 Ang^3
#
#
#
# Elastic Constant Matrix: (Units=GPa)
#
#
# Indices 1 2 3 4 5 6 
#
# 1 150.4449 28.6713 35.8043 2.8837 -32.4639 4.8702
# 2 28.6713 125.5921 67.1651 9.3514 -18.2693 -9.6391
# 3 35.8043 67.1651 134.6695 12.7239 -23.6120 2.5391
# 4 2.8837 9.3514 12.7239 50.7587 3.3028 -8.6954
# 5 -32.4639 -18.2693 -23.6120 3.3028 30.3331 -5.9902
# 6 4.8702 -9.6391 2.5391 -8.6954 -5.9902 24.4733
#
#
#
# Elastic Compliance Matrix: (Units=1/GPa)
#
#
# Indices 1 2 3 4 5 6 
#
# 1 0.008768 -0.000374 -0.000508 -0.000875 0.008861 0.000019
# 2 -0.000374 0.011921 -0.005275 -0.000035 0.003914 0.006263
# 3 -0.000508 -0.005275 0.011343 -0.002656 0.004822 -0.002917
# 4 -0.000875 -0.000035 -0.002656 0.021924 -0.003980 0.007252
# 5 0.008861 0.003914 0.004822 -0.003980 0.051041 0.010357
# 6 0.000019 0.006263 -0.002917 0.007252 0.010357 0.048738
#
#
# Mechanical properties :
#
#
# Convention : Reuss Voigt Hill
#
# Bulk Modulus (GPa) = 50.71679 74.88754 62.80217
# Shear Modulus (GPa) = 28.96524 39.71742 34.34133
#
# Velocity S-wave (km/s) = 3.37975 3.95765 3.68006
# Velocity P-wave (km/s) = 5.93557 7.10047 6.54399
#
# Compressibility (1/GPa) = 0.01971734
#
# Stress axis : x y z
#
# Youngs Moduli (GPa) = 114.05668 83.88494 88.16191
#
# Poissons Ratio (x) = 0.03137 0.04483
# Poissons Ratio (y) = 0.04266 0.46502
# Poissons Ratio (z) = 0.05799 0.44246
#
# Static dielectric constant tensor:
#      x y z
#    x 2.288660 -0.020700 0.073640 
#    y -0.020700 2.089890 0.039960 
#    z 0.073640 0.039960 1.950150 
# 
# From -- ./inp_files/52302.got.cif
#   From: 2010.05.17/outbox.cif.g08.bks.cpg/sg2_27_cif.got.tgz:52302.got - 2010.06.03 11:33:40.
