data_PCOD9019458
_publ_section_title
;
Structure prediction by ZEFSAII (Michael W. Deem and Ramdas Pophale) SiO2 
 PCOD9019458
Probable space group: P -1
;
_chemical_formula_sum "Si O2"
_cell_formula_units_Z 12
_cell_length_a 11.078485
_cell_length_b 5.295801
_cell_length_c 8.514121
_cell_angle_alpha 114.025833
_cell_angle_beta 76.763990
_cell_angle_gamma 103.515797
_cell_volume 438.541842
_symmetry_space_group_name_H-M "P -1"
_symmetry_group_IT_number 2
_symmetry_cell_setting 'triclinic'
loop_
_space_group_symop_operation_xyz
x,y,z
-x,-y,-z
loop_
_atom_site_type_symbol
_atom_site_label
_atom_site_fract_x
_atom_site_fract_y
_atom_site_fract_z
Si Si1 0.932716 0.235653 0.784360
Si Si2 0.689217 0.103307 0.405864
Si Si3 0.131745 0.416199 0.379744
Si Si4 0.570346 0.908248 0.700309
Si Si5 0.577560 0.373080 0.076103
Si Si6 0.830899 0.383949 0.168177
O O1 0.863335 0.456353 0.765851
O O2 0.079214 0.339536 0.729137
O O3 0.884089 0.914304 0.681632
O O4 0.910462 0.260798 0.980939
O O5 0.744207 0.416738 0.533912
O O6 0.666325 0.934663 0.533724
O O7 0.790012 0.134225 0.241128
O O8 0.558515 0.034475 0.332627
O O9 0.000000 0.500000 0.500000
O O10 0.513990 0.635525 0.746571
O O11 0.606244 0.105088 0.894094
O O12 0.710219 0.476065 0.143994
O O13 0.500000 0.500000 0.000000
#
# Coordination Sequence:
#
# PCOD9019458 Si02
#       6
#     2   2   2   2   2   2
#     4  11  26  49  72 112 152 201 249 301 385 452
#     4  10  21  45  70 103 142 191 246 309 367 442
#     4  12  25  47  75 110 151 194 251 311 379 444
#     4   9  21  44  67 100 142 187 248 299 376 434
#     4  10  21  44  72 106 141 191 249 306 376 442
#     4  10  23  45  74 107 148 200 246 313 369 453
#
# _framework density 27.363412
#
# number of rings (size 3 to 8) (size 9 to 14) (size 15 to 20)
#    0.000    1.667    1.667    1.500    0.000    4.000 
#   30.000    4.167    0.000    0.000    0.000    0.000 
#    0.000    0.000    0.000    0.000    0.000    0.000 
#
# Total GULP energy -66930.146841 kJ/mol
# GULP energy per Si atom -5577.512237 kJ/mol
# Density = 2.730113 g / cm^3
# Si number density = 27.363412 Si / 1000 Ang^3
#
#
#
# Elastic Constant Matrix: (Units=GPa)
#
#
# Indices 1 2 3 4 5 6 
#
# 1 111.0785 55.5381 38.3736 -3.2175 21.3451 16.6554
# 2 55.5381 140.3519 64.8224 -29.2663 12.9801 21.9727
# 3 38.3736 64.8224 161.9190 -49.6463 1.4228 23.3546
# 4 -3.2175 -29.2663 -49.6463 72.8525 18.9326 5.1347
# 5 21.3451 12.9801 1.4228 18.9326 56.0905 -2.4748
# 6 16.6554 21.9727 23.3546 5.1347 -2.4748 40.9557
#
#
#
# Elastic Compliance Matrix: (Units=1/GPa)
#
#
# Indices 1 2 3 4 5 6 
#
# 1 0.012356 -0.003725 -0.001260 -0.000679 -0.003687 -0.002445
# 2 -0.003725 0.011151 -0.001670 0.004180 -0.002717 -0.004204
# 3 -0.001260 -0.001670 0.010095 0.007052 -0.002007 -0.005354
# 4 -0.000679 0.004180 0.007052 0.023223 -0.009143 -0.009451
# 5 -0.003687 -0.002717 -0.002007 -0.009143 0.023291 0.006655
# 6 -0.002445 -0.004204 -0.005354 -0.009451 0.006655 0.032306
#
#
# Mechanical properties :
#
#
# Convention : Reuss Voigt Hill
#
# Bulk Modulus (GPa) = 49.27989 81.20196 65.24092
# Shear Modulus (GPa) = 37.73701 50.95412 44.34556
#
# Velocity S-wave (km/s) = 3.71766 4.31992 4.03005
# Velocity P-wave (km/s) = 6.03958 7.39067 6.74902
#
# Compressibility (1/GPa) = 0.02029225
#
# Stress axis : x y z
#
# Youngs Moduli (GPa) = 80.93292 89.67773 99.05935
#
# Poissons Ratio (x) = 0.33406 0.12482
# Poissons Ratio (y) = 0.30149 0.16539
# Poissons Ratio (z) = 0.10198 0.14973
#
# Static dielectric constant tensor:
#      x y z
#    x 2.197380 0.075850 -0.002770 
#    y 0.075850 2.402140 0.131830 
#    z -0.002770 0.131830 2.205000 
# 
# From -- ./inp_files/130998.got.cif
#   From: 2010.05.17/outbox.cif.g08.bks.cpg/sg2_66_cif.got.tgz:130998.got - 2010.06.03 11:33:40.
