data_PCOD9019854
_publ_section_title
;
Structure prediction by ZEFSAII (Michael W. Deem and Ramdas Pophale) SiO2 
 PCOD9019854
Probable space group: P -1
;
_chemical_formula_sum "Si O2"
_cell_formula_units_Z 14
_cell_length_a 16.769683
_cell_length_b 10.175963
_cell_length_c 8.853465
_cell_angle_alpha 44.179252
_cell_angle_beta 42.935592
_cell_angle_gamma 33.258956
_cell_volume 541.666302
_symmetry_space_group_name_H-M "P -1"
_symmetry_group_IT_number 2
_symmetry_cell_setting 'triclinic'
loop_
_space_group_symop_operation_xyz
x,y,z
-x,-y,-z
loop_
_atom_site_type_symbol
_atom_site_label
_atom_site_fract_x
_atom_site_fract_y
_atom_site_fract_z
Si Si1 0.921794 0.568778 0.216262
Si Si2 0.238503 0.320964 0.088778
Si Si3 0.192265 0.901964 0.974754
Si Si4 0.413987 0.607685 0.372414
Si Si5 0.846167 0.151369 0.257270
Si Si6 0.646346 0.579009 0.656430
Si Si7 0.497100 0.915636 0.858859
O O1 0.802714 0.526178 0.441912
O O2 0.072598 0.395432 0.259223
O O3 0.660193 0.819017 0.087906
O O4 0.000000 0.500000 0.000000
O O5 0.355814 0.150572 0.202640
O O6 0.197988 0.583874 0.930396
O O7 0.310920 0.652327 0.112998
O O8 0.216020 0.887903 0.773010
O O9 0.165018 0.140585 0.876220
O O10 0.030604 0.957028 0.168925
O O11 0.500000 0.500000 0.500000
O O12 0.235166 0.817505 0.499360
O O13 0.430435 0.417267 0.392501
O O14 0.472817 0.734231 0.111596
O O15 0.541874 0.824972 0.701276
#
# Coordination Sequence:
#
# PCOD9019854 Si02
#       7
#     2   2   2   2   2   2   2
#     4  11  27  46  74 109 149 186 242 308 359 433
#     4  10  22  46  69 105 148 186 239 291 364 425
#     4  10  23  45  75 108 144 186 246 300 359 430
#     4  12  25  45  72  99 147 195 241 299 372 432
#     4  10  21  45  70 105 146 189 239 297 359 432
#     4  12  26  48  75 109 143 194 250 300 365 433
#     4  11  25  44  73 106 148 191 243 295 357 449
#
# _framework density 25.846169
#
# number of rings (size 3 to 8) (size 9 to 14) (size 15 to 20)
#    0.000    1.143    2.857    2.143    4.000    4.000 
#    2.571    1.429    0.000    0.000    0.000    0.000 
#    0.000    0.000    0.000    0.000    0.000    0.000 
#
# Total GULP energy -78535.417879 kJ/mol
# GULP energy per Si atom -5609.672706 kJ/mol
# Density = 2.578734 g / cm^3
# Si number density = 25.846169 Si / 1000 Ang^3
#
#
#
# Elastic Constant Matrix: (Units=GPa)
#
#
# Indices 1 2 3 4 5 6 
#
# 1 160.0409 54.0000 44.4008 18.1213 9.2851 14.0784
# 2 54.0000 109.1037 17.2916 9.8473 16.5748 10.6205
# 3 44.4008 17.2916 111.3710 15.6484 2.2471 -2.2552
# 4 18.1213 9.8473 15.6484 44.1099 4.0261 1.9922
# 5 9.2851 16.5748 2.2471 4.0261 44.1214 17.0970
# 6 14.0784 10.6205 -2.2552 1.9922 17.0970 55.1158
#
#
#
# Elastic Compliance Matrix: (Units=1/GPa)
#
#
# Indices 1 2 3 4 5 6 
#
# 1 0.008489 -0.003538 -0.002636 -0.001731 0.000487 -0.001683
# 2 -0.003538 0.011561 -0.000218 -0.000726 -0.003427 -0.000244
# 3 -0.002636 -0.000218 0.010462 -0.002624 -0.000155 0.001286
# 4 -0.001731 -0.000726 -0.002624 0.024609 -0.001494 0.000049
# 5 0.000487 -0.003427 -0.000155 -0.001494 0.027015 -0.007796
# 6 -0.001683 -0.000244 0.001286 0.000049 -0.007796 0.021090
#
#
# Mechanical properties :
#
#
# Convention : Reuss Voigt Hill
#
# Bulk Modulus (GPa) = 56.40809 67.98894 62.19852
# Shear Modulus (GPa) = 41.01099 46.32430 43.66765
#
# Velocity S-wave (km/s) = 3.98770 4.23816 4.11484
# Velocity P-wave (km/s) = 6.56310 7.09307 6.83323
#
# Compressibility (1/GPa) = 0.01772795
#
# Stress axis : x y z
#
# Youngs Moduli (GPa) = 117.79701 86.49734 95.58816
#
# Poissons Ratio (x) = 0.30601 0.25195
# Poissons Ratio (y) = 0.41674 0.02087
# Poissons Ratio (z) = 0.31049 0.01888
#
# Static dielectric constant tensor:
#      x y z
#    x 2.045650 -0.032900 0.010590 
#    y -0.032900 2.036200 0.024130 
#    z 0.010590 0.024130 2.017210 
# 
# From -- ./inp_files/294984.got.cif
#   From: 2010.05.17/outbox.cif.g08.bks.cpg/sg2_148_cif.got.tgz:294984.got - 2010.06.03 11:33:40.
