data_PCOD9019842
_publ_section_title
;
Structure prediction by ZEFSAII (Michael W. Deem and Ramdas Pophale) SiO2 
 PCOD9019842
Probable space group: P -1
;
_chemical_formula_sum "Si O2"
_cell_formula_units_Z 14
_cell_length_a 17.146250
_cell_length_b 5.488176
_cell_length_c 9.376272
_cell_angle_alpha 47.772417
_cell_angle_beta 109.211299
_cell_angle_gamma 120.131549
_cell_volume 565.012596
_symmetry_space_group_name_H-M "P -1"
_symmetry_group_IT_number 2
_symmetry_cell_setting 'triclinic'
loop_
_space_group_symop_operation_xyz
x,y,z
-x,-y,-z
loop_
_atom_site_type_symbol
_atom_site_label
_atom_site_fract_x
_atom_site_fract_y
_atom_site_fract_z
Si Si1 0.184636 0.974328 0.362339
Si Si2 0.367887 0.217368 0.542731
Si Si3 0.105340 0.378628 0.761952
Si Si4 0.067474 0.336752 0.051839
Si Si5 0.264856 0.175479 0.040470
Si Si6 0.402461 0.506217 0.771002
Si Si7 0.433921 0.598726 0.149319
O O1 0.116968 0.611114 0.538109
O O2 0.266702 0.102020 0.471112
O O3 0.146989 0.284662 0.204388
O O4 0.214176 0.909415 0.245557
O O5 0.379108 0.376700 0.644697
O O6 0.425184 0.509650 0.345581
O O7 0.385895 0.857567 0.667902
O O8 0.184660 0.233618 0.885053
O O9 0.112473 0.561451 0.848881
O O10 0.004222 0.079823 0.833579
O O11 0.000000 0.500000 0.000000
O O12 0.335763 0.180902 0.959110
O O13 0.337120 0.486854 0.062221
O O14 0.509455 0.610871 0.803682
O O15 0.500000 0.000000 0.000000
#
# Coordination Sequence:
#
# PCOD9019842 Si02
#       7
#     2   2   2   2   2   2   2
#     4  10  22  46  71 103 147 186 245 291 374 433
#     4  11  26  47  73 111 142 204 244 309 365 443
#     4  10  21  45  70 100 147 183 237 298 360 440
#     4  10  23  43  71 106 141 185 235 297 364 442
#     4  10  23  43  68 105 140 192 243 302 362 430
#     4  12  24  47  75 100 151 193 256 303 366 430
#     4  11  25  45  71 107 151 194 252 311 366 430
#
# _framework density 24.778206999999998
#
# number of rings (size 3 to 8) (size 9 to 14) (size 15 to 20)
#    0.000    1.429    1.429    2.571    0.000    5.143 
#   15.429    0.000    0.000    0.000    0.000    0.000 
#    0.000    0.000    0.000    0.000    0.000    0.000 
#
# Total GULP energy -78118.664348 kJ/mol
# GULP energy per Si atom -5579.904596 kJ/mol
# Density = 2.472181 g / cm^3
# Si number density = 24.778207 Si / 1000 Ang^3
#
#
#
# Elastic Constant Matrix: (Units=GPa)
#
#
# Indices 1 2 3 4 5 6 
#
# 1 97.6229 23.6661 29.3982 7.6559 -7.5993 7.5579
# 2 23.6661 74.8562 46.9076 18.7024 0.3085 -15.1502
# 3 29.3982 46.9076 178.5453 9.5581 -46.4698 -11.5933
# 4 7.6559 18.7024 9.5581 30.0342 0.2852 -3.2764
# 5 -7.5993 0.3085 -46.4698 0.2852 65.7755 7.7570
# 6 7.5579 -15.1502 -11.5933 -3.2764 7.7570 28.1385
#
#
#
# Elastic Compliance Matrix: (Units=1/GPa)
#
#
# Indices 1 2 3 4 5 6 
#
# 1 0.012285 -0.004544 -0.000781 -0.000792 0.001673 -0.006621
# 2 -0.004544 0.023288 -0.005599 -0.010206 -0.005950 0.011904
# 3 -0.000781 -0.005599 0.008716 0.000762 0.006189 -0.000831
# 4 -0.000792 -0.010206 0.000762 0.039555 0.000379 -0.000467
# 5 0.001673 -0.005950 0.006189 0.000379 0.020589 -0.006735
# 6 -0.006621 0.011904 -0.000831 -0.000467 -0.006735 0.045186
#
#
# Mechanical properties :
#
#
# Convention : Reuss Voigt Hill
#
# Bulk Modulus (GPa) = 44.56080 61.21870 52.88975
# Shear Modulus (GPa) = 27.94095 41.52648 34.73372
#
# Velocity S-wave (km/s) = 3.36168 4.09825 3.74810
# Velocity P-wave (km/s) = 5.75246 6.86691 6.33424
#
# Compressibility (1/GPa) = 0.02244125
#
# Stress axis : x y z
#
# Youngs Moduli (GPa) = 81.39874 42.94093 114.72540
#
# Poissons Ratio (x) = 0.19511 0.08962
# Poissons Ratio (y) = 0.36985 0.64238
# Poissons Ratio (z) = 0.06359 0.24044
#
# Static dielectric constant tensor:
#      x y z
#    x 2.151710 0.061410 0.076860 
#    y 0.061410 2.135810 0.022030 
#    z 0.076860 0.022030 2.059330 
# 
# From -- ./inp_files/322131.got.cif
#   From: 2010.05.17/outbox.cif.g08.bks.cpg/sg2_162_cif.got.tgz:322131.got - 2010.06.03 11:33:40.
