data_PCOD9019583
_publ_section_title
;
Structure prediction by ZEFSAII (Michael W. Deem and Ramdas Pophale) SiO2 
 PCOD9019583
Probable space group: P -1
;
_chemical_formula_sum "Si O2"
_cell_formula_units_Z 14
_cell_length_a 16.970830
_cell_length_b 8.547940
_cell_length_c 5.062233
_cell_angle_alpha 58.782060
_cell_angle_beta 91.839087
_cell_angle_gamma 63.750459
_cell_volume 529.558964
_symmetry_space_group_name_H-M "P -1"
_symmetry_group_IT_number 2
_symmetry_cell_setting 'triclinic'
loop_
_space_group_symop_operation_xyz
x,y,z
-x,-y,-z
loop_
_atom_site_type_symbol
_atom_site_label
_atom_site_fract_x
_atom_site_fract_y
_atom_site_fract_z
Si Si1 0.324702 0.896496 0.089449
Si Si2 0.230603 0.837185 0.633893
Si Si3 0.155814 0.552710 0.953634
Si Si4 0.031898 0.757162 0.263807
Si Si5 0.586577 0.900136 0.300183
Si Si6 0.090252 0.276712 0.100244
Si Si7 0.491856 0.696176 0.659827
O O1 0.428055 0.735271 0.362609
O O2 0.261931 0.879736 0.320089
O O3 0.294850 0.835478 0.871889
O O4 0.327250 0.111514 0.832638
O O5 0.126039 0.053574 0.454023
O O6 0.227572 0.623242 0.837694
O O7 0.073643 0.694030 0.611257
O O8 0.116384 0.616289 0.189295
O O9 0.174618 0.317118 0.102551
O O10 0.945500 0.736861 0.181218
O O11 0.000000 0.000000 0.000000
O O12 0.584987 0.694735 0.589110
O O13 0.561432 0.080446 0.366747
O O14 0.500000 0.000000 0.000000
O O15 0.000000 0.500000 0.000000
O O16 0.500000 0.500000 0.000000
#
# Coordination Sequence:
#
# PCOD9019583 Si02
#       7
#     2   2   2   2   2   2   2
#     4  11  24  45  69  99 144 191 218 277 361 403
#     4  12  25  44  65  94 147 181 221 289 352 415
#     4  11  24  42  62  96 126 173 225 284 348 407
#     4  11  21  39  68  92 123 166 226 290 345 395
#     4   9  20  42  71 104 140 180 230 274 337 402
#     4  10  25  43  70  98 126 178 244 287 340 408
#     4  10  21  44  75 109 135 180 237 280 323 411
#
# _framework density 26.437096
#
# number of rings (size 3 to 8) (size 9 to 14) (size 15 to 20)
#    0.000    1.429    2.857    1.714    2.000    4.571 
#    2.571    4.286    0.000    0.000    0.000    0.000 
#    0.000    0.000    0.000    0.000    0.000    0.000 
#
# Total GULP energy -78255.204876 kJ/mol
# GULP energy per Si atom -5589.657491 kJ/mol
# Density = 2.637692 g / cm^3
# Si number density = 26.437096 Si / 1000 Ang^3
#
#
#
# Elastic Constant Matrix: (Units=GPa)
#
#
# Indices 1 2 3 4 5 6 
#
# 1 124.5843 46.7320 56.1055 2.6715 -28.7269 39.8736
# 2 46.7320 58.9525 17.2819 -5.8602 -0.3044 27.5501
# 3 56.1055 17.2819 128.6275 -9.8363 -11.9810 22.6511
# 4 2.6715 -5.8602 -9.8363 42.9482 11.1680 -8.8058
# 5 -28.7269 -0.3044 -11.9810 11.1680 73.9603 -3.9547
# 6 39.8736 27.5501 22.6511 -8.8058 -3.9547 53.7795
#
#
#
# Elastic Compliance Matrix: (Units=1/GPa)
#
#
# Indices 1 2 3 4 5 6 
#
# 1 0.018090 -0.010418 -0.005236 -0.006851 0.006823 -0.006490
# 2 -0.010418 0.028494 0.001914 0.004714 -0.004719 -0.007254
# 3 -0.005236 0.001914 0.010109 0.002939 -0.000882 -0.000940
# 4 -0.006851 0.004714 0.002939 0.027734 -0.006058 0.005522
# 5 0.006823 -0.004719 -0.000882 -0.006058 0.016815 -0.002025
# 6 -0.006490 -0.007254 -0.000940 0.005522 -0.002025 0.028274
#
#
# Mechanical properties :
#
#
# Convention : Reuss Voigt Hill
#
# Bulk Modulus (GPa) = 34.23070 61.37814 47.80442
# Shear Modulus (GPa) = 29.98805 46.94059 38.46432
#
# Velocity S-wave (km/s) = 3.37162 4.21831 3.81850
# Velocity P-wave (km/s) = 5.30407 6.85511 6.12885
#
# Compressibility (1/GPa) = 0.02921354
#
# Stress axis : x y z
#
# Youngs Moduli (GPa) = 55.27995 35.09485 98.91916
#
# Poissons Ratio (x) = 0.36560 0.51797
# Poissons Ratio (y) = 0.57588 -0.18934
# Poissons Ratio (z) = 0.28946 -0.06717
#
# Static dielectric constant tensor:
#      x y z
#    x 2.280850 -0.100620 -0.163260 
#    y -0.100620 2.137250 0.028630 
#    z -0.163260 0.028630 2.175780 
# 
# From -- ./inp_files/104405.got.cif
#   From: 2010.05.17/outbox.cif.g08.bks.cpg/sg2_53_cif.got.tgz:104405.got - 2010.06.03 11:33:40.
