data_PCOD9019092
_publ_section_title
;
Structure prediction by ZEFSAII (Michael W. Deem and Ramdas Pophale) SiO2 
 PCOD9019092
Probable space group: P -1
;
_chemical_formula_sum "Si O2"
_cell_formula_units_Z 16
_cell_length_a 11.121025
_cell_length_b 8.057993
_cell_length_c 26.940644
_cell_angle_alpha 46.362281
_cell_angle_beta 149.171663
_cell_angle_gamma 144.433677
_cell_volume 719.334741
_symmetry_space_group_name_H-M "P -1"
_symmetry_group_IT_number 2
_symmetry_cell_setting 'triclinic'
loop_
_space_group_symop_operation_xyz
x,y,z
-x,-y,-z
loop_
_atom_site_type_symbol
_atom_site_label
_atom_site_fract_x
_atom_site_fract_y
_atom_site_fract_z
Si Si1 0.713040 0.375636 0.634301
Si Si2 0.378341 0.749561 0.902682
Si Si3 0.291070 0.323989 0.039397
Si Si4 0.296532 0.164461 0.264590
Si Si5 0.099704 0.334425 0.600151
Si Si6 0.034209 0.252870 0.062087
Si Si7 0.946982 0.911143 0.555948
Si Si8 0.122400 0.195725 0.306980
O O1 0.939641 0.641811 0.624262
O O2 0.389257 0.205909 0.530770
O O3 0.726074 0.529642 0.658796
O O4 0.766527 0.138211 0.705570
O O5 0.424627 0.631133 0.892797
O O6 0.194146 0.869297 0.801499
O O7 0.241701 0.517716 0.946596
O O8 0.713655 0.980035 0.989307
O O9 0.292060 0.361718 0.090812
O O10 0.000000 0.000000 0.000000
O O11 0.634125 0.424548 0.322178
O O12 0.248215 0.214594 0.293739
O O13 0.106600 0.196521 0.152608
O O14 0.000000 0.500000 0.500000
O O15 0.161334 0.179600 0.611428
O O16 0.891120 0.058383 0.617795
O O17 0.000000 0.500000 0.000000
O O18 0.000000 0.000000 0.500000
#
# Coordination Sequence:
#
# PCOD9019092 Si02
#       8
#     2   2   2   2   2   2   2   2
#     4  10  24  42  64 101 129 168 229 271 332 397
#     4  10  22  44  67  95 134 178 216 267 338 388
#     4   9  21  40  67  92 128 172 218 270 320 390
#     4  12  26  43  70  99 136 177 223 279 332 392
#     4  11  24  45  65  99 132 174 223 272 339 399
#     4  11  24  43  65 100 134 172 224 274 331 394
#     4  10  21  44  68  91 129 174 218 279 335 393
#     4  11  26  44  67  99 140 173 223 277 331 398
#
# _framework density 22.242773
#
# number of rings (size 3 to 8) (size 9 to 14) (size 15 to 20)
#    0.000    1.500    1.250    2.250    7.000    4.500 
#    4.500    0.000    0.000    0.000    0.000    0.000 
#    0.000    0.000    0.000    0.000    0.000    0.000 
#
# Total GULP energy -89263.324235 kJ/mol
# GULP energy per Si atom -5578.957765 kJ/mol
# Density = 2.219215 g / cm^3
# Si number density = 22.242773 Si / 1000 Ang^3
#
#
#
# Elastic Constant Matrix: (Units=GPa)
#
#
# Indices 1 2 3 4 5 6 
#
# 1 82.9174 48.3110 4.4678 -14.2068 -29.7555 1.0138
# 2 48.3110 143.5730 52.4032 -25.3858 -10.7903 -16.4637
# 3 4.4678 52.4032 92.6737 -12.2908 -10.3618 -6.8281
# 4 -14.2068 -25.3858 -12.2908 41.9537 -0.4556 -2.1071
# 5 -29.7555 -10.7903 -10.3618 -0.4556 33.4935 -4.2468
# 6 1.0138 -16.4637 -6.8281 -2.1071 -4.2468 27.5723
#
#
#
# Elastic Compliance Matrix: (Units=1/GPa)
#
#
# Indices 1 2 3 4 5 6 
#
# 1 0.025497 -0.008417 0.006719 0.005725 0.022037 -0.000468
# 2 -0.008417 0.013201 -0.006649 0.003449 -0.004459 0.006122
# 3 0.006719 -0.006649 0.015714 0.003016 0.008891 0.001274
# 4 0.005725 0.003449 0.003016 0.029142 0.008301 0.006101
# 5 0.022037 -0.004459 0.008891 0.008301 0.051792 0.007341
# 6 -0.000468 0.006122 0.001274 0.006101 0.007341 0.041854
#
#
# Mechanical properties :
#
#
# Convention : Reuss Voigt Hill
#
# Bulk Modulus (GPa) = 26.51193 58.83646 42.67419
# Shear Modulus (GPa) = 24.21695 34.86935 29.54315
#
# Velocity S-wave (km/s) = 3.30321 3.96368 3.64842
# Velocity P-wave (km/s) = 5.14718 6.88891 6.08073
#
# Compressibility (1/GPa) = 0.03771887
#
# Stress axis : x y z
#
# Youngs Moduli (GPa) = 39.21988 75.75242 63.63595
#
# Poissons Ratio (x) = 0.63762 -0.42758
# Poissons Ratio (y) = 0.33012 0.42311
# Poissons Ratio (z) = -0.26353 0.50367
#
# Static dielectric constant tensor:
#      x y z
#    x 1.917740 0.020860 0.000210 
#    y 0.020860 1.913910 0.023640 
#    z 0.000210 0.023640 1.805980 
# 
# From -- ./inp_files/111583.got.cif
#   From: 2010.05.17/outbox.cif.g08.bks.cpg/sg2_56_cif.got.tgz:111583.got - 2010.06.03 11:33:40.
