data_PCOD9019981
_publ_section_title
;
Structure prediction by ZEFSAII (Michael W. Deem and Ramdas Pophale) SiO2 
 PCOD9019981
Probable space group: P -1
;
_chemical_formula_sum "Si O2"
_cell_formula_units_Z 12
_cell_length_a 5.118404
_cell_length_b 25.128260
_cell_length_c 8.558664
_cell_angle_alpha 25.708631
_cell_angle_beta 91.323671
_cell_angle_gamma 103.558350
_cell_volume 415.454907
_symmetry_space_group_name_H-M "P -1"
_symmetry_group_IT_number 2
_symmetry_cell_setting 'triclinic'
loop_
_space_group_symop_operation_xyz
x,y,z
-x,-y,-z
loop_
_atom_site_type_symbol
_atom_site_label
_atom_site_fract_x
_atom_site_fract_y
_atom_site_fract_z
Si Si1 0.664728 0.415523 0.784589
Si Si2 0.122427 0.418115 0.369994
Si Si3 0.222456 0.187630 0.169620
Si Si4 0.930627 0.747006 0.458067
Si Si5 0.831415 0.081167 0.720795
Si Si6 0.517453 0.186249 0.899803
O O1 0.500000 0.500000 0.500000
O O2 0.000000 0.500000 0.500000
O O3 0.707418 0.438008 0.913030
O O4 0.474491 0.261764 0.112629
O O5 0.179262 0.403769 0.225962
O O6 0.760836 0.337338 0.581858
O O7 0.194578 0.307152 0.754477
O O8 0.322710 0.108975 0.253872
O O9 0.909174 0.103113 0.481290
O O10 0.002660 0.767814 0.585995
O O11 0.500000 0.000000 0.000000
O O12 0.249111 0.841332 0.122069
O O13 0.701678 0.797866 0.266056
O O14 0.000000 0.000000 0.000000
#
# Coordination Sequence:
#
# PCOD9019981 Si02
#       6
#     2   2   2   2   2   2
#     4  10  17  30  57  94 117 145 180 237 290 342
#     4   8  18  34  63  87 119 142 187 230 299 336
#     4  10  21  38  62  90 118 151 200 240 277 349
#     4   9  19  39  58  82 117 152 186 242 292 341
#     4  12  28  43  60  81 118 160 200 243 295 334
#     4   9  17  35  62  83 116 149 184 235 289 337
#
# _framework density 28.883998999999999
#
# number of rings (size 3 to 8) (size 9 to 14) (size 15 to 20)
#    1.000    1.333    1.667    1.000    2.333    0.000 
#    0.000   12.500    0.000    1.000    0.000    0.000 
#    0.000    0.000    0.000    0.000    0.000    0.000 
#
# Total GULP energy -67168.781793 kJ/mol
# GULP energy per Si atom -5597.398483 kJ/mol
# Density = 2.881826 g / cm^3
# Si number density = 28.883999 Si / 1000 Ang^3
#
#
#
# Elastic Constant Matrix: (Units=GPa)
#
#
# Indices 1 2 3 4 5 6 
#
# 1 194.7633 25.0595 28.1069 18.4924 -39.6597 0.4203
# 2 25.0595 165.6376 35.4115 -22.4870 -4.2384 -17.1458
# 3 28.1069 35.4115 77.4715 5.8227 -13.3907 -1.9398
# 4 18.4924 -22.4870 5.8227 51.4071 10.5697 -10.7017
# 5 -39.6597 -4.2384 -13.3907 10.5697 39.6825 -2.3234
# 6 0.4203 -17.1458 -1.9398 -10.7017 -2.3234 39.8278
#
#
#
# Elastic Compliance Matrix: (Units=1/GPa)
#
#
# Indices 1 2 3 4 5 6 
#
# 1 0.007797 -0.001970 0.000035 -0.005950 0.009062 -0.001999
# 2 -0.001970 0.008615 -0.004307 0.006861 -0.004029 0.005128
# 3 0.000035 -0.004307 0.016336 -0.005520 0.006431 -0.002167
# 4 -0.005950 0.006861 -0.005520 0.030303 -0.014560 0.010041
# 5 0.009062 -0.004029 0.006431 -0.014560 0.039692 -0.003114
# 6 -0.001999 0.005128 -0.002167 0.010041 -0.003114 0.029748
#
#
# Mechanical properties :
#
#
# Convention : Reuss Voigt Hill
#
# Bulk Modulus (GPa) = 49.34595 68.33645 58.84120
# Shear Modulus (GPa) = 32.95300 49.46978 41.21139
#
# Velocity S-wave (km/s) = 3.38135 4.14297 3.78138
# Velocity P-wave (km/s) = 5.68911 6.82612 6.28339
#
# Compressibility (1/GPa) = 0.02026509
#
# Stress axis : x y z
#
# Youngs Moduli (GPa) = 128.24755 116.07226 61.21386
#
# Poissons Ratio (x) = 0.22865 -0.00214
# Poissons Ratio (y) = 0.25264 0.26365
# Poissons Ratio (z) = -0.00449 0.49992
#
# Static dielectric constant tensor:
#      x y z
#    x 2.298050 -0.072270 -0.041420 
#    y -0.072270 2.321100 -0.098760 
#    z -0.041420 -0.098760 2.356590 
# 
# From -- ./inp_files/62716.got.cif
#   From: 2010.05.17/outbox.cif.g08.bks.cpg/sg2_32_cif.got.tgz:62716.got - 2010.06.03 11:33:40.
