data_PCOD9019285
_publ_section_title
;
Structure prediction by ZEFSAII (Michael W. Deem and Ramdas Pophale) SiO2 
 PCOD9019285
Probable space group: P -1
;
_chemical_formula_sum "Si O2"
_cell_formula_units_Z 16
_cell_length_a 8.325945
_cell_length_b 10.837032
_cell_length_c 13.190897
_cell_angle_alpha 60.599820
_cell_angle_beta 55.961821
_cell_angle_gamma 42.144671
_cell_volume 655.602461
_symmetry_space_group_name_H-M "P -1"
_symmetry_group_IT_number 2
_symmetry_cell_setting 'triclinic'
loop_
_space_group_symop_operation_xyz
x,y,z
-x,-y,-z
loop_
_atom_site_type_symbol
_atom_site_label
_atom_site_fract_x
_atom_site_fract_y
_atom_site_fract_z
Si Si1 0.747914 0.916497 0.298836
Si Si2 0.201808 0.884301 0.110874
Si Si3 0.878049 0.774863 0.923494
Si Si4 0.700839 0.674370 0.520661
Si Si5 0.534402 0.497792 0.237276
Si Si6 0.992822 0.407083 0.828915
Si Si7 0.400908 0.402891 0.619990
Si Si8 0.457649 0.216738 0.133560
O O1 0.714811 0.838783 0.442386
O O2 0.939279 0.957123 0.224337
O O3 0.894482 0.754917 0.226241
O O4 0.493781 0.096882 0.264738
O O5 0.387709 0.661108 0.142409
O O6 0.246568 0.013157 0.098793
O O7 0.263317 0.893537 0.967952
O O8 0.712183 0.769753 0.901883
O O9 0.167824 0.652095 0.831566
O O10 0.904562 0.683012 0.059851
O O11 0.569097 0.611922 0.658764
O O12 0.564363 0.715269 0.441510
O O13 0.000000 0.500000 0.500000
O O14 0.481544 0.632247 0.296467
O O15 0.693275 0.571470 0.868265
O O16 0.111539 0.501073 0.711740
O O17 0.500000 0.500000 0.500000
#
# Coordination Sequence:
#
# PCOD9019285 Si02
#       8
#     2   2   2   2   2   2   2   2
#     4  11  26  44  64  98 136 174 223 268 332 396
#     4  12  25  41  66  97 140 174 213 276 329 395
#     4  12  25  40  67 104 134 171 219 272 332 394
#     4  10  21  44  70  93 127 180 221 268 327 388
#     4  11  22  44  68  99 129 174 223 267 330 389
#     4  11  22  41  69  97 133 174 218 268 334 388
#     4   9  20  38  67  94 123 166 223 265 315 385
#     4  12  24  40  68  99 135 168 220 274 328 393
#
# _framework density 24.405031999999999
#
# number of rings (size 3 to 8) (size 9 to 14) (size 15 to 20)
#    0.000    1.000    5.000    1.875    3.500    1.500 
#    0.000    5.000    0.000    0.000    0.000    0.000 
#    0.000    0.000    0.000    0.000    0.000    0.000 
#
# Total GULP energy -89082.845990 kJ/mol
# GULP energy per Si atom -5567.677874 kJ/mol
# Density = 2.434949 g / cm^3
# Si number density = 24.405032 Si / 1000 Ang^3
#
#
#
# Elastic Constant Matrix: (Units=GPa)
#
#
# Indices 1 2 3 4 5 6 
#
# 1 62.0395 31.7791 29.0060 -1.0400 -17.2313 -3.7651
# 2 31.7791 126.4621 42.3013 -13.1074 -0.0517 -8.0243
# 3 29.0060 42.3013 140.1846 -16.1763 -20.4771 -6.4017
# 4 -1.0400 -13.1074 -16.1763 30.0288 -8.5588 -0.1581
# 5 -17.2313 -0.0517 -20.4771 -8.5588 35.7230 4.6766
# 6 -3.7651 -8.0243 -6.4017 -0.1581 4.6766 29.6067
#
#
#
# Elastic Compliance Matrix: (Units=1/GPa)
#
#
# Indices 1 2 3 4 5 6 
#
# 1 0.022177 -0.005012 -0.001571 0.000578 0.009987 -0.000452
# 2 -0.005012 0.010270 -0.002217 0.002143 -0.003451 0.002223
# 3 -0.001571 -0.002217 0.009744 0.006000 0.006215 0.000356
# 4 0.000578 0.002143 0.006000 0.041374 0.013631 0.000019
# 5 0.009987 -0.003451 0.006215 0.013631 0.040237 -0.004604
# 6 -0.000452 0.002223 0.000356 0.000019 -0.004604 0.035126
#
#
# Mechanical properties :
#
#
# Convention : Reuss Voigt Hill
#
# Bulk Modulus (GPa) = 40.66727 59.42877 50.04802
# Shear Modulus (GPa) = 27.06697 34.11167 30.58932
#
# Velocity S-wave (km/s) = 3.33389 3.74268 3.54418
# Velocity P-wave (km/s) = 5.61421 6.56359 6.10738
#
# Compressibility (1/GPa) = 0.02458980
#
# Stress axis : x y z
#
# Youngs Moduli (GPa) = 45.09197 97.36627 102.62431
#
# Poissons Ratio (x) = 0.48800 0.16127
# Poissons Ratio (y) = 0.22600 0.22757
# Poissons Ratio (z) = 0.07086 0.21591
#
# Static dielectric constant tensor:
#      x y z
#    x 2.113440 0.050450 -0.020810 
#    y 0.050450 1.833030 0.135320 
#    z -0.020810 0.135320 1.842470 
# 
# From -- ./inp_files/271954.got.cif
#   From: 2010.05.17/outbox.cif.g08.bks.cpg/sg2_136_cif.got.tgz:271954.got - 2010.06.03 11:33:40.
