data_PCOD9019305
_publ_section_title
;
Structure prediction by ZEFSAII (Michael W. Deem and Ramdas Pophale) SiO2 
 PCOD9019305
Probable space group: P -1
;
_chemical_formula_sum "Si O2"
_cell_formula_units_Z 16
_cell_length_a 5.319735
_cell_length_b 25.497620
_cell_length_c 24.015063
_cell_angle_alpha 167.970050
_cell_angle_beta 64.313503
_cell_angle_gamma 115.351565
_cell_volume 611.672884
_symmetry_space_group_name_H-M "P -1"
_symmetry_group_IT_number 2
_symmetry_cell_setting 'triclinic'
loop_
_space_group_symop_operation_xyz
x,y,z
-x,-y,-z
loop_
_atom_site_type_symbol
_atom_site_label
_atom_site_fract_x
_atom_site_fract_y
_atom_site_fract_z
Si Si1 0.915683 0.664553 0.438822
Si Si2 0.511996 0.251184 0.574280
Si Si3 0.835930 0.988203 0.445715
Si Si4 0.448718 0.063975 0.901528
Si Si5 0.926717 0.212773 0.271862
Si Si6 0.348326 0.719131 0.000806
Si Si7 0.718772 0.450318 0.877998
Si Si8 0.640967 0.501379 0.406955
O O1 0.854291 0.579492 0.418315
O O2 0.192882 0.811204 0.548016
O O3 0.658383 0.844448 0.636522
O O4 0.918591 0.407691 0.135727
O O5 0.570516 0.330223 0.714159
O O6 0.342970 0.990317 0.310933
O O7 0.424612 0.502358 0.811507
O O8 0.914687 0.237840 0.663034
O O9 0.500000 0.000000 0.500000
O O10 0.000000 0.000000 0.500000
O O11 0.870062 0.718972 0.133713
O O12 0.447573 0.249798 0.041480
O O13 0.164972 0.940021 0.822143
O O14 0.572073 0.212014 0.097667
O O15 0.650945 0.358565 0.429989
O O16 0.188864 0.403123 0.456259
O O17 0.000000 0.000000 0.000000
O O18 0.500000 0.500000 0.000000
#
# Coordination Sequence:
#
# PCOD9019305 Si02
#       8
#     2   2   2   2   2   2   2   2
#     4  10  24  43  66 103 133 182 242 297 365 432
#     4  12  25  43  73  99 145 179 242 300 369 434
#     4  10  21  44  70  96 134 182 233 278 341 424
#     4  10  23  44  68 104 141 188 240 301 368 425
#     4  11  24  44  67 106 147 193 244 294 358 433
#     4  11  24  44  67 103 135 183 234 303 360 432
#     4  10  23  46  65 103 138 187 234 295 364 437
#     4  10  24  40  71  97 142 190 240 298 360 424
#
# _framework density 26.157774
#
# number of rings (size 3 to 8) (size 9 to 14) (size 15 to 20)
#    0.000    1.500    1.250    2.250    7.000    3.000 
#   13.500    0.000    0.000    0.000    0.000    0.000 
#    0.000    0.000    0.000    0.000    0.000    0.000 
#
# Total GULP energy -89573.260157 kJ/mol
# GULP energy per Si atom -5598.328760 kJ/mol
# Density = 2.609824 g / cm^3
# Si number density = 26.157774 Si / 1000 Ang^3
#
#
#
# Elastic Constant Matrix: (Units=GPa)
#
#
# Indices 1 2 3 4 5 6 
#
# 1 106.9695 20.5934 64.5076 -3.9958 25.5801 3.2840
# 2 20.5934 64.9707 44.5994 11.6169 -9.6111 -6.8715
# 3 64.5076 44.5994 224.2232 10.6099 26.4948 -2.2705
# 4 -3.9958 11.6169 10.6099 54.0418 1.3437 -2.8627
# 5 25.5801 -9.6111 26.4948 1.3437 54.0647 0.7010
# 6 3.2840 -6.8715 -2.2705 -2.8627 0.7010 40.0406
#
#
#
# Elastic Compliance Matrix: (Units=1/GPa)
#
#
# Indices 1 2 3 4 5 6 
#
# 1 0.013076 -0.003910 -0.002435 0.002342 -0.005726 -0.001614
# 2 -0.003910 0.021472 -0.003812 -0.004167 0.007595 0.003358
# 3 -0.002435 -0.003812 0.006247 -0.000528 -0.002573 -0.000093
# 4 0.002342 -0.004167 -0.000528 0.019756 -0.002088 0.000512
# 5 -0.005726 0.007595 -0.002573 -0.002088 0.023855 0.001060
# 6 -0.001614 0.003358 -0.000093 0.000512 0.001060 0.025696
#
#
# Mechanical properties :
#
#
# Convention : Reuss Voigt Hill
#
# Bulk Modulus (GPa) = 48.82701 72.84047 60.83374
# Shear Modulus (GPa) = 36.43240 47.39362 41.91301
#
# Velocity S-wave (km/s) = 3.73606 4.26119 4.00724
# Velocity P-wave (km/s) = 6.10883 7.21923 6.68712
#
# Compressibility (1/GPa) = 0.02048047
#
# Stress axis : x y z
#
# Youngs Moduli (GPa) = 76.47809 46.57313 160.08664
#
# Poissons Ratio (x) = 0.18208 0.38977
# Poissons Ratio (y) = 0.29900 0.61030
# Poissons Ratio (z) = 0.18620 0.17755
#
# Static dielectric constant tensor:
#      x y z
#    x 2.025680 -0.098110 0.013340 
#    y -0.098110 1.994780 0.022760 
#    z 0.013340 0.022760 2.039750 
# 
# From -- ./inp_files/616094.got.cif
#   From: 2010.05.17/outbox.cif.g08.bks.cpg/sg2_309_cif.got.tgz:616094.got - 2010.06.03 11:33:40.
