data_PCOD9019257
_publ_section_title
;
Structure prediction by ZEFSAII (Michael W. Deem and Ramdas Pophale) SiO2 
 PCOD9019257
Probable space group: P -1
;
_chemical_formula_sum "Si O2"
_cell_formula_units_Z 15
_cell_length_a 8.926856
_cell_length_b 19.508219
_cell_length_c 7.834827
_cell_angle_alpha 56.775381
_cell_angle_beta 142.598641
_cell_angle_gamma 137.756599
_cell_volume 554.442188
_symmetry_space_group_name_H-M "P -1"
_symmetry_group_IT_number 2
_symmetry_cell_setting 'triclinic'
loop_
_space_group_symop_operation_xyz
x,y,z
-x,-y,-z
loop_
_atom_site_type_symbol
_atom_site_label
_atom_site_fract_x
_atom_site_fract_y
_atom_site_fract_z
Si Si1 0.573179 0.630196 0.762030
Si Si2 0.750088 0.839232 0.572588
Si Si3 0.309031 0.857811 0.621161
Si Si4 0.051182 0.680433 0.845143
Si Si5 0.116384 0.114775 0.005412
Si Si6 0.000000 0.500000 0.000000
Si Si7 0.663844 0.004475 0.307812
Si Si8 0.381983 0.426963 0.737124
O O1 0.530857 0.716567 0.555288
O O2 0.875468 0.667762 0.875759
O O3 0.333163 0.513906 0.628762
O O4 0.615825 0.621179 0.015088
O O5 0.971126 0.900835 0.525668
O O6 0.602905 0.896781 0.400403
O O7 0.953824 0.872356 0.883508
O O8 0.450815 0.971629 0.662344
O O9 0.259159 0.799947 0.832621
O O10 0.007436 0.834467 0.288369
O O11 0.517537 0.832198 0.750525
O O12 0.849087 0.636030 0.543327
O O13 0.209149 0.623965 0.058724
O O14 0.000000 0.000000 0.000000
O O15 0.281605 0.515538 0.121374
O O16 0.500000 0.000000 0.000000
#
# Coordination Sequence:
#
# PCOD9019257 Si02
#       8
#     2   2   2   2   2   1   2   2
#     4  10  21  44  70 102 138 190 240 302 369 446
#     4  11  24  43  69 102 144 190 245 302 365 445
#     4  12  27  46  76 107 143 198 244 304 370 444
#     4  11  24  46  70 100 145 188 243 301 373 437
#     4  12  26  47  75 105 149 193 251 303 369 434
#     4  10  22  42  70 100 136 190 230 304 362 434
#     4  11  25  45  66 101 147 189 239 303 364 438
#     4  10  23  46  71  99 149 179 243 306 369 441
#
# _framework density 27.054220000000001
#
# number of rings (size 3 to 8) (size 9 to 14) (size 15 to 20)
#    0.000    1.067    2.667    3.600    7.467    0.000 
#    2.400   10.667    0.000    0.000    0.000    0.000 
#    0.000    0.000    0.000    0.000    0.000    0.000 
#
# Total GULP energy -83539.433387 kJ/mol
# GULP energy per Si atom -5569.295559 kJ/mol
# Density = 2.699264 g / cm^3
# Si number density = 27.054220 Si / 1000 Ang^3
#
#
#
# Elastic Constant Matrix: (Units=GPa)
#
#
# Indices 1 2 3 4 5 6 
#
# 1 130.8466 21.6769 28.4658 -2.2585 -15.8846 3.2536
# 2 21.6769 118.8301 36.8540 -37.4585 -3.0025 -19.6022
# 3 28.4658 36.8540 93.6273 -13.6692 -7.7959 -1.6042
# 4 -2.2585 -37.4585 -13.6692 49.7813 -8.5692 -2.8541
# 5 -15.8846 -3.0025 -7.7959 -8.5692 38.0057 -4.2198
# 6 3.2536 -19.6022 -1.6042 -2.8541 -4.2198 37.2064
#
#
#
# Elastic Compliance Matrix: (Units=1/GPa)
#
#
# Indices 1 2 3 4 5 6 
#
# 1 0.008658 -0.001340 -0.002006 -0.000760 0.002786 -0.001292
# 2 -0.001340 0.014842 -0.003339 0.011309 0.003483 0.009055
# 3 -0.002006 -0.003339 0.012911 0.001198 0.001734 -0.000738
# 4 -0.000760 0.011309 0.001198 0.030958 0.008851 0.009455
# 5 0.002786 0.003483 0.001734 0.008851 0.030751 0.005833
# 6 -0.001292 0.009055 -0.000738 0.009455 0.005833 0.033116
#
#
# Mechanical properties :
#
#
# Convention : Reuss Voigt Hill
#
# Bulk Modulus (GPa) = 43.39759 57.47750 50.43755
# Shear Modulus (GPa) = 32.83300 42.08582 37.45941
#
# Velocity S-wave (km/s) = 3.48746 3.94840 3.72506
# Velocity P-wave (km/s) = 5.68263 6.48675 6.09796
#
# Compressibility (1/GPa) = 0.02304275
#
# Stress axis : x y z
#
# Youngs Moduli (GPa) = 115.49759 67.37685 77.45043
#
# Poissons Ratio (x) = 0.09026 0.15538
# Poissons Ratio (y) = 0.15472 0.25857
# Poissons Ratio (z) = 0.23171 0.22494
#
# Static dielectric constant tensor:
#      x y z
#    x 2.191760 0.159010 -0.090040 
#    y 0.159010 2.592000 -0.051230 
#    z -0.090040 -0.051230 2.303770 
# 
# From -- ./inp_files/222023.got.cif
#   From: 2010.05.17/outbox.cif.g08.bks.cpg/sg2_112_cif.got.tgz:222023.got - 2010.06.03 11:33:40.
