data_PCOD9019834
_publ_section_title
;
Structure prediction by ZEFSAII (Michael W. Deem and Ramdas Pophale) SiO2 
 PCOD9019834
Probable space group: P -1
;
_chemical_formula_sum "Si O2"
_cell_formula_units_Z 16
_cell_length_a 7.485604
_cell_length_b 13.868246
_cell_length_c 7.189301
_cell_angle_alpha 105.031010
_cell_angle_beta 64.036675
_cell_angle_gamma 87.421334
_cell_volume 637.162175
_symmetry_space_group_name_H-M "P -1"
_symmetry_group_IT_number 2
_symmetry_cell_setting 'triclinic'
loop_
_space_group_symop_operation_xyz
x,y,z
-x,-y,-z
loop_
_atom_site_type_symbol
_atom_site_label
_atom_site_fract_x
_atom_site_fract_y
_atom_site_fract_z
Si Si1 0.109427 0.219156 0.179834
Si Si2 0.537993 0.683836 0.094521
Si Si3 0.004714 0.394951 0.540945
Si Si4 0.075305 0.159853 0.782115
Si Si5 0.791885 0.381432 0.990062
Si Si6 0.346946 0.437369 0.637898
Si Si7 0.320490 0.890260 0.152003
Si Si8 0.608627 0.892939 0.693927
O O1 0.947809 0.305101 0.395347
O O2 0.216109 0.153680 0.266124
O O3 0.250986 0.290776 0.057093
O O4 0.083583 0.143057 0.990142
O O5 0.439595 0.630115 0.942439
O O6 0.564489 0.626415 0.251221
O O7 0.394988 0.795037 0.206134
O O8 0.225728 0.370558 0.529404
O O9 0.000000 0.500000 0.500000
O O10 0.840275 0.417207 0.784564
O O11 0.944296 0.275137 0.891932
O O12 0.921284 0.093400 0.735035
O O13 0.289851 0.145383 0.570515
O O14 0.816248 0.466843 0.166522
O O15 0.500000 0.500000 0.500000
O O16 0.407492 0.986046 0.234333
O O17 0.413357 0.868371 0.886455
#
# Coordination Sequence:
#
# PCOD9019834 Si02
#       8
#     2   2   2   2   2   2   2   2
#     4  11  23  41  65  94 133 174 220 272 330 398
#     4  10  22  41  63  92 132 172 217 277 328 396
#     4  12  23  39  62  91 130 172 219 277 328 396
#     4  11  22  42  68  99 138 173 223 276 338 395
#     4  11  22  41  61  96 128 170 223 270 335 406
#     4  12  24  40  66  94 133 174 222 276 335 399
#     4   9  22  43  71  98 136 171 228 277 331 407
#     4  10  21  45  69  98 138 175 221 280 339 390
#
# _framework density 25.111346000000001
#
# number of rings (size 3 to 8) (size 9 to 14) (size 15 to 20)
#    0.000    1.250    1.250    4.875    0.000    0.500 
#    2.250    5.625    0.000    0.000    0.000    0.000 
#    0.000    0.000    0.000    0.000    0.000    0.000 
#
# Total GULP energy -89310.017622 kJ/mol
# GULP energy per Si atom -5581.876101 kJ/mol
# Density = 2.505419 g / cm^3
# Si number density = 25.111346 Si / 1000 Ang^3
#
#
#
# Elastic Constant Matrix: (Units=GPa)
#
#
# Indices 1 2 3 4 5 6 
#
# 1 65.9701 -4.1284 13.3563 2.0046 4.0520 10.1293
# 2 -4.1284 83.4631 13.9357 -3.7960 12.8528 -1.3275
# 3 13.3563 13.9357 110.8680 10.9746 0.4443 -2.2067
# 4 2.0046 -3.7960 10.9746 30.1766 -0.6728 -5.0732
# 5 4.0520 12.8528 0.4443 -0.6728 39.5890 -9.0164
# 6 10.1293 -1.3275 -2.2067 -5.0732 -9.0164 18.5348
#
#
#
# Elastic Compliance Matrix: (Units=1/GPa)
#
#
# Indices 1 2 3 4 5 6 
#
# 1 0.018259 0.001837 -0.002430 -0.002496 -0.005561 -0.013525
# 2 0.001837 0.013228 -0.002088 0.001821 -0.004930 -0.002205
# 3 -0.002430 -0.002088 0.009942 -0.003346 0.001223 0.002041
# 4 -0.002496 0.001821 -0.003346 0.036973 0.003244 0.012794
# 5 -0.005561 -0.004930 0.001223 0.003244 0.031846 0.019211
# 6 -0.013525 -0.002205 0.002041 0.012794 0.019211 0.074277
#
#
# Mechanical properties :
#
#
# Convention : Reuss Voigt Hill
#
# Bulk Modulus (GPa) = 27.72768 34.06983 30.89875
# Shear Modulus (GPa) = 24.76336 33.46924 29.11630
#
# Velocity S-wave (km/s) = 3.14370 3.65476 3.40882
# Velocity P-wave (km/s) = 4.92371 5.60416 5.27492
#
# Compressibility (1/GPa) = 0.03606505
#
# Stress axis : x y z
#
# Youngs Moduli (GPa) = 54.76630 75.59811 100.58324
#
# Poissons Ratio (x) = -0.13885 0.24446
# Poissons Ratio (y) = -0.10059 0.21005
# Poissons Ratio (z) = 0.13311 0.15787
#
# Static dielectric constant tensor:
#      x y z
#    x 2.137760 0.145170 -0.015160 
#    y 0.145170 2.340450 -0.058460 
#    z -0.015160 -0.058460 2.142540 
# 
# From -- ./inp_files/39169.got.cif
#   From: 2010.05.17/outbox.cif.g08.bks.cpg/sg2_20_cif.got.tgz:39169.got - 2010.06.03 11:33:40.
