data_PCOD9019378
_publ_section_title
;
Structure prediction by ZEFSAII (Michael W. Deem and Ramdas Pophale) SiO2 
 PCOD9019378
Probable space group: P -1
;
_chemical_formula_sum "Si O2"
_cell_formula_units_Z 14
_cell_length_a 10.002613
_cell_length_b 5.068717
_cell_length_c 14.254844
_cell_angle_alpha 98.461167
_cell_angle_beta 78.045454
_cell_angle_gamma 117.594679
_cell_volume 625.529443
_symmetry_space_group_name_H-M "P -1"
_symmetry_group_IT_number 2
_symmetry_cell_setting 'triclinic'
loop_
_space_group_symop_operation_xyz
x,y,z
-x,-y,-z
loop_
_atom_site_type_symbol
_atom_site_label
_atom_site_fract_x
_atom_site_fract_y
_atom_site_fract_z
Si Si1 0.132948 0.769414 0.634386
Si Si2 0.368098 0.624730 0.103284
Si Si3 0.432163 0.704067 0.428262
Si Si4 0.826819 0.925371 0.540332
Si Si5 0.209339 0.698251 0.301740
Si Si6 0.572634 0.315773 0.108944
Si Si7 0.705986 0.578108 0.302797
O O1 0.230114 0.632239 0.667977
O O2 0.953855 0.548610 0.651273
O O3 0.188776 0.854227 0.523135
O O4 0.163657 0.083289 0.692138
O O5 0.238226 0.628327 0.189364
O O6 0.431394 0.397488 0.118422
O O7 0.505960 0.959936 0.108124
O O8 0.331989 0.576600 0.995707
O O9 0.702907 0.592328 0.523036
O O10 0.356975 0.745815 0.344781
O O11 0.561649 0.603725 0.372801
O O12 0.500000 0.000000 0.500000
O O13 0.802754 0.000981 0.653963
O O14 0.000000 0.000000 0.500000
O O15 0.659625 0.468080 0.198196
#
# Coordination Sequence:
#
# PCOD9019378 Si02
#       7
#     2   2   2   2   2   2   2
#     4  12  29  45  73 102 151 198 235 289 374 428
#     4  10  22  41  77 105 138 180 243 293 364 425
#     4  12  29  46  75 107 143 188 252 303 348 425
#     4  12  27  49  74 102 150 197 243 297 358 434
#     4  12  26  47  72 108 140 199 242 296 355 447
#     4  10  21  44  71 109 139 181 230 310 361 419
#     4  12  27  47  69 109 147 184 240 308 359 419
#
# _framework density 22.381039000000001
#
# number of rings (size 3 to 8) (size 9 to 14) (size 15 to 20)
#    0.000    0.571    2.857    3.857    8.000    1.714 
#    0.000    1.429    0.000    0.000    0.000    0.000 
#    0.000    0.000    0.000    0.000    0.000    0.000 
#
# Total GULP energy -78341.696151 kJ/mol
# GULP energy per Si atom -5595.835439 kJ/mol
# Density = 2.233010 g / cm^3
# Si number density = 22.381039 Si / 1000 Ang^3
#
#
#
# Elastic Constant Matrix: (Units=GPa)
#
#
# Indices 1 2 3 4 5 6 
#
# 1 120.9622 38.1474 46.9997 -0.6947 5.6069 -4.5851
# 2 38.1474 116.3523 40.6527 11.8358 4.8872 2.4613
# 3 46.9997 40.6527 169.7828 21.1337 -6.4355 -0.1679
# 4 -0.6947 11.8358 21.1337 28.1979 2.8159 0.0600
# 5 5.6069 4.8872 -6.4355 2.8159 34.7162 -0.4914
# 6 -4.5851 2.4613 -0.1679 0.0600 -0.4914 45.2059
#
#
#
# Elastic Compliance Matrix: (Units=1/GPa)
#
#
# Indices 1 2 3 4 5 6 
#
# 1 0.010362 -0.002749 -0.002745 0.003671 -0.002077 0.001163
# 2 -0.002749 0.010364 -0.001348 -0.003305 -0.001009 -0.000855
# 3 -0.002745 -0.001348 0.007761 -0.005570 0.002522 -0.000141
# 4 0.003671 -0.003305 -0.005570 0.041567 -0.004526 0.000427
# 5 -0.002077 -0.001009 0.002522 -0.004526 0.030120 0.000187
# 6 0.001163 -0.000855 -0.000141 0.000427 0.000187 0.022286
#
#
# Mechanical properties :
#
#
# Convention : Reuss Voigt Hill
#
# Bulk Modulus (GPa) = 67.55478 73.18856 70.37167
# Shear Modulus (GPa) = 35.44142 40.37717 37.90930
#
# Velocity S-wave (km/s) = 3.98370 4.25205 4.12006
# Velocity P-wave (km/s) = 7.17002 7.54180 7.35826
#
# Compressibility (1/GPa) = 0.01480280
#
# Stress axis : x y z
#
# Youngs Moduli (GPa) = 96.50748 96.49173 128.84511
#
# Poissons Ratio (x) = 0.26527 0.35364
# Poissons Ratio (y) = 0.26531 0.17370
# Poissons Ratio (z) = 0.26488 0.13009
#
# Static dielectric constant tensor:
#      x y z
#    x 1.885490 -0.051930 -0.014060 
#    y -0.051930 1.860620 -0.010520 
#    z -0.014060 -0.010520 1.853170 
# 
# From -- ./inp_files/488550.got.cif
#   From: 2010.05.17/outbox.cif.g08.bks.cpg/sg2_245_cif.got.tgz:488550.got - 2010.06.03 11:33:40.
