data_PCOD9019460
_publ_section_title
;
Structure prediction by ZEFSAII (Michael W. Deem and Ramdas Pophale) SiO2 
 PCOD9019460
Probable space group: P -1
;
_chemical_formula_sum "Si O2"
_cell_formula_units_Z 14
_cell_length_a 5.274673
_cell_length_b 5.408486
_cell_length_c 18.825945
_cell_angle_alpha 96.422700
_cell_angle_beta 94.482633
_cell_angle_gamma 97.175115
_cell_volume 527.199515
_symmetry_space_group_name_H-M "P -1"
_symmetry_group_IT_number 2
_symmetry_cell_setting 'triclinic'
loop_
_space_group_symop_operation_xyz
x,y,z
-x,-y,-z
loop_
_atom_site_type_symbol
_atom_site_label
_atom_site_fract_x
_atom_site_fract_y
_atom_site_fract_z
Si Si1 0.559749 0.702357 0.321399
Si Si2 0.773866 0.929673 0.596765
Si Si3 0.588287 0.713652 0.794975
Si Si4 0.971647 0.223859 0.951774
Si Si5 0.815744 0.656853 0.458235
Si Si6 0.072599 0.911544 0.734437
Si Si7 0.484446 0.391162 0.916754
O O1 0.379377 0.534781 0.258424
O O2 0.639555 0.546368 0.385793
O O3 0.426358 0.925029 0.360857
O O4 0.801455 0.816553 0.282436
O O5 0.658650 0.770871 0.521527
O O6 0.929491 0.794271 0.655435
O O7 0.992586 0.127959 0.570828
O O8 0.319860 0.796147 0.765192
O O9 0.555581 0.614560 0.870831
O O10 0.844111 0.894693 0.785651
O O11 0.198209 0.250819 0.900241
O O12 0.690066 0.199016 0.911770
O O13 0.000000 0.500000 0.000000
O O14 0.000000 0.000000 0.000000
O O15 0.000000 0.500000 0.500000
O O16 0.500000 0.500000 0.000000
#
# Coordination Sequence:
#
# PCOD9019460 Si02
#       7
#     2   2   2   2   2   2   2
#     4  11  25  44  69 101 144 179 247 291 356 433
#     4  10  22  42  64 104 137 181 239 292 349 424
#     4  12  26  46  74 101 142 190 240 285 374 426
#     4  10  21  44  72 106 147 186 236 300 370 440
#     4  10  22  39  68  98 138 186 232 293 357 417
#     4  11  25  46  69 101 142 187 232 298 350 431
#     4  10  23  47  69 107 141 183 243 301 362 441
#
# _framework density 26.555413000000001
#
# number of rings (size 3 to 8) (size 9 to 14) (size 15 to 20)
#    0.000    1.429    1.429    2.571    6.000    0.571 
#   15.429    0.000    0.000    0.000    0.000    0.000 
#    0.000    0.000    0.000    0.000    0.000    0.000 
#
# Total GULP energy -78398.627234 kJ/mol
# GULP energy per Si atom -5599.901945 kJ/mol
# Density = 2.649497 g / cm^3
# Si number density = 26.555413 Si / 1000 Ang^3
#
#
#
# Elastic Constant Matrix: (Units=GPa)
#
#
# Indices 1 2 3 4 5 6 
#
# 1 191.8692 39.2585 71.6196 -21.8470 -25.2478 -21.9552
# 2 39.2585 89.5428 66.4313 -15.6022 -5.5311 -8.3909
# 3 71.6196 66.4313 207.1130 -37.7947 -17.6447 -1.2156
# 4 -21.8470 -15.6022 -37.7947 63.4351 4.4328 4.8128
# 5 -25.2478 -5.5311 -17.6447 4.4328 49.6007 -12.8529
# 6 -21.9552 -8.3909 -1.2156 4.8128 -12.8529 51.6668
#
#
#
# Elastic Compliance Matrix: (Units=1/GPa)
#
#
# Indices 1 2 3 4 5 6 
#
# 1 0.007037 -0.001228 -0.001580 0.000641 0.003767 0.003631
# 2 -0.001228 0.015187 -0.004332 0.000602 -0.000068 0.001770
# 3 -0.001580 -0.004332 0.007331 0.002804 0.000738 -0.001280
# 4 0.000641 0.000602 0.002804 0.017948 -0.000570 -0.001377
# 5 0.003767 -0.000068 0.000738 -0.000570 0.024386 0.007726
# 6 0.003631 0.001770 -0.001280 -0.001377 0.007726 0.023205
#
#
# Mechanical properties :
#
#
# Convention : Reuss Voigt Hill
#
# Bulk Modulus (GPa) = 65.47042 93.68263 79.57653
# Shear Modulus (GPa) = 43.68063 53.68822 48.68443
#
# Velocity S-wave (km/s) = 4.06012 4.50126 4.28637
# Velocity P-wave (km/s) = 6.83280 7.89746 7.38434
#
# Compressibility (1/GPa) = 0.01527407
#
# Stress axis : x y z
#
# Youngs Moduli (GPa) = 142.10158 65.84706 136.40258
#
# Poissons Ratio (x) = 0.08088 0.21555
# Poissons Ratio (y) = 0.17454 0.59089
# Poissons Ratio (z) = 0.22456 0.28525
#
# Static dielectric constant tensor:
#      x y z
#    x 2.027330 -0.178550 -0.081070 
#    y -0.178550 1.853560 -0.099180 
#    z -0.081070 -0.099180 1.945660 
# 
# From -- ./inp_files/545912.got.cif
#   From: 2010.05.17/outbox.cif.g08.bks.cpg/sg2_273_cif.got.tgz:545912.got - 2010.06.03 11:33:40.
