data_PCOD9019211
_publ_section_title
;
Structure prediction by ZEFSAII (Michael W. Deem and Ramdas Pophale) SiO2 
 PCOD9019211
Probable space group: P -1
;
_chemical_formula_sum "Si O2"
_cell_formula_units_Z 16
_cell_length_a 13.499753
_cell_length_b 14.283404
_cell_length_c 15.045490
_cell_angle_alpha 149.197614
_cell_angle_beta 38.899891
_cell_angle_gamma 119.013290
_cell_volume 766.189193
_symmetry_space_group_name_H-M "P -1"
_symmetry_group_IT_number 2
_symmetry_cell_setting 'triclinic'
loop_
_space_group_symop_operation_xyz
x,y,z
-x,-y,-z
loop_
_atom_site_type_symbol
_atom_site_label
_atom_site_fract_x
_atom_site_fract_y
_atom_site_fract_z
Si Si1 0.057083 0.246869 0.411392
Si Si2 0.801221 0.583677 0.157155
Si Si3 0.504814 0.468322 0.576868
Si Si4 0.809474 0.651916 0.820349
Si Si5 0.865348 0.010935 0.026324
Si Si6 0.469451 0.142671 0.052213
Si Si7 0.615902 0.075968 0.709916
Si Si8 0.916542 0.178094 0.623721
O O1 0.252603 0.231717 0.248942
O O2 0.882103 0.505657 0.739284
O O3 0.062674 0.134361 0.407619
O O4 0.030922 0.127009 0.248761
O O5 0.664213 0.555667 0.294825
O O6 0.700398 0.841871 0.410813
O O7 0.843257 0.415606 0.910792
O O8 0.000000 0.500000 0.000000
O O9 0.500000 0.500000 0.500000
O O10 0.700323 0.250618 0.300138
O O11 0.495993 0.671036 0.794713
O O12 0.000000 0.500000 0.500000
O O13 0.600983 0.717096 0.991557
O O14 0.776927 0.889383 0.034742
O O15 0.000000 0.000000 0.000000
O O16 0.604093 0.013107 0.769120
O O17 0.500000 0.000000 0.000000
O O18 0.753693 0.158861 0.677868
O O19 0.000000 0.000000 0.500000
#
# Coordination Sequence:
#
# PCOD9019211 Si02
#       8
#     2   2   2   2   2   2   2   2
#     4  11  25  45  69 104 141 192 240 292 362 432
#     4  12  26  44  68 101 147 189 234 295 363 428
#     4  12  26  41  70 111 141 184 247 304 362 429
#     4  10  21  44  69  95 136 179 234 297 349 414
#     4  11  23  42  73 108 141 181 243 310 359 420
#     4  12  23  41  71 101 142 183 241 302 363 419
#     4  12  23  46  70  99 140 188 235 297 353 421
#     4  12  27  46  71 102 150 193 233 291 370 437
#
# _framework density 20.882572
#
# number of rings (size 3 to 8) (size 9 to 14) (size 15 to 20)
#    0.000    0.500    6.250    3.000    5.250    0.500 
#    2.250    0.625    0.000    0.000    0.000    0.000 
#    0.000    0.000    0.000    0.000    0.000    0.000 
#
# Total GULP energy -89339.766310 kJ/mol
# GULP energy per Si atom -5583.735394 kJ/mol
# Density = 2.083504 g / cm^3
# Si number density = 20.882572 Si / 1000 Ang^3
#
#
#
# Elastic Constant Matrix: (Units=GPa)
#
#
# Indices 1 2 3 4 5 6 
#
# 1 108.4174 37.4981 40.4863 5.5238 -4.4641 13.0999
# 2 37.4981 86.1308 28.9715 3.8573 0.9618 14.0813
# 3 40.4863 28.9715 85.6562 17.3758 -3.5875 10.0419
# 4 5.5238 3.8573 17.3758 42.4976 2.2666 -5.9630
# 5 -4.4641 0.9618 -3.5875 2.2666 45.4119 1.8035
# 6 13.0999 14.0813 10.0419 -5.9630 1.8035 48.9208
#
#
#
# Elastic Compliance Matrix: (Units=1/GPa)
#
#
# Indices 1 2 3 4 5 6 
#
# 1 0.012347 -0.003684 -0.004457 0.000313 0.000977 -0.001329
# 2 -0.003684 0.014636 -0.002946 0.000035 -0.000804 -0.002588
# 3 -0.004457 -0.002946 0.016338 -0.006200 0.001308 -0.002116
# 4 0.000313 0.000035 -0.006200 0.026761 -0.001975 0.004513
# 5 0.000977 -0.000804 0.001308 -0.001975 0.022390 -0.001365
# 6 -0.001329 -0.002588 -0.002116 0.004513 -0.001365 0.022577
#
#
# Mechanical properties :
#
#
# Convention : Reuss Voigt Hill
#
# Bulk Modulus (GPa) = 47.28856 54.90182 51.09519
# Shear Modulus (GPa) = 34.65708 38.91595 36.78652
#
# Velocity S-wave (km/s) = 4.07826 4.32158 4.20168
# Velocity P-wave (km/s) = 6.69854 7.15886 6.93252
#
# Compressibility (1/GPa) = 0.02114677
#
# Stress axis : x y z
#
# Youngs Moduli (GPa) = 80.99222 68.32656 61.20611
#
# Poissons Ratio (x) = 0.25171 0.27278
# Poissons Ratio (y) = 0.29837 0.18033
# Poissons Ratio (z) = 0.36096 0.20131
#
# Static dielectric constant tensor:
#      x y z
#    x 1.793150 -0.016150 0.015740 
#    y -0.016150 1.777860 0.016290 
#    z 0.015740 0.016290 1.737950 
# 
# From -- ./inp_files/522571.got.cif
#   From: 2010.05.17/outbox.cif.g08.bks.cpg/sg2_262_cif.got.tgz:522571.got - 2010.06.03 11:33:40.
