data_PCOD9019958
_publ_section_title
;
Structure prediction by ZEFSAII (Michael W. Deem and Ramdas Pophale) SiO2 
 PCOD9019958
Probable space group: P -1
;
_chemical_formula_sum "Si O2"
_cell_formula_units_Z 14
_cell_length_a 16.513947
_cell_length_b 17.794468
_cell_length_c 5.454350
_cell_angle_alpha 101.623919
_cell_angle_beta 68.485431
_cell_angle_gamma 155.538538
_cell_volume 579.872059
_symmetry_space_group_name_H-M "P -1"
_symmetry_group_IT_number 2
_symmetry_cell_setting 'triclinic'
loop_
_space_group_symop_operation_xyz
x,y,z
-x,-y,-z
loop_
_atom_site_type_symbol
_atom_site_label
_atom_site_fract_x
_atom_site_fract_y
_atom_site_fract_z
Si Si1 0.679977 0.577050 0.349855
Si Si2 0.246284 0.660919 0.998932
Si Si3 0.148765 0.423432 0.165517
Si Si4 0.369396 0.816841 0.464814
Si Si5 0.509003 0.694717 0.270073
Si Si6 0.315197 0.023868 0.514907
Si Si7 0.054317 0.998857 0.193740
O O1 0.500000 0.500000 0.500000
O O2 0.609573 0.474655 0.600367
O O3 0.719557 0.539561 0.088313
O O4 0.910667 0.806355 0.237695
O O5 0.132550 0.486137 0.055628
O O6 0.243330 0.711197 0.278107
O O7 0.209955 0.668544 0.775165
O O8 0.511831 0.859939 0.807613
O O9 0.306724 0.578227 0.310522
O O10 0.923765 0.205904 0.374774
O O11 0.500000 0.000000 0.500000
O O12 0.568189 0.916653 0.333254
O O13 0.654087 0.860340 0.411856
O O14 0.691367 0.815324 0.958969
O O15 0.000000 0.000000 0.500000
O O16 0.000000 0.000000 0.000000
#
# Coordination Sequence:
#
# PCOD9019958 Si02
#       7
#     2   2   2   2   2   2   2
#     4  12  25  42  69  96 135 182 237 288 347 400
#     4  10  22  44  69 103 141 177 228 279 338 411
#     4  12  24  43  69 101 138 184 233 282 348 411
#     4  10  21  45  74 100 142 182 219 280 343 404
#     4  12  25  44  69  97 139 182 230 294 343 417
#     4  10  24  42  69 103 138 180 227 280 346 410
#     4  12  28  47  68  98 138 178 235 296 354 406
#
# _framework density 24.143255
#
# number of rings (size 3 to 8) (size 9 to 14) (size 15 to 20)
#    0.857    0.000    5.714    1.286    2.000    3.429 
#    0.000    1.429    0.000    0.000    0.000    0.000 
#    0.000    0.000    0.000    0.000    0.000    0.000 
#
# Total GULP energy -78116.042164 kJ/mol
# GULP energy per Si atom -5579.717297 kJ/mol
# Density = 2.408830 g / cm^3
# Si number density = 24.143255 Si / 1000 Ang^3
#
#
#
# Elastic Constant Matrix: (Units=GPa)
#
#
# Indices 1 2 3 4 5 6 
#
# 1 70.5503 25.5104 6.3258 1.4863 16.3537 -19.2068
# 2 25.5104 142.1279 41.4294 -16.0520 19.2095 -23.6568
# 3 6.3258 41.4294 111.3721 -6.9114 18.1104 -8.8003
# 4 1.4863 -16.0520 -6.9114 58.8775 -1.2815 -0.7217
# 5 16.3537 19.2095 18.1104 -1.2815 32.3328 -8.8397
# 6 -19.2068 -23.6568 -8.8003 -0.7217 -8.8397 40.5632
#
#
#
# Elastic Compliance Matrix: (Units=1/GPa)
#
#
# Indices 1 2 3 4 5 6 
#
# 1 0.018048 -0.001681 0.001200 -0.000851 -0.007125 0.006258
# 2 -0.001681 0.009227 -0.002568 0.002255 -0.002118 0.003607
# 3 0.001200 -0.002568 0.010728 0.000424 -0.004987 0.000319
# 4 -0.000851 0.002255 0.000424 0.017684 -0.000091 0.001299
# 5 -0.007125 -0.002118 -0.004987 -0.000091 0.039370 0.002887
# 6 0.006258 0.003607 0.000319 0.001299 0.002887 0.030441
#
#
# Mechanical properties :
#
#
# Convention : Reuss Voigt Hill
#
# Bulk Modulus (GPa) = 31.34074 52.28684 41.81379
# Shear Modulus (GPa) = 35.15423 43.07368 39.11395
#
# Velocity S-wave (km/s) = 3.81999 4.22843 4.02939
# Velocity P-wave (km/s) = 5.69787 6.74859 6.24536
#
# Compressibility (1/GPa) = 0.03190735
#
# Stress axis : x y z
#
# Youngs Moduli (GPa) = 55.40892 108.37281 93.21113
#
# Poissons Ratio (x) = 0.18215 -0.11189
# Poissons Ratio (y) = 0.09313 0.23933
# Poissons Ratio (z) = -0.06651 0.27826
#
# Static dielectric constant tensor:
#      x y z
#    x 2.094980 0.104610 -0.094050 
#    y 0.104610 1.656460 0.025040 
#    z -0.094050 0.025040 1.945510 
# 
# From -- ./inp_files/120297.got.cif
#   From: 2010.05.17/outbox.cif.g08.bks.cpg/sg2_61_cif.got.tgz:120297.got - 2010.06.03 11:33:40.
