data_PCOD9019707
_publ_section_title
;
Structure prediction by ZEFSAII (Michael W. Deem and Ramdas Pophale) SiO2 
 PCOD9019707
Probable space group: P -1
;
_chemical_formula_sum "Si O2"
_cell_formula_units_Z 14
_cell_length_a 8.820277
_cell_length_b 13.200602
_cell_length_c 8.608511
_cell_angle_alpha 129.011629
_cell_angle_beta 49.172748
_cell_angle_gamma 113.737806
_cell_volume 589.249328
_symmetry_space_group_name_H-M "P -1"
_symmetry_group_IT_number 2
_symmetry_cell_setting 'triclinic'
loop_
_space_group_symop_operation_xyz
x,y,z
-x,-y,-z
loop_
_atom_site_type_symbol
_atom_site_label
_atom_site_fract_x
_atom_site_fract_y
_atom_site_fract_z
Si Si1 0.125190 0.864122 0.775122
Si Si2 0.888135 0.567338 0.997782
Si Si3 0.088990 0.197291 0.621301
Si Si4 0.317082 0.841306 0.291247
Si Si5 0.905210 0.635745 0.541785
Si Si6 0.507769 0.449153 0.121505
Si Si7 0.511546 0.057406 0.218378
O O1 0.254963 0.866387 0.532585
O O2 0.290609 0.862795 0.799270
O O3 0.992411 0.735656 0.708122
O O4 0.000000 0.000000 0.000000
O O5 0.946951 0.483113 0.726133
O O6 0.951627 0.714988 0.113933
O O7 0.656512 0.555855 0.192152
O O8 0.000000 0.500000 0.000000
O O9 0.123067 0.278050 0.514001
O O10 0.299703 0.129773 0.452674
O O11 0.880514 0.128090 0.651899
O O12 0.502834 0.929818 0.209539
O O13 0.376445 0.690215 0.084004
O O14 0.701123 0.572856 0.676529
O O15 0.500000 0.500000 0.000000
O O16 0.500000 0.000000 0.000000
#
# Coordination Sequence:
#
# PCOD9019707 Si02
#       7
#     2   2   2   2   2   2   2
#     4  11  23  45  70  98 141 188 230 284 353 414
#     4  10  21  45  67 100 143 179 229 287 348 402
#     4  10  22  43  71 103 140 181 228 287 356 412
#     4  11  23  48  67 100 147 180 227 296 346 417
#     4  10  23  47  69  98 148 184 227 290 349 413
#     4  12  25  43  70  98 141 186 238 278 344 412
#     4  12  25  43  73 108 134 182 239 285 354 422
#
# _framework density 23.759042999999998
#
# number of rings (size 3 to 8) (size 9 to 14) (size 15 to 20)
#    0.000    1.143    4.286    4.286    2.000    2.857 
#    5.143    0.000    0.000    0.000    0.000    0.000 
#    0.000    0.000    0.000    0.000    0.000    0.000 
#
# Total GULP energy -78188.369914 kJ/mol
# GULP energy per Si atom -5584.883565 kJ/mol
# Density = 2.370497 g / cm^3
# Si number density = 23.759043 Si / 1000 Ang^3
#
#
#
# Elastic Constant Matrix: (Units=GPa)
#
#
# Indices 1 2 3 4 5 6 
#
# 1 125.7578 30.8423 25.3975 13.8761 -3.4432 37.9466
# 2 30.8423 81.1223 18.0441 -19.5067 0.4185 28.7828
# 3 25.3975 18.0441 109.8487 11.5516 -3.0273 23.9808
# 4 13.8761 -19.5067 11.5516 45.2338 5.6602 -6.6912
# 5 -3.4432 0.4185 -3.0273 5.6602 33.6360 8.7110
# 6 37.9466 28.7828 23.9808 -6.6912 8.7110 45.3092
#
#
#
# Elastic Compliance Matrix: (Units=1/GPa)
#
#
# Indices 1 2 3 4 5 6 
#
# 1 0.013156 -0.002944 0.001097 -0.008120 0.005976 -0.012076
# 2 -0.002944 0.018276 -0.001661 0.008203 -0.000244 -0.007006
# 3 0.001097 -0.001661 0.011471 -0.005606 0.004062 -0.007544
# 4 -0.008120 0.008203 -0.005606 0.032457 -0.009809 0.011236
# 5 0.005976 -0.000244 0.004062 -0.009809 0.036359 -0.015439
# 6 -0.012076 -0.007006 -0.007544 0.011236 -0.015439 0.045255
#
#
# Mechanical properties :
#
#
# Convention : Reuss Voigt Hill
#
# Bulk Modulus (GPa) = 27.86656 51.69965 39.78310
# Shear Modulus (GPa) = 28.41671 40.99879 34.70775
#
# Velocity S-wave (km/s) = 3.46213 4.15855 3.82622
# Velocity P-wave (km/s) = 5.26651 6.69816 6.02500
#
# Compressibility (1/GPa) = 0.03588530
#
# Stress axis : x y z
#
# Youngs Moduli (GPa) = 76.01203 54.71798 87.17588
#
# Poissons Ratio (x) = 0.16111 -0.09562
# Poissons Ratio (y) = 0.22380 0.14480
# Poissons Ratio (z) = -0.08337 0.09089
#
# Static dielectric constant tensor:
#      x y z
#    x 2.127350 0.074740 -0.126570 
#    y 0.074740 1.979940 -0.007240 
#    z -0.126570 -0.007240 1.963720 
# 
# From -- ./inp_files/203986.got.cif
#   From: 2010.05.17/outbox.cif.g08.bks.cpg/sg2_102_cif.got.tgz:203986.got - 2010.06.03 11:33:40.
