data_PCOD9019324
_publ_section_title
;
Structure prediction by ZEFSAII (Michael W. Deem and Ramdas Pophale) SiO2 
 PCOD9019324
Probable space group: P -1
;
_chemical_formula_sum "Si O2"
_cell_formula_units_Z 14
_cell_length_a 5.184396
_cell_length_b 11.966367
_cell_length_c 12.196320
_cell_angle_alpha 79.571663
_cell_angle_beta 60.984354
_cell_angle_gamma 56.423432
_cell_volume 547.303168
_symmetry_space_group_name_H-M "P -1"
_symmetry_group_IT_number 2
_symmetry_cell_setting 'triclinic'
loop_
_space_group_symop_operation_xyz
x,y,z
-x,-y,-z
loop_
_atom_site_type_symbol
_atom_site_label
_atom_site_fract_x
_atom_site_fract_y
_atom_site_fract_z
Si Si1 0.874535 0.565001 0.746254
Si Si2 0.710308 0.205800 0.541098
Si Si3 0.367926 0.371661 0.990497
Si Si4 0.645604 0.889019 0.895830
Si Si5 0.348274 0.604044 0.291803
Si Si6 0.388863 0.802010 0.668982
Si Si7 0.511572 0.006297 0.668541
O O1 0.860804 0.466660 0.679130
O O2 0.719903 0.707882 0.694622
O O3 0.254559 0.506865 0.729281
O O4 0.613783 0.583597 0.896971
O O5 0.768539 0.286163 0.608459
O O6 0.540660 0.272710 0.447590
O O7 0.090658 0.092182 0.436949
O O8 0.476565 0.148911 0.644013
O O9 0.627979 0.339885 0.841852
O O10 0.385422 0.233922 0.037166
O O11 0.000000 0.500000 0.000000
O O12 0.456155 0.969771 0.808685
O O13 0.053577 0.823259 0.796256
O O14 0.500000 0.000000 0.000000
O O15 0.317479 0.952394 0.643770
#
# Coordination Sequence:
#
# PCOD9019324 Si02
#       7
#     2   2   2   2   2   2   2
#     4  11  24  44  70 102 139 186 224 285 352 411
#     4  10  24  42  67  98 135 181 230 289 338 412
#     4  10  21  44  70  98 142 180 225 282 354 409
#     4  11  23  42  68 103 136 177 234 287 344 415
#     4  11  25  43  69 105 138 179 238 283 337 415
#     4  11  23  42  71  93 139 180 225 282 353 412
#     4  10  22  45  66  94 136 181 228 279 360 403
#
# _framework density 25.579975000000001
#
# number of rings (size 3 to 8) (size 9 to 14) (size 15 to 20)
#    0.000    1.429    1.429    3.429    4.000    2.857 
#    2.571    0.000    0.000    0.000    0.000    0.000 
#    0.000    0.000    0.000    0.000    0.000    0.000 
#
# Total GULP energy -78312.619229 kJ/mol
# GULP energy per Si atom -5593.758516 kJ/mol
# Density = 2.552175 g / cm^3
# Si number density = 25.579975 Si / 1000 Ang^3
#
#
#
# Elastic Constant Matrix: (Units=GPa)
#
#
# Indices 1 2 3 4 5 6 
#
# 1 83.9803 27.3360 34.7366 3.7296 19.7903 19.5766
# 2 27.3360 108.3378 66.2527 -4.1578 18.0858 27.0294
# 3 34.7366 66.2527 147.2124 12.3776 32.1260 15.8138
# 4 3.7296 -4.1578 12.3776 49.1650 11.0935 10.2731
# 5 19.7903 18.0858 32.1260 11.0935 43.2116 3.5296
# 6 19.5766 27.0294 15.8138 10.2731 3.5296 44.9630
#
#
#
# Elastic Compliance Matrix: (Units=1/GPa)
#
#
# Indices 1 2 3 4 5 6 
#
# 1 0.015333 -0.000347 -0.001778 0.001713 -0.005521 -0.005800
# 2 -0.000347 0.015598 -0.005927 0.005122 -0.002616 -0.008106
# 3 -0.001778 -0.005927 0.010866 -0.002431 -0.004274 0.001407
# 4 0.001713 0.005122 -0.002431 0.024454 -0.006742 -0.008027
# 5 -0.005521 -0.002616 -0.004274 -0.006742 0.031301 0.004563
# 6 -0.005800 -0.008106 0.001407 -0.008027 0.004563 0.030620
#
#
# Mechanical properties :
#
#
# Convention : Reuss Voigt Hill
#
# Bulk Modulus (GPa) = 38.92138 66.24237 52.58188
# Shear Modulus (GPa) = 32.71394 41.54827 37.13111
#
# Velocity S-wave (km/s) = 3.58004 4.03457 3.81408
# Velocity P-wave (km/s) = 5.68660 6.90334 6.32430
#
# Compressibility (1/GPa) = 0.02569282
#
# Stress axis : x y z
#
# Youngs Moduli (GPa) = 65.21908 64.11008 92.03052
#
# Poissons Ratio (x) = 0.02226 0.16362
# Poissons Ratio (y) = 0.02264 0.54547
# Poissons Ratio (z) = 0.11595 0.37999
#
# Static dielectric constant tensor:
#      x y z
#    x 2.091170 0.004340 0.002540 
#    y 0.004340 2.079400 0.004180 
#    z 0.002540 0.004180 2.009370 
# 
# From -- ./inp_files/72475.got.cif
#   From: 2010.05.17/outbox.cif.g08.bks.cpg/sg2_37_cif.got.tgz:72475.got - 2010.06.03 11:33:40.
