data_PCOD9019514
_publ_section_title
;
Structure prediction by ZEFSAII (Michael W. Deem and Ramdas Pophale) SiO2 
 PCOD9019514
Probable space group: P -1
;
_chemical_formula_sum "Si O2"
_cell_formula_units_Z 15
_cell_length_a 15.232218
_cell_length_b 12.904483
_cell_length_c 9.851298
_cell_angle_alpha 50.205828
_cell_angle_beta 157.153657
_cell_angle_gamma 133.946978
_cell_volume 541.305304
_symmetry_space_group_name_H-M "P -1"
_symmetry_group_IT_number 2
_symmetry_cell_setting 'triclinic'
loop_
_space_group_symop_operation_xyz
x,y,z
-x,-y,-z
loop_
_atom_site_type_symbol
_atom_site_label
_atom_site_fract_x
_atom_site_fract_y
_atom_site_fract_z
Si Si1 0.783359 0.457918 0.337133
Si Si2 0.500000 0.000000 0.000000
Si Si3 0.497329 0.726303 0.378602
Si Si4 0.221817 0.966396 0.159841
Si Si5 0.959891 0.247809 0.161257
Si Si6 0.357893 0.838838 0.716796
Si Si7 0.822954 0.571324 0.908575
Si Si8 0.915250 0.771229 0.337356
O O1 0.604608 0.305280 0.157980
O O2 0.753700 0.608403 0.201453
O O3 0.000000 0.500000 0.500000
O O4 0.909284 0.416567 0.680973
O O5 0.589046 0.957692 0.009090
O O6 0.408850 0.121279 0.689110
O O7 0.716588 0.669071 0.768137
O O8 0.343023 0.593947 0.172024
O O9 0.297607 0.730440 0.199149
O O10 0.206860 0.891381 0.347563
O O11 0.500000 0.000000 0.500000
O O12 0.079178 0.866512 0.918767
O O13 0.179825 0.115596 0.963483
O O14 0.160399 0.385613 0.261176
O O15 0.051320 0.221679 0.460149
O O16 0.196400 0.819656 0.642458
#
# Coordination Sequence:
#
# PCOD9019514 Si02
#       8
#     2   1   2   2   2   2   2   2
#     4  10  21  44  73 103 142 195 252 298 378 453
#     4  12  24  44  72 114 148 192 250 320 376 456
#     4  11  25  44  74 112 153 193 257 310 377 446
#     4  12  28  46  70 114 155 193 256 316 383 451
#     4  12  24  47  79 113 157 199 261 309 374 462
#     4  11  24  45  75 102 147 195 245 312 379 455
#     4  11  24  45  75 111 149 206 251 313 372 451
#     4  11  25  47  76 106 147 202 249 306 380 453
#
# _framework density 27.710792000000001
#
# number of rings (size 3 to 8) (size 9 to 14) (size 15 to 20)
#    0.000    0.800    4.000    2.800    1.867    6.400 
#    0.000    0.667    0.000    0.000    0.000    0.000 
#    0.000    0.000    0.000    0.000    0.000    0.000 
#
# Total GULP energy -83792.103669 kJ/mol
# GULP energy per Si atom -5586.140245 kJ/mol
# Density = 2.764772 g / cm^3
# Si number density = 27.710792 Si / 1000 Ang^3
#
#
#
# Elastic Constant Matrix: (Units=GPa)
#
#
# Indices 1 2 3 4 5 6 
#
# 1 135.3447 43.6569 59.1338 -9.9400 -21.9230 -3.3603
# 2 43.6569 216.7119 51.1199 -27.2317 -18.2313 -32.3442
# 3 59.1338 51.1199 78.1599 -20.4627 -3.8339 -9.2458
# 4 -9.9400 -27.2317 -20.4627 52.0338 -7.4203 -2.4445
# 5 -21.9230 -18.2313 -3.8339 -7.4203 59.9878 1.0013
# 6 -3.3603 -32.3442 -9.2458 -2.4445 1.0013 43.6730
#
#
#
# Elastic Compliance Matrix: (Units=1/GPa)
#
#
# Indices 1 2 3 4 5 6 
#
# 1 0.011921 -0.000285 -0.009077 -0.000993 0.003590 -0.001354
# 2 -0.000285 0.006457 -0.002682 0.002751 0.001955 0.004301
# 3 -0.009077 -0.002682 0.023144 0.005803 -0.001979 0.002585
# 4 -0.000993 0.002751 0.005803 0.023482 0.003675 0.004419
# 5 0.003590 0.001955 -0.001979 0.003675 0.018886 0.001078
# 6 -0.001354 0.004301 0.002585 0.004419 0.001078 0.026749
#
#
# Mechanical properties :
#
#
# Convention : Reuss Voigt Hill
#
# Bulk Modulus (GPa) = 57.36207 82.00418 69.68312
# Shear Modulus (GPa) = 35.57755 49.55932 42.56843
#
# Velocity S-wave (km/s) = 3.58703 4.23359 3.92365
# Velocity P-wave (km/s) = 6.15637 7.31812 6.76224
#
# Compressibility (1/GPa) = 0.01743312
#
# Stress axis : x y z
#
# Youngs Moduli (GPa) = 83.88419 154.87882 43.20797
#
# Poissons Ratio (x) = 0.04418 0.39219
# Poissons Ratio (y) = 0.02393 0.11590
# Poissons Ratio (z) = 0.76140 0.41543
#
# Static dielectric constant tensor:
#      x y z
#    x 2.214930 0.063290 0.000670 
#    y 0.063290 1.951620 -0.276460 
#    z 0.000670 -0.276460 1.986850 
# 
# From -- ./inp_files/304910.got.cif
#   From: 2010.05.17/outbox.cif.g08.bks.cpg/sg2_153_cif.got.tgz:304910.got - 2010.06.03 11:33:40.
