data_PCOD9019484
_publ_section_title
;
Structure prediction by ZEFSAII (Michael W. Deem and Ramdas Pophale) SiO2 
 PCOD9019484
Probable space group: P -1
;
_chemical_formula_sum "Si O2"
_cell_formula_units_Z 14
_cell_length_a 14.090072
_cell_length_b 9.976825
_cell_length_c 13.827844
_cell_angle_alpha 110.671171
_cell_angle_beta 25.355407
_cell_angle_gamma 124.981289
_cell_volume 601.828437
_symmetry_space_group_name_H-M "P -1"
_symmetry_group_IT_number 2
_symmetry_cell_setting 'triclinic'
loop_
_space_group_symop_operation_xyz
x,y,z
-x,-y,-z
loop_
_atom_site_type_symbol
_atom_site_label
_atom_site_fract_x
_atom_site_fract_y
_atom_site_fract_z
Si Si1 0.083130 0.813555 0.757153
Si Si2 0.167406 0.696013 0.211220
Si Si3 0.596085 0.244902 0.401496
Si Si4 0.049981 0.893532 0.505474
Si Si5 0.473814 0.550871 0.326086
Si Si6 0.894906 0.582057 0.690659
Si Si7 0.454872 0.751826 0.767982
O O1 0.172942 0.745696 0.744898
O O2 0.110328 0.737994 0.612307
O O3 0.750628 0.716725 0.053339
O O4 0.300260 0.033666 0.621087
O O5 0.292437 0.597779 0.112418
O O6 0.227144 0.849321 0.268319
O O7 0.272092 0.753010 0.020159
O O8 0.822191 0.547531 0.483074
O O9 0.544611 0.371089 0.536731
O O10 0.676720 0.289655 0.227059
O O11 0.828111 0.695639 0.716489
O O12 0.000000 0.000000 0.500000
O O13 0.234906 0.047257 0.456583
O O14 0.508559 0.398334 0.277079
O O15 0.000000 0.500000 0.500000
#
# Coordination Sequence:
#
# PCOD9019484 Si02
#       7
#     2   2   2   2   2   2   2
#     4  11  23  46  68  97 137 177 230 282 340 402
#     4  11  24  45  70 101 140 181 222 280 346 408
#     4  11  25  43  67  97 137 182 228 281 337 402
#     4  11  23  45  71 104 135 174 227 288 341 404
#     4  12  23  42  68  97 138 176 234 272 337 404
#     4  10  21  44  72  96 137 174 226 279 343 404
#     4  12  24  42  71  98 141 179 226 282 344 403
#
# _framework density 23.262443000000001
#
# number of rings (size 3 to 8) (size 9 to 14) (size 15 to 20)
#    0.000    0.857    5.714    1.286    0.000    3.429 
#    0.000   12.143    0.000    0.000    0.000    0.000 
#    0.000    0.000    0.000    0.000    0.000    0.000 
#
# Total GULP energy -78117.836913 kJ/mol
# GULP energy per Si atom -5579.845494 kJ/mol
# Density = 2.320950 g / cm^3
# Si number density = 23.262443 Si / 1000 Ang^3
#
#
#
# Elastic Constant Matrix: (Units=GPa)
#
#
# Indices 1 2 3 4 5 6 
#
# 1 156.6958 46.0805 32.3632 4.1602 15.1544 3.0493
# 2 46.0805 135.8979 11.8871 7.0116 3.3241 9.9942
# 3 32.3632 11.8871 57.7189 -5.3886 -0.8522 5.6076
# 4 4.1602 7.0116 -5.3886 19.4972 10.6771 17.4185
# 5 15.1544 3.3241 -0.8522 10.6771 42.7300 0.5250
# 6 3.0493 9.9942 5.6076 17.4185 0.5250 54.5995
#
#
#
# Elastic Compliance Matrix: (Units=1/GPa)
#
#
# Indices 1 2 3 4 5 6 
#
# 1 0.008243 -0.002333 -0.004432 -0.001705 -0.002416 0.000989
# 2 -0.002333 0.008357 -0.000607 -0.002711 0.000848 -0.000481
# 3 -0.004432 -0.000607 0.021750 0.013275 -0.001189 -0.006099
# 4 -0.001705 -0.002711 0.013275 0.096839 -0.022731 -0.031447
# 5 -0.002416 0.000848 -0.001189 -0.022731 0.029763 0.007067
# 6 0.000989 -0.000481 -0.006099 -0.031447 0.007067 0.028939
#
#
# Mechanical properties :
#
#
# Convention : Reuss Voigt Hill
#
# Bulk Modulus (GPa) = 42.36305 58.99713 50.68009
# Shear Modulus (GPa) = 23.09425 40.69747 31.89586
#
# Velocity S-wave (km/s) = 3.15424 4.18723 3.70690
# Velocity P-wave (km/s) = 5.61392 6.98526 6.33679
#
# Compressibility (1/GPa) = 0.02360548
#
# Stress axis : x y z
#
# Youngs Moduli (GPa) = 121.31438 119.65919 45.97718
#
# Poissons Ratio (x) = 0.27917 0.20379
# Poissons Ratio (y) = 0.28303 0.02790
# Poissons Ratio (z) = 0.53772 0.07261
#
# Static dielectric constant tensor:
#      x y z
#    x 1.899290 -0.043290 0.013510 
#    y -0.043290 1.878730 -0.053270 
#    z 0.013510 -0.053270 1.943430 
# 
# From -- ./inp_files/201254.got.cif
#   From: 2010.05.17/outbox.cif.g08.bks.cpg/sg2_101_cif.got.tgz:201254.got - 2010.06.03 11:33:40.
