data_PCOD9019853
_publ_section_title
;
Structure prediction by ZEFSAII (Michael W. Deem and Ramdas Pophale) SiO2 
 PCOD9019853
Probable space group: P -1
;
_chemical_formula_sum "Si O2"
_cell_formula_units_Z 16
_cell_length_a 9.735105
_cell_length_b 13.929898
_cell_length_c 9.438645
_cell_angle_alpha 78.265717
_cell_angle_beta 45.097757
_cell_angle_gamma 108.813952
_cell_volume 657.341658
_symmetry_space_group_name_H-M "P -1"
_symmetry_group_IT_number 2
_symmetry_cell_setting 'triclinic'
loop_
_space_group_symop_operation_xyz
x,y,z
-x,-y,-z
loop_
_atom_site_type_symbol
_atom_site_label
_atom_site_fract_x
_atom_site_fract_y
_atom_site_fract_z
Si Si1 0.329619 0.395305 0.441775
Si Si2 0.591763 0.130314 0.696010
Si Si3 0.217730 0.707673 0.217027
Si Si4 0.771170 0.434072 0.973517
Si Si5 0.075303 0.034234 0.097101
Si Si6 0.753750 0.964040 0.611043
Si Si7 0.301617 0.315950 0.793911
Si Si8 0.166809 0.698456 0.788409
O O1 0.506761 0.407069 0.188282
O O2 0.352305 0.333987 0.583103
O O3 0.465151 0.543593 0.346353
O O4 0.034286 0.315557 0.639310
O O5 0.730701 0.249771 0.670244
O O6 0.732184 0.073392 0.612828
O O7 0.614795 0.178851 0.505275
O O8 0.282891 0.020248 0.991181
O O9 0.177907 0.586078 0.215644
O O10 0.485190 0.831773 0.907759
O O11 0.751635 0.334813 0.124252
O O12 0.002578 0.573775 0.837443
O O13 0.823082 0.959527 0.400881
O O14 0.245674 0.192031 0.938050
O O15 0.000000 0.000000 0.000000
O O16 0.000000 0.000000 0.500000
O O17 0.038499 0.289510 0.015107
#
# Coordination Sequence:
#
# PCOD9019853 Si02
#       8
#     2   2   2   2   2   2   2   2
#     4  10  23  41  73 104 141 187 226 292 351 423
#     4  12  28  47  71 103 141 187 236 298 350 424
#     4  12  27  43  72 104 139 189 242 284 354 428
#     4  10  23  42  72 105 142 186 233 286 355 418
#     4  12  29  45  76 107 137 185 238 299 353 416
#     4  12  29  53  70  96 146 191 236 296 355 420
#     4  10  21  45  70 105 145 177 236 291 353 411
#     4  10  21  45  70 104 145 185 231 294 351 417
#
# _framework density 24.340463
#
# number of rings (size 3 to 8) (size 9 to 14) (size 15 to 20)
#    0.000    1.000    3.750    1.125   10.500    1.000 
#    0.000    1.250    0.000    0.000    0.000    0.000 
#    0.000    0.000    0.000    0.000    0.000    0.000 
#
# Total GULP energy -89626.302071 kJ/mol
# GULP energy per Si atom -5601.643879 kJ/mol
# Density = 2.428506 g / cm^3
# Si number density = 24.340463 Si / 1000 Ang^3
#
#
#
# Elastic Constant Matrix: (Units=GPa)
#
#
# Indices 1 2 3 4 5 6 
#
# 1 95.2394 32.7727 46.6744 17.5239 -29.7337 3.7486
# 2 32.7727 61.1134 24.6509 32.8557 -9.1493 0.0386
# 3 46.6744 24.6509 114.5783 9.3844 -7.0036 4.5217
# 4 17.5239 32.8557 9.3844 42.2331 5.6825 8.6674
# 5 -29.7337 -9.1493 -7.0036 5.6825 45.5527 2.5874
# 6 3.7486 0.0386 4.5217 8.6674 2.5874 31.3613
#
#
#
# Elastic Compliance Matrix: (Units=1/GPa)
#
#
# Indices 1 2 3 4 5 6 
#
# 1 0.019233 -0.003121 -0.005949 -0.005639 0.011764 -0.000849
# 2 -0.003121 0.036282 -0.004029 -0.028766 0.007752 0.008220
# 3 -0.005949 -0.004029 0.011571 0.003832 -0.003292 -0.001740
# 4 -0.005639 -0.028766 0.003832 0.052195 -0.014639 -0.013061
# 5 0.011764 0.007752 -0.003292 -0.014639 0.032484 0.000425
# 6 -0.000849 0.008220 -0.001740 -0.013061 0.000425 0.035803
#
#
# Mechanical properties :
#
#
# Convention : Reuss Voigt Hill
#
# Bulk Modulus (GPa) = 24.45639 53.23632 38.84636
# Shear Modulus (GPa) = 21.98801 34.95164 28.46983
#
# Velocity S-wave (km/s) = 3.00884 3.79350 3.42373
# Velocity P-wave (km/s) = 4.70535 6.41144 5.62347
#
# Compressibility (1/GPa) = 0.04088911
#
# Stress axis : x y z
#
# Youngs Moduli (GPa) = 51.99422 27.56162 86.42025
#
# Poissons Ratio (x) = 0.08602 0.51409
# Poissons Ratio (y) = 0.16227 0.34820
# Poissons Ratio (z) = 0.30930 0.11105
#
# Static dielectric constant tensor:
#      x y z
#    x 1.882690 -0.006680 0.014220 
#    y -0.006680 1.966100 -0.008280 
#    z 0.014220 -0.008280 1.943550 
# 
# From -- ./inp_files/206718.got.cif
#   From: 2010.05.17/outbox.cif.g08.bks.cpg/sg2_104_cif.got.tgz:206718.got - 2010.06.03 11:33:40.
