data_PCOD9019430
_publ_section_title
;
Structure prediction by ZEFSAII (Michael W. Deem and Ramdas Pophale) SiO2 
 PCOD9019430
Probable space group: P -1
;
_chemical_formula_sum "Si O2"
_cell_formula_units_Z 14
_cell_length_a 10.051157
_cell_length_b 9.257393
_cell_length_c 15.367412
_cell_angle_alpha 62.443891
_cell_angle_beta 37.222034
_cell_angle_gamma 46.444380
_cell_volume 614.634215
_symmetry_space_group_name_H-M "P -1"
_symmetry_group_IT_number 2
_symmetry_cell_setting 'triclinic'
loop_
_space_group_symop_operation_xyz
x,y,z
-x,-y,-z
loop_
_atom_site_type_symbol
_atom_site_label
_atom_site_fract_x
_atom_site_fract_y
_atom_site_fract_z
Si Si1 0.016865 0.317262 0.584725
Si Si2 0.625787 0.923095 0.340363
Si Si3 0.121948 0.944332 0.354380
Si Si4 0.597009 0.968736 0.136120
Si Si5 0.411310 0.678992 0.562898
Si Si6 0.795678 0.204765 0.177237
Si Si7 0.431754 0.400883 0.136365
O O1 0.862822 0.412207 0.728197
O O2 0.000000 0.500000 0.500000
O O3 0.329392 0.120111 0.473306
O O4 0.856945 0.249654 0.633893
O O5 0.623300 0.912421 0.240004
O O6 0.814716 0.998678 0.238025
O O7 0.618098 0.740056 0.427483
O O8 0.403178 0.918730 0.209411
O O9 0.889364 0.129358 0.364630
O O10 0.000000 0.000000 0.500000
O O11 0.445378 0.211295 0.145909
O O12 0.899948 0.857257 0.970737
O O13 0.500000 0.500000 0.500000
O O14 0.370409 0.655329 0.692080
O O15 0.635049 0.306675 0.141364
O O16 0.500000 0.500000 0.000000
#
# Coordination Sequence:
#
# PCOD9019430 Si02
#       7
#     2   2   2   2   2   2   2
#     4  11  20  41  75 103 129 178 241 287 341 411
#     4  10  21  44  72 101 135 184 231 292 341 415
#     4  11  23  45  73  98 142 183 231 287 350 418
#     4  11  23  47  69  99 146 186 225 290 356 414
#     4  11  26  44  72 106 138 186 233 290 349 410
#     4  11  25  46  69 101 147 181 232 287 352 414
#     4  11  25  44  71 104 137 184 237 290 344 416
#
# _framework density 22.777775999999999
#
# number of rings (size 3 to 8) (size 9 to 14) (size 15 to 20)
#    0.000    1.143    5.714    2.143    6.000    1.714 
#    7.714    1.429    0.000    0.000    0.000    0.000 
#    0.000    0.000    0.000    0.000    0.000    0.000 
#
# Total GULP energy -78325.886526 kJ/mol
# GULP energy per Si atom -5594.706180 kJ/mol
# Density = 2.272593 g / cm^3
# Si number density = 22.777776 Si / 1000 Ang^3
#
#
#
# Elastic Constant Matrix: (Units=GPa)
#
#
# Indices 1 2 3 4 5 6 
#
# 1 115.8385 60.1427 66.0860 -17.8756 -21.8032 15.1104
# 2 60.1427 132.9811 69.3706 -8.7072 -2.3954 26.2730
# 3 66.0860 69.3706 194.9576 -22.1452 -11.4057 12.9592
# 4 -17.8756 -8.7072 -22.1452 28.2584 2.3250 -4.7537
# 5 -21.8032 -2.3954 -11.4057 2.3250 56.5190 -7.8915
# 6 15.1104 26.2730 12.9592 -4.7537 -7.8915 39.0067
#
#
#
# Elastic Compliance Matrix: (Units=1/GPa)
#
#
# Indices 1 2 3 4 5 6 
#
# 1 0.014040 -0.004796 -0.002186 0.005330 0.004565 0.000091
# 2 -0.004796 0.012125 -0.002683 -0.002230 -0.002655 -0.006226
# 3 -0.002186 -0.002683 0.007201 0.003527 0.000461 0.000785
# 4 0.005330 -0.002230 0.003527 0.041321 0.001476 0.003600
# 5 0.004565 -0.002655 0.000461 0.001476 0.019944 0.004082
# 6 0.000091 -0.006226 0.000785 0.003600 0.004082 0.030799
#
#
# Mechanical properties :
#
#
# Convention : Reuss Voigt Hill
#
# Bulk Modulus (GPa) = 71.25389 92.77510 82.01450
# Shear Modulus (GPa) = 33.45863 41.30202 37.38033
#
# Velocity S-wave (km/s) = 3.83680 4.26286 4.05543
# Velocity P-wave (km/s) = 7.13990 8.06525 7.61664
#
# Compressibility (1/GPa) = 0.01403432
#
# Stress axis : x y z
#
# Youngs Moduli (GPa) = 71.22558 82.47350 138.87693
#
# Poissons Ratio (x) = 0.39555 0.30361
# Poissons Ratio (y) = 0.34161 0.37266
# Poissons Ratio (z) = 0.15571 0.22131
#
# Static dielectric constant tensor:
#      x y z
#    x 1.974040 -0.049050 -0.039850 
#    y -0.049050 1.838620 0.010070 
#    z -0.039850 0.010070 1.807790 
# 
# From -- ./inp_files/566614.got.cif
#   From: 2010.05.17/outbox.cif.g08.bks.cpg/sg2_284_cif.got.tgz:566614.got - 2010.06.03 11:33:40.
