data_PCOD9019690
_publ_section_title
;
Structure prediction by ZEFSAII (Michael W. Deem and Ramdas Pophale) SiO2 
 PCOD9019690
Probable space group: P -1
;
_chemical_formula_sum "Si O2"
_cell_formula_units_Z 16
_cell_length_a 11.023360
_cell_length_b 7.794243
_cell_length_c 12.881424
_cell_angle_alpha 79.701911
_cell_angle_beta 96.388501
_cell_angle_gamma 41.524646
_cell_volume 668.986435
_symmetry_space_group_name_H-M "P -1"
_symmetry_group_IT_number 2
_symmetry_cell_setting 'triclinic'
loop_
_space_group_symop_operation_xyz
x,y,z
-x,-y,-z
loop_
_atom_site_type_symbol
_atom_site_label
_atom_site_fract_x
_atom_site_fract_y
_atom_site_fract_z
Si Si1 0.928301 0.632448 0.362522
Si Si2 0.384501 0.710353 0.294539
Si Si3 0.824560 0.352823 0.350445
Si Si4 0.472845 0.859725 0.824628
Si Si5 0.212199 0.247714 0.185912
Si Si6 0.769221 0.850232 0.048227
Si Si7 0.142751 0.732156 0.389612
Si Si8 0.768039 0.228599 0.948328
O O1 0.881375 0.492398 0.326105
O O2 0.087290 0.605427 0.350607
O O3 0.000000 0.500000 0.500000
O O4 0.718764 0.967104 0.283389
O O5 0.598655 0.540539 0.298484
O O6 0.280729 0.758810 0.176154
O O7 0.342591 0.601510 0.382869
O O8 0.264290 0.018592 0.280721
O O9 0.851617 0.296014 0.482936
O O10 0.964310 0.072794 0.324068
O O11 0.616635 0.807829 0.770745
O O12 0.622987 0.550201 0.921322
O O13 0.381980 0.060759 0.894249
O O14 0.989926 0.561406 0.138511
O O15 0.237152 0.184660 0.070363
O O16 0.732182 0.098400 0.027053
O O17 0.000000 0.000000 0.000000
#
# Coordination Sequence:
#
# PCOD9019690 Si02
#       8
#     2   2   2   2   2   2   2   2
#     4  10  23  42  66 100 134 168 224 282 328 398
#     4  11  23  41  66  93 132 178 215 271 344 392
#     4  10  21  45  66  96 133 169 229 278 329 404
#     4  12  22  41  69  89 130 179 217 267 343 388
#     4  10  22  40  61  96 132 163 221 275 316 406
#     4  10  23  41  62  94 129 172 219 269 331 393
#     4  10  23  41  68  96 131 176 220 281 337 398
#     4  11  24  42  60  96 138 167 221 284 322 399
#
# _framework density 23.916779999999999
#
# number of rings (size 3 to 8) (size 9 to 14) (size 15 to 20)
#    0.000    1.500    2.500    1.875    3.500    0.000 
#    4.500    0.000    0.000    8.250    0.000    0.000 
#    0.000    0.000    0.000    0.000    0.000    0.000 
#
# Total GULP energy -89202.126435 kJ/mol
# GULP energy per Si atom -5575.132902 kJ/mol
# Density = 2.386234 g / cm^3
# Si number density = 23.916780 Si / 1000 Ang^3
#
#
#
# Elastic Constant Matrix: (Units=GPa)
#
#
# Indices 1 2 3 4 5 6 
#
# 1 155.6827 40.1379 25.8596 0.6881 -4.4691 -9.8878
# 2 40.1379 88.8230 19.8602 -9.1674 -3.1999 -16.7264
# 3 25.8596 19.8602 68.0336 -11.7247 8.8284 -6.0513
# 4 0.6881 -9.1674 -11.7247 25.0750 -5.0700 -2.4568
# 5 -4.4691 -3.1999 8.8284 -5.0700 41.8572 -4.8543
# 6 -9.8878 -16.7264 -6.0513 -2.4568 -4.8543 34.6603
#
#
#
# Elastic Compliance Matrix: (Units=1/GPa)
#
#
# Indices 1 2 3 4 5 6 
#
# 1 0.007683 -0.003075 -0.002513 -0.002314 0.000861 0.000226
# 2 -0.003075 0.015089 -0.001963 0.005912 0.002752 0.006866
# 3 -0.002513 -0.001963 0.018033 0.007297 -0.003157 0.001559
# 4 -0.002314 0.005912 0.007297 0.047325 0.005275 0.007560
# 5 0.000861 0.002752 -0.003157 0.005275 0.026083 0.005049
# 6 0.000226 0.006866 0.001559 0.007560 0.005049 0.033745
#
#
# Mechanical properties :
#
#
# Convention : Reuss Voigt Hill
#
# Bulk Modulus (GPa) = 38.90783 53.80607 46.35695
# Shear Modulus (GPa) = 29.13269 35.43061 32.28165
#
# Velocity S-wave (km/s) = 3.49389 3.85309 3.67788
# Velocity P-wave (km/s) = 5.70786 6.50700 6.12049
#
# Compressibility (1/GPa) = 0.02570177
#
# Stress axis : x y z
#
# Youngs Moduli (GPa) = 130.15982 66.27217 55.45405
#
# Poissons Ratio (x) = 0.20380 0.13936
# Poissons Ratio (y) = 0.40027 0.10888
# Poissons Ratio (z) = 0.32709 0.13012
#
# Static dielectric constant tensor:
#      x y z
#    x 1.983140 0.013090 -0.032240 
#    y 0.013090 1.902300 0.006130 
#    z -0.032240 0.006130 1.922450 
# 
# From -- ./inp_files/515373.got.cif
#   From: 2010.05.17/outbox.cif.g08.bks.cpg/sg2_258_cif.got.tgz:515373.got - 2010.06.03 11:33:40.
