data_PCOD9019292
_publ_section_title
;
Structure prediction by ZEFSAII (Michael W. Deem and Ramdas Pophale) SiO2 
 PCOD9019292
Probable space group: P -1
;
_chemical_formula_sum "Si O2"
_cell_formula_units_Z 12
_cell_length_a 7.454698
_cell_length_b 19.087061
_cell_length_c 5.125853
_cell_angle_alpha 71.473239
_cell_angle_beta 100.280544
_cell_angle_gamma 52.324110
_cell_volume 475.090279
_symmetry_space_group_name_H-M "P -1"
_symmetry_group_IT_number 2
_symmetry_cell_setting 'triclinic'
loop_
_space_group_symop_operation_xyz
x,y,z
-x,-y,-z
loop_
_atom_site_type_symbol
_atom_site_label
_atom_site_fract_x
_atom_site_fract_y
_atom_site_fract_z
Si Si1 0.338713 0.123025 0.357215
Si Si2 0.513163 0.583192 0.414022
Si Si3 0.994948 0.734519 0.404018
Si Si4 0.534343 0.284107 0.123569
Si Si5 0.845466 0.070535 0.626217
Si Si6 0.778308 0.641254 0.540091
O O1 0.192019 0.187459 0.977581
O O2 0.564363 0.114857 0.498561
O O3 0.500000 0.000000 0.500000
O O4 0.135008 0.191740 0.460576
O O5 0.500000 0.500000 0.500000
O O6 0.282699 0.672213 0.448452
O O7 0.779401 0.551495 0.589828
O O8 0.444685 0.637299 0.051157
O O9 0.214135 0.826720 0.557358
O O10 0.983086 0.647616 0.541708
O O11 0.308647 0.333635 0.213344
O O12 0.452180 0.272625 0.833654
O O13 0.000000 0.000000 0.500000
O O14 0.000000 0.000000 0.000000
#
# Coordination Sequence:
#
# PCOD9019292 Si02
#       6
#     2   2   2   2   2   2
#     4  12  27  46  67 110 145 189 250 297 366 439
#     4  10  27  46  75 110 141 190 252 301 371 435
#     4  12  24  48  73 100 152 194 233 312 363 432
#     4  10  22  45  66  98 142 179 237 294 351 432
#     4  12  24  41  73  99 140 194 239 290 363 435
#     4  10  21  44  70  94 141 185 236 289 362 430
#
# _framework density 25.258357
#
# number of rings (size 3 to 8) (size 9 to 14) (size 15 to 20)
#    1.000    0.000    3.333    2.500    4.667    1.333 
#    0.000    0.833    0.000    0.000    0.000    0.000 
#    0.000    0.000    0.000    0.000    0.000    0.000 
#
# Total GULP energy -67026.133766 kJ/mol
# GULP energy per Si atom -5585.511147 kJ/mol
# Density = 2.520087 g / cm^3
# Si number density = 25.258357 Si / 1000 Ang^3
#
#
#
# Elastic Constant Matrix: (Units=GPa)
#
#
# Indices 1 2 3 4 5 6 
#
# 1 146.6678 24.6093 48.3134 -0.9077 -18.5600 20.9002
# 2 24.6093 140.0227 48.6974 -10.7658 -11.0321 22.1560
# 3 48.3134 48.6974 159.8253 -10.8486 -48.6982 -9.7135
# 4 -0.9077 -10.7658 -10.8486 33.5024 2.0226 -5.4110
# 5 -18.5600 -11.0321 -48.6982 2.0226 42.2697 -0.0403
# 6 20.9002 22.1560 -9.7135 -5.4110 -0.0403 44.6954
#
#
#
# Elastic Compliance Matrix: (Units=1/GPa)
#
#
# Indices 1 2 3 4 5 6 
#
# 1 0.008476 0.000202 -0.002846 -0.001445 0.000559 -0.004856
# 2 0.000202 0.009150 -0.003642 0.001017 -0.001773 -0.005300
# 3 -0.002846 -0.003642 0.012483 0.003074 0.012040 0.006233
# 4 -0.001445 0.001017 0.003074 0.031789 0.001656 0.004690
# 5 0.000559 -0.001773 0.012040 0.001656 0.037235 0.003468
# 6 -0.004856 -0.005300 0.006233 0.004690 0.003468 0.029197
#
#
# Mechanical properties :
#
#
# Convention : Reuss Voigt Hill
#
# Bulk Modulus (GPa) = 57.02907 76.63956 66.83431
# Shear Modulus (GPa) = 34.07149 45.75320 39.91235
#
# Velocity S-wave (km/s) = 3.67675 4.26068 3.97944
# Velocity P-wave (km/s) = 6.37589 7.39004 6.90162
#
# Compressibility (1/GPa) = 0.01753492
#
# Stress axis : x y z
#
# Youngs Moduli (GPa) = 117.98285 109.28789 80.10879
#
# Poissons Ratio (x) = -0.02204 0.22802
# Poissons Ratio (y) = -0.02379 0.29178
# Poissons Ratio (z) = 0.33582 0.39806
#
# Static dielectric constant tensor:
#      x y z
#    x 2.176930 0.229980 0.076440 
#    y 0.229980 2.362610 0.064930 
#    z 0.076440 0.064930 1.987680 
# 
# From -- ./inp_files/6615.got.cif
#   From: 2010.05.17/outbox.cif.g08.bks.cpg/sg2_4_cif.got.tgz:6615.got - 2010.06.03 11:33:40.
