data_PCOD9019019
_publ_section_title
;
Structure prediction by ZEFSAII (Michael W. Deem and Ramdas Pophale) SiO2 
 PCOD9019019
Probable space group: P -1
;
_chemical_formula_sum "Si O2"
_cell_formula_units_Z 16
_cell_length_a 15.683742
_cell_length_b 21.111670
_cell_length_c 6.778247
_cell_angle_alpha 100.336388
_cell_angle_beta 112.879725
_cell_angle_gamma 22.103076
_cell_volume 663.856979
_symmetry_space_group_name_H-M "P -1"
_symmetry_group_IT_number 2
_symmetry_cell_setting 'triclinic'
loop_
_space_group_symop_operation_xyz
x,y,z
-x,-y,-z
loop_
_atom_site_type_symbol
_atom_site_label
_atom_site_fract_x
_atom_site_fract_y
_atom_site_fract_z
Si Si1 0.862792 0.306492 0.244891
Si Si2 0.163831 0.324152 0.542246
Si Si3 0.644648 0.972578 0.057372
Si Si4 0.450815 0.567305 0.697317
Si Si5 0.465570 0.900835 0.563300
Si Si6 0.799524 0.146490 0.214385
Si Si7 0.188450 0.550388 0.460920
Si Si8 0.691527 0.138492 0.737042
O O1 0.838344 0.270241 0.376630
O O2 0.698904 0.472899 0.290110
O O3 0.713794 0.374308 0.962634
O O4 0.171277 0.130499 0.377883
O O5 0.246440 0.258672 0.351263
O O6 0.000000 0.500000 0.500000
O O7 0.986661 0.388699 0.541902
O O8 0.481987 0.108855 0.800775
O O9 0.552715 0.082372 0.208788
O O10 0.976663 0.731864 0.232493
O O11 0.500000 0.000000 0.000000
O O12 0.500000 0.500000 0.500000
O O13 0.429803 0.656736 0.773541
O O14 0.413482 0.864395 0.406767
O O15 0.690957 0.159061 0.981799
O O16 0.000000 0.000000 0.500000
O O17 0.999826 0.051911 0.182730
O O18 0.469368 0.329557 0.523589
#
# Coordination Sequence:
#
# PCOD9019019 Si02
#       8
#     2   2   2   2   2   2   2   2
#     4  10  23  42  63  90 132 171 221 269 336 391
#     4  11  23  43  69 100 135 170 223 278 336 403
#     4   9  23  43  64  95 134 171 228 274 327 398
#     4  11  24  40  65  95 128 171 224 272 331 403
#     4  11  23  42  70  94 132 182 219 277 340 396
#     4  11  26  42  66 101 135 176 225 278 345 401
#     4  10  21  44  67  95 132 180 221 275 335 395
#     4  11  23  45  67  95 145 173 217 288 337 401
#
# _framework density 24.101576999999999
#
# number of rings (size 3 to 8) (size 9 to 14) (size 15 to 20)
#    0.000    1.500    3.750    0.000    3.500    8.000 
#    0.000    1.250    0.000    0.000    0.000    0.000 
#    0.000    0.000    0.000    0.000    0.000    0.000 
#
# Total GULP energy -89091.464521 kJ/mol
# GULP energy per Si atom -5568.216533 kJ/mol
# Density = 2.404672 g / cm^3
# Si number density = 24.101577 Si / 1000 Ang^3
#
#
#
# Elastic Constant Matrix: (Units=GPa)
#
#
# Indices 1 2 3 4 5 6 
#
# 1 58.2517 9.5810 8.5065 10.8006 1.1764 15.7732
# 2 9.5810 101.4770 12.4701 9.4896 -9.3594 14.0164
# 3 8.5065 12.4701 87.7286 12.1857 -4.4430 17.8881
# 4 10.8006 9.4896 12.1857 41.5183 8.3377 3.2782
# 5 1.1764 -9.3594 -4.4430 8.3377 29.4014 0.7257
# 6 15.7732 14.0164 17.8881 3.2782 0.7257 47.4487
#
#
#
# Elastic Compliance Matrix: (Units=1/GPa)
#
#
# Indices 1 2 3 4 5 6 
#
# 1 0.019756 -0.000546 0.000084 -0.004661 0.000521 -0.006124
# 2 -0.000546 0.011013 -0.000307 -0.002943 0.004386 -0.002820
# 3 0.000084 -0.000307 0.013105 -0.004063 0.003146 -0.004646
# 4 -0.004661 -0.002943 -0.004063 0.028930 -0.009620 0.002099
# 5 0.000521 0.004386 0.003146 -0.009620 0.038654 -0.002582
# 6 -0.006124 -0.002820 -0.004646 0.002099 -0.002582 0.025590
#
#
# Mechanical properties :
#
#
# Convention : Reuss Voigt Hill
#
# Bulk Modulus (GPa) = 23.61935 34.28584 28.95260
# Shear Modulus (GPa) = 32.74456 38.13366 35.43911
#
# Velocity S-wave (km/s) = 3.68993 3.98201 3.83875
# Velocity P-wave (km/s) = 5.28917 5.94965 5.62910
#
# Compressibility (1/GPa) = 0.04233816
#
# Stress axis : x y z
#
# Youngs Moduli (GPa) = 50.61705 90.80277 76.30584
#
# Poissons Ratio (x) = 0.04957 -0.00644
# Poissons Ratio (y) = 0.02763 0.02339
# Poissons Ratio (z) = -0.00427 0.02784
#
# Static dielectric constant tensor:
#      x y z
#    x 2.013810 -0.024600 -0.021670 
#    y -0.024600 1.997280 -0.024600 
#    z -0.021670 -0.024600 2.004230 
# 
# From -- ./inp_files/112936.got.cif
#   From: 2010.05.17/outbox.cif.g08.bks.cpg/sg2_57_cif.got.tgz:112936.got - 2010.06.03 11:33:40.
