data_PCOD9019334
_publ_section_title
;
Structure prediction by ZEFSAII (Michael W. Deem and Ramdas Pophale) SiO2 
 PCOD9019334
Probable space group: P -1
;
_chemical_formula_sum "Si O2"
_cell_formula_units_Z 14
_cell_length_a 8.880661
_cell_length_b 8.795576
_cell_length_c 11.093178
_cell_angle_alpha 65.383708
_cell_angle_beta 62.406581
_cell_angle_gamma 55.679231
_cell_volume 619.779084
_symmetry_space_group_name_H-M "P -1"
_symmetry_group_IT_number 2
_symmetry_cell_setting 'triclinic'
loop_
_space_group_symop_operation_xyz
x,y,z
-x,-y,-z
loop_
_atom_site_type_symbol
_atom_site_label
_atom_site_fract_x
_atom_site_fract_y
_atom_site_fract_z
Si Si1 0.679844 0.724396 0.742856
Si Si2 0.872539 0.968419 0.956854
Si Si3 0.679186 0.348258 0.767857
Si Si4 0.051436 0.279787 0.553296
Si Si5 0.983176 0.644955 0.852646
Si Si6 0.316186 0.101372 0.740794
Si Si7 0.616000 0.567978 0.346263
O O1 0.691644 0.522871 0.770605
O O2 0.800001 0.791307 0.586708
O O3 0.782256 0.705792 0.838620
O O4 0.463486 0.882721 0.754220
O O5 0.983152 0.827016 0.855028
O O6 0.727795 0.172320 0.893724
O O7 0.771412 0.868804 0.103303
O O8 0.000000 0.000000 0.000000
O O9 0.480337 0.412298 0.754531
O O10 0.850164 0.276095 0.628502
O O11 0.157236 0.174632 0.671323
O O12 0.000000 0.500000 0.500000
O O13 0.156325 0.554500 0.720983
O O14 0.000000 0.500000 0.000000
O O15 0.417983 0.233070 0.652720
O O16 0.500000 0.500000 0.500000
#
# Coordination Sequence:
#
# PCOD9019334 Si02
#       7
#     2   2   2   2   2   2   2
#     4  11  25  44  72 103 141 189 238 292 360 424
#     4  12  26  46  72 102 143 188 244 292 353 431
#     4  11  24  42  70 104 141 185 238 292 351 422
#     4  10  21  44  70  99 140 186 232 293 355 417
#     4  12  26  47  72 101 145 192 235 293 361 416
#     4  12  25  45  72 102 146 188 236 296 356 425
#     4  12  26  46  72 108 143 186 244 295 354 425
#
# _framework density 22.588694
#
# number of rings (size 3 to 8) (size 9 to 14) (size 15 to 20)
#    0.000    0.571    2.857    6.429    4.000    2.857 
#    0.000    2.857    0.000    0.000    0.000    0.000 
#    0.000    0.000    0.000    0.000    0.000    0.000 
#
# Total GULP energy -78271.591478 kJ/mol
# GULP energy per Si atom -5590.827963 kJ/mol
# Density = 2.253728 g / cm^3
# Si number density = 22.588694 Si / 1000 Ang^3
#
#
#
# Elastic Constant Matrix: (Units=GPa)
#
#
# Indices 1 2 3 4 5 6 
#
# 1 79.3609 22.1053 -18.7488 -14.0957 14.1717 -8.8976
# 2 22.1053 117.5063 23.6934 -12.3115 13.4989 -4.1246
# 3 -18.7488 23.6934 75.4137 -16.9851 -0.3701 -13.6468
# 4 -14.0957 -12.3115 -16.9851 32.9737 0.3779 2.1870
# 5 14.1717 13.4989 -0.3701 0.3779 36.8257 -6.6292
# 6 -8.8976 -4.1246 -13.6468 2.1870 -6.6292 39.5841
#
#
#
# Elastic Compliance Matrix: (Units=1/GPa)
#
#
# Indices 1 2 3 4 5 6 
#
# 1 0.019521 -0.003597 0.009633 0.011637 -0.005168 0.005826
# 2 -0.003597 0.010358 -0.004432 0.000193 -0.002771 -0.001732
# 3 0.009633 -0.004432 0.021471 0.012978 -0.000505 0.008304
# 4 0.011637 0.000193 0.012978 0.041834 -0.004108 0.004111
# 5 -0.005168 -0.002771 -0.000505 -0.004108 0.030876 0.003773
# 6 0.005826 -0.001732 0.008304 0.004111 0.003773 0.029659
#
#
# Mechanical properties :
#
#
# Convention : Reuss Voigt Hill
#
# Bulk Modulus (GPa) = 18.32909 36.26451 27.29680
# Shear Modulus (GPa) = 29.63875 38.22543 33.93209
#
# Velocity S-wave (km/s) = 3.62623 4.11814 3.87999
# Velocity P-wave (km/s) = 5.06602 6.22103 5.67300
#
# Compressibility (1/GPa) = 0.05455809
#
# Stress axis : x y z
#
# Youngs Moduli (GPa) = 51.22580 96.54004 46.57458
#
# Poissons Ratio (x) = 0.34729 -0.44867
# Poissons Ratio (y) = 0.18428 0.20643
# Poissons Ratio (z) = -0.49348 0.42789
#
# Static dielectric constant tensor:
#      x y z
#    x 1.825980 -0.034610 -0.034250 
#    y -0.034610 1.837200 0.050980 
#    z -0.034250 0.050980 1.905620 
# 
# From -- ./inp_files/222820.got.cif
#   From: 2010.05.17/outbox.cif.g08.bks.cpg/sg2_112_cif.got.tgz:222820.got - 2010.06.03 11:33:40.
