data_PCOD9019124
_publ_section_title
;
Structure prediction by ZEFSAII (Michael W. Deem and Ramdas Pophale) SiO2 
 PCOD9019124
Probable space group: P -1
;
_chemical_formula_sum "Si O2"
_cell_formula_units_Z 14
_cell_length_a 18.238531
_cell_length_b 9.652192
_cell_length_c 8.853799
_cell_angle_alpha 100.613158
_cell_angle_beta 53.867925
_cell_angle_gamma 54.541617
_cell_volume 615.344784
_symmetry_space_group_name_H-M "P -1"
_symmetry_group_IT_number 2
_symmetry_cell_setting 'triclinic'
loop_
_space_group_symop_operation_xyz
x,y,z
-x,-y,-z
loop_
_atom_site_type_symbol
_atom_site_label
_atom_site_fract_x
_atom_site_fract_y
_atom_site_fract_z
Si Si1 0.521092 0.471795 0.791100
Si Si2 0.696707 0.169136 0.240008
Si Si3 0.208815 0.362427 0.339128
Si Si4 0.682369 0.684323 0.287706
Si Si5 0.406719 0.300938 0.270543
Si Si6 0.867701 0.655891 0.892711
Si Si7 0.169362 0.801677 0.141227
O O1 0.678866 0.179296 0.445252
O O2 0.572017 0.562992 0.708255
O O3 0.500000 0.500000 0.000000
O O4 0.327021 0.671733 0.014216
O O5 0.500000 0.500000 0.500000
O O6 0.845707 0.071630 0.961440
O O7 0.719878 0.979583 0.114347
O O8 0.266844 0.439075 0.338183
O O9 0.144664 0.427470 0.257072
O O10 0.051625 0.496347 0.648881
O O11 0.393057 0.026944 0.074567
O O12 0.653313 0.687469 0.497185
O O13 0.500000 0.000000 0.500000
O O14 0.830623 0.606195 0.067328
O O15 0.747884 0.455904 0.074718
O O16 0.000000 0.000000 0.500000
#
# Coordination Sequence:
#
# PCOD9019124 Si02
#       7
#     2   2   2   2   2   2   2
#     4  11  25  44  69  95 135 180 230 275 344 411
#     4  10  21  44  68  96 136 182 225 276 342 411
#     4  10  24  41  68  98 138 172 228 286 345 399
#     4  12  24  42  71 102 136 183 234 278 348 421
#     4  11  24  45  66  99 138 182 223 287 349 409
#     4  11  24  41  71 102 132 178 236 282 334 417
#     4  11  26  42  69 100 137 181 230 283 343 407
#
# _framework density 22.751470999999999
#
# number of rings (size 3 to 8) (size 9 to 14) (size 15 to 20)
#    0.000    1.143    2.857    3.429    8.000    2.857 
#    2.571    1.429    0.000    0.000    0.000    0.000 
#    0.000    0.000    0.000    0.000    0.000    0.000 
#
# Total GULP energy -78185.256072 kJ/mol
# GULP energy per Si atom -5584.661148 kJ/mol
# Density = 2.269969 g / cm^3
# Si number density = 22.751471 Si / 1000 Ang^3
#
#
#
# Elastic Constant Matrix: (Units=GPa)
#
#
# Indices 1 2 3 4 5 6 
#
# 1 113.9311 26.9840 47.0300 1.2302 -5.5396 24.1356
# 2 26.9840 75.7828 39.5692 -30.5843 0.9855 22.1399
# 3 47.0300 39.5692 129.3492 -29.7915 -5.8851 2.1308
# 4 1.2302 -30.5843 -29.7915 37.3487 3.5539 -0.9506
# 5 -5.5396 0.9855 -5.8851 3.5539 37.8348 -8.0139
# 6 24.1356 22.1399 2.1308 -0.9506 -8.0139 35.3353
#
#
#
# Elastic Compliance Matrix: (Units=1/GPa)
#
#
# Indices 1 2 3 4 5 6 
#
# 1 0.013337 -0.002671 -0.005578 -0.007289 0.000309 -0.007226
# 2 -0.002671 0.030331 -0.003129 0.022695 -0.007636 -0.018112
# 3 -0.005578 -0.003129 0.012433 0.007521 0.001679 0.005604
# 4 -0.007289 0.022695 0.007521 0.052057 -0.007495 -0.009994
# 5 0.000309 -0.007636 0.001679 -0.007495 0.029985 0.011071
# 6 -0.007226 -0.018112 0.005604 -0.009994 0.011071 0.046488
#
#
# Mechanical properties :
#
#
# Convention : Reuss Voigt Hill
#
# Bulk Modulus (GPa) = 29.99081 60.69214 45.34147
# Shear Modulus (GPa) = 22.88316 35.80243 29.34279
#
# Velocity S-wave (km/s) = 3.17486 3.97121 3.59515
# Velocity P-wave (km/s) = 5.16238 6.91096 6.09965
#
# Compressibility (1/GPa) = 0.03334355
#
# Stress axis : x y z
#
# Youngs Moduli (GPa) = 74.98074 32.97005 80.43399
#
# Poissons Ratio (x) = 0.08807 0.44863
# Poissons Ratio (y) = 0.20030 0.25169
# Poissons Ratio (z) = 0.41822 0.10317
#
# Static dielectric constant tensor:
#      x y z
#    x 1.578680 0.046160 -0.040570 
#    y 0.046160 1.864570 0.007020 
#    z -0.040570 0.007020 1.891510 
# 
# From -- ./inp_files/329128.got.cif
#   From: 2010.05.17/outbox.cif.g08.bks.cpg/sg2_165_cif.got.tgz:329128.got - 2010.06.03 11:33:40.
