data_PCOD9019278
_publ_section_title
;
Structure prediction by ZEFSAII (Michael W. Deem and Ramdas Pophale) SiO2 
 PCOD9019278
Probable space group: P -1
;
_chemical_formula_sum "Si O2"
_cell_formula_units_Z 14
_cell_length_a 11.856777
_cell_length_b 9.320116
_cell_length_c 9.264191
_cell_angle_alpha 115.843787
_cell_angle_beta 106.715722
_cell_angle_gamma 125.320749
_cell_volume 509.833570
_symmetry_space_group_name_H-M "P -1"
_symmetry_group_IT_number 2
_symmetry_cell_setting 'triclinic'
loop_
_space_group_symop_operation_xyz
x,y,z
-x,-y,-z
loop_
_atom_site_type_symbol
_atom_site_label
_atom_site_fract_x
_atom_site_fract_y
_atom_site_fract_z
Si Si1 0.384918 0.353186 0.630180
Si Si2 0.192809 0.101825 0.137978
Si Si3 0.262991 0.979977 0.664644
Si Si4 0.612898 0.220169 0.465992
Si Si5 0.811353 0.549201 0.262984
Si Si6 0.350388 0.991901 0.017320
Si Si7 0.186034 0.579970 0.100216
O O1 0.253726 0.165802 0.357025
O O2 0.610158 0.626995 0.766059
O O3 0.377612 0.208070 0.685721
O O4 0.281673 0.388832 0.688982
O O5 0.171823 0.896515 0.984783
O O6 0.000000 0.000000 0.000000
O O7 0.258406 0.793896 0.528738
O O8 0.367052 0.079071 0.901118
O O9 0.036226 0.790636 0.518262
O O10 0.388303 0.912114 0.295074
O O11 0.742708 0.435721 0.737340
O O12 0.293113 0.741613 0.875281
O O13 0.547436 0.235943 0.302193
O O14 0.837230 0.565482 0.106017
O O15 0.000000 0.500000 0.000000
#
# Coordination Sequence:
#
# PCOD9019278 Si02
#       7
#     2   2   2   2   2   2   2
#     4  11  29  54  82 119 165 215 274 338 413 492
#     4  11  28  59  83 112 165 221 271 338 421 490
#     4  12  25  49  80 123 167 212 268 336 409 493
#     4  10  24  43  73 116 160 209 266 331 399 474
#     4  11  25  49  86 123 163 216 277 342 406 482
#     4  11  27  50  82 118 163 215 276 337 404 480
#     4  10  21  44  70 115 158 205 266 333 395 468
#
# _framework density 27.459942999999999
#
# number of rings (size 3 to 8) (size 9 to 14) (size 15 to 20)
#    0.000    1.143    1.429    2.143   12.000    0.571 
#   12.857    0.000    0.000    0.000    0.000    0.000 
#    0.000    0.000    0.000    0.000    0.000    0.000 
#
# Total GULP energy -78475.182842 kJ/mol
# GULP energy per Si atom -5605.370203 kJ/mol
# Density = 2.739744 g / cm^3
# Si number density = 27.459943 Si / 1000 Ang^3
#
#
#
# Elastic Constant Matrix: (Units=GPa)
#
#
# Indices 1 2 3 4 5 6 
#
# 1 247.6850 45.7790 71.7502 -27.5433 -7.7943 5.2025
# 2 45.7790 136.8507 78.1667 -36.0655 4.7924 -11.0372
# 3 71.7502 78.1667 145.9245 -56.3667 4.8990 -3.5863
# 4 -27.5433 -36.0655 -56.3667 47.6238 11.2933 6.0316
# 5 -7.7943 4.7924 4.8990 11.2933 53.3788 -5.0817
# 6 5.2025 -11.0372 -3.5863 6.0316 -5.0817 32.0604
#
#
#
# Elastic Compliance Matrix: (Units=1/GPa)
#
#
# Indices 1 2 3 4 5 6 
#
# 1 0.004805 -0.000516 -0.002323 -0.000467 0.000967 -0.000976
# 2 -0.000516 0.011006 -0.004590 0.002469 -0.000903 0.002752
# 3 -0.002323 -0.004590 0.017250 0.017334 -0.005502 -0.003407
# 4 -0.000467 0.002469 0.017334 0.047117 -0.012611 -0.007998
# 5 0.000967 -0.000903 -0.005502 -0.012611 0.022593 0.004870
# 6 -0.000976 0.002752 -0.003407 -0.007998 0.004870 0.034192
#
#
# Mechanical properties :
#
#
# Convention : Reuss Voigt Hill
#
# Bulk Modulus (GPa) = 54.93608 102.42800 78.68204
# Shear Modulus (GPa) = 31.66789 48.93022 40.29905
#
# Velocity S-wave (km/s) = 3.39962 4.22581 3.83503
# Velocity P-wave (km/s) = 5.95477 7.82252 6.95166
#
# Compressibility (1/GPa) = 0.01820297
#
# Stress axis : x y z
#
# Youngs Moduli (GPa) = 208.13156 90.86068 57.97036
#
# Poissons Ratio (x) = 0.04690 0.13465
# Poissons Ratio (y) = 0.10743 0.26608
# Poissons Ratio (z) = 0.48344 0.41705
#
# Static dielectric constant tensor:
#      x y z
#    x 2.155810 0.020930 -0.037730 
#    y 0.020930 2.329440 -0.026160 
#    z -0.037730 -0.026160 2.133740 
# 
# From -- ./inp_files/308120.got.cif
#   From: 2010.05.17/outbox.cif.g08.bks.cpg/sg2_155_cif.got.tgz:308120.got - 2010.06.03 11:33:40.
