data_PCOD9019249
_publ_section_title
;
Structure prediction by ZEFSAII (Michael W. Deem and Ramdas Pophale) SiO2 
 PCOD9019249
Probable space group: P -1
;
_chemical_formula_sum "Si O2"
_cell_formula_units_Z 16
_cell_length_a 16.685014
_cell_length_b 9.270748
_cell_length_c 5.235696
_cell_angle_alpha 107.426826
_cell_angle_beta 90.691386
_cell_angle_gamma 121.464768
_cell_volume 644.817910
_symmetry_space_group_name_H-M "P -1"
_symmetry_group_IT_number 2
_symmetry_cell_setting 'triclinic'
loop_
_space_group_symop_operation_xyz
x,y,z
-x,-y,-z
loop_
_atom_site_type_symbol
_atom_site_label
_atom_site_fract_x
_atom_site_fract_y
_atom_site_fract_z
Si Si1 0.764472 0.262858 0.316881
Si Si2 0.562801 0.169618 0.409813
Si Si3 0.639953 0.543295 0.901589
Si Si4 0.057969 0.453977 0.177513
Si Si5 0.094048 0.044554 0.369423
Si Si6 0.113595 0.880852 0.774262
Si Si7 0.477724 0.338650 0.217497
Si Si8 0.177680 0.390421 0.802404
O O1 0.653436 0.162902 0.328920
O O2 0.843043 0.381179 0.607812
O O3 0.799901 0.138777 0.154108
O O4 0.780572 0.408633 0.184894
O O5 0.614576 0.376745 0.626787
O O6 0.486969 0.176426 0.224789
O O7 0.500000 0.000000 0.500000
O O8 0.623420 0.699998 0.903143
O O9 0.561011 0.437971 0.063803
O O10 0.745192 0.622378 0.044205
O O11 0.984094 0.321899 0.322895
O O12 0.088442 0.341965 0.948548
O O13 0.000000 0.500000 0.000000
O O14 0.154685 0.261870 0.492961
O O15 0.132580 0.963267 0.535621
O O16 0.000000 0.000000 0.500000
O O17 0.095483 0.983215 0.051875
O O18 0.500000 0.500000 0.500000
#
# Coordination Sequence:
#
# PCOD9019249 Si02
#       8
#     2   2   2   2   2   2   2   2
#     4  12  26  46  74 109 145 197 260 302 371 472
#     4  11  24  45  73 106 145 190 242 319 383 444
#     4  10  21  44  70 101 135 184 246 301 367 450
#     4  12  24  44  76 107 148 201 252 303 365 448
#     4  12  27  47  71 108 154 199 247 310 382 436
#     4  12  27  48  70 111 158 199 244 318 377 443
#     4   9  20  43  70  97 135 177 235 301 370 442
#     4  12  25  43  77 104 140 200 255 302 364 460
#
# _framework density 24.813206000000001
#
# number of rings (size 3 to 8) (size 9 to 14) (size 15 to 20)
#    0.000    0.750    5.000    2.250    1.750    0.500 
#    6.750    1.250    0.000    0.000    0.000    0.000 
#    0.000    0.000    0.000    0.000    0.000    0.000 
#
# Total GULP energy -89437.786369 kJ/mol
# GULP energy per Si atom -5589.861648 kJ/mol
# Density = 2.475673 g / cm^3
# Si number density = 24.813206 Si / 1000 Ang^3
#
#
#
# Elastic Constant Matrix: (Units=GPa)
#
#
# Indices 1 2 3 4 5 6 
#
# 1 201.7532 45.7188 18.9999 -6.9138 3.8703 -37.2662
# 2 45.7188 85.6116 -5.0112 -15.0053 8.6692 -10.4767
# 3 18.9999 -5.0112 71.1790 10.2276 -1.9146 -3.3267
# 4 -6.9138 -15.0053 10.2276 43.7209 -10.6310 5.7190
# 5 3.8703 8.6692 -1.9146 -10.6310 31.5587 -7.9318
# 6 -37.2662 -10.4767 -3.3267 5.7190 -7.9318 30.0032
#
#
#
# Elastic Compliance Matrix: (Units=1/GPa)
#
#
# Indices 1 2 3 4 5 6 
#
# 1 0.007350 -0.003228 -0.001723 -0.000167 0.001924 0.008352
# 2 -0.003228 0.014319 0.001289 0.003564 -0.002297 -0.000154
# 3 -0.001723 0.001289 0.015124 -0.003508 -0.000259 0.000587
# 4 -0.000167 0.003564 -0.003508 0.026995 0.007275 -0.002575
# 5 0.001924 -0.002297 -0.000259 0.007275 0.037020 0.009958
# 6 0.008352 -0.000154 0.000587 -0.002575 0.009958 0.046838
#
#
# Mechanical properties :
#
#
# Convention : Reuss Voigt Hill
#
# Bulk Modulus (GPa) = 33.93534 53.10655 43.52094
# Shear Modulus (GPa) = 30.34072 40.97898 35.65985
#
# Velocity S-wave (km/s) = 3.50060 4.06827 3.79506
# Velocity P-wave (km/s) = 5.48133 6.59673 6.06472
#
# Compressibility (1/GPa) = 0.02946780
#
# Stress axis : x y z
#
# Youngs Moduli (GPa) = 136.04641 69.83967 66.11877
#
# Poissons Ratio (x) = 0.22546 0.11394
# Poissons Ratio (y) = 0.43919 -0.08521
# Poissons Ratio (z) = 0.23444 -0.09000
#
# Static dielectric constant tensor:
#      x y z
#    x 2.088610 0.003070 0.121860 
#    y 0.003070 1.951520 0.022080 
#    z 0.121860 0.022080 2.084760 
# 
# From -- ./inp_files/90747.got.cif
#   From: 2010.05.17/outbox.cif.g08.bks.cpg/sg2_46_cif.got.tgz:90747.got - 2010.06.03 11:33:40.
