data_PCOD9019158
_publ_section_title
;
Structure prediction by ZEFSAII (Michael W. Deem and Ramdas Pophale) SiO2 
 PCOD9019158
Probable space group: P -1
;
_chemical_formula_sum "Si O2"
_cell_formula_units_Z 14
_cell_length_a 23.126209
_cell_length_b 8.585492
_cell_length_c 4.895769
_cell_angle_alpha 120.596821
_cell_angle_beta 68.235941
_cell_angle_gamma 138.341138
_cell_volume 556.083315
_symmetry_space_group_name_H-M "P -1"
_symmetry_group_IT_number 2
_symmetry_cell_setting 'triclinic'
loop_
_space_group_symop_operation_xyz
x,y,z
-x,-y,-z
loop_
_atom_site_type_symbol
_atom_site_label
_atom_site_fract_x
_atom_site_fract_y
_atom_site_fract_z
Si Si1 0.901870 0.274054 0.226249
Si Si2 0.647372 0.438989 0.316075
Si Si3 0.220414 0.995975 0.320720
Si Si4 0.608316 0.057798 0.428422
Si Si5 0.511314 0.718921 0.803882
Si Si6 0.042620 0.280062 0.103112
Si Si7 0.764495 0.361232 0.075045
O O1 0.844736 0.072217 0.391119
O O2 0.932631 0.532314 0.520667
O O3 0.979510 0.288503 0.054446
O O4 0.838434 0.154791 0.975262
O O5 0.583137 0.382634 0.150952
O O6 0.720894 0.448043 0.094021
O O7 0.700689 0.709982 0.597771
O O8 0.594253 0.220838 0.443813
O O9 0.255298 0.870842 0.236366
O O10 0.573533 0.957752 0.701020
O O11 0.711352 0.241201 0.347071
O O12 0.555225 0.812659 0.105473
O O13 0.500000 0.500000 0.500000
O O14 0.132093 0.414875 0.910696
O O15 0.000000 0.000000 0.000000
#
# Coordination Sequence:
#
# PCOD9019158 Si02
#       7
#     2   2   2   2   2   2   2
#     4  10  25  41  70  96 141 175 232 279 336 409
#     4  10  24  44  72 100 140 182 228 284 341 404
#     4  11  23  46  64 103 135 185 222 282 343 402
#     4  10  25  44  66 101 138 176 229 283 335 410
#     4  12  24  45  73 101 137 182 227 281 344 406
#     4  10  21  44  69 100 135 181 230 282 343 400
#     4   9  23  42  67  99 138 176 229 283 338 408
#
# _framework density 25.176085
#
# number of rings (size 3 to 8) (size 9 to 14) (size 15 to 20)
#    0.857    0.857    0.000    3.000    0.000   12.000 
#    0.000    4.286    0.000    0.000    0.000    0.000 
#    0.000    0.000    0.000    0.000    0.000    0.000 
#
# Total GULP energy -78310.852460 kJ/mol
# GULP energy per Si atom -5593.632319 kJ/mol
# Density = 2.511878 g / cm^3
# Si number density = 25.176085 Si / 1000 Ang^3
#
#
#
# Elastic Constant Matrix: (Units=GPa)
#
#
# Indices 1 2 3 4 5 6 
#
# 1 149.0728 30.5559 48.6863 7.1669 -15.2901 19.6063
# 2 30.5559 118.6581 36.7376 33.5725 -0.8059 5.8006
# 3 48.6863 36.7376 85.7230 1.9062 12.3177 -0.0492
# 4 7.1669 33.5725 1.9062 49.1206 -7.5318 -14.1521
# 5 -15.2901 -0.8059 12.3177 -7.5318 42.5016 1.3411
# 6 19.6063 5.8006 -0.0492 -14.1521 1.3411 35.4632
#
#
#
# Elastic Compliance Matrix: (Units=1/GPa)
#
#
# Indices 1 2 3 4 5 6 
#
# 1 0.010539 0.000716 -0.007025 -0.003029 0.005537 -0.007372
# 2 0.000716 0.013632 -0.006081 -0.011151 0.000526 -0.007104
# 3 -0.007025 -0.006081 0.019221 0.005403 -0.007487 0.007344
# 4 -0.003029 -0.011151 0.005403 0.033425 0.002528 0.016750
# 5 0.005537 0.000526 -0.007487 0.002528 0.028250 -0.003217
# 6 -0.007372 -0.007104 0.007344 0.016750 -0.003217 0.040252
#
#
# Mechanical properties :
#
#
# Convention : Reuss Voigt Hill
#
# Bulk Modulus (GPa) = 53.72542 65.04592 59.38567
# Shear Modulus (GPa) = 28.36062 41.24869 34.80466
#
# Velocity S-wave (km/s) = 3.35996 4.05212 3.72216
# Velocity P-wave (km/s) = 6.03645 6.91269 6.48938
#
# Compressibility (1/GPa) = 0.01861316
#
# Stress axis : x y z
#
# Youngs Moduli (GPa) = 94.88909 73.35833 52.02635
#
# Poissons Ratio (x) = -0.05254 0.36547
# Poissons Ratio (y) = -0.06796 0.31635
# Poissons Ratio (z) = 0.66657 0.44606
#
# Static dielectric constant tensor:
#      x y z
#    x 2.071670 0.022550 -0.043890 
#    y 0.022550 2.003800 -0.012510 
#    z -0.043890 -0.012510 2.001150 
# 
# From -- ./inp_files/126197.got.cif
#   From: 2010.05.17/outbox.cif.g08.bks.cpg/sg2_64_cif.got.tgz:126197.got - 2010.06.03 11:33:40.
