data_PCOD9019049
_publ_section_title
;
Structure prediction by ZEFSAII (Michael W. Deem and Ramdas Pophale) SiO2 
 PCOD9019049
Probable space group: P -1
;
_chemical_formula_sum "Si O2"
_cell_formula_units_Z 16
_cell_length_a 10.918781
_cell_length_b 11.733171
_cell_length_c 14.216070
_cell_angle_alpha 115.598417
_cell_angle_beta 148.919856
_cell_angle_gamma 54.372784
_cell_volume 754.459239
_symmetry_space_group_name_H-M "P -1"
_symmetry_group_IT_number 2
_symmetry_cell_setting 'triclinic'
loop_
_space_group_symop_operation_xyz
x,y,z
-x,-y,-z
loop_
_atom_site_type_symbol
_atom_site_label
_atom_site_fract_x
_atom_site_fract_y
_atom_site_fract_z
Si Si1 0.719884 0.955813 0.897015
Si Si2 0.076560 0.907748 0.612690
Si Si3 0.251508 0.653043 0.880839
Si Si4 0.714565 0.634963 0.512122
Si Si5 0.093139 0.684659 0.410201
Si Si6 0.492647 0.829856 0.998740
Si Si7 0.611331 0.173110 0.462301
Si Si8 0.290580 0.798693 0.145736
O O1 0.590798 0.855314 0.747020
O O2 0.648642 0.077955 0.813461
O O3 0.038792 0.869970 0.074575
O O4 0.609426 0.038461 0.950213
O O5 0.366891 0.875360 0.829490
O O6 0.053606 0.769657 0.513343
O O7 0.000000 0.000000 0.500000
O O8 0.860359 0.015635 0.581996
O O9 0.344811 0.737958 0.901309
O O10 0.988641 0.641814 0.676584
O O11 0.500000 0.500000 0.000000
O O12 0.203579 0.734628 0.977549
O O13 0.539534 0.752382 0.516014
O O14 0.539565 0.676432 0.317778
O O15 0.784262 0.480652 0.544532
O O16 0.279327 0.728363 0.483384
O O17 0.808093 0.741761 0.190476
#
# Coordination Sequence:
#
# PCOD9019049 Si02
#       8
#     2   2   2   2   2   2   2   2
#     4  10  21  44  67  99 134 170 226 274 333 391
#     4  10  24  44  68  98 128 177 231 266 322 396
#     4  11  24  41  64 100 129 171 219 269 331 406
#     4  12  25  43  69  98 137 175 220 274 338 392
#     4  11  25  44  64  99 138 177 221 269 331 403
#     4  11  23  42  70  97 134 173 215 284 331 380
#     4  11  23  44  67  95 134 174 229 271 317 403
#     4  10  24  42  67  97 133 173 218 280 334 389
#
# _framework density 21.207242000000001
#
# number of rings (size 3 to 8) (size 9 to 14) (size 15 to 20)
#    0.000    1.250    3.750    1.125    3.500    3.000 
#    4.500    0.625    0.000    0.000    0.000    0.000 
#    0.000    0.000    0.000    0.000    0.000    0.000 
#
# Total GULP energy -89469.779586 kJ/mol
# GULP energy per Si atom -5591.861224 kJ/mol
# Density = 2.115897 g / cm^3
# Si number density = 21.207242 Si / 1000 Ang^3
#
#
#
# Elastic Constant Matrix: (Units=GPa)
#
#
# Indices 1 2 3 4 5 6 
#
# 1 33.6905 7.1433 22.0788 -4.3433 12.4467 13.2910
# 2 7.1433 64.3504 15.0947 -5.0918 9.7792 -0.0943
# 3 22.0788 15.0947 137.6764 -16.6265 3.7859 24.1779
# 4 -4.3433 -5.0918 -16.6265 31.1685 2.0030 8.4564
# 5 12.4467 9.7792 3.7859 2.0030 29.0389 5.9693
# 6 13.2910 -0.0943 24.1779 8.4564 5.9693 28.8879
#
#
#
# Elastic Compliance Matrix: (Units=1/GPa)
#
#
# Indices 1 2 3 4 5 6 
#
# 1 0.046474 -0.001387 -0.001979 0.011599 -0.015917 -0.019837
# 2 -0.001387 0.017090 -0.001918 0.001084 -0.005632 0.003146
# 3 -0.001979 -0.001918 0.010536 0.007782 0.001753 -0.010555
# 4 0.011599 0.001084 0.007782 0.044841 -0.004502 -0.024043
# 5 -0.015917 -0.005632 0.001753 -0.004502 0.043620 -0.001858
# 6 -0.019837 0.003146 -0.010555 -0.024043 -0.001858 0.060009
#
#
# Mechanical properties :
#
#
# Convention : Reuss Voigt Hill
#
# Bulk Modulus (GPa) = 15.73986 36.03899 25.88942
# Shear Modulus (GPa) = 19.66059 30.57909 25.11984
#
# Velocity S-wave (km/s) = 3.04808 3.80138 3.44538
# Velocity P-wave (km/s) = 4.45262 6.02477 5.29734
#
# Compressibility (1/GPa) = 0.06353296
#
# Stress axis : x y z
#
# Youngs Moduli (GPa) = 21.51721 58.51353 94.91113
#
# Poissons Ratio (x) = 0.08117 0.18781
# Poissons Ratio (y) = 0.02985 0.18203
# Poissons Ratio (z) = 0.04258 0.11222
#
# Static dielectric constant tensor:
#      x y z
#    x 1.822670 0.018380 -0.025820 
#    y 0.018380 1.783630 -0.011940 
#    z -0.025820 -0.011940 1.771260 
# 
# From -- ./inp_files/519079.got.cif
#   From: 2010.05.17/outbox.cif.g08.bks.cpg/sg2_260_cif.got.tgz:519079.got - 2010.06.03 11:33:40.
