data_PCOD9019004
_publ_section_title
;
Structure prediction by ZEFSAII (Michael W. Deem and Ramdas Pophale) SiO2 
 PCOD9019004
Probable space group: P -1
;
_chemical_formula_sum "Si O2"
_cell_formula_units_Z 15
_cell_length_a 9.128050
_cell_length_b 8.595195
_cell_length_c 23.741207
_cell_angle_alpha 49.390400
_cell_angle_beta 27.379591
_cell_angle_gamma 52.218203
_cell_volume 647.093569
_symmetry_space_group_name_H-M "P -1"
_symmetry_group_IT_number 2
_symmetry_cell_setting 'triclinic'
loop_
_space_group_symop_operation_xyz
x,y,z
-x,-y,-z
loop_
_atom_site_type_symbol
_atom_site_label
_atom_site_fract_x
_atom_site_fract_y
_atom_site_fract_z
Si Si1 0.307568 0.998253 0.856009
Si Si2 0.248127 0.175461 0.160218
Si Si3 0.238022 0.340168 0.624181
Si Si4 0.877481 0.563268 0.240170
Si Si5 0.860574 0.289293 0.115040
Si Si6 0.786565 0.644147 0.496556
Si Si7 0.500000 0.000000 0.000000
Si Si8 0.418720 0.891367 0.646790
O O1 0.256402 0.220584 0.792146
O O2 0.609530 0.945880 0.805463
O O3 0.306343 0.815179 0.854756
O O4 0.000000 0.000000 0.000000
O O5 0.477716 0.118113 0.042618
O O6 0.153269 0.417689 0.148765
O O7 0.914235 0.094572 0.276035
O O8 0.500000 0.500000 0.500000
O O9 0.020095 0.391941 0.740950
O O10 0.079675 0.348256 0.614422
O O11 0.418244 0.112113 0.623999
O O12 0.562792 0.437283 0.375067
O O13 0.620628 0.286155 0.251394
O O14 0.166883 0.133917 0.064072
O O15 0.000000 0.500000 0.000000
O O16 0.698846 0.846399 0.516846
O O17 0.000000 0.500000 0.500000
#
# Coordination Sequence:
#
# PCOD9019004 Si02
#       8
#     2   2   2   2   2   2   1   2
#     4  12  25  42  66 101 134 178 235 279 333 411
#     4  10  24  41  68  93 136 180 224 281 341 402
#     4  10  21  44  67  93 138 175 223 287 346 404
#     4  10  24  46  64 101 137 177 226 282 351 404
#     4  11  25  44  69  99 140 181 229 279 338 416
#     4  10  23  41  71 100 131 176 230 283 346 411
#     4  10  22  42  62  98 132 182 220 276 342 400
#     4  10  22  45  67  98 137 181 224 279 352 412
#
# _framework density 23.180572000000002
#
# number of rings (size 3 to 8) (size 9 to 14) (size 15 to 20)
#    0.000    1.600    2.667    0.400    7.467    2.667 
#    2.400    1.333    0.000    0.000    0.000    0.000 
#    0.000    0.000    0.000    0.000    0.000    0.000 
#
# Total GULP energy -83523.811665 kJ/mol
# GULP energy per Si atom -5568.254111 kJ/mol
# Density = 2.312781 g / cm^3
# Si number density = 23.180572 Si / 1000 Ang^3
#
#
#
# Elastic Constant Matrix: (Units=GPa)
#
#
# Indices 1 2 3 4 5 6 
#
# 1 143.2417 50.5107 34.8363 14.5946 46.6217 6.3718
# 2 50.5107 131.2053 34.5029 3.9577 21.0453 22.1417
# 3 34.8363 34.5029 50.9798 -1.2984 16.2247 8.3387
# 4 14.5946 3.9577 -1.2984 36.3232 -0.0421 1.6188
# 5 46.6217 21.0453 16.2247 -0.0421 27.1049 10.1834
# 6 6.3718 22.1417 8.3387 1.6188 10.1834 34.6794
#
#
#
# Elastic Compliance Matrix: (Units=1/GPa)
#
#
# Indices 1 2 3 4 5 6 
#
# 1 0.020431 -0.002906 -0.002657 -0.008445 -0.034826 0.009361
# 2 -0.002906 0.010694 -0.004880 0.000081 0.001732 -0.005633
# 3 -0.002657 -0.004880 0.027394 0.002607 -0.007719 -0.000838
# 4 -0.008445 0.000081 0.002607 0.031245 0.014804 -0.004933
# 5 -0.034826 0.001732 -0.007719 0.014804 0.109780 -0.025778
# 6 0.009361 -0.005633 -0.000838 -0.004933 -0.025778 0.038714
#
#
# Mechanical properties :
#
#
# Convention : Reuss Voigt Hill
#
# Bulk Modulus (GPa) = 26.57205 62.79184 44.68194
# Shear Modulus (GPa) = 18.40348 33.32664 25.86506
#
# Velocity S-wave (km/s) = 2.82071 3.79581 3.34399
# Velocity P-wave (km/s) = 4.70069 6.80866 5.85040
#
# Compressibility (1/GPa) = 0.03763353
#
# Stress axis : x y z
#
# Youngs Moduli (GPa) = 48.94509 93.51253 36.50384
#
# Poissons Ratio (x) = 0.27170 0.09701
# Poissons Ratio (y) = 0.14221 0.17813
# Poissons Ratio (z) = 0.13007 0.45633
#
# Static dielectric constant tensor:
#      x y z
#    x 1.965130 -0.239410 0.006200 
#    y -0.239410 2.883940 0.100540 
#    z 0.006200 0.100540 1.944250 
# 
# From -- ./inp_files/606352.got.cif
#   From: 2010.05.17/outbox.cif.g08.bks.cpg/sg2_304_cif.got.tgz:606352.got - 2010.06.03 11:33:40.
