data_PCOD9019413
_publ_section_title
;
Structure prediction by ZEFSAII (Michael W. Deem and Ramdas Pophale) SiO2 
 PCOD9019413
Probable space group: P -1
;
_chemical_formula_sum "Si O2"
_cell_formula_units_Z 10
_cell_length_a 7.137425
_cell_length_b 8.944335
_cell_length_c 7.384226
_cell_angle_alpha 94.832132
_cell_angle_beta 89.142455
_cell_angle_gamma 97.351519
_cell_volume 465.864502
_symmetry_space_group_name_H-M "P -1"
_symmetry_group_IT_number 2
_symmetry_cell_setting 'triclinic'
loop_
_space_group_symop_operation_xyz
x,y,z
-x,-y,-z
loop_
_atom_site_type_symbol
_atom_site_label
_atom_site_fract_x
_atom_site_fract_y
_atom_site_fract_z
Si Si1 0.507847 0.822301 0.028883
Si Si2 0.702328 0.441476 0.482207
Si Si3 0.446864 0.162790 0.558676
Si Si4 0.199949 0.279339 0.272209
Si Si5 0.872235 0.369822 0.101340
O O1 0.638314 0.745935 0.876794
O O2 0.301367 0.724408 0.012124
O O3 0.590187 0.814771 0.227854
O O4 0.500000 0.000000 0.000000
O O5 0.500000 0.500000 0.500000
O O6 0.270514 0.196127 0.439638
O O7 0.813741 0.550397 0.637146
O O8 0.782118 0.448614 0.281109
O O9 0.641572 0.269511 0.518289
O O10 0.500000 0.000000 0.500000
O O11 0.001237 0.248109 0.169824
O O12 0.000000 0.500000 0.000000
#
# Coordination Sequence:
#
# PCOD9019413 Si02
#       5
#     2   2   2   2   2
#     4  12  25  48  71 103 150 190 236 297 365 423
#     4  10  21  44  71  98 146 189 232 288 364 421
#     4  11  22  45  71  98 144 195 229 290 359 428
#     4  11  25  44  73 103 144 186 243 287 364 417
#     4  12  26  44  75 112 141 183 249 301 348 427
#
# _framework density 21.465467
#
# number of rings (size 3 to 8) (size 9 to 14) (size 15 to 20)
#    0.000    0.800    6.000    1.800    5.600    2.400 
#    0.000    2.000    0.000    0.000    0.000    0.000 
#    0.000    0.000    0.000    0.000    0.000    0.000 
#
# Total GULP energy -55796.655627 kJ/mol
# GULP energy per Si atom -5579.665563 kJ/mol
# Density = 2.141661 g / cm^3
# Si number density = 21.465467 Si / 1000 Ang^3
#
#
#
# Elastic Constant Matrix: (Units=GPa)
#
#
# Indices 1 2 3 4 5 6 
#
# 1 129.4276 16.7663 46.9142 -6.3907 19.8952 -15.3520
# 2 16.7663 117.8697 56.3772 9.3963 -8.2264 -6.5562
# 3 46.9142 56.3772 169.3546 -18.0019 6.9888 -5.7130
# 4 -6.3907 9.3963 -18.0019 37.1260 -1.8958 2.8682
# 5 19.8952 -8.2264 6.9888 -1.8958 37.5368 -8.1180
# 6 -15.3520 -6.5562 -5.7130 2.8682 -8.1180 20.6661
#
#
#
# Elastic Compliance Matrix: (Units=1/GPa)
#
#
# Indices 1 2 3 4 5 6 
#
# 1 0.009764 -0.000281 -0.002280 0.000065 -0.003713 0.005066
# 2 -0.000281 0.011576 -0.004350 -0.005230 0.004237 0.004652
# 3 -0.002280 -0.004350 0.008501 0.004908 -0.001512 -0.001999
# 4 0.000065 -0.005230 0.004908 0.030967 -0.001656 -0.005202
# 5 -0.003713 0.004237 -0.001512 -0.001656 0.032117 0.011014
# 6 0.005066 0.004652 -0.001999 -0.005202 0.011014 0.058124
#
#
# Mechanical properties :
#
#
# Convention : Reuss Voigt Hill
#
# Bulk Modulus (GPa) = 62.42369 72.97416 67.69892
# Shear Modulus (GPa) = 29.37550 38.83872 34.10711
#
# Velocity S-wave (km/s) = 3.70334 4.25827 3.99046
# Velocity P-wave (km/s) = 6.88697 7.63197 7.26902
#
# Compressibility (1/GPa) = 0.01601956
#
# Stress axis : x y z
#
# Youngs Moduli (GPa) = 102.41491 86.38787 117.63261
#
# Poissons Ratio (x) = 0.02425 0.26824
# Poissons Ratio (y) = 0.02875 0.51165
# Poissons Ratio (z) = 0.23354 0.37575
#
# Static dielectric constant tensor:
#      x y z
#    x 1.801580 -0.002720 0.029160 
#    y -0.002720 1.868890 -0.004830 
#    z 0.029160 -0.004830 1.774770 
# 
# From -- ./inp_files/146630.got.cif
#   From: 2010.05.17/outbox.cif.g08.bks.cpg/sg2_74_cif.got.tgz:146630.got - 2010.06.03 11:33:40.
