data_PCOD9019079
_publ_section_title
;
Structure prediction by ZEFSAII (Michael W. Deem and Ramdas Pophale) SiO2 
 PCOD9019079
Probable space group: P -1
;
_chemical_formula_sum "Si O2"
_cell_formula_units_Z 15
_cell_length_a 5.187106
_cell_length_b 12.349951
_cell_length_c 11.565598
_cell_angle_alpha 58.544174
_cell_angle_beta 77.060372
_cell_angle_gamma 60.782107
_cell_volume 551.133573
_symmetry_space_group_name_H-M "P -1"
_symmetry_group_IT_number 2
_symmetry_cell_setting 'triclinic'
loop_
_space_group_symop_operation_xyz
x,y,z
-x,-y,-z
loop_
_atom_site_type_symbol
_atom_site_label
_atom_site_fract_x
_atom_site_fract_y
_atom_site_fract_z
Si Si1 0.570813 0.139376 0.516601
Si Si2 0.998175 0.289244 0.903395
Si Si3 0.371709 0.897002 0.719395
Si Si4 0.358192 0.477413 0.756979
Si Si5 0.158354 0.860931 0.260957
Si Si6 0.049310 0.344765 0.117989
Si Si7 0.000000 0.000000 0.000000
Si Si8 0.050193 0.619203 0.494828
O O1 0.737596 0.120716 0.387672
O O2 0.250340 0.276539 0.464510
O O3 0.708656 0.151860 0.617658
O O4 0.522367 0.000129 0.619022
O O5 0.672041 0.396256 0.830748
O O6 0.195179 0.374899 0.819665
O O7 0.982617 0.274885 0.052499
O O8 0.081175 0.135058 0.930036
O O9 0.618272 0.751572 0.823091
O O10 0.138343 0.986464 0.792055
O O11 0.172775 0.615821 0.776096
O O12 0.321534 0.544423 0.596760
O O13 0.093045 0.726249 0.343356
O O14 0.286777 0.892480 0.115283
O O15 0.000000 0.500000 0.000000
O O16 0.000000 0.500000 0.500000
#
# Coordination Sequence:
#
# PCOD9019079 Si02
#       8
#     2   2   2   2   2   2   1   2
#     4  10  22  43  69 105 138 184 244 298 375 435
#     4  11  27  47  74 107 151 203 248 305 375 450
#     4  10  21  44  68 104 143 180 246 304 371 435
#     4  11  25  48  74 112 148 196 250 313 371 442
#     4  11  26  44  72 102 140 202 235 315 364 450
#     4  10  22  43  71 107 145 191 246 307 374 439
#     4  12  28  50  70 106 150 202 256 300 378 466
#     4  11  25  44  72 105 146 187 245 307 377 442
#
# _framework density 27.216633999999999
#
# number of rings (size 3 to 8) (size 9 to 14) (size 15 to 20)
#    0.000    1.333    1.333    2.400    7.467    1.067 
#    7.200    0.000    0.000    0.000    0.000    0.000 
#    0.000    0.000    0.000    0.000    0.000    0.000 
#
# Total GULP energy -83804.073774 kJ/mol
# GULP energy per Si atom -5586.938252 kJ/mol
# Density = 2.715469 g / cm^3
# Si number density = 27.216634 Si / 1000 Ang^3
#
#
#
# Elastic Constant Matrix: (Units=GPa)
#
#
# Indices 1 2 3 4 5 6 
#
# 1 85.8004 17.7542 33.3964 -23.2292 15.6318 17.9320
# 2 17.7542 97.1559 57.3997 -26.8524 -1.8219 24.4826
# 3 33.3964 57.3997 137.2080 -19.8610 25.5874 22.3168
# 4 -23.2292 -26.8524 -19.8610 54.2628 6.3996 -0.1330
# 5 15.6318 -1.8219 25.5874 6.3996 44.2217 -14.0829
# 6 17.9320 24.4826 22.3168 -0.1330 -14.0829 53.1949
#
#
#
# Elastic Compliance Matrix: (Units=1/GPa)
#
#
# Indices 1 2 3 4 5 6 
#
# 1 0.017911 0.001686 -0.000127 0.009686 -0.010632 -0.009551
# 2 0.001686 0.016590 -0.005507 0.006849 0.000449 -0.005758
# 3 -0.000127 -0.005507 0.012726 0.003007 -0.009674 -0.005316
# 4 0.009686 0.006849 0.003007 0.028511 -0.012482 -0.010912
# 5 -0.010632 0.000449 -0.009674 -0.012482 0.039481 0.017857
# 6 -0.009551 -0.005758 -0.005316 -0.010912 0.017857 0.031599
#
#
# Mechanical properties :
#
#
# Convention : Reuss Voigt Hill
#
# Bulk Modulus (GPa) = 25.42348 59.69609 42.55979
# Shear Modulus (GPa) = 29.79340 44.44349 37.11845
#
# Velocity S-wave (km/s) = 3.31218 4.04537 3.69699
# Velocity P-wave (km/s) = 4.89784 6.61825 5.82194
#
# Compressibility (1/GPa) = 0.03933371
#
# Stress axis : x y z
#
# Youngs Moduli (GPa) = 55.83218 60.27647 78.57632
#
# Poissons Ratio (x) = -0.10165 0.00996
# Poissons Ratio (y) = -0.09415 0.43268
# Poissons Ratio (z) = 0.00708 0.33192
#
# Static dielectric constant tensor:
#      x y z
#    x 2.166200 0.060260 0.057740 
#    y 0.060260 2.079120 -0.014200 
#    z 0.057740 -0.014200 2.092940 
# 
# From -- ./inp_files/363914.got.cif
#   From: 2010.05.17/outbox.cif.g08.bks.cpg/sg2_182_cif.got.tgz:363914.got - 2010.06.03 11:33:40.
