data_PCOD9019368
_publ_section_title
;
Structure prediction by ZEFSAII (Michael W. Deem and Ramdas Pophale) SiO2 
 PCOD9019368
Probable space group: P -1
;
_chemical_formula_sum "Si O2"
_cell_formula_units_Z 13
_cell_length_a 14.589329
_cell_length_b 5.366365
_cell_length_c 11.040275
_cell_angle_alpha 97.575107
_cell_angle_beta 51.969670
_cell_angle_gamma 64.836116
_cell_volume 513.695488
_symmetry_space_group_name_H-M "P -1"
_symmetry_group_IT_number 2
_symmetry_cell_setting 'triclinic'
loop_
_space_group_symop_operation_xyz
x,y,z
-x,-y,-z
loop_
_atom_site_type_symbol
_atom_site_label
_atom_site_fract_x
_atom_site_fract_y
_atom_site_fract_z
Si Si1 0.647018 0.048965 0.287600
Si Si2 0.197910 0.713276 0.413233
Si Si3 0.809437 0.821519 0.736580
Si Si4 0.000000 0.500000 0.000000
Si Si5 0.055833 0.651141 0.715328
Si Si6 0.600399 0.021357 0.582095
Si Si7 0.460729 0.624546 0.848069
O O1 0.618460 0.177976 0.457913
O O2 0.633786 0.237494 0.191634
O O3 0.512148 0.039615 0.371230
O O4 0.817519 0.700867 0.132378
O O5 0.178742 0.475445 0.343964
O O6 0.090068 0.864215 0.630468
O O7 0.374825 0.473622 0.293401
O O8 0.165298 0.993066 0.370664
O O9 0.932442 0.685299 0.734627
O O10 0.645092 0.116398 0.946625
O O11 0.004442 0.704501 0.898130
O O12 0.225535 0.291719 0.551534
O O13 0.517658 0.257787 0.780603
#
# Coordination Sequence:
#
# PCOD9019368 Si02
#       7
#     2   2   2   1   2   2   2
#     4  10  21  44  71 104 148 185 249 298 386 435
#     4  12  27  47  75 110 150 204 248 304 367 440
#     4  12  28  47  76 110 153 198 253 307 361 437
#     4  10  22  44  78 108 140 192 246 318 370 446
#     4  11  23  47  74 108 150 193 249 306 377 437
#     4  10  23  42  74 105 145 196 238 305 378 451
#     4  12  24  44  73 107 145 194 253 305 364 443
#
# _framework density 25.306823999999999
#
# number of rings (size 3 to 8) (size 9 to 14) (size 15 to 20)
#    0.000    0.923    3.077    3.231    2.154    1.231 
#    0.000    2.308    0.000    0.000    0.000    0.000 
#    0.000    0.000    0.000    0.000    0.000    0.000 
#
# Total GULP energy -72388.440011 kJ/mol
# GULP energy per Si atom -5568.341539 kJ/mol
# Density = 2.524922 g / cm^3
# Si number density = 25.306824 Si / 1000 Ang^3
#
#
#
# Elastic Constant Matrix: (Units=GPa)
#
#
# Indices 1 2 3 4 5 6 
#
# 1 120.5729 48.0057 29.6604 11.9123 -27.7643 -23.6787
# 2 48.0057 104.0455 19.3396 -13.9316 1.8786 -19.5250
# 3 29.6604 19.3396 89.4375 -10.1355 -7.2383 -7.8755
# 4 11.9123 -13.9316 -10.1355 40.9617 -13.6905 -1.1636
# 5 -27.7643 1.8786 -7.2383 -13.6905 33.2100 9.4280
# 6 -23.6787 -19.5250 -7.8755 -1.1636 9.4280 49.7540
#
#
#
# Elastic Compliance Matrix: (Units=1/GPa)
#
#
# Indices 1 2 3 4 5 6 
#
# 1 0.014648 -0.006538 -0.002912 -0.003864 0.009823 0.001993
# 2 -0.006538 0.014119 -0.000453 0.004910 -0.005328 0.003482
# 3 -0.002912 -0.000453 0.012975 0.004677 0.002301 0.000164
# 4 -0.003864 0.004910 0.004677 0.031968 0.010825 -0.000476
# 5 0.009823 -0.005328 0.002301 0.010825 0.045106 -0.005346
# 6 0.001993 0.003482 0.000164 -0.000476 -0.005346 0.023442
#
#
# Mechanical properties :
#
#
# Convention : Reuss Voigt Hill
#
# Bulk Modulus (GPa) = 45.58514 56.45192 51.01853
# Shear Modulus (GPa) = 29.52015 39.25517 34.38766
#
# Velocity S-wave (km/s) = 3.41910 3.94276 3.69023
# Velocity P-wave (km/s) = 5.79992 6.56373 6.19361
#
# Compressibility (1/GPa) = 0.02193697
#
# Stress axis : x y z
#
# Youngs Moduli (GPa) = 68.26815 70.82658 77.07035
#
# Poissons Ratio (x) = 0.46307 0.22439
# Poissons Ratio (y) = 0.44635 0.03491
# Poissons Ratio (z) = 0.19876 0.03209
#
# Static dielectric constant tensor:
#      x y z
#    x 1.916840 -0.035770 -0.058620 
#    y -0.035770 2.118110 -0.068280 
#    z -0.058620 -0.068280 1.909120 
# 
# From -- ./inp_files/25441.got.cif
#   From: 2010.05.17/outbox.cif.g08.bks.cpg/sg2_13_cif.got.tgz:25441.got - 2010.06.03 11:33:40.
