data_PCOD9019032
_publ_section_title
;
Structure prediction by ZEFSAII (Michael W. Deem and Ramdas Pophale) SiO2 
 PCOD9019032
Probable space group: P -1
;
_chemical_formula_sum "Si O2"
_cell_formula_units_Z 15
_cell_length_a 8.492136
_cell_length_b 18.063709
_cell_length_c 14.544298
_cell_angle_alpha 21.611408
_cell_angle_beta 49.292768
_cell_angle_gamma 46.831138
_cell_volume 598.239483
_symmetry_space_group_name_H-M "P -1"
_symmetry_group_IT_number 2
_symmetry_cell_setting 'triclinic'
loop_
_space_group_symop_operation_xyz
x,y,z
-x,-y,-z
loop_
_atom_site_type_symbol
_atom_site_label
_atom_site_fract_x
_atom_site_fract_y
_atom_site_fract_z
Si Si1 0.543449 0.373542 0.485267
Si Si2 0.000000 0.000000 0.000000
Si Si3 0.194968 0.640853 0.197370
Si Si4 0.028914 0.259583 0.017131
Si Si5 0.023203 0.338124 0.311189
Si Si6 0.611937 0.003421 0.353423
Si Si7 0.512252 0.177892 0.911939
Si Si8 0.177951 0.026930 0.470597
O O1 0.784140 0.314412 0.422429
O O2 0.529387 0.214654 0.754097
O O3 0.522679 0.594390 0.289964
O O4 0.351282 0.426877 0.423391
O O5 0.935970 0.217113 0.835357
O O6 0.740414 0.043458 0.018885
O O7 0.350690 0.780266 0.941017
O O8 0.039759 0.632379 0.180428
O O9 0.985366 0.434887 0.910501
O O10 0.281097 0.134391 0.066834
O O11 0.871940 0.115077 0.263484
O O12 0.133467 0.258731 0.263314
O O13 0.164242 0.179281 0.518483
O O14 0.419591 0.957089 0.420477
O O15 0.500000 0.000000 0.500000
O O16 0.000000 0.000000 0.500000
#
# Coordination Sequence:
#
# PCOD9019032 Si02
#       8
#     2   1   2   2   2   2   2   2
#     4   9  20  39  64  96 138 176 224 283 337 407
#     4  10  22  38  70  98 138 186 222 284 348 400
#     4  11  22  42  69 102 139 183 231 282 350 408
#     4  11  24  43  70 101 138 180 233 284 342 416
#     4  10  22  44  68  95 135 180 218 289 341 401
#     4  10  21  44  67  96 139 178 228 287 339 409
#     4   9  20  39  64 100 135 177 229 279 336 410
#     4  11  26  44  66 103 135 174 234 288 343 415
#
# _framework density 25.07357
#
# number of rings (size 3 to 8) (size 9 to 14) (size 15 to 20)
#    0.000    1.867    2.667    0.800    5.600    4.267 
#    2.400    0.000    0.000    0.000    0.000    0.000 
#    0.000    0.000    0.000    0.000    0.000    0.000 
#
# Total GULP energy -83597.733769 kJ/mol
# GULP energy per Si atom -5573.182251 kJ/mol
# Density = 2.501650 g / cm^3
# Si number density = 25.073570 Si / 1000 Ang^3
#
#
#
# Elastic Constant Matrix: (Units=GPa)
#
#
# Indices 1 2 3 4 5 6 
#
# 1 174.5857 55.2028 19.8394 -4.7243 9.4234 -35.0160
# 2 55.2028 103.5186 27.0904 -15.2113 -2.4315 -34.6735
# 3 19.8394 27.0904 73.8088 2.7113 -19.7897 -10.4923
# 4 -4.7243 -15.2113 2.7113 28.5899 2.6576 -6.3209
# 5 9.4234 -2.4315 -19.7897 2.6576 28.6185 6.9482
# 6 -35.0160 -34.6735 -10.4923 -6.3209 6.9482 45.5844
#
#
#
# Elastic Compliance Matrix: (Units=1/GPa)
#
#
# Indices 1 2 3 4 5 6 
#
# 1 0.008046 -0.001411 -0.002582 0.002692 -0.006222 0.005835
# 2 -0.001411 0.019470 -0.007289 0.014957 -0.008037 0.015347
# 3 -0.002582 -0.007289 0.020925 -0.009351 0.017178 -0.006627
# 4 0.002692 0.014957 -0.009351 0.050303 -0.015772 0.020672
# 5 -0.006222 -0.008037 0.017178 -0.015772 0.053861 -0.017335
# 6 0.005835 0.015347 -0.006627 0.020672 -0.017335 0.042076
#
#
# Mechanical properties :
#
#
# Convention : Reuss Voigt Hill
#
# Bulk Modulus (GPa) = 38.64684 61.79758 50.22221
# Shear Modulus (GPa) = 22.13634 37.21060 29.67347
#
# Velocity S-wave (km/s) = 2.97451 3.85652 3.44387
# Velocity P-wave (km/s) = 5.21956 6.67311 5.99058
#
# Compressibility (1/GPa) = 0.02587534
#
# Stress axis : x y z
#
# Youngs Moduli (GPa) = 124.27808 51.36194 47.78868
#
# Poissons Ratio (x) = 0.07249 0.12341
# Poissons Ratio (y) = 0.17540 0.34835
# Poissons Ratio (z) = 0.32095 0.37439
#
# Static dielectric constant tensor:
#      x y z
#    x 2.182430 0.012200 0.079760 
#    y 0.012200 1.963330 0.051860 
#    z 0.079760 0.051860 2.006240 
# 
# From -- ./inp_files/562871.got.cif
#   From: 2010.05.17/outbox.cif.g08.bks.cpg/sg2_282_cif.got.tgz:562871.got - 2010.06.03 11:33:40.
