data_PCOD9019782
_publ_section_title
;
Structure prediction by ZEFSAII (Michael W. Deem and Ramdas Pophale) SiO2 
 PCOD9019782
Probable space group: P -1
;
_chemical_formula_sum "Si O2"
_cell_formula_units_Z 14
_cell_length_a 18.344662
_cell_length_b 5.252842
_cell_length_c 24.122148
_cell_angle_alpha 116.258449
_cell_angle_beta 164.744142
_cell_angle_gamma 68.456735
_cell_volume 530.716780
_symmetry_space_group_name_H-M "P -1"
_symmetry_group_IT_number 2
_symmetry_cell_setting 'triclinic'
loop_
_space_group_symop_operation_xyz
x,y,z
-x,-y,-z
loop_
_atom_site_type_symbol
_atom_site_label
_atom_site_fract_x
_atom_site_fract_y
_atom_site_fract_z
Si Si1 0.645440 0.389686 0.665073
Si Si2 0.962725 0.203229 0.671815
Si Si3 0.287354 0.184495 0.805167
Si Si4 0.950963 0.583230 0.797442
Si Si5 0.120900 0.164393 0.034772
Si Si6 0.379032 0.432843 0.621017
Si Si7 0.203339 0.694185 0.621860
O O1 0.766452 0.388797 0.691929
O O2 0.305530 0.311404 0.411436
O O3 0.763149 0.718171 0.808672
O O4 0.797257 0.186603 0.792387
O O5 0.082997 0.408643 0.832118
O O6 0.813425 0.401040 0.541724
O O7 0.175737 0.087881 0.775726
O O8 0.740805 0.914536 0.504054
O O9 0.010686 0.206469 0.568580
O O10 0.399283 0.961000 0.826495
O O11 0.500000 0.500000 0.000000
O O12 0.152414 0.863211 0.002439
O O13 0.307021 0.421823 0.156985
O O14 0.361912 0.518792 0.681123
O O15 0.000000 0.500000 0.500000
#
# Coordination Sequence:
#
# PCOD9019782 Si02
#       7
#     2   2   2   2   2   2   2
#     4  10  24  44  66  97 138 172 236 281 345 404
#     4  11  25  46  68 104 145 177 224 291 342 396
#     4  10  23  43  70 100 137 181 230 276 336 409
#     4  11  24  42  69  98 136 179 228 285 346 401
#     4  11  24  42  70  99 131 183 232 276 346 411
#     4  11  25  45  71 100 146 179 227 284 343 404
#     4  10  21  45  68  96 138 184 220 278 339 397
#
# _framework density 26.379417
#
# number of rings (size 3 to 8) (size 9 to 14) (size 15 to 20)
#    0.000    1.429    2.857    0.857    6.000    5.143 
#    2.571    0.000    0.000    0.000    0.000    0.000 
#    0.000    0.000    0.000    0.000    0.000    0.000 
#
# Total GULP energy -78373.915617 kJ/mol
# GULP energy per Si atom -5598.136830 kJ/mol
# Density = 2.631938 g / cm^3
# Si number density = 26.379417 Si / 1000 Ang^3
#
#
#
# Elastic Constant Matrix: (Units=GPa)
#
#
# Indices 1 2 3 4 5 6 
#
# 1 183.0262 48.1200 19.3224 20.8849 -24.8427 -27.5069
# 2 48.1200 99.3894 30.4697 29.3739 -29.3674 -8.4518
# 3 19.3224 30.4697 87.4744 24.2808 -35.4357 -4.5749
# 4 20.8849 29.3739 24.2808 53.4923 -8.0797 -12.6498
# 5 -24.8427 -29.3674 -35.4357 -8.0797 40.9838 16.7665
# 6 -27.5069 -8.4518 -4.5749 -12.6498 16.7665 51.6291
#
#
#
# Elastic Compliance Matrix: (Units=1/GPa)
#
#
# Indices 1 2 3 4 5 6 
#
# 1 0.006747 -0.002604 0.000161 -0.000465 0.001172 0.002688
# 2 -0.002604 0.016237 0.001600 -0.007884 0.011645 -0.004301
# 3 0.000161 0.001600 0.021404 -0.009118 0.020699 -0.006712
# 4 -0.000465 -0.007884 -0.009118 0.027510 -0.011750 0.008210
# 5 0.001172 0.011645 0.020699 -0.011750 0.055847 -0.016650
# 6 0.002688 -0.004301 -0.006712 0.008210 -0.016650 0.026921
#
#
# Mechanical properties :
#
#
# Convention : Reuss Voigt Hill
#
# Bulk Modulus (GPa) = 23.41772 62.85712 43.13742
# Shear Modulus (GPa) = 29.31074 47.35289 38.33182
#
# Velocity S-wave (km/s) = 3.33697 4.24142 3.81608
# Velocity P-wave (km/s) = 4.87275 6.91853 5.98372
#
# Compressibility (1/GPa) = 0.04270271
#
# Stress axis : x y z
#
# Youngs Moduli (GPa) = 148.20405 61.58885 46.72049
#
# Poissons Ratio (x) = 0.16037 -0.00752
# Poissons Ratio (y) = 0.38591 -0.07477
# Poissons Ratio (z) = -0.02384 -0.09857
#
# Static dielectric constant tensor:
#      x y z
#    x 2.048660 0.107250 -0.073550 
#    y 0.107250 1.178230 0.376730 
#    z -0.073550 0.376730 1.888840 
# 
# From -- ./inp_files/47236.got.cif
#   From: 2010.05.17/outbox.cif.g08.bks.cpg/sg2_24_cif.got.tgz:47236.got - 2010.06.03 11:33:40.
