data_PCOD9019592
_publ_section_title
;
Structure prediction by ZEFSAII (Michael W. Deem and Ramdas Pophale) SiO2 
 PCOD9019592
Probable space group: P -1
;
_chemical_formula_sum "Si O2"
_cell_formula_units_Z 16
_cell_length_a 25.587038
_cell_length_b 12.018338
_cell_length_c 5.315397
_cell_angle_alpha 49.510780
_cell_angle_beta 127.915179
_cell_angle_gamma 150.098900
_cell_volume 613.933166
_symmetry_space_group_name_H-M "P -1"
_symmetry_group_IT_number 2
_symmetry_cell_setting 'triclinic'
loop_
_space_group_symop_operation_xyz
x,y,z
-x,-y,-z
loop_
_atom_site_type_symbol
_atom_site_label
_atom_site_fract_x
_atom_site_fract_y
_atom_site_fract_z
Si Si1 0.714479 0.677441 0.883549
Si Si2 0.926954 0.464295 0.526600
Si Si3 0.043200 0.282632 0.399017
Si Si4 0.685335 0.959048 0.504231
Si Si5 0.059085 0.959997 0.023912
Si Si6 0.407435 0.064142 0.234734
Si Si7 0.586060 0.262332 0.769157
Si Si8 0.255999 0.556018 0.376095
O O1 0.619196 0.449299 0.773611
O O2 0.691286 0.795559 0.745619
O O3 0.741857 0.603637 0.280192
O O4 0.824894 0.870835 0.769145
O O5 0.928229 0.490761 0.791415
O O6 0.805321 0.228310 0.445303
O O7 0.000000 0.500000 0.500000
O O8 0.977452 0.721674 0.302671
O O9 0.142843 0.426358 0.285419
O O10 0.944855 0.119314 0.149429
O O11 0.037014 0.093566 0.740468
O O12 0.633187 0.916810 0.673207
O O13 0.618651 0.902690 0.152286
O O14 0.339759 0.798764 0.416262
O O15 0.528602 0.230867 0.400244
O O16 0.695221 0.367248 0.870223
O O17 0.500000 0.000000 0.000000
#
# Coordination Sequence:
#
# PCOD9019592 Si02
#       8
#     2   2   2   2   2   2   2   2
#     4  12  30  48  78 119 162 205 269 334 404 458
#     4  10  21  44  76 111 161 212 249 307 391 483
#     4  10  24  44  73 116 152 212 255 309 385 486
#     4  12  27  49  80 121 156 204 263 330 390 478
#     4  10  24  45  70 114 163 203 255 315 385 472
#     4  12  27  51  81 109 155 206 271 325 399 471
#     4  12  29  54  82 114 153 215 272 340 410 470
#     4  12  27  49  83 113 158 211 272 327 397 491
#
# _framework density 26.061471000000001
#
# number of rings (size 3 to 8) (size 9 to 14) (size 15 to 20)
#    0.750    0.000    3.750    1.875    7.000    3.500 
#    0.000    0.000    0.000    0.000    0.000    0.000 
#    0.000    0.000    0.000    0.000    0.000    0.000 
#
# Total GULP energy -89409.844097 kJ/mol
# GULP energy per Si atom -5588.115256 kJ/mol
# Density = 2.600215 g / cm^3
# Si number density = 26.061471 Si / 1000 Ang^3
#
#
#
# Elastic Constant Matrix: (Units=GPa)
#
#
# Indices 1 2 3 4 5 6 
#
# 1 166.2388 68.6106 46.1723 -10.6411 10.8646 -23.1576
# 2 68.6106 134.9179 21.9793 3.4046 8.6602 -16.9944
# 3 46.1723 21.9793 59.7405 1.1160 3.8428 -20.6086
# 4 -10.6411 3.4046 1.1160 40.1816 -7.5903 1.1210
# 5 10.8646 8.6602 3.8428 -7.5903 37.3451 -5.4102
# 6 -23.1576 -16.9944 -20.6086 1.1210 -5.4102 55.5604
#
#
#
# Elastic Compliance Matrix: (Units=1/GPa)
#
#
# Indices 1 2 3 4 5 6 
#
# 1 0.009507 -0.003863 -0.005759 0.002874 -0.000617 0.000527
# 2 -0.003863 0.009679 -0.000014 -0.002137 -0.001372 0.001255
# 3 -0.005759 -0.000014 0.023436 -0.002409 -0.000309 0.006307
# 4 0.002874 -0.002137 -0.002409 0.026912 0.005323 -0.000374
# 5 -0.000617 -0.001372 -0.000309 0.005323 0.028663 0.001892
# 6 0.000527 0.001255 0.006307 -0.000374 0.001892 0.021133
#
#
# Mechanical properties :
#
#
# Convention : Reuss Voigt Hill
#
# Bulk Modulus (GPa) = 42.82818 70.49131 56.65974
# Shear Modulus (GPa) = 34.15673 41.55975 37.85824
#
# Velocity S-wave (km/s) = 3.62418 3.99768 3.81550
# Velocity P-wave (km/s) = 5.82942 6.95812 6.41862
#
# Compressibility (1/GPa) = 0.02334911
#
# Stress axis : x y z
#
# Youngs Moduli (GPa) = 105.18642 103.31934 42.67003
#
# Poissons Ratio (x) = 0.39912 0.24573
# Poissons Ratio (y) = 0.40634 0.00061
# Poissons Ratio (z) = 0.60574 0.00148
#
# Static dielectric constant tensor:
#      x y z
#    x 2.123960 0.020620 -0.104220 
#    y 0.020620 2.076030 -0.020120 
#    z -0.104220 -0.020120 2.278440 
# 
# From -- ./inp_files/126830.got.cif
#   From: 2010.05.17/outbox.cif.g08.bks.cpg/sg2_64_cif.got.tgz:126830.got - 2010.06.03 11:33:40.
