data_PCOD9019111
_publ_section_title
;
Structure prediction by ZEFSAII (Michael W. Deem and Ramdas Pophale) SiO2 
 PCOD9019111
Probable space group: P -1
;
_chemical_formula_sum "Si O2"
_cell_formula_units_Z 15
_cell_length_a 8.612923
_cell_length_b 11.034128
_cell_length_c 7.291947
_cell_angle_alpha 93.466819
_cell_angle_beta 112.766143
_cell_angle_gamma 71.907687
_cell_volume 606.003103
_symmetry_space_group_name_H-M "P -1"
_symmetry_group_IT_number 2
_symmetry_cell_setting 'triclinic'
loop_
_space_group_symop_operation_xyz
x,y,z
-x,-y,-z
loop_
_atom_site_type_symbol
_atom_site_label
_atom_site_fract_x
_atom_site_fract_y
_atom_site_fract_z
Si Si1 0.363492 0.281332 0.113614
Si Si2 0.171757 0.543280 0.847711
Si Si3 0.636360 0.402968 0.415684
Si Si4 0.524288 0.825325 0.216633
Si Si5 0.500000 0.000000 0.500000
Si Si6 0.149765 0.259773 0.361049
Si Si7 0.106872 0.999738 0.363554
Si Si8 0.194884 0.746142 0.186387
O O1 0.527469 0.314712 0.279687
O O2 0.260869 0.241441 0.225229
O O3 0.236264 0.409623 0.968503
O O4 0.431863 0.184951 0.973231
O O5 0.300253 0.541953 0.733549
O O6 0.976723 0.596384 0.677255
O O7 0.156796 0.652132 0.007693
O O8 0.500000 0.500000 0.500000
O O9 0.790161 0.323347 0.614944
O O10 0.701770 0.770987 0.416164
O O11 0.386113 0.753062 0.205999
O O12 0.450088 0.967281 0.269367
O O13 0.680983 0.033687 0.511971
O O14 0.053632 0.150966 0.305373
O O15 0.083719 0.893787 0.198110
O O16 0.000000 0.000000 0.500000
#
# Coordination Sequence:
#
# PCOD9019111 Si02
#       8
#     2   2   2   2   1   2   2   2
#     4  12  24  42  69 100 139 182 229 281 345 422
#     4  12  26  41  67 106 132 181 233 283 347 413
#     4  12  23  42  70 100 135 185 230 282 345 414
#     4  10  21  44  68  94 143 178 225 286 336 415
#     4   8  20  40  70  98 130 184 226 276 346 400
#     4  11  26  45  65 102 140 178 225 283 358 404
#     4  10  22  45  72 100 138 183 231 291 348 414
#     4  11  22  43  73  99 137 180 237 285 339 422
#
# _framework density 24.75235
#
# number of rings (size 3 to 8) (size 9 to 14) (size 15 to 20)
#    0.000    1.067    4.000    2.400    0.000    4.267 
#    0.000   10.000    0.000    0.000    0.000    0.000 
#    0.000    0.000    0.000    0.000    0.000    0.000 
#
# Total GULP energy -83610.183560 kJ/mol
# GULP energy per Si atom -5574.012237 kJ/mol
# Density = 2.469601 g / cm^3
# Si number density = 24.752350 Si / 1000 Ang^3
#
#
#
# Elastic Constant Matrix: (Units=GPa)
#
#
# Indices 1 2 3 4 5 6 
#
# 1 108.4584 56.7974 43.6204 -29.2740 -85.7677 3.1766
# 2 56.7974 135.8073 53.5924 -58.2676 -93.3553 3.6973
# 3 43.6204 53.5924 150.9246 9.3594 -62.3195 5.2122
# 4 -29.2740 -58.2676 9.3594 107.2267 54.9068 -11.7001
# 5 -85.7677 -93.3553 -62.3195 54.9068 128.9941 -14.8013
# 6 3.1766 3.6973 5.2122 -11.7001 -14.8013 28.5318
#
#
#
# Elastic Compliance Matrix: (Units=1/GPa)
#
#
# Indices 1 2 3 4 5 6 
#
# 1 0.020473 0.001897 -0.000138 -0.000941 0.015937 0.005382
# 2 0.001897 0.017121 -0.002670 0.005135 0.010841 0.005787
# 3 -0.000138 -0.002670 0.009900 -0.004879 0.004722 -0.000999
# 4 -0.000941 0.005135 -0.004879 0.015479 -0.005411 0.003871
# 5 0.015937 0.010841 0.004722 -0.005411 0.031963 0.010321
# 6 0.005382 0.005787 -0.000999 0.003871 0.010321 0.040823
#
#
# Mechanical properties :
#
#
# Convention : Reuss Voigt Hill
#
# Bulk Modulus (GPa) = 21.89440 78.13452 50.01446
# Shear Modulus (GPa) = 32.72133 69.02922 50.87528
#
# Velocity S-wave (km/s) = 3.63981 5.28663 4.53854
# Velocity P-wave (km/s) = 5.15061 8.30058 6.90755
#
# Compressibility (1/GPa) = 0.04567378
#
# Stress axis : x y z
#
# Youngs Moduli (GPa) = 48.84402 58.40712 101.00629
#
# Poissons Ratio (x) = -0.11079 0.01389
# Poissons Ratio (y) = -0.09265 0.26968
# Poissons Ratio (z) = 0.00672 0.15594
#
# Static dielectric constant tensor:
#      x y z
#    x 2.088710 -0.031920 0.088360 
#    y -0.031920 2.345790 0.063190 
#    z 0.088360 0.063190 1.973340 
# 
# From -- ./inp_files/27825.got.cif
#   From: 2010.05.17/outbox.cif.g08.bks.cpg/sg2_14_cif.got.tgz:27825.got - 2010.06.03 11:33:40.
