data_PCOD9019554
_publ_section_title
;
Structure prediction by ZEFSAII (Michael W. Deem and Ramdas Pophale) SiO2 
 PCOD9019554
Probable space group: P -1
;
_chemical_formula_sum "Si O2"
_cell_formula_units_Z 14
_cell_length_a 5.266504
_cell_length_b 21.562677
_cell_length_c 4.872323
_cell_angle_alpha 102.417194
_cell_angle_beta 90.826414
_cell_angle_gamma 69.607418
_cell_volume 505.384395
_symmetry_space_group_name_H-M "P -1"
_symmetry_group_IT_number 2
_symmetry_cell_setting 'triclinic'
loop_
_space_group_symop_operation_xyz
x,y,z
-x,-y,-z
loop_
_atom_site_type_symbol
_atom_site_label
_atom_site_fract_x
_atom_site_fract_y
_atom_site_fract_z
Si Si1 0.727039 0.514637 0.692608
Si Si2 0.362054 0.912823 0.012315
Si Si3 0.303714 0.344076 0.251235
Si Si4 0.061076 0.623551 0.212577
Si Si5 0.847693 0.829542 0.186773
Si Si6 0.832385 0.258481 0.385707
Si Si7 0.840901 0.934817 0.676693
O O1 0.500000 0.500000 0.500000
O O2 0.621177 0.594783 0.827941
O O3 0.000000 0.500000 0.500000
O O4 0.796774 0.457770 0.877969
O O5 0.866552 0.902662 0.344224
O O6 0.242963 0.984282 0.237848
O O7 0.521327 0.852820 0.167584
O O8 0.124921 0.904454 0.815555
O O9 0.185737 0.365978 0.570988
O O10 0.544638 0.274374 0.245635
O O11 0.062615 0.343484 0.045017
O O12 0.209623 0.666026 0.422719
O O13 0.600115 0.918423 0.817403
O O14 0.962208 0.784468 0.881199
O O15 0.027925 0.784934 0.389702
#
# Coordination Sequence:
#
# PCOD9019554 Si02
#       7
#     2   2   2   2   2   2   2
#     4  10  21  44  74 105 139 181 242 306 364 417
#     4  10  23  47  77 108 142 184 238 300 357 417
#     4  11  24  45  69 102 138 186 240 300 358 423
#     4  11  24  45  69 102 138 186 240 300 358 423
#     4  12  25  46  68 107 144 192 240 286 360 425
#     4  12  26  45  67 100 142 196 232 294 348 440
#     4  10  23  47  77 108 142 184 238 300 357 417
#
# _framework density 27.701685000000001
#
# number of rings (size 3 to 8) (size 9 to 14) (size 15 to 20)
#    0.000    1.143    2.857    2.571    0.000    4.571 
#    5.143    7.143    0.000    0.000    0.000    0.000 
#    0.000    0.000    0.000    0.000    0.000    0.000 
#
# Total GULP energy -78324.175506 kJ/mol
# GULP energy per Si atom -5594.583965 kJ/mol
# Density = 2.763863 g / cm^3
# Si number density = 27.701685 Si / 1000 Ang^3
#
#
#
# Elastic Constant Matrix: (Units=GPa)
#
#
# Indices 1 2 3 4 5 6 
#
# 1 125.5458 38.2077 43.0211 -3.2438 30.0837 -17.0549
# 2 38.2077 115.2477 39.2753 -12.6521 15.9060 -22.1559
# 3 43.0211 39.2753 170.4541 4.7130 15.7271 -10.2675
# 4 -3.2438 -12.6521 4.7130 56.6783 -6.0025 21.0246
# 5 30.0837 15.9060 15.7271 -6.0025 46.0306 -4.4895
# 6 -17.0549 -22.1559 -10.2675 21.0246 -4.4895 54.2999
#
#
#
# Elastic Compliance Matrix: (Units=1/GPa)
#
#
# Indices 1 2 3 4 5 6 
#
# 1 0.010743 -0.001924 -0.001571 -0.001129 -0.005747 0.002254
# 2 -0.001924 0.010790 -0.001728 0.001221 -0.001441 0.002880
# 3 -0.001571 -0.001728 0.006806 -0.001327 -0.000822 0.000534
# 4 -0.001129 0.001221 -0.001327 0.021262 0.002750 -0.008112
# 5 -0.005747 -0.001441 -0.000822 0.002750 0.026479 -0.001424
# 6 0.002254 0.002880 0.000534 -0.008112 -0.001424 0.023424
#
#
# Mechanical properties :
#
#
# Convention : Reuss Voigt Hill
#
# Bulk Modulus (GPa) = 55.88446 72.47287 64.17867
# Shear Modulus (GPa) = 43.13509 50.78466 46.95987
#
# Velocity S-wave (km/s) = 3.95033 4.28631 4.12175
# Velocity P-wave (km/s) = 6.40502 7.12147 6.77272
#
# Compressibility (1/GPa) = 0.01789406
#
# Stress axis : x y z
#
# Youngs Moduli (GPa) = 93.08218 92.67697 146.92667
#
# Poissons Ratio (x) = 0.17828 0.23082
# Poissons Ratio (y) = 0.17906 0.25390
# Poissons Ratio (z) = 0.14623 0.16015
#
# Static dielectric constant tensor:
#      x y z
#    x 2.227320 0.067440 -0.019830 
#    y 0.067440 2.267190 -0.052760 
#    z -0.019830 -0.052760 2.060190 
# 
# From -- ./inp_files/13473.got.cif
#   From: 2010.05.17/outbox.cif.g08.bks.cpg/sg2_7_cif.got.tgz:13473.got - 2010.06.03 11:33:40.
