data_PCOD9019528
_publ_section_title
;
Structure prediction by ZEFSAII (Michael W. Deem and Ramdas Pophale) SiO2 
 PCOD9019528
Probable space group: P -1
;
_chemical_formula_sum "Si O2"
_cell_formula_units_Z 13
_cell_length_a 9.488152
_cell_length_b 11.454937
_cell_length_c 9.016229
_cell_angle_alpha 74.780898
_cell_angle_beta 143.356026
_cell_angle_gamma 88.215804
_cell_volume 512.220492
_symmetry_space_group_name_H-M "P -1"
_symmetry_group_IT_number 2
_symmetry_cell_setting 'triclinic'
loop_
_space_group_symop_operation_xyz
x,y,z
-x,-y,-z
loop_
_atom_site_type_symbol
_atom_site_label
_atom_site_fract_x
_atom_site_fract_y
_atom_site_fract_z
Si Si1 0.229254 0.185996 0.477252
Si Si2 0.000000 0.000000 0.500000
Si Si3 0.714907 0.116218 0.745174
Si Si4 0.580066 0.212610 0.281402
Si Si5 0.773689 0.643624 0.298654
Si Si6 0.430233 0.523799 0.676055
Si Si7 0.857743 0.359036 0.871021
O O1 0.532715 0.096455 0.724103
O O2 0.193151 0.281002 0.555251
O O3 0.082992 0.095491 0.426374
O O4 0.118606 0.276685 0.207830
O O5 0.181410 0.872040 0.593979
O O6 0.588021 0.139183 0.466966
O O7 0.743605 0.249951 0.775312
O O8 0.000000 0.000000 0.000000
O O9 0.592231 0.350223 0.293160
O O10 0.319528 0.254377 0.950302
O O11 0.542664 0.600823 0.161417
O O12 0.000000 0.500000 0.500000
O O13 0.675573 0.471921 0.791932
O O14 0.177435 0.566885 0.340072
#
# Coordination Sequence:
#
# PCOD9019528 Si02
#       7
#     2   1   2   2   2   2   2
#     4  12  27  48  79 107 156 204 259 318 383 455
#     4  12  28  50  72 108 152 204 256 318 382 450
#     4  11  26  50  77 112 150 207 262 317 379 459
#     4  11  26  46  75 107 158 198 254 317 381 460
#     4  12  25  43  73 116 152 199 252 312 388 460
#     4  10  21  44  73 107 153 194 250 309 380 457
#     4  10  22  44  74 109 147 195 252 316 374 456
#
# _framework density 25.379695000000002
#
# number of rings (size 3 to 8) (size 9 to 14) (size 15 to 20)
#    0.000    0.923    1.538    4.154    4.308    3.692 
#    2.769    0.000    0.000    0.000    0.000    0.000 
#    0.000    0.000    0.000    0.000    0.000    0.000 
#
# Total GULP energy -72539.329863 kJ/mol
# GULP energy per Si atom -5579.948451 kJ/mol
# Density = 2.532193 g / cm^3
# Si number density = 25.379695 Si / 1000 Ang^3
#
#
#
# Elastic Constant Matrix: (Units=GPa)
#
#
# Indices 1 2 3 4 5 6 
#
# 1 140.6130 36.1948 60.8622 -20.0989 6.2178 -36.2402
# 2 36.1948 118.5206 34.2480 -28.7425 9.1557 -39.2193
# 3 60.8622 34.2480 120.0859 -5.9461 -20.4623 -21.1605
# 4 -20.0989 -28.7425 -5.9461 27.7472 -7.2042 -3.7844
# 5 6.2178 9.1557 -20.4623 -7.2042 33.0612 -11.0319
# 6 -36.2402 -39.2193 -21.1605 -3.7844 -11.0319 48.6310
#
#
#
# Elastic Compliance Matrix: (Units=1/GPa)
#
#
# Indices 1 2 3 4 5 6 
#
# 1 0.014257 0.006719 -0.005221 0.018677 0.001489 0.015562
# 2 0.006719 0.024379 -0.002340 0.035444 0.007651 0.028143
# 3 -0.005221 -0.002340 0.014113 0.000180 0.011392 0.002961
# 4 0.018677 0.035444 0.000180 0.101282 0.027795 0.056768
# 5 0.001489 0.007651 0.011392 0.027795 0.049508 0.025631
# 6 0.015562 0.028143 0.002961 0.056768 0.025631 0.066377
#
#
# Mechanical properties :
#
#
# Convention : Reuss Voigt Hill
#
# Bulk Modulus (GPa) = 19.58331 71.31439 45.44885
# Shear Modulus (GPa) = 17.32373 38.41551 27.86962
#
# Velocity S-wave (km/s) = 2.61546 3.89476 3.31736
# Velocity P-wave (km/s) = 4.10533 6.95597 5.71136
#
# Compressibility (1/GPa) = 0.05106389
#
# Stress axis : x y z
#
# Youngs Moduli (GPa) = 70.14210 41.01883 70.85801
#
# Poissons Ratio (x) = -0.27560 0.36995
# Poissons Ratio (y) = -0.47128 0.16583
# Poissons Ratio (z) = 0.36621 0.09599
#
# Static dielectric constant tensor:
#      x y z
#    x 2.059720 -0.002200 -0.028180 
#    y -0.002200 1.925680 0.036200 
#    z -0.028180 0.036200 2.137060 
# 
# From -- ./inp_files/93924.got.cif
#   From: 2010.05.17/outbox.cif.g08.bks.cpg/sg2_47_cif.got.tgz:93924.got - 2010.06.03 11:33:40.
