data_PCOD9019236
_publ_section_title
;
Structure prediction by ZEFSAII (Michael W. Deem and Ramdas Pophale) SiO2 
 PCOD9019236
Probable space group: P -1
;
_chemical_formula_sum "Si O2"
_cell_formula_units_Z 10
_cell_length_a 5.365527
_cell_length_b 9.421103
_cell_length_c 11.373254
_cell_angle_alpha 126.343470
_cell_angle_beta 72.129992
_cell_angle_gamma 120.671880
_cell_volume 398.285053
_symmetry_space_group_name_H-M "P -1"
_symmetry_group_IT_number 2
_symmetry_cell_setting 'triclinic'
loop_
_space_group_symop_operation_xyz
x,y,z
-x,-y,-z
loop_
_atom_site_type_symbol
_atom_site_label
_atom_site_fract_x
_atom_site_fract_y
_atom_site_fract_z
Si Si1 0.160881 0.745404 0.860831
Si Si2 0.456993 0.493180 0.276801
Si Si3 0.365129 0.803245 0.344695
Si Si4 0.141236 0.189509 0.483112
Si Si5 0.271485 0.941592 0.175130
O O1 0.340757 0.618793 0.803860
O O2 0.870529 0.649272 0.778785
O O3 0.400565 0.934103 0.854856
O O4 0.093649 0.810794 0.029678
O O5 0.534698 0.668576 0.256000
O O6 0.541687 0.641272 0.449614
O O7 0.295783 0.834266 0.237220
O O8 0.066590 0.705860 0.413688
O O9 0.500000 0.000000 0.500000
O O10 0.149738 0.094626 0.312256
O O11 0.000000 0.000000 0.500000
#
# Coordination Sequence:
#
# PCOD9019236 Si02
#       5
#     2   2   2   2   2
#     4  11  28  47  66 107 140 183 220 287 346 409
#     4  12  24  46  70 105 138 171 246 277 333 402
#     4  11  22  44  74 103 133 184 231 284 339 404
#     4  10  21  44  69  99 134 182 226 279 337 402
#     4  10  25  48  69  97 145 187 219 278 359 410
#
# _framework density 25.107645000000002
#
# number of rings (size 3 to 8) (size 9 to 14) (size 15 to 20)
#    0.000    1.200    6.000    0.000    0.000    9.600 
#    0.000    0.000    0.000    0.000    0.000    0.000 
#    0.000    0.000    0.000    0.000    0.000    0.000 
#
# Total GULP energy -55758.973663 kJ/mol
# GULP energy per Si atom -5575.897366 kJ/mol
# Density = 2.505050 g / cm^3
# Si number density = 25.107645 Si / 1000 Ang^3
#
#
#
# Elastic Constant Matrix: (Units=GPa)
#
#
# Indices 1 2 3 4 5 6 
#
# 1 125.6059 36.6042 -22.5026 11.2895 -14.7755 -11.3136
# 2 36.6042 41.9096 18.7041 11.4333 10.7217 9.4291
# 3 -22.5026 18.7041 -88.8621 -13.8283 -62.3275 -55.7587
# 4 11.2895 11.4333 -13.8283 35.5215 0.6940 6.1485
# 5 -14.7755 10.7217 -62.3275 0.6940 3.3826 -3.4403
# 6 -11.3136 9.4291 -55.7587 6.1485 -3.4403 31.1786
#
#
#
# Elastic Compliance Matrix: (Units=1/GPa)
#
#
# Indices 1 2 3 4 5 6 
#
# 1 0.009349 -0.006080 -0.003272 -0.002262 0.000113 -0.000162
# 2 -0.006080 0.027064 0.006039 -0.004714 0.001416 0.001495
# 3 -0.003272 0.006039 0.001244 0.000221 -0.012858 -0.002252
# 4 -0.002262 -0.004714 0.000221 0.031490 -0.002949 -0.005535
# 5 0.000113 0.001416 -0.012858 -0.002949 0.036195 -0.018806
# 6 -0.000162 0.001495 -0.002252 -0.005535 -0.018806 0.026551
#
#
# Mechanical properties :
#
#
# Convention : Reuss Voigt Hill
#
# Bulk Modulus (GPa) = 32.22796 16.02942 24.12869
# Shear Modulus (GPa) = 33.58805 17.07306 25.33055
#
# Velocity S-wave (km/s) = 3.66151 2.61050 3.17973
# Velocity P-wave (km/s) = 5.54431 3.93502 4.80748
#
# Compressibility (1/GPa) = 0.03102896
#
# Stress axis : x y z
#
# Youngs Moduli (GPa) = 106.96295 36.94965 804.16141
#
# Poissons Ratio (x) = 0.22466 2.63150
# Poissons Ratio (y) = 0.65036 -4.85620
# Poissons Ratio (z) = 0.35002 -0.22313
#
# Static dielectric constant tensor:
#      x y z
#    x 2.221940 0.036850 0.010470 
#    y 0.036850 2.114690 0.035360 
#    z 0.010470 0.035360 1.985600 
# 
# From -- ./inp_files/92980.got.cif
#   From: 2010.05.17/outbox.cif.g08.bks.cpg/sg2_47_cif.got.tgz:92980.got - 2010.06.03 11:33:40.
