data_PCOD9019133
_publ_section_title
;
Structure prediction by ZEFSAII (Michael W. Deem and Ramdas Pophale) SiO2 
 PCOD9019133
Probable space group: P -1
;
_chemical_formula_sum "Si O2"
_cell_formula_units_Z 16
_cell_length_a 14.582004
_cell_length_b 11.919062
_cell_length_c 9.151737
_cell_angle_alpha 81.585027
_cell_angle_beta 70.399690
_cell_angle_gamma 31.719977
_cell_volume 756.169184
_symmetry_space_group_name_H-M "P -1"
_symmetry_group_IT_number 2
_symmetry_cell_setting 'triclinic'
loop_
_space_group_symop_operation_xyz
x,y,z
-x,-y,-z
loop_
_atom_site_type_symbol
_atom_site_label
_atom_site_fract_x
_atom_site_fract_y
_atom_site_fract_z
Si Si1 0.484921 0.386227 0.464906
Si Si2 0.863191 0.217358 0.942108
Si Si3 0.862178 0.626117 0.191533
Si Si4 0.127572 0.139880 0.699453
Si Si5 0.068013 0.322634 0.409300
Si Si6 0.800503 0.206428 0.650966
Si Si7 0.477880 0.351554 0.787890
Si Si8 0.501904 0.082087 0.848293
O O1 0.500000 0.500000 0.500000
O O2 0.329634 0.561816 0.389753
O O3 0.418534 0.387225 0.645208
O O4 0.680670 0.130405 0.357679
O O5 0.832284 0.196611 0.804417
O O6 0.967400 0.232772 0.856999
O O7 0.668594 0.420616 0.096872
O O8 0.000000 0.000000 0.000000
O O9 0.842609 0.767851 0.256808
O O10 0.658477 0.792912 0.205398
O O11 0.951543 0.447225 0.295348
O O12 0.000000 0.500000 0.000000
O O13 0.058972 0.230779 0.551061
O O14 0.000000 0.500000 0.500000
O O15 0.289775 0.119307 0.294682
O O16 0.682171 0.207669 0.700526
O O17 0.000000 0.000000 0.500000
O O18 0.469285 0.241438 0.894202
O O19 0.500000 0.000000 0.000000
#
# Coordination Sequence:
#
# PCOD9019133 Si02
#       8
#     2   2   2   2   2   2   2   2
#     4  10  21  44  68  97 136 174 229 290 339 417
#     4  12  25  43  69  98 137 180 229 288 347 414
#     4  11  24  46  72 105 142 186 236 292 352 419
#     4  11  24  46  70 102 138 187 232 287 353 418
#     4  10  24  46  70 100 142 177 245 289 343 419
#     4  11  24  44  71  99 136 180 232 290 350 419
#     4  11  24  44  66 101 138 176 229 285 353 411
#     4  12  25  44  71 104 144 182 230 296 346 415
#
# _framework density 21.159284
#
# number of rings (size 3 to 8) (size 9 to 14) (size 15 to 20)
#    0.000    1.000    2.500    4.875    1.750    5.000 
#    2.250    0.000    0.000    0.000    0.000    0.000 
#    0.000    0.000    0.000    0.000    0.000    0.000 
#
# Total GULP energy -89390.925224 kJ/mol
# GULP energy per Si atom -5586.932826 kJ/mol
# Density = 2.111112 g / cm^3
# Si number density = 21.159284 Si / 1000 Ang^3
#
#
#
# Elastic Constant Matrix: (Units=GPa)
#
#
# Indices 1 2 3 4 5 6 
#
# 1 101.0258 47.2337 27.7582 -13.2141 -3.4115 -10.3736
# 2 47.2337 140.2982 47.7310 -12.9041 5.3264 -13.0232
# 3 27.7582 47.7310 103.9404 -2.2261 0.7971 -16.1383
# 4 -13.2141 -12.9041 -2.2261 45.3510 7.1131 7.9746
# 5 -3.4115 5.3264 0.7971 7.1131 39.4560 -6.0538
# 6 -10.3736 -13.0232 -16.1383 7.9746 -6.0538 38.8321
#
#
#
# Elastic Compliance Matrix: (Units=1/GPa)
#
#
# Indices 1 2 3 4 5 6 
#
# 1 0.012352 -0.003381 -0.001506 0.002115 0.001376 0.001320
# 2 -0.003381 0.009706 -0.003462 0.001850 -0.001828 0.000248
# 3 -0.001506 -0.003462 0.012191 -0.001689 0.001010 0.004007
# 4 0.002115 0.001850 -0.001689 0.024913 -0.005363 -0.005469
# 5 0.001376 -0.001828 0.001010 -0.005363 0.027511 0.005565
# 6 0.001320 0.000248 0.004007 -0.005469 0.005565 0.029844
#
#
# Mechanical properties :
#
#
# Convention : Reuss Voigt Hill
#
# Bulk Modulus (GPa) = 56.97909 65.63450 61.30680
# Shear Modulus (GPa) = 35.95411 39.56392 37.75901
#
# Velocity S-wave (km/s) = 4.12662 4.32883 4.22893
# Velocity P-wave (km/s) = 7.04929 7.48809 7.27200
#
# Compressibility (1/GPa) = 0.01755030
#
# Stress axis : x y z
#
# Youngs Moduli (GPa) = 80.95969 103.02408 82.02533
#
# Poissons Ratio (x) = 0.34834 0.12356
# Poissons Ratio (y) = 0.27374 0.28399
# Poissons Ratio (z) = 0.12195 0.35669
#
# Static dielectric constant tensor:
#      x y z
#    x 1.784740 0.007680 -0.017560 
#    y 0.007680 1.821360 -0.066180 
#    z -0.017560 -0.066180 1.732340 
# 
# From -- ./inp_files/307313.got.cif
#   From: 2010.05.17/outbox.cif.g08.bks.cpg/sg2_154_cif.got.tgz:307313.got - 2010.06.03 11:33:40.
