data_PCOD9019855
_publ_section_title
;
Structure prediction by ZEFSAII (Michael W. Deem and Ramdas Pophale) SiO2 
 PCOD9019855
Probable space group: P -1
;
_chemical_formula_sum "Si O2"
_cell_formula_units_Z 16
_cell_length_a 5.012520
_cell_length_b 23.437021
_cell_length_c 13.857310
_cell_angle_alpha 34.359255
_cell_angle_beta 56.466007
_cell_angle_gamma 41.864321
_cell_volume 604.701742
_symmetry_space_group_name_H-M "P -1"
_symmetry_group_IT_number 2
_symmetry_cell_setting 'triclinic'
loop_
_space_group_symop_operation_xyz
x,y,z
-x,-y,-z
loop_
_atom_site_type_symbol
_atom_site_label
_atom_site_fract_x
_atom_site_fract_y
_atom_site_fract_z
Si Si1 0.591194 0.097217 0.073246
Si Si2 0.443646 0.723237 0.509656
Si Si3 0.746457 0.491650 0.645115
Si Si4 0.479303 0.886341 0.143173
Si Si5 0.541267 0.953264 0.447305
Si Si6 0.517033 0.376923 0.164352
Si Si7 0.401481 0.254019 0.195582
Si Si8 0.483828 0.323205 0.874934
O O1 0.398712 0.063612 0.241755
O O2 0.366335 0.163532 0.925431
O O3 0.691596 0.188863 0.964574
O O4 0.993909 0.960658 0.146338
O O5 0.443148 0.632325 0.558829
O O6 0.658552 0.776538 0.340457
O O7 0.649164 0.640709 0.680425
O O8 0.003270 0.844469 0.467683
O O9 0.573333 0.425232 0.720980
O O10 0.000000 0.500000 0.500000
O O11 0.041881 0.403366 0.798759
O O12 0.500000 0.000000 0.000000
O O13 0.369020 0.872451 0.606358
O O14 0.500000 0.000000 0.500000
O O15 0.323647 0.360356 0.135452
O O16 0.003270 0.271840 0.213756
O O17 0.500000 0.500000 0.000000
O O18 0.548784 0.274009 0.040263
#
# Coordination Sequence:
#
# PCOD9019855 Si02
#       8
#     2   2   2   2   2   2   2   2
#     4  10  23  42  70 101 141 189 244 302 368 431
#     4  10  24  44  69 105 141 191 243 303 365 436
#     4  12  28  48  72 107 145 193 247 302 362 432
#     4  10  23  43  68 100 136 187 246 304 363 428
#     4  10  21  45  70 107 145 188 242 304 371 434
#     4  11  23  42  67 101 142 187 235 290 357 429
#     4  11  23  41  68 102 141 185 233 290 360 434
#     4  12  25  46  74 105 143 193 239 303 364 439
#
# _framework density 26.459326000000001
#
# number of rings (size 3 to 8) (size 9 to 14) (size 15 to 20)
#    0.000    1.250    1.250    3.750    5.250    3.000 
#    2.250    2.500    0.000    0.000    0.000    0.000 
#    0.000    0.000    0.000    0.000    0.000    0.000 
#
# Total GULP energy -89352.175130 kJ/mol
# GULP energy per Si atom -5584.510946 kJ/mol
# Density = 2.639910 g / cm^3
# Si number density = 26.459326 Si / 1000 Ang^3
#
#
#
# Elastic Constant Matrix: (Units=GPa)
#
#
# Indices 1 2 3 4 5 6 
#
# 1 86.0631 35.3556 52.2523 3.9362 -16.0889 31.6193
# 2 35.3556 174.4139 81.7252 11.8490 -2.2297 39.7264
# 3 52.2523 81.7252 205.1582 26.8034 -11.1927 34.4794
# 4 3.9362 11.8490 26.8034 56.7412 3.5169 5.9940
# 5 -16.0889 -2.2297 -11.1927 3.5169 41.7306 -9.8119
# 6 31.6193 39.7264 34.4794 5.9940 -9.8119 51.7443
#
#
#
# Elastic Compliance Matrix: (Units=1/GPa)
#
#
# Indices 1 2 3 4 5 6 
#
# 1 0.016938 -0.000426 -0.002766 0.000772 0.003931 -0.007524
# 2 -0.000426 0.007946 -0.002382 0.000065 -0.001450 -0.004536
# 3 -0.002766 -0.002382 0.007029 -0.002601 0.000741 -0.000723
# 4 0.000772 0.000065 -0.002601 0.019083 -0.002344 -0.001443
# 5 0.003931 -0.001450 0.000741 -0.002344 0.026630 0.003539
# 6 -0.007524 -0.004536 -0.000723 -0.001443 0.003539 0.028726
#
#
# Mechanical properties :
#
#
# Convention : Reuss Voigt Hill
#
# Bulk Modulus (GPa) = 48.15789 89.36685 68.76237
# Shear Modulus (GPa) = 40.18587 49.79668 44.99127
#
# Velocity S-wave (km/s) = 3.90138 4.34292 4.12806
# Velocity P-wave (km/s) = 6.20762 7.68091 6.98323
#
# Compressibility (1/GPa) = 0.02076503
#
# Stress axis : x y z
#
# Youngs Moduli (GPa) = 59.04013 125.84644 142.25779
#
# Poissons Ratio (x) = 0.05358 0.39351
# Poissons Ratio (y) = 0.02514 0.33889
# Poissons Ratio (z) = 0.16331 0.29980
#
# Static dielectric constant tensor:
#      x y z
#    x 2.214890 -0.272450 0.187090 
#    y -0.272450 2.279830 -0.223760 
#    z 0.187090 -0.223760 2.368160 
# 
# From -- ./inp_files/370334.got.cif
#   From: 2010.05.17/outbox.cif.g08.bks.cpg/sg2_186_cif.got.tgz:370334.got - 2010.06.03 11:33:40.
