data_PCOD9019604
_publ_section_title
;
Structure prediction by ZEFSAII (Michael W. Deem and Ramdas Pophale) SiO2 
 PCOD9019604
Probable space group: P -1
;
_chemical_formula_sum "Si O2"
_cell_formula_units_Z 16
_cell_length_a 20.762551
_cell_length_b 8.819942
_cell_length_c 4.927378
_cell_angle_alpha 119.586566
_cell_angle_beta 112.061729
_cell_angle_gamma 52.077601
_cell_volume 615.548506
_symmetry_space_group_name_H-M "P -1"
_symmetry_group_IT_number 2
_symmetry_cell_setting 'triclinic'
loop_
_space_group_symop_operation_xyz
x,y,z
-x,-y,-z
loop_
_atom_site_type_symbol
_atom_site_label
_atom_site_fract_x
_atom_site_fract_y
_atom_site_fract_z
Si Si1 0.882843 0.881588 0.078517
Si Si2 0.959461 0.241795 0.077238
Si Si3 0.444304 0.951878 0.552068
Si Si4 0.857468 0.330503 0.474349
Si Si5 0.715523 0.643297 0.150959
Si Si6 0.786003 0.908922 0.452354
Si Si7 0.518078 0.320666 0.107056
Si Si8 0.357446 0.606402 0.335735
O O1 0.883749 0.320373 0.817689
O O2 0.865454 0.112482 0.241388
O O3 0.972354 0.741202 0.962704
O O4 0.819358 0.865269 0.772175
O O5 0.923625 0.344336 0.400709
O O6 0.000000 0.000000 0.000000
O O7 0.363129 0.164457 0.669633
O O8 0.500000 0.000000 0.500000
O O9 0.473973 0.837662 0.785701
O O10 0.437382 0.801388 0.201633
O O11 0.772392 0.497949 0.355260
O O12 0.861246 0.862009 0.334444
O O13 0.756515 0.758157 0.180923
O O14 0.688892 0.515662 0.809340
O O15 0.712266 0.150200 0.551738
O O16 0.419870 0.480632 0.072746
O O17 0.571705 0.412857 0.374015
#
# Coordination Sequence:
#
# PCOD9019604 Si02
#       8
#     2   2   2   2   2   2   2   2
#     4  11  23  47  73 107 151 197 247 311 374 457
#     4  10  21  44  77 114 148 196 256 308 371 464
#     4  12  26  49  75 110 153 198 252 322 385 446
#     4  11  23  43  77 114 147 201 253 305 390 449
#     4  12  28  50  75 115 161 198 256 328 381 458
#     4  12  27  46  72 112 153 199 252 313 385 445
#     4  11  27  50  77 108 145 208 259 314 385 459
#     4  11  26  51  77 109 154 201 260 320 380 459
#
# _framework density 25.993079000000002
#
# number of rings (size 3 to 8) (size 9 to 14) (size 15 to 20)
#    0.000    0.750    3.750    4.125    1.750    6.000 
#    0.000    3.750    0.000    0.000    0.000    0.000 
#    0.000    0.000    0.000    0.000    0.000    0.000 
#
# Total GULP energy -89525.126586 kJ/mol
# GULP energy per Si atom -5595.320412 kJ/mol
# Density = 2.593392 g / cm^3
# Si number density = 25.993079 Si / 1000 Ang^3
#
#
#
# Elastic Constant Matrix: (Units=GPa)
#
#
# Indices 1 2 3 4 5 6 
#
# 1 110.9771 59.7247 35.6447 0.5962 15.6267 12.4775
# 2 59.7247 86.3832 28.9657 6.3862 -9.9980 16.8738
# 3 35.6447 28.9657 82.7239 3.0951 -4.2651 23.3974
# 4 0.5962 6.3862 3.0951 41.9441 23.0580 0.8651
# 5 15.6267 -9.9980 -4.2651 23.0580 45.0051 1.8671
# 6 12.4775 16.8738 23.3974 0.8651 1.8671 33.7416
#
#
#
# Elastic Compliance Matrix: (Units=1/GPa)
#
#
# Indices 1 2 3 4 5 6 
#
# 1 0.023041 -0.018160 -0.006829 0.013818 -0.020012 0.006050
# 2 -0.018160 0.029043 0.002235 -0.015982 0.021578 -0.010142
# 3 -0.006829 0.002235 0.018114 -0.005742 0.008001 -0.011448
# 4 0.013818 -0.015982 -0.005742 0.043721 -0.031603 0.007492
# 5 -0.020012 0.021578 0.008001 -0.031603 0.051367 -0.010971
# 6 0.006050 -0.010142 -0.011448 0.007492 -0.010971 0.040826
#
#
# Mechanical properties :
#
#
# Convention : Reuss Voigt Hill
#
# Bulk Modulus (GPa) = 40.50437 58.75049 49.62743
# Shear Modulus (GPa) = 19.24187 34.52143 26.88165
#
# Velocity S-wave (km/s) = 2.72374 3.64827 3.21936
# Velocity P-wave (km/s) = 5.05057 6.35593 5.74048
#
# Compressibility (1/GPa) = 0.02468869
#
# Stress axis : x y z
#
# Youngs Moduli (GPa) = 43.40068 34.43187 55.20583
#
# Poissons Ratio (x) = 0.62528 0.37702
# Poissons Ratio (y) = 0.78816 -0.12337
# Poissons Ratio (z) = 0.29640 -0.07695
#
# Static dielectric constant tensor:
#      x y z
#    x 2.115600 0.021530 -0.022700 
#    y 0.021530 2.067670 0.030760 
#    z -0.022700 0.030760 2.111290 
# 
# From -- ./inp_files/122706.got.cif
#   From: 2010.05.17/outbox.cif.g08.bks.cpg/sg2_62_cif.got.tgz:122706.got - 2010.06.03 11:33:40.
