data_PCOD9019512
_publ_section_title
;
Structure prediction by ZEFSAII (Michael W. Deem and Ramdas Pophale) SiO2 
 PCOD9019512
Probable space group: P -1
;
_chemical_formula_sum "Si O2"
_cell_formula_units_Z 14
_cell_length_a 4.860174
_cell_length_b 11.275139
_cell_length_c 10.686527
_cell_angle_alpha 66.414502
_cell_angle_beta 85.414565
_cell_angle_gamma 70.927025
_cell_volume 506.356813
_symmetry_space_group_name_H-M "P -1"
_symmetry_group_IT_number 2
_symmetry_cell_setting 'triclinic'
loop_
_space_group_symop_operation_xyz
x,y,z
-x,-y,-z
loop_
_atom_site_type_symbol
_atom_site_label
_atom_site_fract_x
_atom_site_fract_y
_atom_site_fract_z
Si Si1 0.191709 0.422693 0.770374
Si Si2 0.078220 0.099100 0.360628
Si Si3 0.170482 0.765239 0.173326
Si Si4 0.666853 0.124521 0.128021
Si Si5 0.782961 0.671985 0.590795
Si Si6 0.671856 0.588865 0.882479
Si Si7 0.507592 0.881638 0.297031
O O1 0.537135 0.369345 0.787131
O O2 0.100895 0.290219 0.793433
O O3 0.051391 0.534001 0.622591
O O4 0.002295 0.492715 0.871438
O O5 0.084066 0.230325 0.377171
O O6 0.876206 0.123297 0.237236
O O7 0.398183 0.008568 0.344692
O O8 0.000000 0.000000 0.500000
O O9 0.245043 0.845475 0.253793
O O10 0.180137 0.841780 0.013863
O O11 0.389919 0.264999 0.104848
O O12 0.634582 0.975861 0.163213
O O13 0.574121 0.637287 0.719547
O O14 0.652210 0.753155 0.436953
O O15 0.500000 0.500000 0.000000
#
# Coordination Sequence:
#
# PCOD9019512 Si02
#       7
#     2   2   2   2   2   2   2
#     4  10  27  48  73 108 148 195 258 300 373 434
#     4  12  25  42  77 107 147 186 249 313 379 431
#     4  12  29  48  72 109 153 203 247 297 372 459
#     4  12  25  44  72 110 144 195 245 310 373 443
#     4  10  23  46  74 109 142 189 255 311 377 427
#     4  10  21  44  73 102 145 184 247 316 360 424
#     4  12  26  47  70 104 155 195 245 303 375 451
#
# _framework density 27.648488
#
# number of rings (size 3 to 8) (size 9 to 14) (size 15 to 20)
#    0.857    0.000    4.286    1.714    6.000    2.286 
#    0.000    0.000    0.000    0.000    0.000    0.000 
#    0.000    0.000    0.000    0.000    0.000    0.000 
#
# Total GULP energy -78306.778535 kJ/mol
# GULP energy per Si atom -5593.341324 kJ/mol
# Density = 2.758556 g / cm^3
# Si number density = 27.648488 Si / 1000 Ang^3
#
#
#
# Elastic Constant Matrix: (Units=GPa)
#
#
# Indices 1 2 3 4 5 6 
#
# 1 61.9724 -1.3526 22.7484 -4.6285 6.5397 17.7925
# 2 -1.3526 156.3758 43.8719 -25.8084 1.1663 26.5011
# 3 22.7484 43.8719 142.2463 -22.8342 12.3401 11.1286
# 4 -4.6285 -25.8084 -22.8342 56.9779 7.6434 -5.0473
# 5 6.5397 1.1663 12.3401 7.6434 35.2606 -2.5688
# 6 17.7925 26.5011 11.1286 -5.0473 -2.5688 52.8978
#
#
#
# Elastic Compliance Matrix: (Units=1/GPa)
#
#
# Indices 1 2 3 4 5 6 
#
# 1 0.019823 0.002471 -0.002812 0.001437 -0.003621 -0.007352
# 2 0.002471 0.008192 -0.002050 0.002836 -0.000938 -0.004278
# 3 -0.002812 -0.002050 0.008812 0.002810 -0.003086 0.000237
# 4 0.001437 0.002836 0.002810 0.020800 -0.005910 -0.000798
# 5 -0.003621 -0.000938 -0.003086 -0.005910 0.031665 0.003311
# 6 -0.007352 -0.004278 0.000237 -0.000798 0.003311 0.023556
#
#
# Mechanical properties :
#
#
# Convention : Reuss Voigt Hill
#
# Bulk Modulus (GPa) = 31.20786 54.56997 42.88891
# Shear Modulus (GPa) = 38.96743 48.71571 43.84157
#
# Velocity S-wave (km/s) = 3.75825 4.20213 3.98638
# Velocity P-wave (km/s) = 5.49040 6.58208 6.06087
#
# Compressibility (1/GPa) = 0.03204321
#
# Stress axis : x y z
#
# Youngs Moduli (GPa) = 50.44727 122.07659 113.47805
#
# Poissons Ratio (x) = -0.30160 0.31911
# Poissons Ratio (y) = -0.12463 0.23265
# Poissons Ratio (z) = 0.14186 0.25027
#
# Static dielectric constant tensor:
#      x y z
#    x 2.165090 -0.069310 0.076270 
#    y -0.069310 2.324210 -0.050650 
#    z 0.076270 -0.050650 2.039330 
# 
# From -- ./inp_files/362651.got.cif
#   From: 2010.05.17/outbox.cif.g08.bks.cpg/sg2_182_cif.got.tgz:362651.got - 2010.06.03 11:33:40.
