data_PCOD9019597
_publ_section_title
;
Structure prediction by ZEFSAII (Michael W. Deem and Ramdas Pophale) SiO2 
 PCOD9019597
Probable space group: P -1
;
_chemical_formula_sum "Si O2"
_cell_formula_units_Z 12
_cell_length_a 5.129912
_cell_length_b 6.857143
_cell_length_c 19.237727
_cell_angle_alpha 129.911300
_cell_angle_beta 86.338804
_cell_angle_gamma 76.511311
_cell_volume 483.627831
_symmetry_space_group_name_H-M "P -1"
_symmetry_group_IT_number 2
_symmetry_cell_setting 'triclinic'
loop_
_space_group_symop_operation_xyz
x,y,z
-x,-y,-z
loop_
_atom_site_type_symbol
_atom_site_label
_atom_site_fract_x
_atom_site_fract_y
_atom_site_fract_z
Si Si1 0.668997 0.683815 0.510468
Si Si2 0.716168 0.802290 0.201789
Si Si3 0.881301 0.825369 0.410606
Si Si4 0.117970 0.976907 0.317860
Si Si5 0.108658 0.211695 0.085614
Si Si6 0.553037 0.776140 0.050552
O O1 0.500000 0.500000 0.500000
O O2 0.810161 0.620486 0.416852
O O3 0.413450 0.976379 0.570149
O O4 0.871427 0.764120 0.579289
O O5 0.394091 0.885840 0.246493
O O6 0.741570 0.797231 0.116825
O O7 0.859312 0.998019 0.277849
O O8 0.866482 0.501820 0.162922
O O9 0.097670 0.762153 0.328518
O O10 0.000000 0.000000 0.500000
O O11 0.282106 0.052354 0.112074
O O12 0.313752 0.261604 0.036515
O O13 0.000000 0.000000 0.000000
O O14 0.500000 0.500000 0.000000
#
# Coordination Sequence:
#
# PCOD9019597 Si02
#       6
#     2   2   2   2   2   2
#     4  10  21  44  77 102 135 191 249 284 343 443
#     4  12  25  45  73 104 157 185 234 314 365 418
#     4   9  20  42  72  98 139 187 235 285 358 424
#     4  11  24  44  70 105 146 191 228 301 379 406
#     4  11  25  44  75 104 132 195 257 280 357 442
#     4  11  24  46  74 103 139 192 248 296 351 437
#
# _framework density 24.812470000000001
#
# number of rings (size 3 to 8) (size 9 to 14) (size 15 to 20)
#    0.000    1.333    3.333    1.500    4.667    2.667 
#    0.000    8.333    0.000    0.000    0.000    0.000 
#    0.000    0.000    0.000    0.000    0.000    0.000 
#
# Total GULP energy -67089.677885 kJ/mol
# GULP energy per Si atom -5590.806490 kJ/mol
# Density = 2.475600 g / cm^3
# Si number density = 24.812470 Si / 1000 Ang^3
#
#
#
# Elastic Constant Matrix: (Units=GPa)
#
#
# Indices 1 2 3 4 5 6 
#
# 1 122.0848 48.2607 26.0804 -15.5942 21.6008 20.7509
# 2 48.2607 167.3897 27.3319 -7.6490 16.0216 16.0399
# 3 26.0804 27.3319 70.2859 -4.3635 22.9673 4.7694
# 4 -15.5942 -7.6490 -4.3635 37.3754 1.1101 -0.5654
# 5 21.6008 16.0216 22.9673 1.1101 56.3088 -10.8319
# 6 20.7509 16.0399 4.7694 -0.5654 -10.8319 49.8991
#
#
#
# Elastic Compliance Matrix: (Units=1/GPa)
#
#
# Indices 1 2 3 4 5 6 
#
# 1 0.011400 -0.001984 -0.001492 0.004228 -0.004212 -0.004827
# 2 -0.001984 0.007052 -0.001588 0.000434 -0.000891 -0.001478
# 3 -0.001492 -0.001588 0.017784 0.001296 -0.006639 -0.001995
# 4 0.004228 0.000434 0.001296 0.028822 -0.003306 -0.002413
# 5 -0.004212 -0.000891 -0.006639 -0.003306 0.023907 0.007824
# 6 -0.004827 -0.001478 -0.001995 -0.002413 0.007824 0.024385
#
#
# Mechanical properties :
#
#
# Convention : Reuss Voigt Hill
#
# Bulk Modulus (GPa) = 38.30288 62.56738 50.43513
# Shear Modulus (GPa) = 37.82728 45.92248 41.87488
#
# Velocity S-wave (km/s) = 3.90875 4.30674 4.11256
# Velocity P-wave (km/s) = 5.98679 7.07117 6.55145
#
# Compressibility (1/GPa) = 0.02610770
#
# Stress axis : x y z
#
# Youngs Moduli (GPa) = 87.72050 141.80012 56.23049
#
# Poissons Ratio (x) = 0.28137 0.08390
# Poissons Ratio (y) = 0.17406 0.08928
# Poissons Ratio (z) = 0.13089 0.22514
#
# Static dielectric constant tensor:
#      x y z
#    x 2.041150 -0.105030 -0.073510 
#    y -0.105030 2.002430 0.019970 
#    z -0.073510 0.019970 2.041110 
# 
# From -- ./inp_files/102138.got.cif
#   From: 2010.05.17/outbox.cif.g08.bks.cpg/sg2_52_cif.got.tgz:102138.got - 2010.06.03 11:33:40.
