data_PCOD9019595
_publ_section_title
;
Structure prediction by ZEFSAII (Michael W. Deem and Ramdas Pophale) SiO2 
 PCOD9019595
Probable space group: P -1
;
_chemical_formula_sum "Si O2"
_cell_formula_units_Z 8
_cell_length_a 7.050766
_cell_length_b 8.846078
_cell_length_c 9.144064
_cell_angle_alpha 142.994326
_cell_angle_beta 97.537532
_cell_angle_gamma 99.537251
_cell_volume 303.351127
_symmetry_space_group_name_H-M "P -1"
_symmetry_group_IT_number 2
_symmetry_cell_setting 'triclinic'
loop_
_space_group_symop_operation_xyz
x,y,z
-x,-y,-z
loop_
_atom_site_type_symbol
_atom_site_label
_atom_site_fract_x
_atom_site_fract_y
_atom_site_fract_z
Si Si1 0.915532 0.291801 0.597825
Si Si2 0.053477 0.994139 0.169272
Si Si3 0.490616 0.797008 0.703132
Si Si4 0.247935 0.328721 0.862084
O O1 0.715263 0.282456 0.480873
O O2 0.053828 0.263070 0.453863
O O3 0.113113 0.449984 0.851267
O O4 0.804759 0.988252 0.436063
O O5 0.288413 0.020463 0.218988
O O6 0.859703 0.735125 0.035043
O O7 0.000000 0.000000 0.000000
O O8 0.500000 0.500000 0.500000
O O9 0.500000 0.000000 0.000000
O O10 0.500000 0.500000 0.000000
#
# Coordination Sequence:
#
# PCOD9019595 Si02
#       4
#     2   2   2   2
#     4   9  22  45  75 114 161 208 280 324 422 486
#     4  10  21  44  76 115 159 210 275 332 407 485
#     4  12  26  49  81 121 169 213 274 348 414 488
#     4   9  20  46  77 113 166 215 268 340 415 493
#
# _framework density 26.372081000000001
#
# number of rings (size 3 to 8) (size 9 to 14) (size 15 to 20)
#    1.500    0.500    2.500    0.000    0.000    6.000 
#    4.500    1.250    0.000    4.500    0.000    0.000 
#    0.000    0.000    0.000    0.000    0.000    0.000 
#
# Total GULP energy -44543.241658 kJ/mol
# GULP energy per Si atom -5567.905207 kJ/mol
# Density = 2.631206 g / cm^3
# Si number density = 26.372081 Si / 1000 Ang^3
#
#
#
# Elastic Constant Matrix: (Units=GPa)
#
#
# Indices 1 2 3 4 5 6 
#
# 1 282.6357 107.0477 85.1781 -18.0174 48.2890 5.5235
# 2 107.0477 166.6810 80.2367 -4.5347 24.6098 10.2003
# 3 85.1781 80.2367 123.8753 -13.9783 29.4701 -5.5798
# 4 -18.0174 -4.5347 -13.9783 65.9754 -1.0859 -4.7135
# 5 48.2890 24.6098 29.4701 -1.0859 33.7392 3.0858
# 6 5.5235 10.2003 -5.5798 -4.7135 3.0858 69.5814
#
#
#
# Elastic Compliance Matrix: (Units=1/GPa)
#
#
# Indices 1 2 3 4 5 6 
#
# 1 0.005762 -0.002395 -0.000929 0.001130 -0.005666 0.000147
# 2 -0.002395 0.010027 -0.005265 -0.001197 0.000841 -0.001820
# 3 -0.000929 -0.005265 0.014286 0.002466 -0.007457 0.002489
# 4 0.001130 -0.001197 0.002466 0.015970 -0.002519 0.001477
# 5 -0.005666 0.000841 -0.007457 -0.002519 0.043786 -0.002384
# 6 0.000147 -0.001820 0.002489 0.001477 -0.002384 0.015032
#
#
# Mechanical properties :
#
#
# Convention : Reuss Voigt Hill
#
# Bulk Modulus (GPa) = 77.53465 124.23522 100.88494
# Shear Modulus (GPa) = 39.57595 53.90785 46.74190
#
# Velocity S-wave (km/s) = 3.87806 4.52611 4.21456
# Velocity P-wave (km/s) = 7.03680 8.63279 7.87533
#
# Compressibility (1/GPa) = 0.01289746
#
# Stress axis : x y z
#
# Youngs Moduli (GPa) = 173.53608 99.73238 70.00032
#
# Poissons Ratio (x) = 0.23891 0.06501
# Poissons Ratio (y) = 0.41570 0.36852
# Poissons Ratio (z) = 0.16116 0.52505
#
# Static dielectric constant tensor:
#      x y z
#    x 2.207130 -0.106480 -0.238240 
#    y -0.106480 2.161470 0.168300 
#    z -0.238240 0.168300 2.501370 
# 
# From -- ./inp_files/129477.got.cif
#   From: 2010.05.17/outbox.cif.g08.bks.cpg/sg2_65_cif.got.tgz:129477.got - 2010.06.03 11:33:40.
