data_PCOD9019186
_publ_section_title
;
Structure prediction by ZEFSAII (Michael W. Deem and Ramdas Pophale) SiO2 
 PCOD9019186
Probable space group: P -1
;
_chemical_formula_sum "Si O2"
_cell_formula_units_Z 16
_cell_length_a 20.611853
_cell_length_b 11.480544
_cell_length_c 7.316933
_cell_angle_alpha 125.787546
_cell_angle_beta 133.580248
_cell_angle_gamma 30.617687
_cell_volume 638.642390
_symmetry_space_group_name_H-M "P -1"
_symmetry_group_IT_number 2
_symmetry_cell_setting 'triclinic'
loop_
_space_group_symop_operation_xyz
x,y,z
-x,-y,-z
loop_
_atom_site_type_symbol
_atom_site_label
_atom_site_fract_x
_atom_site_fract_y
_atom_site_fract_z
Si Si1 0.382523 0.452857 0.070418
Si Si2 0.892112 0.633029 0.086373
Si Si3 0.135079 0.965737 0.936502
Si Si4 0.832600 0.752794 0.595112
Si Si5 0.292531 0.939249 0.696994
Si Si6 0.438380 0.079539 0.737799
Si Si7 0.872220 0.115462 0.559711
Si Si8 0.710003 0.577957 0.751509
O O1 0.546146 0.302685 0.260061
O O2 0.315181 0.466474 0.137763
O O3 0.281123 0.701863 0.024733
O O4 0.408042 0.283623 0.834872
O O5 0.018170 0.516444 0.367368
O O6 0.761314 0.909687 0.086467
O O7 0.827465 0.557693 0.941072
O O8 0.000000 0.500000 0.000000
O O9 0.098793 0.999326 0.681031
O O10 0.007729 0.026725 0.824772
O O11 0.142817 0.119134 0.158152
O O12 0.709541 0.812238 0.501405
O O13 0.755626 0.880335 0.372524
O O14 0.197897 0.915804 0.477447
O O15 0.563216 0.839582 0.659436
O O16 0.500000 0.000000 0.000000
O O17 0.759406 0.382773 0.548012
#
# Coordination Sequence:
#
# PCOD9019186 Si02
#       8
#     2   2   2   2   2   2   2   2
#     4  11  24  45  73 106 139 180 239 289 349 409
#     4  12  27  46  71 107 145 181 233 287 353 418
#     4  11  27  47  67 103 144 189 232 287 354 419
#     4  12  24  45  76 101 136 184 241 287 344 410
#     4  12  25  44  74 106 138 184 235 295 341 414
#     4  10  21  44  69 105 137 172 224 294 346 405
#     4  11  27  46  68 100 148 189 231 286 352 419
#     4  11  22  47  73  98 142 184 229 295 341 415
#
# _framework density 25.053146000000002
#
# number of rings (size 3 to 8) (size 9 to 14) (size 15 to 20)
#    0.000    0.750    5.000    2.625    7.000    2.500 
#    2.250    1.250    0.000    0.000    0.000    0.000 
#    0.000    0.000    0.000    0.000    0.000    0.000 
#
# Total GULP energy -89335.318405 kJ/mol
# GULP energy per Si atom -5583.457400 kJ/mol
# Density = 2.499612 g / cm^3
# Si number density = 25.053146 Si / 1000 Ang^3
#
#
#
# Elastic Constant Matrix: (Units=GPa)
#
#
# Indices 1 2 3 4 5 6 
#
# 1 67.1848 -3.6115 17.7524 -17.0518 15.2507 -19.6867
# 2 -3.6115 117.3095 -1.8611 -11.9169 12.6965 -11.8250
# 3 17.7524 -1.8611 71.2077 3.6687 25.1744 -18.3610
# 4 -17.0518 -11.9169 3.6687 50.1494 -6.6537 6.8515
# 5 15.2507 12.6965 25.1744 -6.6537 48.6416 -4.6261
# 6 -19.6867 -11.8250 -18.3610 6.8515 -4.6261 38.1940
#
#
#
# Elastic Compliance Matrix: (Units=1/GPa)
#
#
# Indices 1 2 3 4 5 6 
#
# 1 0.020648 0.002659 -0.001302 0.005851 -0.004818 0.009207
# 2 0.002659 0.009689 0.001952 0.001959 -0.003676 0.004512
# 3 -0.001302 0.001952 0.020782 -0.004181 -0.010535 0.009398
# 4 0.005851 0.001959 -0.004181 0.023379 0.002803 -0.002242
# 5 -0.004818 -0.003676 -0.010535 0.002803 0.028317 -0.005759
# 6 0.009207 0.004512 0.009398 -0.002242 -0.005759 0.036547
#
#
# Mechanical properties :
#
#
# Convention : Reuss Voigt Hill
#
# Bulk Modulus (GPa) = 17.31989 31.14018 24.23003
# Shear Modulus (GPa) = 32.89690 43.62518 38.26104
#
# Velocity S-wave (km/s) = 3.62758 4.17742 3.91217
# Velocity P-wave (km/s) = 4.94713 5.97699 5.48628
#
# Compressibility (1/GPa) = 0.05773710
#
# Stress axis : x y z
#
# Youngs Moduli (GPa) = 48.43168 103.20963 48.11761
#
# Poissons Ratio (x) = -0.27442 0.06266
# Poissons Ratio (y) = -0.12877 -0.09395
# Poissons Ratio (z) = 0.06307 -0.20151
#
# Static dielectric constant tensor:
#      x y z
#    x 2.299720 -0.091050 -0.205580 
#    y -0.091050 1.986890 -0.007590 
#    z -0.205580 -0.007590 2.111490 
# 
# From -- ./inp_files/346398.got.cif
#   From: 2010.05.17/outbox.cif.g08.bks.cpg/sg2_174_cif.got.tgz:346398.got - 2010.06.03 11:33:40.
