data_PCOD9019319
_publ_section_title
;
Structure prediction by ZEFSAII (Michael W. Deem and Ramdas Pophale) SiO2 
 PCOD9019319
Probable space group: P -1
;
_chemical_formula_sum "Si O2"
_cell_formula_units_Z 16
_cell_length_a 14.602509
_cell_length_b 16.205386
_cell_length_c 6.856987
_cell_angle_alpha 46.544102
_cell_angle_beta 126.497868
_cell_angle_gamma 141.925216
_cell_volume 721.205545
_symmetry_space_group_name_H-M "P -1"
_symmetry_group_IT_number 2
_symmetry_cell_setting 'triclinic'
loop_
_space_group_symop_operation_xyz
x,y,z
-x,-y,-z
loop_
_atom_site_type_symbol
_atom_site_label
_atom_site_fract_x
_atom_site_fract_y
_atom_site_fract_z
Si Si1 0.844050 0.812095 0.818161
Si Si2 0.600531 0.824684 0.086365
Si Si3 0.345936 0.698156 0.287557
Si Si4 0.861530 0.062523 0.248559
Si Si5 0.151310 0.368985 0.567921
Si Si6 0.466489 0.074197 0.500756
Si Si7 0.674541 0.629009 0.550940
Si Si8 0.842237 0.231563 0.249816
O O1 0.717029 0.664334 0.773167
O O2 0.998957 0.885220 0.787044
O O3 0.824411 0.935220 0.562034
O O4 0.850617 0.753872 0.126893
O O5 0.472893 0.739903 0.227231
O O6 0.698159 0.774297 0.278359
O O7 0.719193 0.991681 0.046492
O O8 0.537610 0.814670 0.813881
O O9 0.262336 0.533990 0.533532
O O10 0.423772 0.829479 0.335024
O O11 0.222612 0.688694 0.023091
O O12 0.897291 0.200234 0.180567
O O13 0.223691 0.389163 0.415046
O O14 0.984484 0.313126 0.438400
O O15 0.500000 0.000000 0.500000
O O16 0.303323 0.932843 0.598795
O O17 0.500000 0.500000 0.500000
#
# Coordination Sequence:
#
# PCOD9019319 Si02
#       8
#     2   2   2   2   2   2   2   2
#     4  10  24  44  67 101 136 176 227 281 341 401
#     4  11  23  42  67 102 135 174 225 281 337 392
#     4  12  26  45  67 101 143 178 225 283 337 402
#     4  10  21  44  70  98 139 173 224 292 333 391
#     4  12  27  44  69 104 138 184 224 273 348 412
#     4  12  25  44  74 102 129 183 235 277 335 406
#     4  11  24  42  67  95 140 177 215 279 336 406
#     4  12  24  46  70  98 139 181 229 282 333 401
#
# _framework density 22.185075999999999
#
# number of rings (size 3 to 8) (size 9 to 14) (size 15 to 20)
#    0.000    0.750    5.000    2.250    3.500    1.000 
#    0.000    1.250    0.000    0.000    0.000    0.000 
#    0.000    0.000    0.000    0.000    0.000    0.000 
#
# Total GULP energy -89312.868259 kJ/mol
# GULP energy per Si atom -5582.054266 kJ/mol
# Density = 2.213458 g / cm^3
# Si number density = 22.185076 Si / 1000 Ang^3
#
#
#
# Elastic Constant Matrix: (Units=GPa)
#
#
# Indices 1 2 3 4 5 6 
#
# 1 80.4969 8.1144 7.0030 0.7535 14.6982 0.7639
# 2 8.1144 75.6349 5.0224 8.8541 6.2725 11.5078
# 3 7.0030 5.0224 66.3365 10.8702 8.3266 6.5781
# 4 0.7535 8.8541 10.8702 26.8480 5.2886 9.0830
# 5 14.6982 6.2725 8.3266 5.2886 20.5324 1.8463
# 6 0.7639 11.5078 6.5781 9.0830 1.8463 27.9600
#
#
#
# Elastic Compliance Matrix: (Units=1/GPa)
#
#
# Indices 1 2 3 4 5 6 
#
# 1 0.014438 -0.000916 -0.000506 0.002117 -0.010405 0.000101
# 2 -0.000916 0.014605 0.000272 -0.002661 -0.002781 -0.005002
# 3 -0.000506 0.000272 0.016789 -0.005201 -0.005008 -0.002028
# 4 0.002117 -0.002661 -0.005201 0.046112 -0.009383 -0.012099
# 5 -0.010405 -0.002781 -0.005008 -0.009383 0.061305 0.001607
# 6 0.000101 -0.005002 -0.002028 -0.012099 0.001607 0.042123
#
#
# Mechanical properties :
#
#
# Convention : Reuss Voigt Hill
#
# Bulk Modulus (GPa) = 22.97067 29.19422 26.08245
# Shear Modulus (GPa) = 23.56466 28.55665 26.06066
#
# Velocity S-wave (km/s) = 3.26265 3.59165 3.43110
# Velocity P-wave (km/s) = 4.95679 5.51252 5.24203
#
# Compressibility (1/GPa) = 0.04353378
#
# Stress axis : x y z
#
# Youngs Moduli (GPa) = 69.26025 68.47080 59.56163
#
# Poissons Ratio (x) = 0.06270 0.03012
# Poissons Ratio (y) = 0.06342 -0.01621
# Poissons Ratio (z) = 0.03503 -0.01863
#
# Static dielectric constant tensor:
#      x y z
#    x 1.839550 -0.103530 -0.004650 
#    y -0.103530 1.968590 0.031650 
#    z -0.004650 0.031650 1.881810 
# 
# From -- ./inp_files/99522.got.cif
#   From: 2010.05.17/outbox.cif.g08.bks.cpg/sg2_50_cif.got.tgz:99522.got - 2010.06.03 11:33:40.
