data_PCOD9019310
_publ_section_title
;
Structure prediction by ZEFSAII (Michael W. Deem and Ramdas Pophale) SiO2 
 PCOD9019310
Probable space group: P -1
;
_chemical_formula_sum "Si O2"
_cell_formula_units_Z 16
_cell_length_a 6.580957
_cell_length_b 33.454385
_cell_length_c 12.189009
_cell_angle_alpha 21.401525
_cell_angle_beta 125.488428
_cell_angle_gamma 131.446965
_cell_volume 727.707643
_symmetry_space_group_name_H-M "P -1"
_symmetry_group_IT_number 2
_symmetry_cell_setting 'triclinic'
loop_
_space_group_symop_operation_xyz
x,y,z
-x,-y,-z
loop_
_atom_site_type_symbol
_atom_site_label
_atom_site_fract_x
_atom_site_fract_y
_atom_site_fract_z
Si Si1 0.290330 0.614312 0.613480
Si Si2 0.814319 0.158650 0.975881
Si Si3 0.779967 0.013526 0.721716
Si Si4 0.879721 0.376519 0.710316
Si Si5 0.861452 0.798065 0.824197
Si Si6 0.095488 0.347384 0.242228
Si Si7 0.716451 0.230937 0.239210
Si Si8 0.202298 0.907918 0.104783
O O1 0.119955 0.478556 0.947458
O O2 0.604035 0.649786 0.654828
O O3 0.000000 0.500000 0.500000
O O4 0.264705 0.616501 0.466715
O O5 0.052935 0.170235 0.104069
O O6 0.526881 0.084739 0.136596
O O7 0.817727 0.289625 0.621910
O O8 0.820968 0.095777 0.024992
O O9 0.756034 0.108291 0.557999
O O10 0.924528 0.095927 0.452637
O O11 0.976880 0.949289 0.978509
O O12 0.103418 0.324176 0.880897
O O13 0.691582 0.278018 0.989938
O O14 0.556434 0.784329 0.744163
O O15 0.986738 0.326131 0.137863
O O16 0.879953 0.229695 0.534851
O O17 0.500000 0.000000 0.000000
#
# Coordination Sequence:
#
# PCOD9019310 Si02
#       8
#     2   2   2   2   2   2   2   2
#     4  10  23  44  70 100 130 183 224 270 345 399
#     4  11  24  43  68  97 137 177 221 284 333 400
#     4  11  23  43  67  96 135 179 222 279 340 398
#     4  10  21  44  70  97 135 178 221 279 340 398
#     4  10  24  41  67 105 130 172 232 273 343 399
#     4  11  23  44  68  98 138 173 229 273 335 410
#     4  11  24  42  71 100 137 176 223 287 334 395
#     4  12  27  42  67 100 136 180 229 273 339 405
#
# _framework density 21.98685
#
# number of rings (size 3 to 8) (size 9 to 14) (size 15 to 20)
#    0.000    1.250    2.500    2.625    3.500    5.000 
#    0.000    0.000    0.000    0.000    0.000    0.000 
#    0.000    0.000    0.000    0.000    0.000    0.000 
#
# Total GULP energy -89430.103542 kJ/mol
# GULP energy per Si atom -5589.381471 kJ/mol
# Density = 2.193681 g / cm^3
# Si number density = 21.986850 Si / 1000 Ang^3
#
#
#
# Elastic Constant Matrix: (Units=GPa)
#
#
# Indices 1 2 3 4 5 6 
#
# 1 81.1664 47.6018 35.6039 -0.8185 7.3053 10.1146
# 2 47.6018 123.6252 41.6974 -5.1494 13.3100 14.3570
# 3 35.6039 41.6974 120.4082 -15.5417 3.0794 8.9958
# 4 -0.8185 -5.1494 -15.5417 37.1062 -3.0822 1.7661
# 5 7.3053 13.3100 3.0794 -3.0822 25.2058 2.3787
# 6 10.1146 14.3570 8.9958 1.7661 2.3787 28.2810
#
#
#
# Elastic Compliance Matrix: (Units=1/GPa)
#
#
# Indices 1 2 3 4 5 6 
#
# 1 0.017212 -0.005115 -0.003333 -0.001777 -0.001887 -0.002229
# 2 -0.005115 0.011578 -0.002111 0.000421 -0.004033 -0.003064
# 3 -0.003333 -0.002111 0.010651 0.004287 0.001446 -0.001514
# 4 -0.001777 0.000421 0.004287 0.029212 0.003631 -0.003071
# 5 -0.001887 -0.004033 0.001446 0.003631 0.042764 -0.001562
# 6 -0.002229 -0.003064 -0.001514 -0.003071 -0.001562 0.038517
#
#
# Mechanical properties :
#
#
# Convention : Reuss Voigt Hill
#
# Bulk Modulus (GPa) = 54.57344 63.88953 59.23148
# Shear Modulus (GPa) = 28.22322 31.47172 29.84747
#
# Velocity S-wave (km/s) = 3.58668 3.78747 3.68844
# Velocity P-wave (km/s) = 6.48284 6.94606 6.71844
#
# Compressibility (1/GPa) = 0.01832393
#
# Stress axis : x y z
#
# Youngs Moduli (GPa) = 58.09928 86.37046 93.88955
#
# Poissons Ratio (x) = 0.44182 0.31289
# Poissons Ratio (y) = 0.29720 0.19816
# Poissons Ratio (z) = 0.19362 0.18229
#
# Static dielectric constant tensor:
#      x y z
#    x 1.767890 -0.039290 -0.020600 
#    y -0.039290 1.795500 0.020350 
#    z -0.020600 0.020350 1.854810 
# 
# From -- ./inp_files/371560.got.cif
#   From: 2010.05.17/outbox.cif.g08.bks.cpg/sg2_186_cif.got.tgz:371560.got - 2010.06.03 11:33:40.
