data_PCOD9019760
_publ_section_title
;
Structure prediction by ZEFSAII (Michael W. Deem and Ramdas Pophale) SiO2 
 PCOD9019760
Probable space group: P -1
;
_chemical_formula_sum "Si O2"
_cell_formula_units_Z 14
_cell_length_a 13.305507
_cell_length_b 8.946048
_cell_length_c 5.302231
_cell_angle_alpha 115.411865
_cell_angle_beta 109.016635
_cell_angle_gamma 91.854818
_cell_volume 527.886400
_symmetry_space_group_name_H-M "P -1"
_symmetry_group_IT_number 2
_symmetry_cell_setting 'triclinic'
loop_
_space_group_symop_operation_xyz
x,y,z
-x,-y,-z
loop_
_atom_site_type_symbol
_atom_site_label
_atom_site_fract_x
_atom_site_fract_y
_atom_site_fract_z
Si Si1 0.175014 0.450812 0.753138
Si Si2 0.664621 0.059326 0.389805
Si Si3 0.834138 0.908117 0.713963
Si Si4 0.018893 0.155060 0.815545
Si Si5 0.595224 0.501901 0.270579
Si Si6 0.861255 0.361553 0.634475
Si Si7 0.473527 0.207423 0.296603
O O1 0.149275 0.247083 0.565637
O O2 0.298609 0.498584 0.797463
O O3 0.121623 0.540793 0.546786
O O4 0.168679 0.526931 0.078662
O O5 0.762712 0.196070 0.440933
O O6 0.563929 0.133680 0.475604
O O7 0.724244 0.963855 0.577755
O O8 0.604043 0.931280 0.035533
O O9 0.864650 0.832378 0.949843
O O10 0.924552 0.082524 0.894502
O O11 0.972170 0.304734 0.760285
O O12 0.000000 0.000000 0.500000
O O13 0.557714 0.338576 0.290155
O O14 0.599745 0.673571 0.553392
O O15 0.500000 0.500000 0.000000
#
# Coordination Sequence:
#
# PCOD9019760 Si02
#       7
#     2   2   2   2   2   2   2
#     4  12  27  46  72 106 144 193 233 299 354 429
#     4  10  21  45  68 103 142 186 237 294 351 424
#     4  10  25  44  72 102 142 184 237 289 364 423
#     4  10  25  49  74 104 139 185 232 300 354 434
#     4  11  23  41  67  99 146 188 241 297 352 417
#     4  11  27  47  73 105 147 184 243 290 360 425
#     4  10  22  42  68 104 138 189 244 291 355 419
#
# _framework density 26.520858
#
# number of rings (size 3 to 8) (size 9 to 14) (size 15 to 20)
#    0.000    1.429    1.429    1.714   12.000    2.286 
#    2.571    4.286    0.000    0.000    0.000    0.000 
#    0.000    0.000    0.000    0.000    0.000    0.000 
#
# Total GULP energy -78391.143506 kJ/mol
# GULP energy per Si atom -5599.367393 kJ/mol
# Density = 2.646050 g / cm^3
# Si number density = 26.520858 Si / 1000 Ang^3
#
#
#
# Elastic Constant Matrix: (Units=GPa)
#
#
# Indices 1 2 3 4 5 6 
#
# 1 121.9836 46.9912 39.3359 -6.5317 33.6550 -22.0323
# 2 46.9912 154.9816 29.7932 -2.8500 37.1054 -10.0996
# 3 39.3359 29.7932 120.9695 13.4009 18.9804 -17.2867
# 4 -6.5317 -2.8500 13.4009 46.4943 -9.9329 18.0687
# 5 33.6550 37.1054 18.9804 -9.9329 43.8629 -8.6025
# 6 -22.0323 -10.0996 -17.2867 18.0687 -8.6025 61.4886
#
#
#
# Elastic Compliance Matrix: (Units=1/GPa)
#
#
# Indices 1 2 3 4 5 6 
#
# 1 0.011610 -0.001446 -0.002039 -0.000207 -0.006355 0.002521
# 2 -0.001446 0.008411 -0.000560 -0.000841 -0.005929 0.000123
# 3 -0.002039 -0.000560 0.010617 -0.005326 -0.003117 0.003291
# 4 -0.000207 -0.000841 -0.005326 0.028074 0.007793 -0.008869
# 5 -0.006355 -0.005929 -0.003117 0.007793 0.035519 -0.001448
# 6 0.002521 0.000123 0.003291 -0.008869 -0.001448 0.020516
#
#
# Mechanical properties :
#
#
# Convention : Reuss Voigt Hill
#
# Bulk Modulus (GPa) = 44.35143 70.01946 57.18544
# Shear Modulus (GPa) = 38.35765 49.15679 43.75722
#
# Velocity S-wave (km/s) = 3.80718 4.30992 4.06632
# Velocity P-wave (km/s) = 6.00713 7.15724 6.60726
#
# Compressibility (1/GPa) = 0.02254719
#
# Stress axis : x y z
#
# Youngs Moduli (GPa) = 86.13294 118.89637 94.19138
#
# Poissons Ratio (x) = 0.17196 0.19202
# Poissons Ratio (y) = 0.12458 0.05276
# Poissons Ratio (z) = 0.17560 0.06659
#
# Static dielectric constant tensor:
#      x y z
#    x 3.262790 -0.919270 -0.634730 
#    y -0.919270 3.041370 0.490070 
#    z -0.634730 0.490070 2.336920 
# 
# From -- ./inp_files/91207.got.cif
#   From: 2010.05.17/outbox.cif.g08.bks.cpg/sg2_46_cif.got.tgz:91207.got - 2010.06.03 11:33:40.
