data_PCOD9019440
_publ_section_title
;
Structure prediction by ZEFSAII (Michael W. Deem and Ramdas Pophale) SiO2 
 PCOD9019440
Probable space group: P -1
;
_chemical_formula_sum "Si O2"
_cell_formula_units_Z 16
_cell_length_a 18.457063
_cell_length_b 5.199864
_cell_length_c 15.746068
_cell_angle_alpha 70.724767
_cell_angle_beta 29.424993
_cell_angle_gamma 57.812771
_cell_volume 594.875868
_symmetry_space_group_name_H-M "P -1"
_symmetry_group_IT_number 2
_symmetry_cell_setting 'triclinic'
loop_
_space_group_symop_operation_xyz
x,y,z
-x,-y,-z
loop_
_atom_site_type_symbol
_atom_site_label
_atom_site_fract_x
_atom_site_fract_y
_atom_site_fract_z
Si Si1 0.197824 0.121847 0.748644
Si Si2 0.022400 0.108469 0.099377
Si Si3 0.491451 0.116483 0.651250
Si Si4 0.410044 0.199029 0.985626
Si Si5 0.077966 0.685155 0.575159
Si Si6 0.132074 0.622549 0.352223
Si Si7 0.792722 0.801214 0.961051
Si Si8 0.381202 0.617102 0.363690
O O1 0.152519 0.055332 0.895055
O O2 0.403961 0.919150 0.538540
O O3 0.113273 0.506519 0.791424
O O4 0.091215 0.032278 0.802555
O O5 0.146025 0.995839 0.068767
O O6 0.542339 0.754734 0.656599
O O7 0.289435 0.315833 0.868335
O O8 0.587256 0.222879 0.606465
O O9 0.351183 0.065562 0.981445
O O10 0.525103 0.322650 0.815133
O O11 0.241307 0.477963 0.172486
O O12 0.500000 0.000000 0.000000
O O13 0.209190 0.501410 0.382195
O O14 0.183090 0.766659 0.524126
O O15 0.937984 0.004822 0.633593
O O16 0.969455 0.571868 0.751195
O O17 0.000000 0.500000 0.500000
#
# Coordination Sequence:
#
# PCOD9019440 Si02
#       8
#     2   2   2   2   2   2   2   2
#     4  10  21  44  72 102 134 172 212 267 337 409
#     4  10  23  42  72 103 133 170 219 269 329 403
#     4  11  24  42  65  99 136 172 215 269 336 398
#     4  11  25  44  66  92 134 182 229 281 338 391
#     4  11  24  39  63  90 119 171 223 280 335 390
#     4  11  23  40  62  86 121 165 229 282 332 391
#     4  11  24  42  64  98 131 173 222 275 328 393
#     4  11  26  42  67  95 131 176 222 279 332 395
#
# _framework density 26.896367999999999
#
# number of rings (size 3 to 8) (size 9 to 14) (size 15 to 20)
#    0.000    1.250    1.250    3.750    7.000    5.000 
#    0.000    0.000    0.000    8.250    0.000    0.000 
#    0.000    0.000    0.000    0.000    0.000    0.000 
#
# Total GULP energy -89366.463896 kJ/mol
# GULP energy per Si atom -5585.403993 kJ/mol
# Density = 2.683515 g / cm^3
# Si number density = 26.896368 Si / 1000 Ang^3
#
#
#
# Elastic Constant Matrix: (Units=GPa)
#
#
# Indices 1 2 3 4 5 6 
#
# 1 177.2033 26.7748 45.0824 -19.9743 -9.4142 27.6089
# 2 26.7748 136.6580 -17.0450 15.9131 22.3449 39.4323
# 3 45.0824 -17.0450 246.5599 -42.6713 3.6297 -14.0636
# 4 -19.9743 15.9131 -42.6713 50.3731 20.4140 20.8139
# 5 -9.4142 22.3449 3.6297 20.4140 38.1317 -2.1796
# 6 27.6089 39.4323 -14.0636 20.8139 -2.1796 54.2569
#
#
#
# Elastic Compliance Matrix: (Units=1/GPa)
#
#
# Indices 1 2 3 4 5 6 
#
# 1 0.007293 -0.000327 -0.000790 0.005051 -0.000960 -0.005655
# 2 -0.000327 0.011839 0.001557 0.006592 -0.011326 -0.011018
# 3 -0.000790 0.001557 0.005467 0.006954 -0.005477 -0.002200
# 4 0.005051 0.006592 0.006954 0.048659 -0.030783 -0.025462
# 5 -0.000960 -0.011326 -0.005477 -0.030783 0.050835 0.021151
# 6 -0.005655 -0.011018 -0.002200 -0.025462 0.021151 0.039363
#
#
# Mechanical properties :
#
#
# Convention : Reuss Voigt Hill
#
# Bulk Modulus (GPa) = 39.24804 74.44951 56.84877
# Shear Modulus (GPa) = 29.22806 62.25961 45.74384
#
# Velocity S-wave (km/s) = 3.30008 4.81645 4.12848
# Velocity P-wave (km/s) = 5.39858 7.65971 6.62631
#
# Compressibility (1/GPa) = 0.02547898
#
# Stress axis : x y z
#
# Youngs Moduli (GPa) = 137.11586 84.46398 182.92784
#
# Poissons Ratio (x) = 0.02763 0.14457
# Poissons Ratio (y) = 0.04485 -0.28489
# Poissons Ratio (z) = 0.10837 -0.13154
#
# Static dielectric constant tensor:
#      x y z
#    x 2.084230 -0.214550 -0.104330 
#    y -0.214550 1.292840 -0.557800 
#    z -0.104330 -0.557800 1.799880 
# 
# From -- ./inp_files/485130.got.cif
#   From: 2010.05.17/outbox.cif.g08.bks.cpg/sg2_243_cif.got.tgz:485130.got - 2010.06.03 11:33:40.
