data_PCOD9019149
_publ_section_title
;
Structure prediction by ZEFSAII (Michael W. Deem and Ramdas Pophale) SiO2 
 PCOD9019149
Probable space group: P -1
;
_chemical_formula_sum "Si O2"
_cell_formula_units_Z 16
_cell_length_a 19.851158
_cell_length_b 8.175394
_cell_length_c 8.085475
_cell_angle_alpha 109.515280
_cell_angle_beta 145.463657
_cell_angle_gamma 64.044826
_cell_volume 667.986540
_symmetry_space_group_name_H-M "P -1"
_symmetry_group_IT_number 2
_symmetry_cell_setting 'triclinic'
loop_
_space_group_symop_operation_xyz
x,y,z
-x,-y,-z
loop_
_atom_site_type_symbol
_atom_site_label
_atom_site_fract_x
_atom_site_fract_y
_atom_site_fract_z
Si Si1 0.326470 0.920617 0.174270
Si Si2 0.742226 0.668873 0.269513
Si Si3 0.603513 0.718374 0.674042
Si Si4 0.692163 0.090674 0.233350
Si Si5 0.022298 0.490401 0.735566
Si Si6 0.089679 0.802193 0.167347
Si Si7 0.931511 0.896475 0.202136
Si Si8 0.569419 0.648501 0.217605
O O1 0.364232 0.097651 0.250387
O O2 0.456023 0.777481 0.443428
O O3 0.207636 0.969222 0.071400
O O4 0.280563 0.866534 0.887088
O O5 0.882372 0.548071 0.541968
O O6 0.665644 0.647613 0.268158
O O7 0.738892 0.878874 0.305868
O O8 0.683643 0.625603 0.963238
O O9 0.619429 0.620946 0.496379
O O10 0.769905 0.192045 0.531499
O O11 0.542563 0.161103 0.962335
O O12 0.000000 0.500000 0.500000
O O13 0.096969 0.280578 0.841819
O O14 0.080198 0.638731 0.977668
O O15 0.025333 0.804605 0.215607
O O16 0.000000 0.000000 0.000000
O O17 0.000000 0.000000 0.500000
O O18 0.500000 0.500000 0.000000
#
# Coordination Sequence:
#
# PCOD9019149 Si02
#       8
#     2   2   2   2   2   2   2   2
#     4   9  19  40  69  98 132 177 234 287 353 424
#     4  11  24  46  72 100 140 187 238 293 360 427
#     4   9  21  41  69  97 134 182 230 292 356 416
#     4  10  21  44  68  98 141 178 234 294 354 427
#     4  12  27  47  69 105 147 190 242 294 359 436
#     4  12  25  44  69 105 139 187 237 296 359 427
#     4  12  25  43  72 102 143 189 234 294 363 424
#     4  11  26  41  68 103 138 182 238 298 356 424
#
# _framework density 23.952580000000001
#
# number of rings (size 3 to 8) (size 9 to 14) (size 15 to 20)
#    0.000    1.250    2.500    3.750    3.500    3.500 
#    0.000    0.000    0.000    0.000    0.000    0.000 
#    0.000    0.000    0.000    0.000    0.000    0.000 
#
# Total GULP energy -89451.464332 kJ/mol
# GULP energy per Si atom -5590.716521 kJ/mol
# Density = 2.389806 g / cm^3
# Si number density = 23.952580 Si / 1000 Ang^3
#
#
#
# Elastic Constant Matrix: (Units=GPa)
#
#
# Indices 1 2 3 4 5 6 
#
# 1 86.8507 13.3501 40.9738 6.7039 7.4134 -22.9574
# 2 13.3501 85.4101 51.0553 5.7974 -11.1379 -7.9381
# 3 40.9738 51.0553 151.1323 21.2706 -0.7414 -18.3346
# 4 6.7039 5.7974 21.2706 46.6734 -25.9268 -1.2465
# 5 7.4134 -11.1379 -0.7414 -25.9268 36.9399 -3.4616
# 6 -22.9574 -7.9381 -18.3346 -1.2465 -3.4616 23.3373
#
#
#
# Elastic Compliance Matrix: (Units=1/GPa)
#
#
# Indices 1 2 3 4 5 6 
#
# 1 0.017033 -0.000371 -0.002314 -0.003668 -0.004849 0.013896
# 2 -0.000371 0.016321 -0.005933 0.005921 0.009240 0.002213
# 3 -0.002314 -0.005933 0.010507 -0.006752 -0.005593 0.002770
# 4 -0.003668 0.005921 -0.006752 0.042000 0.031871 0.000072
# 5 -0.004849 0.009240 -0.005593 0.031871 0.053425 0.003606
# 6 0.013896 0.002213 0.002770 0.000072 0.003606 0.059987
#
#
# Mechanical properties :
#
#
# Convention : Reuss Voigt Hill
#
# Bulk Modulus (GPa) = 37.55733 59.35017 48.45375
# Shear Modulus (GPa) = 22.18429 35.92440 29.05435
#
# Velocity S-wave (km/s) = 3.04661 3.87694 3.48659
# Velocity P-wave (km/s) = 5.29997 6.69872 6.03998
#
# Compressibility (1/GPa) = 0.02662596
#
# Stress axis : x y z
#
# Youngs Moduli (GPa) = 58.70919 61.26995 95.17254
#
# Poissons Ratio (x) = 0.02271 0.22026
# Poissons Ratio (y) = 0.02177 0.56463
# Poissons Ratio (z) = 0.13587 0.36350
#
# Static dielectric constant tensor:
#      x y z
#    x 2.010400 -0.149910 0.010360 
#    y -0.149910 2.150800 -0.000940 
#    z 0.010360 -0.000940 1.931510 
# 
# From -- ./inp_files/343822.got.cif
#   From: 2010.05.17/outbox.cif.g08.bks.cpg/sg2_172_cif.got.tgz:343822.got - 2010.06.03 11:33:40.
