data_PCOD9019181
_publ_section_title
;
Structure prediction by ZEFSAII (Michael W. Deem and Ramdas Pophale) SiO2 
 PCOD9019181
Probable space group: P -1
;
_chemical_formula_sum "Si O2"
_cell_formula_units_Z 14
_cell_length_a 11.518399
_cell_length_b 8.934028
_cell_length_c 8.928000
_cell_angle_alpha 72.500000
_cell_angle_beta 74.530933
_cell_angle_gamma 37.588289
_cell_volume 533.840608
_symmetry_space_group_name_H-M "P -1"
_symmetry_group_IT_number 2
_symmetry_cell_setting 'triclinic'
loop_
_space_group_symop_operation_xyz
x,y,z
-x,-y,-z
loop_
_atom_site_type_symbol
_atom_site_label
_atom_site_fract_x
_atom_site_fract_y
_atom_site_fract_z
Si Si1 0.395670 0.463988 0.407442
Si Si2 0.269162 0.312224 0.309960
Si Si3 0.046906 0.520477 0.814040
Si Si4 0.943677 0.991343 0.686588
Si Si5 0.521468 0.238874 0.000954
Si Si6 0.266547 0.796671 0.835138
Si Si7 0.533125 0.804703 0.285749
O O1 0.277373 0.430698 0.401723
O O2 0.273737 0.733455 0.311625
O O3 0.599095 0.262612 0.319538
O O4 0.414113 0.416306 0.591980
O O5 0.063874 0.471462 0.272539
O O6 0.388344 0.033713 0.380455
O O7 0.394670 0.261509 0.148333
O O8 0.271996 0.298207 0.774465
O O9 0.980687 0.769057 0.749425
O O10 0.000000 0.500000 0.000000
O O11 0.000000 0.000000 0.500000
O O12 0.066246 0.953628 0.785188
O O13 0.376419 0.528272 0.928490
O O14 0.560042 0.117034 0.867957
O O15 0.709274 0.111827 0.059451
#
# Coordination Sequence:
#
# PCOD9019181 Si02
#       7
#     2   2   2   2   2   2   2
#     4  11  27  45  72 107 143 190 240 297 359 432
#     4  11  26  45  69 106 143 189 239 294 366 419
#     4  12  26  45  75 105 145 189 240 297 360 427
#     4  12  25  46  73 110 143 189 242 295 360 432
#     4  10  21  44  69 103 134 188 238 291 350 434
#     4  10  23  44  70 100 147 178 237 300 361 411
#     4  12  24  45  71 103 143 186 247 289 359 429
#
# _framework density 26.225054
#
# number of rings (size 3 to 8) (size 9 to 14) (size 15 to 20)
#    0.000    0.857    4.286    0.857    4.000    4.000 
#    0.000    7.143    0.000    0.000    0.000    0.000 
#    0.000    0.000    0.000    0.000    0.000    0.000 
#
# Total GULP energy -78570.166046 kJ/mol
# GULP energy per Si atom -5612.154718 kJ/mol
# Density = 2.616536 g / cm^3
# Si number density = 26.225054 Si / 1000 Ang^3
#
#
#
# Elastic Constant Matrix: (Units=GPa)
#
#
# Indices 1 2 3 4 5 6 
#
# 1 177.7304 31.8701 48.8745 -10.4709 41.5373 -19.5391
# 2 31.8701 72.7618 23.7724 -10.6193 9.2981 -4.8856
# 3 48.8745 23.7724 118.2179 -23.3845 6.2452 3.5178
# 4 -10.4709 -10.6193 -23.3845 35.7645 8.0501 -2.9231
# 5 41.5373 9.2981 6.2452 8.0501 62.7518 -4.3504
# 6 -19.5391 -4.8856 3.5178 -2.9231 -4.3504 50.1572
#
#
#
# Elastic Compliance Matrix: (Units=1/GPa)
#
#
# Indices 1 2 3 4 5 6 
#
# 1 0.008193 -0.001703 -0.002562 0.001559 -0.004917 0.002870
# 2 -0.001703 0.015819 -0.001750 0.003460 -0.001412 0.001079
# 3 -0.002562 -0.001750 0.011074 0.005841 -0.000008 -0.001605
# 4 0.001559 0.003460 0.005841 0.034882 -0.006462 0.002007
# 5 -0.004917 -0.001412 -0.000008 -0.006462 0.020182 -0.000678
# 6 0.002870 0.001079 -0.001605 0.002007 -0.000678 0.021331
#
#
# Mechanical properties :
#
#
# Convention : Reuss Voigt Hill
#
# Bulk Modulus (GPa) = 43.37344 64.19378 53.78361
# Shear Modulus (GPa) = 38.11079 47.34758 42.72919
#
# Velocity S-wave (km/s) = 3.81625 4.25365 4.04087
# Velocity P-wave (km/s) = 5.99943 6.97538 6.50573
#
# Compressibility (1/GPa) = 0.02305559
#
# Stress axis : x y z
#
# Youngs Moduli (GPa) = 122.05780 63.21504 90.30417
#
# Poissons Ratio (x) = 0.10765 0.23135
# Poissons Ratio (y) = 0.20786 0.15804
# Poissons Ratio (z) = 0.31270 0.11063
#
# Static dielectric constant tensor:
#      x y z
#    x 2.057840 0.054720 -0.004010 
#    y 0.054720 2.057090 -0.013090 
#    z -0.004010 -0.013090 2.043960 
# 
# From -- ./inp_files/243466.got.cif
#   From: 2010.05.17/outbox.cif.g08.bks.cpg/sg2_122_cif.got.tgz:243466.got - 2010.06.03 11:33:40.
