data_PCOD9019710
_publ_section_title
;
Structure prediction by ZEFSAII (Michael W. Deem and Ramdas Pophale) SiO2 
 PCOD9019710
Probable space group: P -1
;
_chemical_formula_sum "Si O2"
_cell_formula_units_Z 16
_cell_length_a 16.776176
_cell_length_b 10.690791
_cell_length_c 8.892909
_cell_angle_alpha 84.130029
_cell_angle_beta 46.313947
_cell_angle_gamma 48.557882
_cell_volume 653.558620
_symmetry_space_group_name_H-M "P -1"
_symmetry_group_IT_number 2
_symmetry_cell_setting 'triclinic'
loop_
_space_group_symop_operation_xyz
x,y,z
-x,-y,-z
loop_
_atom_site_type_symbol
_atom_site_label
_atom_site_fract_x
_atom_site_fract_y
_atom_site_fract_z
Si Si1 0.044672 0.687406 0.898777
Si Si2 0.015860 0.451094 0.783852
Si Si3 0.435289 0.386101 0.781026
Si Si4 0.158234 0.192059 0.214305
Si Si5 0.354119 0.863701 0.763589
Si Si6 0.383428 0.542537 0.344127
Si Si7 0.861208 0.251481 0.651827
Si Si8 0.617264 0.994614 0.763755
O O1 0.014061 0.582889 0.864037
O O2 0.219469 0.609359 0.626974
O O3 0.074409 0.594429 0.033975
O O4 0.848550 0.949224 0.087300
O O5 0.240019 0.204546 0.514114
O O6 0.917931 0.595621 0.742419
O O7 0.486602 0.303671 0.552885
O O8 0.596936 0.337717 0.627035
O O9 0.478697 0.222811 0.841123
O O10 0.231320 0.629755 0.079718
O O11 0.246623 0.078803 0.274524
O O12 0.983624 0.254699 0.425965
O O13 0.321779 0.015261 0.894028
O O14 0.413772 0.709150 0.834909
O O15 0.317421 0.602527 0.249406
O O16 0.000000 0.000000 0.500000
O O17 0.500000 0.000000 0.000000
#
# Coordination Sequence:
#
# PCOD9019710 Si02
#       8
#     2   2   2   2   2   2   2   2
#     4  10  23  45  73 103 145 193 235 305 362 426
#     4  10  21  45  67 101 145 186 245 289 362 429
#     4  12  27  46  70 114 147 184 251 302 360 439
#     4  11  24  46  74 102 148 196 242 296 368 430
#     4  11  24  48  69 108 148 186 245 302 360 433
#     4  12  25  46  79 103 143 195 244 297 369 428
#     4  12  25  48  74 105 147 194 240 302 368 433
#     4  12  26  44  72 106 146 190 246 301 359 436
#
# _framework density 24.481352999999999
#
# number of rings (size 3 to 8) (size 9 to 14) (size 15 to 20)
#    0.000    0.750    3.750    4.125    1.750    2.500 
#    2.250    2.500    0.000    0.000    0.000    0.000 
#    0.000    0.000    0.000    0.000    0.000    0.000 
#
# Total GULP energy -89293.494256 kJ/mol
# GULP energy per Si atom -5580.843391 kJ/mol
# Density = 2.442563 g / cm^3
# Si number density = 24.481353 Si / 1000 Ang^3
#
#
#
# Elastic Constant Matrix: (Units=GPa)
#
#
# Indices 1 2 3 4 5 6 
#
# 1 46.5930 41.3751 49.0179 8.4195 -18.7366 -6.8650
# 2 41.3751 117.8399 15.9517 7.9969 12.6147 0.2251
# 3 49.0179 15.9517 121.0364 4.8543 18.2511 13.3317
# 4 8.4195 7.9969 4.8543 37.8476 14.7217 -2.6744
# 5 -18.7366 12.6147 18.2511 14.7217 25.0572 -3.6939
# 6 -6.8650 0.2251 13.3317 -2.6744 -3.6939 31.6614
#
#
#
# Elastic Compliance Matrix: (Units=1/GPa)
#
#
# Indices 1 2 3 4 5 6 
#
# 1 -0.018324 0.007732 0.012824 0.014398 -0.037245 -0.012557
# 2 0.007732 0.005747 -0.005943 -0.006368 0.011690 0.004964
# 3 0.012824 -0.005943 0.001218 -0.008106 0.016988 0.003607
# 4 0.014398 -0.006368 -0.008106 0.023330 0.007560 0.009433
# 5 -0.037245 0.011690 0.016988 0.007560 -0.013029 -0.016193
# 6 -0.012557 0.004964 0.003607 0.009433 -0.016193 0.026215
#
#
# Mechanical properties :
#
#
# Convention : Reuss Voigt Hill
#
# Bulk Modulus (GPa) = 55.97030 55.35097 55.66063
# Shear Modulus (GPa) = 2649.67456 30.85487 1340.26472
#
# Velocity S-wave (km/s) = 32.93438 3.55398 23.42332
# Velocity P-wave (km/s) = 38.32940 6.28487 27.46491
#
# Compressibility (1/GPa) = 0.01786662
#
# Stress axis : x y z
#
# Youngs Moduli (GPa) = -54.57384 174.00100 821.04913
#
# Poissons Ratio (x) = -1.34534 -10.52888
# Poissons Ratio (y) = 0.42195 4.87931
# Poissons Ratio (z) = 0.69984 1.03405
#
# Static dielectric constant tensor:
#      x y z
#    x 2.413300 -0.169870 0.025120 
#    y -0.169870 2.020170 -0.027420 
#    z 0.025120 -0.027420 1.981050 
# 
# From -- ./inp_files/333217.got.cif
#   From: 2010.05.17/outbox.cif.g08.bks.cpg/sg2_167_cif.got.tgz:333217.got - 2010.06.03 11:33:40.
