data_PCOD9019145
_publ_section_title
;
Structure prediction by ZEFSAII (Michael W. Deem and Ramdas Pophale) SiO2 
 PCOD9019145
Probable space group: P -1
;
_chemical_formula_sum "Si O2"
_cell_formula_units_Z 14
_cell_length_a 11.759489
_cell_length_b 12.501964
_cell_length_c 8.851768
_cell_angle_alpha 57.340192
_cell_angle_beta 69.945468
_cell_angle_gamma 116.583152
_cell_volume 617.717866
_symmetry_space_group_name_H-M "P -1"
_symmetry_group_IT_number 2
_symmetry_cell_setting 'triclinic'
loop_
_space_group_symop_operation_xyz
x,y,z
-x,-y,-z
loop_
_atom_site_type_symbol
_atom_site_label
_atom_site_fract_x
_atom_site_fract_y
_atom_site_fract_z
Si Si1 0.370479 0.003804 0.633205
Si Si2 0.401693 0.905504 0.278461
Si Si3 0.726449 0.639200 0.299261
Si Si4 0.516068 0.753348 0.870558
Si Si5 0.142305 0.075891 0.241020
Si Si6 0.931561 0.559077 0.262955
Si Si7 0.899594 0.673142 0.485773
O O1 0.460562 0.077387 0.702956
O O2 0.412457 0.166411 0.395277
O O3 0.500000 0.000000 0.500000
O O4 0.138400 0.765977 0.927014
O O5 0.173925 0.661961 0.557503
O O6 0.425115 0.062555 0.222524
O O7 0.500000 0.000000 0.000000
O O8 0.500000 0.500000 0.500000
O O9 0.763371 0.523820 0.325408
O O10 0.812442 0.705841 0.380855
O O11 0.849988 0.823371 0.980658
O O12 0.640644 0.756081 0.907234
O O13 0.281654 0.529966 0.173131
O O14 0.066087 0.879249 0.354772
O O15 0.000000 0.000000 0.500000
O O16 0.965939 0.618026 0.380858
#
# Coordination Sequence:
#
# PCOD9019145 Si02
#       7
#     2   2   2   2   2   2   2
#     4  10  25  42  63  97 140 175 225 277 335 399
#     4  11  23  43  73 101 132 177 230 277 333 412
#     4  10  21  44  68  98 137 175 231 278 333 405
#     4  11  24  45  63 101 139 173 225 282 336 402
#     4  12  25  43  67  99 134 179 226 280 343 404
#     4  10  23  42  71 101 132 186 222 280 343 395
#     4  10  24  43  67  96 135 178 225 279 333 399
#
# _framework density 22.664069000000001
#
# number of rings (size 3 to 8) (size 9 to 14) (size 15 to 20)
#    0.857    0.571    2.857    1.286    2.000    8.000 
#    2.571    0.000    0.000    0.000    0.000    0.000 
#    0.000    0.000    0.000    0.000    0.000    0.000 
#
# Total GULP energy -78146.280759 kJ/mol
# GULP energy per Si atom -5581.877197 kJ/mol
# Density = 2.261248 g / cm^3
# Si number density = 22.664069 Si / 1000 Ang^3
#
#
#
# Elastic Constant Matrix: (Units=GPa)
#
#
# Indices 1 2 3 4 5 6 
#
# 1 57.7827 8.7092 6.9892 10.0081 4.8540 13.5090
# 2 8.7092 43.9019 21.9272 1.5644 17.5272 12.1302
# 3 6.9892 21.9272 138.1098 13.5580 15.5283 14.3047
# 4 10.0081 1.5644 13.5580 24.8400 3.5094 8.9749
# 5 4.8540 17.5272 15.5283 3.5094 40.4941 6.7060
# 6 13.5090 12.1302 14.3047 8.9749 6.7060 31.6959
#
#
#
# Elastic Compliance Matrix: (Units=1/GPa)
#
#
# Indices 1 2 3 4 5 6 
#
# 1 0.020086 -0.002315 0.000595 -0.006011 -0.000082 -0.006224
# 2 -0.002315 0.031557 -0.003266 0.005486 -0.011145 -0.008812
# 3 0.000595 -0.003266 0.008408 -0.003929 -0.001308 -0.001409
# 4 -0.006011 0.005486 -0.003929 0.048832 -0.002549 -0.011052
# 5 -0.000082 -0.011145 -0.001308 -0.002549 0.030387 -0.000816
# 6 -0.006224 -0.008812 -0.001409 -0.011052 -0.000816 0.041513
#
#
# Mechanical properties :
#
#
# Convention : Reuss Voigt Hill
#
# Bulk Modulus (GPa) = 19.96822 35.00504 27.48663
# Shear Modulus (GPa) = 24.10237 32.88392 28.49315
#
# Velocity S-wave (km/s) = 3.26461 3.81324 3.54954
# Velocity P-wave (km/s) = 4.79999 5.90478 5.38081
#
# Compressibility (1/GPa) = 0.05007957
#
# Stress axis : x y z
#
# Youngs Moduli (GPa) = 49.78500 31.68826 118.93804
#
# Poissons Ratio (x) = 0.07337 -0.07078
# Poissons Ratio (y) = 0.11526 0.38843
# Poissons Ratio (z) = -0.02963 0.10349
#
# Static dielectric constant tensor:
#      x y z
#    x 1.922380 0.046530 0.066460 
#    y 0.046530 1.847400 0.021400 
#    z 0.066460 0.021400 1.820500 
# 
# From -- ./inp_files/269591.got.cif
#   From: 2010.05.17/outbox.cif.g08.bks.cpg/sg2_135_cif.got.tgz:269591.got - 2010.06.03 11:33:40.
