data_PCOD9019984
_publ_section_title
;
Structure prediction by ZEFSAII (Michael W. Deem and Ramdas Pophale) SiO2 
 PCOD9019984
Probable space group: P -1
;
_chemical_formula_sum "Si O2"
_cell_formula_units_Z 12
_cell_length_a 11.348294
_cell_length_b 5.372609
_cell_length_c 8.387998
_cell_angle_alpha 90.467455
_cell_angle_beta 103.124326
_cell_angle_gamma 63.765876
_cell_volume 444.259123
_symmetry_space_group_name_H-M "P -1"
_symmetry_group_IT_number 2
_symmetry_cell_setting 'triclinic'
loop_
_space_group_symop_operation_xyz
x,y,z
-x,-y,-z
loop_
_atom_site_type_symbol
_atom_site_label
_atom_site_fract_x
_atom_site_fract_y
_atom_site_fract_z
Si Si1 0.269253 0.299951 0.997790
Si Si2 0.585838 0.171791 0.491319
Si Si3 0.842379 0.645948 0.626473
Si Si4 0.122883 0.689652 0.674338
Si Si5 0.976885 0.828443 0.133397
Si Si6 0.531752 0.251120 0.130953
O O1 0.220341 0.544516 0.852842
O O2 0.138143 0.246439 0.968638
O O3 0.377864 0.023205 0.940714
O O4 0.380700 0.318069 0.149393
O O5 0.500000 0.500000 0.500000
O O6 0.619299 0.192363 0.316950
O O7 0.500000 0.000000 0.500000
O O8 0.728013 0.962029 0.615760
O O9 0.813021 0.487522 0.467226
O O10 0.984022 0.659823 0.647719
O O11 0.879557 0.433528 0.784670
O O12 0.071731 0.013505 0.708986
O O13 0.000000 0.000000 0.000000
O O14 0.500000 0.500000 0.000000
#
# Coordination Sequence:
#
# PCOD9019984 Si02
#       6
#     2   2   2   2   2   2
#     4  10  23  43  75 107 146 198 266 310 391 469
#     4  12  31  51  78 118 165 209 263 339 410 475
#     4  10  24  47  73 107 147 206 265 316 394 474
#     4  10  21  45  75 103 144 200 260 319 380 473
#     4  11  25  43  75 116 157 200 255 336 402 471
#     4  11  25  48  78 106 152 212 269 320 388 489
#
# _framework density 27.011264000000001
#
# number of rings (size 3 to 8) (size 9 to 14) (size 15 to 20)
#    0.000    1.333    1.667    1.500    7.000    8.000 
#    0.000    0.000    0.000    0.000    0.000    0.000 
#    0.000    0.000    0.000    0.000    0.000    0.000 
#
# Total GULP energy -67034.608369 kJ/mol
# GULP energy per Si atom -5586.217364 kJ/mol
# Density = 2.694979 g / cm^3
# Si number density = 27.011264 Si / 1000 Ang^3
#
#
#
# Elastic Constant Matrix: (Units=GPa)
#
#
# Indices 1 2 3 4 5 6 
#
# 1 101.7878 23.4384 13.9435 -23.4503 10.5027 -17.0275
# 2 23.4384 166.7510 22.6048 -31.9533 10.8230 -11.9911
# 3 13.9435 22.6048 94.7660 -32.8191 5.6320 13.2160
# 4 -23.4503 -31.9533 -32.8191 69.6254 -1.9868 15.6116
# 5 10.5027 10.8230 5.6320 -1.9868 40.2706 -10.5559
# 6 -17.0275 -11.9911 13.2160 15.6116 -10.5559 37.1328
#
#
#
# Elastic Compliance Matrix: (Units=1/GPa)
#
#
# Indices 1 2 3 4 5 6 
#
# 1 0.011475 -0.000658 -0.001407 0.001881 -0.001382 0.004366
# 2 -0.000658 0.006774 -0.000770 0.002299 -0.001205 0.000850
# 3 -0.001407 -0.000770 0.016022 0.009224 -0.004276 -0.011690
# 4 0.001881 0.002299 0.009224 0.023116 -0.004587 -0.012700
# 5 -0.001382 -0.001205 -0.004276 -0.004587 0.028660 0.010575
# 6 0.004366 0.000850 -0.011690 -0.012700 0.010575 0.041713
#
#
# Mechanical properties :
#
#
# Convention : Reuss Voigt Hill
#
# Bulk Modulus (GPa) = 34.96312 53.69759 44.33036
# Shear Modulus (GPa) = 34.97417 49.62697 42.30057
#
# Velocity S-wave (km/s) = 3.60224 4.29099 3.96161
# Velocity P-wave (km/s) = 5.50213 6.66881 6.11336
#
# Compressibility (1/GPa) = 0.02860156
#
# Stress axis : x y z
#
# Youngs Moduli (GPa) = 87.14593 147.62916 62.41543
#
# Poissons Ratio (x) = 0.09715 0.08780
# Poissons Ratio (y) = 0.05735 0.04804
# Poissons Ratio (z) = 0.12259 0.11363
#
# Static dielectric constant tensor:
#      x y z
#    x 2.291360 0.184310 -0.017340 
#    y 0.184310 2.238400 0.100360 
#    z -0.017340 0.100360 2.208200 
# 
# From -- ./inp_files/228554.got.cif
#   From: 2010.05.17/outbox.cif.g08.bks.cpg/sg2_115_cif.got.tgz:228554.got - 2010.06.03 11:33:40.
