data_PCOD9019607
_publ_section_title
;
Structure prediction by ZEFSAII (Michael W. Deem and Ramdas Pophale) SiO2 
 PCOD9019607
Probable space group: P -1
;
_chemical_formula_sum "Si O2"
_cell_formula_units_Z 14
_cell_length_a 8.489901
_cell_length_b 13.368666
_cell_length_c 8.781157
_cell_angle_alpha 132.884506
_cell_angle_beta 128.228699
_cell_angle_gamma 57.549853
_cell_volume 562.003644
_symmetry_space_group_name_H-M "P -1"
_symmetry_group_IT_number 2
_symmetry_cell_setting 'triclinic'
loop_
_space_group_symop_operation_xyz
x,y,z
-x,-y,-z
loop_
_atom_site_type_symbol
_atom_site_label
_atom_site_fract_x
_atom_site_fract_y
_atom_site_fract_z
Si Si1 0.116732 0.839500 0.397649
Si Si2 0.902131 0.435454 0.517168
Si Si3 0.166857 0.164928 0.295406
Si Si4 0.502294 0.413670 0.069423
Si Si5 0.184451 0.366970 0.043151
Si Si6 0.244504 0.867838 0.165645
Si Si7 0.517811 0.840889 0.792340
O O1 0.226185 0.833314 0.294154
O O2 0.292490 0.814138 0.602081
O O3 0.973037 0.728174 0.199070
O O4 0.000000 0.000000 0.500000
O O5 0.000000 0.500000 0.500000
O O6 0.058231 0.286785 0.468941
O O7 0.891180 0.527884 0.755687
O O8 0.673929 0.437364 0.318848
O O9 0.340373 0.189867 0.306269
O O10 0.258156 0.024675 0.296053
O O11 0.971981 0.147270 0.056183
O O12 0.283404 0.443890 0.049724
O O13 0.570991 0.249311 0.904979
O O14 0.500000 0.500000 0.000000
O O15 0.371505 0.257350 0.113369
O O16 0.500000 0.000000 0.000000
#
# Coordination Sequence:
#
# PCOD9019607 Si02
#       7
#     2   2   2   2   2   2   2
#     4  12  26  47  76 118 157 198 268 330 393 477
#     4  11  23  49  79 113 161 208 262 321 397 477
#     4  10  21  44  78 112 155 210 253 324 390 466
#     4  11  27  50  78 114 159 209 268 329 396 476
#     4  12  25  52  78 116 159 212 263 325 403 470
#     4  10  22  45  75 111 155 202 263 321 393 462
#     4  12  23  44  80 113 157 206 255 326 398 466
#
# _framework density 24.910869000000002
#
# number of rings (size 3 to 8) (size 9 to 14) (size 15 to 20)
#    0.000    0.857    4.286    2.143    2.000    2.857 
#    7.714    2.143    0.000    0.000    0.000    0.000 
#    0.000    0.000    0.000    0.000    0.000    0.000 
#
# Total GULP energy -78533.220059 kJ/mol
# GULP energy per Si atom -5609.515718 kJ/mol
# Density = 2.485417 g / cm^3
# Si number density = 24.910869 Si / 1000 Ang^3
#
#
#
# Elastic Constant Matrix: (Units=GPa)
#
#
# Indices 1 2 3 4 5 6 
#
# 1 159.3091 50.0870 82.0608 9.7863 -12.8870 7.6617
# 2 50.0870 167.1783 67.6011 -4.0253 1.3571 -15.1864
# 3 82.0608 67.6011 160.6348 6.4402 9.1673 -17.1832
# 4 9.7863 -4.0253 6.4402 41.1333 -13.1081 -2.8344
# 5 -12.8870 1.3571 9.1673 -13.1081 35.5171 1.1539
# 6 7.6617 -15.1864 -17.1832 -2.8344 1.1539 48.8527
#
#
#
# Elastic Compliance Matrix: (Units=1/GPa)
#
#
# Indices 1 2 3 4 5 6 
#
# 1 0.010018 -0.001276 -0.005279 -0.000347 0.005047 -0.003964
# 2 -0.001276 0.007543 -0.002425 0.001684 0.000438 0.001780
# 3 -0.005279 -0.002425 0.010757 -0.002159 -0.005521 0.003863
# 4 -0.000347 0.001684 -0.002159 0.028428 0.010819 0.001212
# 5 0.005047 0.000438 -0.005521 0.010819 0.035479 -0.002808
# 6 -0.003964 0.001780 0.003863 0.001212 -0.002808 0.023140
#
#
# Mechanical properties :
#
#
# Convention : Reuss Voigt Hill
#
# Bulk Modulus (GPa) = 96.53429 98.51334 97.52382
# Shear Modulus (GPa) = 36.55601 44.25883 40.40742
#
# Velocity S-wave (km/s) = 3.83492 4.21965 4.03187
# Velocity P-wave (km/s) = 7.64492 7.96070 7.80441
#
# Compressibility (1/GPa) = 0.01035901
#
# Stress axis : x y z
#
# Youngs Moduli (GPa) = 99.82518 132.57245 92.96181
#
# Poissons Ratio (x) = 0.16919 0.49070
# Poissons Ratio (y) = 0.12740 0.22540
# Poissons Ratio (z) = 0.52693 0.32144
#
# Static dielectric constant tensor:
#      x y z
#    x 1.990190 -0.060150 -0.025290 
#    y -0.060150 2.133960 0.116400 
#    z -0.025290 0.116400 2.051530 
# 
# From -- ./inp_files/189730.got.cif
#   From: 2010.05.17/outbox.cif.g08.bks.cpg/sg2_95_cif.got.tgz:189730.got - 2010.06.03 11:33:40.
