data_PCOD9019250
_publ_section_title
;
Structure prediction by ZEFSAII (Michael W. Deem and Ramdas Pophale) SiO2 
 PCOD9019250
Probable space group: P -1
;
_chemical_formula_sum "Si O2"
_cell_formula_units_Z 16
_cell_length_a 15.233111
_cell_length_b 12.035545
_cell_length_c 9.071634
_cell_angle_alpha 87.642644
_cell_angle_beta 79.284551
_cell_angle_gamma 149.203827
_cell_volume 767.100465
_symmetry_space_group_name_H-M "P -1"
_symmetry_group_IT_number 2
_symmetry_cell_setting 'triclinic'
loop_
_space_group_symop_operation_xyz
x,y,z
-x,-y,-z
loop_
_atom_site_type_symbol
_atom_site_label
_atom_site_fract_x
_atom_site_fract_y
_atom_site_fract_z
Si Si1 0.591782 0.533149 0.835462
Si Si2 0.692387 0.054552 0.782140
Si Si3 0.030114 0.481543 0.149066
Si Si4 0.312853 0.603608 0.108600
Si Si5 0.174512 0.018520 0.414178
Si Si6 0.437427 0.310505 0.589094
Si Si7 0.753054 0.483229 0.537909
Si Si8 0.287014 0.793490 0.537008
O O1 0.691658 0.534776 0.874015
O O2 0.439244 0.326038 0.767270
O O3 0.741293 0.774292 0.687630
O O4 0.500000 0.500000 0.000000
O O5 0.831426 0.278864 0.827513
O O6 0.751357 0.994664 0.721773
O O7 0.702515 0.130330 0.621832
O O8 0.489410 0.830189 0.938647
O O9 0.130705 0.472319 0.119604
O O10 0.831360 0.264474 0.308489
O O11 0.000000 0.500000 0.000000
O O12 0.336469 0.658239 0.271991
O O13 0.946749 0.761170 0.498526
O O14 0.260157 0.091049 0.547745
O O15 0.500000 0.500000 0.500000
O O16 0.600015 0.394574 0.511953
O O17 0.807924 0.432259 0.437168
O O18 0.500000 0.000000 0.500000
#
# Coordination Sequence:
#
# PCOD9019250 Si02
#       8
#     2   2   2   2   2   2   2   2
#     4  10  21  44  70 101 136 183 232 287 355 415
#     4  12  23  44  69  96 141 180 226 288 352 413
#     4  12  26  44  67 105 140 180 237 285 353 425
#     4  11  24  42  69  98 136 181 228 285 351 412
#     4  11  22  44  73  98 137 185 231 291 351 418
#     4   9  22  40  69 100 132 176 235 283 346 419
#     4  11  23  43  69 101 137 181 236 286 354 421
#     4  12  25  43  69 101 135 187 233 284 354 425
#
# _framework density 20.857762000000001
#
# number of rings (size 3 to 8) (size 9 to 14) (size 15 to 20)
#    0.000    1.000    3.750    3.000    1.750    4.500 
#    2.250    0.000    0.000    5.250    0.000    0.000 
#    0.000    0.000    0.000    0.000    0.000    0.000 
#
# Total GULP energy -89353.713675 kJ/mol
# GULP energy per Si atom -5584.607105 kJ/mol
# Density = 2.081029 g / cm^3
# Si number density = 20.857762 Si / 1000 Ang^3
#
#
#
# Elastic Constant Matrix: (Units=GPa)
#
#
# Indices 1 2 3 4 5 6 
#
# 1 174.4268 33.1924 61.4985 -4.0445 8.7208 7.3340
# 2 33.1924 86.8859 38.4019 -9.2323 10.9202 13.6289
# 3 61.4985 38.4019 134.3577 -7.7981 3.1015 17.8174
# 4 -4.0445 -9.2323 -7.7981 27.9099 4.0747 -0.4920
# 5 8.7208 10.9202 3.1015 4.0747 43.1385 4.8239
# 6 7.3340 13.6289 17.8174 -0.4920 4.8239 31.3014
#
#
#
# Elastic Compliance Matrix: (Units=1/GPa)
#
#
# Indices 1 2 3 4 5 6 
#
# 1 0.007038 -0.001421 -0.002902 -0.000112 -0.000929 0.000763
# 2 -0.001421 0.014735 -0.002709 0.004310 -0.003210 -0.003978
# 3 -0.002902 -0.002709 0.010135 0.001317 0.000869 -0.004023
# 4 -0.000112 0.004310 0.001317 0.038261 -0.004633 -0.001285
# 5 -0.000929 -0.003210 0.000869 -0.004633 0.024868 -0.002785
# 6 0.000763 -0.003978 -0.004023 -0.001285 -0.002785 0.036200
#
#
# Mechanical properties :
#
#
# Convention : Reuss Voigt Hill
#
# Bulk Modulus (GPa) = 56.03917 73.53956 64.78936
# Shear Modulus (GPa) = 33.05791 37.97513 35.51652
#
# Velocity S-wave (km/s) = 3.98543 4.27156 4.13097
# Velocity P-wave (km/s) = 6.93569 7.72415 7.34051
#
# Compressibility (1/GPa) = 0.01784466
#
# Stress axis : x y z
#
# Youngs Moduli (GPa) = 142.07930 67.86492 98.66595
#
# Poissons Ratio (x) = 0.09644 0.28629
# Poissons Ratio (y) = 0.20190 0.26732
# Poissons Ratio (z) = 0.41226 0.18387
#
# Static dielectric constant tensor:
#      x y z
#    x 1.599010 -0.129480 -0.032130 
#    y -0.129480 1.750960 0.013680 
#    z -0.032130 0.013680 1.725520 
# 
# From -- ./inp_files/202275.got.cif
#   From: 2010.05.17/outbox.cif.g08.bks.cpg/sg2_102_cif.got.tgz:202275.got - 2010.06.03 11:33:40.
