data_PCOD9019969
_publ_section_title
;
Structure prediction by ZEFSAII (Michael W. Deem and Ramdas Pophale) SiO2 
 PCOD9019969
Probable space group: P -1
;
_chemical_formula_sum "Si O2"
_cell_formula_units_Z 16
_cell_length_a 17.065063
_cell_length_b 4.879552
_cell_length_c 10.853294
_cell_angle_alpha 84.332851
_cell_angle_beta 50.670296
_cell_angle_gamma 65.104610
_cell_volume 615.648120
_symmetry_space_group_name_H-M "P -1"
_symmetry_group_IT_number 2
_symmetry_cell_setting 'triclinic'
loop_
_space_group_symop_operation_xyz
x,y,z
-x,-y,-z
loop_
_atom_site_type_symbol
_atom_site_label
_atom_site_fract_x
_atom_site_fract_y
_atom_site_fract_z
Si Si1 0.453223 0.998654 0.681751
Si Si2 0.096036 0.194035 0.346212
Si Si3 0.901277 0.346414 0.043831
Si Si4 0.893436 0.722487 0.272956
Si Si5 0.303607 0.341637 0.120035
Si Si6 0.691396 0.322711 0.127871
Si Si7 0.529911 0.705320 0.861040
Si Si8 0.111249 0.789485 0.570826
O O1 0.416969 0.347456 0.746954
O O2 0.500000 0.000000 0.500000
O O3 0.339851 0.949590 0.799498
O O4 0.533550 0.718983 0.707574
O O5 0.025070 0.105638 0.320405
O O6 0.197145 0.276327 0.212126
O O7 0.000000 0.500000 0.500000
O O8 0.141269 0.916503 0.413172
O O9 0.795505 0.307446 0.103441
O O10 0.871021 0.603731 0.169519
O O11 0.967637 0.426908 0.866374
O O12 0.000000 0.000000 0.000000
O O13 0.846200 0.567180 0.425585
O O14 0.859222 0.060212 0.346976
O O15 0.347119 0.351185 0.212752
O O16 0.286756 0.631919 0.038961
O O17 0.419932 0.041590 0.972752
O O18 0.500000 0.500000 0.000000
#
# Coordination Sequence:
#
# PCOD9019969 Si02
#       8
#     2   2   2   2   2   2   2   2
#     4  11  25  48  74 108 146 185 242 314 382 447
#     4  11  24  41  66 104 141 191 240 296 365 440
#     4  11  25  42  70 102 144 188 252 295 355 439
#     4  11  23  41  62  89 139 187 231 294 346 417
#     4  10  23  44  73 105 141 187 251 308 366 445
#     4  11  25  44  76 105 138 195 244 298 376 444
#     4  10  21  45  74 105 141 185 249 310 377 436
#     4  11  23  42  61  90 142 183 236 285 362 424
#
# _framework density 25.988869999999999
#
# number of rings (size 3 to 8) (size 9 to 14) (size 15 to 20)
#    0.000    1.250    3.750    1.125    3.500    4.000 
#    4.500    0.000    0.000    0.000    0.000    0.000 
#    0.000    0.000    0.000    0.000    0.000    0.000 
#
# Total GULP energy -89340.045997 kJ/mol
# GULP energy per Si atom -5583.752875 kJ/mol
# Density = 2.592972 g / cm^3
# Si number density = 25.988870 Si / 1000 Ang^3
#
#
#
# Elastic Constant Matrix: (Units=GPa)
#
#
# Indices 1 2 3 4 5 6 
#
# 1 184.5973 39.4596 37.5122 -7.3802 -0.5042 5.1680
# 2 39.4596 111.7237 33.8531 -19.3161 0.2857 10.3991
# 3 37.5122 33.8531 126.8155 -38.1923 -6.3651 -3.8448
# 4 -7.3802 -19.3161 -38.1923 42.6360 -0.2564 -5.4141
# 5 -0.5042 0.2857 -6.3651 -0.2564 34.6974 -8.2751
# 6 5.1680 10.3991 -3.8448 -5.4141 -8.2751 41.6929
#
#
#
# Elastic Compliance Matrix: (Units=1/GPa)
#
#
# Indices 1 2 3 4 5 6 
#
# 1 0.006133 -0.001799 -0.001826 -0.001488 -0.000423 -0.000757
# 2 -0.001799 0.010795 -0.001629 0.002803 -0.000977 -0.002450
# 3 -0.001826 -0.001629 0.012281 0.010444 0.003213 0.003759
# 4 -0.001488 0.002803 0.010444 0.034557 0.003468 0.005624
# 5 -0.000423 -0.000977 0.003213 0.003468 0.031161 0.007228
# 6 -0.000757 -0.002450 0.003759 0.005624 0.007228 0.027201
#
#
# Mechanical properties :
#
#
# Convention : Reuss Voigt Hill
#
# Bulk Modulus (GPa) = 53.47089 71.64292 62.55691
# Shear Modulus (GPa) = 36.00499 44.62603 40.31551
#
# Velocity S-wave (km/s) = 3.72613 4.14831 3.94288
# Velocity P-wave (km/s) = 6.25550 7.11135 6.69711
#
# Compressibility (1/GPa) = 0.01870176
#
# Stress axis : x y z
#
# Youngs Moduli (GPa) = 163.04294 92.63956 81.42651
#
# Poissons Ratio (x) = 0.16661 0.14872
# Poissons Ratio (y) = 0.29323 0.13261
# Poissons Ratio (z) = 0.29779 0.15088
#
# Static dielectric constant tensor:
#      x y z
#    x 2.125380 -0.007700 0.114050 
#    y -0.007700 2.067370 0.011890 
#    z 0.114050 0.011890 2.199840 
# 
# From -- ./inp_files/459458.got.cif
#   From: 2010.05.17/outbox.cif.g08.bks.cpg/sg2_230_cif.got.tgz:459458.got - 2010.06.03 11:33:40.
