data_PCOD9019053
_publ_section_title
;
Structure prediction by ZEFSAII (Michael W. Deem and Ramdas Pophale) SiO2 
 PCOD9019053
Probable space group: P -1
;
_chemical_formula_sum "Si O2"
_cell_formula_units_Z 13
_cell_length_a 7.028702
_cell_length_b 11.877003
_cell_length_c 7.262885
_cell_angle_alpha 77.113559
_cell_angle_beta 116.062685
_cell_angle_gamma 119.355683
_cell_volume 474.692639
_symmetry_space_group_name_H-M "P -1"
_symmetry_group_IT_number 2
_symmetry_cell_setting 'triclinic'
loop_
_space_group_symop_operation_xyz
x,y,z
-x,-y,-z
loop_
_atom_site_type_symbol
_atom_site_label
_atom_site_fract_x
_atom_site_fract_y
_atom_site_fract_z
Si Si1 0.182324 0.379603 0.090724
Si Si2 0.747580 0.378523 0.142254
Si Si3 0.580869 0.980064 0.333426
Si Si4 0.443077 0.283254 0.706070
Si Si5 0.500000 0.500000 0.500000
Si Si6 0.946262 0.240559 0.491942
Si Si7 0.071819 0.886493 0.073127
O O1 0.424241 0.439108 0.281989
O O2 0.958246 0.373338 0.111096
O O3 0.214811 0.475443 0.900095
O O4 0.106021 0.231081 0.078045
O O5 0.789457 0.315199 0.366790
O O6 0.515935 0.293722 0.947137
O O7 0.621131 0.854220 0.359443
O O8 0.350130 0.949846 0.124163
O O9 0.500000 0.000000 0.500000
O O10 0.817289 0.112183 0.357250
O O11 0.639953 0.405674 0.642922
O O12 0.230584 0.325068 0.549450
O O13 0.947795 0.182861 0.713244
O O14 0.000000 0.000000 0.000000
#
# Coordination Sequence:
#
# PCOD9019053 Si02
#       7
#     2   2   2   2   1   2   2
#     4  10  21  44  68 100 135 180 226 277 337 410
#     4  10  22  41  70  98 131 176 230 276 335 402
#     4  10  24  42  63  98 137 181 221 281 337 394
#     4  11  22  42  69 100 134 178 230 277 332 408
#     4  10  22  38  72 102 130 182 224 280 340 396
#     4  11  25  42  68 103 137 176 227 278 341 400
#     4  11  26  45  68 100 139 183 224 280 345 403
#
# _framework density 27.386144000000002
#
# number of rings (size 3 to 8) (size 9 to 14) (size 15 to 20)
#    0.000    1.538    3.077    0.462    6.462    2.462 
#    0.000    4.615    0.000    0.000    0.000    0.000 
#    0.000    0.000    0.000    0.000    0.000    0.000 
#
# Total GULP energy -72508.200935 kJ/mol
# GULP energy per Si atom -5577.553918 kJ/mol
# Density = 2.732381 g / cm^3
# Si number density = 27.386144 Si / 1000 Ang^3
#
#
#
# Elastic Constant Matrix: (Units=GPa)
#
#
# Indices 1 2 3 4 5 6 
#
# 1 79.4735 27.0491 36.1801 -1.7344 7.8764 6.9184
# 2 27.0491 209.8765 71.6898 18.3272 15.3329 -18.6097
# 3 36.1801 71.6898 164.6586 -8.5861 33.5749 2.7161
# 4 -1.7344 18.3272 -8.5861 66.8429 12.6654 3.6947
# 5 7.8764 15.3329 33.5749 12.6654 43.2743 -6.9595
# 6 6.9184 -18.6097 2.7161 3.6947 -6.9595 25.4524
#
#
#
# Elastic Compliance Matrix: (Units=1/GPa)
#
#
# Indices 1 2 3 4 5 6 
#
# 1 0.014773 -0.001722 -0.001955 0.001275 -0.001861 -0.005760
# 2 -0.001722 0.006881 -0.003441 -0.003263 0.002636 0.007061
# 3 -0.001955 -0.003441 0.010013 0.004088 -0.008344 -0.005928
# 4 0.001275 -0.003263 0.004088 0.018584 -0.009027 -0.008335
# 5 -0.001861 0.002636 -0.008344 -0.009027 0.033863 0.013893
# 6 -0.005760 0.007061 -0.005928 -0.008335 0.013893 0.051659
#
#
# Mechanical properties :
#
#
# Convention : Reuss Voigt Hill
#
# Bulk Modulus (GPa) = 57.37497 80.42741 68.90119
# Shear Modulus (GPa) = 32.08829 48.38655 40.23742
#
# Velocity S-wave (km/s) = 3.42672 4.20792 3.83725
# Velocity P-wave (km/s) = 6.05412 7.28289 6.69675
#
# Compressibility (1/GPa) = 0.01742920
#
# Stress axis : x y z
#
# Youngs Moduli (GPa) = 67.69194 145.33552 99.86675
#
# Poissons Ratio (x) = 0.25031 0.19525
# Poissons Ratio (y) = 0.11658 0.34369
# Poissons Ratio (z) = 0.13234 0.50016
#
# Static dielectric constant tensor:
#      x y z
#    x 1.895320 -0.383260 -0.030200 
#    y -0.383260 2.528290 0.377310 
#    z -0.030200 0.377310 2.345670 
# 
# From -- ./inp_files/169049.got.cif
#   From: 2010.05.17/outbox.cif.g08.bks.cpg/sg2_85_cif.got.tgz:169049.got - 2010.06.03 11:33:40.
