data_PCOD9019251
_publ_section_title
;
Structure prediction by ZEFSAII (Michael W. Deem and Ramdas Pophale) SiO2 
 PCOD9019251
Probable space group: P -1
;
_chemical_formula_sum "Si O2"
_cell_formula_units_Z 16
_cell_length_a 25.940679
_cell_length_b 5.415058
_cell_length_c 6.739754
_cell_angle_alpha 46.437789
_cell_angle_beta 107.179446
_cell_angle_gamma 111.838588
_cell_volume 635.725013
_symmetry_space_group_name_H-M "P -1"
_symmetry_group_IT_number 2
_symmetry_cell_setting 'triclinic'
loop_
_space_group_symop_operation_xyz
x,y,z
-x,-y,-z
loop_
_atom_site_type_symbol
_atom_site_label
_atom_site_fract_x
_atom_site_fract_y
_atom_site_fract_z
Si Si1 0.143610 0.458733 0.562761
Si Si2 0.369372 0.061573 0.515589
Si Si3 0.960291 0.737079 0.749434
Si Si4 0.870912 0.837240 0.869457
Si Si5 0.608933 0.102304 0.796071
Si Si6 0.695862 0.920373 0.242723
Si Si7 0.230398 0.585203 0.251525
Si Si8 0.509706 0.915543 0.280016
O O1 0.093753 0.385107 0.386464
O O2 0.199850 0.567142 0.438908
O O3 0.138306 0.824116 0.446261
O O4 0.135993 0.181272 0.887989
O O5 0.379294 0.489248 0.334738
O O6 0.425534 0.936712 0.690886
O O7 0.359897 0.955585 0.336746
O O8 0.317484 0.862353 0.700905
O O9 0.931946 0.825124 0.872920
O O10 0.000000 0.000000 0.500000
O O11 0.000000 0.500000 0.000000
O O12 0.820453 0.540002 0.891705
O O13 0.542834 0.980126 0.734908
O O14 0.632619 0.861525 0.112965
O O15 0.727979 0.664073 0.526961
O O16 0.733390 0.085199 0.009339
O O17 0.500000 0.500000 0.500000
O O18 0.500000 0.000000 0.000000
#
# Coordination Sequence:
#
# PCOD9019251 Si02
#       8
#     2   2   2   2   2   2   2   2
#     4  11  24  44  69  97 134 183 230 278 340 412
#     4  11  25  47  71 105 142 185 235 296 366 445
#     4  11  24  41  66 104 144 176 224 283 332 407
#     4  11  24  44  69  97 134 183 230 278 340 412
#     4  11  25  47  71 105 142 185 235 296 366 445
#     4  12  24  46  66 101 134 179 232 299 358 427
#     4  11  26  46  66  98 130 179 232 289 348 407
#     4  10  21  44  70 101 139 185 230 288 360 447
#
# _framework density 25.168113000000002
#
# number of rings (size 3 to 8) (size 9 to 14) (size 15 to 20)
#    0.000    1.000    2.500    3.375    0.000   11.000 
#    4.500    2.500    0.000    0.000    0.000    0.000 
#    0.000    0.000    0.000    0.000    0.000    0.000 
#
# Total GULP energy -89152.871966 kJ/mol
# GULP energy per Si atom -5572.054498 kJ/mol
# Density = 2.511083 g / cm^3
# Si number density = 25.168113 Si / 1000 Ang^3
#
#
#
# Elastic Constant Matrix: (Units=GPa)
#
#
# Indices 1 2 3 4 5 6 
#
# 1 170.3523 17.6114 30.7840 3.6376 -5.1911 -17.7564
# 2 17.6114 44.9986 7.6542 11.0407 -3.3463 -4.2154
# 3 30.7840 7.6542 161.1511 7.0454 -0.0132 -11.8300
# 4 3.6376 11.0407 7.0454 32.9876 -2.5634 -5.6247
# 5 -5.1911 -3.3463 -0.0132 -2.5634 46.2975 2.7631
# 6 -17.7564 -4.2154 -11.8300 -5.6247 2.7631 33.1597
#
#
#
# Elastic Compliance Matrix: (Units=1/GPa)
#
#
# Indices 1 2 3 4 5 6 
#
# 1 0.006590 -0.002297 -0.000965 0.000792 0.000438 0.002991
# 2 -0.002297 0.025261 -0.000383 -0.007965 0.001103 0.000402
# 3 -0.000965 -0.000383 0.006569 -0.000909 -0.000283 0.001647
# 4 0.000792 -0.007965 -0.000909 0.033985 0.001110 0.004759
# 5 0.000438 0.001103 -0.000283 0.001110 0.021871 -0.001360
# 6 0.002991 0.000402 0.001647 0.004759 -0.001360 0.033318
#
#
# Mechanical properties :
#
#
# Convention : Reuss Voigt Hill
#
# Bulk Modulus (GPa) = 32.12340 54.28903 43.20621
# Shear Modulus (GPa) = 34.42110 43.85244 39.13677
#
# Velocity S-wave (km/s) = 3.70218 4.17871 3.94764
# Velocity P-wave (km/s) = 5.57370 6.70071 6.16302
#
# Compressibility (1/GPa) = 0.03112996
#
# Stress axis : x y z
#
# Youngs Moduli (GPa) = 151.74205 39.58675 152.24098
#
# Poissons Ratio (x) = 0.09092 0.14689
# Poissons Ratio (y) = 0.34851 0.05835
# Poissons Ratio (z) = 0.14641 0.01517
#
# Static dielectric constant tensor:
#      x y z
#    x 2.112920 0.036570 -0.061180 
#    y 0.036570 2.111090 -0.027010 
#    z -0.061180 -0.027010 1.989750 
# 
# From -- ./inp_files/125699.got.cif
#   From: 2010.05.17/outbox.cif.g08.bks.cpg/sg2_63_cif.got.tgz:125699.got - 2010.06.03 11:33:40.
