data_PCOD9019298
_publ_section_title
;
Structure prediction by ZEFSAII (Michael W. Deem and Ramdas Pophale) SiO2 
 PCOD9019298
Probable space group: P -1
;
_chemical_formula_sum "Si O2"
_cell_formula_units_Z 16
_cell_length_a 5.482876
_cell_length_b 6.896517
_cell_length_c 18.712351
_cell_angle_alpha 101.920061
_cell_angle_beta 83.862837
_cell_angle_gamma 103.892684
_cell_volume 670.831240
_symmetry_space_group_name_H-M "P -1"
_symmetry_group_IT_number 2
_symmetry_cell_setting 'triclinic'
loop_
_space_group_symop_operation_xyz
x,y,z
-x,-y,-z
loop_
_atom_site_type_symbol
_atom_site_label
_atom_site_fract_x
_atom_site_fract_y
_atom_site_fract_z
Si Si1 0.216937 0.718420 0.190903
Si Si2 0.532942 0.723242 0.047965
Si Si3 0.964648 0.737944 0.803856
Si Si4 0.682372 0.653336 0.659579
Si Si5 0.385650 0.959983 0.720480
Si Si6 0.759205 0.860608 0.531796
Si Si7 0.540640 0.799723 0.387252
Si Si8 0.912736 0.073437 0.922443
O O1 0.450026 0.689723 0.131205
O O2 0.352675 0.881414 0.256847
O O3 0.057725 0.499744 0.201676
O O4 0.054638 0.817718 0.148673
O O5 0.819432 0.852732 0.041606
O O6 0.319039 0.837013 0.033871
O O7 0.500000 0.500000 0.000000
O O8 0.828224 0.745486 0.732872
O O9 0.238630 0.880020 0.791352
O O10 0.850993 0.838655 0.881683
O O11 0.812697 0.725458 0.585660
O O12 0.618712 0.413015 0.651756
O O13 0.435553 0.748573 0.672428
O O14 0.273387 0.088182 0.673242
O O15 0.633096 0.740217 0.457061
O O16 0.604091 0.022980 0.576902
O O17 0.000000 0.000000 0.500000
#
# Coordination Sequence:
#
# PCOD9019298 Si02
#       8
#     2   2   2   2   2   2   2   2
#     4  10  23  39  64  95 132 169 219 271 331 390
#     4  10  21  44  70  95 137 181 217 274 332 388
#     4  12  22  39  64  96 126 175 214 272 334 392
#     4  11  22  37  62  87 122 164 220 258 334 394
#     4  11  22  40  58  91 128 164 213 277 323 392
#     4  10  22  39  57  85 123 162 210 269 324 390
#     4  10  22  39  59  85 124 162 214 268 326 393
#     4  10  22  42  66  97 138 172 223 278 325 395
#
# _framework density 23.851006000000002
#
# number of rings (size 3 to 8) (size 9 to 14) (size 15 to 20)
#    0.750    0.750    3.750    1.500    0.000    3.500 
#    0.000    1.250    0.000    0.000    0.000    0.000 
#    0.000    0.000    0.000    0.000    0.000    0.000 
#
# Total GULP energy -89218.897857 kJ/mol
# GULP energy per Si atom -5576.181116 kJ/mol
# Density = 2.379672 g / cm^3
# Si number density = 23.851006 Si / 1000 Ang^3
#
#
#
# Elastic Constant Matrix: (Units=GPa)
#
#
# Indices 1 2 3 4 5 6 
#
# 1 70.6331 13.7494 1.9133 8.3553 6.0455 10.6272
# 2 13.7494 122.3858 13.5721 -2.0399 8.7331 14.0538
# 3 1.9133 13.5721 73.2958 2.0315 12.8289 2.6156
# 4 8.3553 -2.0399 2.0315 43.9329 7.3249 6.0157
# 5 6.0455 8.7331 12.8289 7.3249 31.3477 -4.1939
# 6 10.6272 14.0538 2.6156 6.0157 -4.1939 26.7583
#
#
#
# Elastic Compliance Matrix: (Units=1/GPa)
#
#
# Indices 1 2 3 4 5 6 
#
# 1 0.015713 -0.000931 0.000623 -0.001669 -0.003435 -0.005975
# 2 -0.000931 0.009253 -0.001002 0.001905 -0.003144 -0.005313
# 3 0.000623 -0.001002 0.015003 0.000527 -0.006413 -0.002311
# 4 -0.001669 0.001905 0.000527 0.025354 -0.007317 -0.007236
# 5 -0.003435 -0.003144 -0.006413 -0.007317 0.039304 0.011448
# 6 -0.005975 -0.005313 -0.002311 -0.007236 0.011448 0.046182
#
#
# Mechanical properties :
#
#
# Convention : Reuss Voigt Hill
#
# Bulk Modulus (GPa) = 26.77467 36.08715 31.43091
# Shear Modulus (GPa) = 30.14258 36.21310 33.17784
#
# Velocity S-wave (km/s) = 3.55883 3.90077 3.73372
# Velocity P-wave (km/s) = 5.30445 5.95408 5.63863
#
# Compressibility (1/GPa) = 0.03734873
#
# Stress axis : x y z
#
# Youngs Moduli (GPa) = 63.64353 108.07581 66.65337
#
# Poissons Ratio (x) = 0.10060 -0.04152
# Poissons Ratio (y) = 0.05924 0.06678
# Poissons Ratio (z) = -0.03965 0.10828
#
# Static dielectric constant tensor:
#      x y z
#    x 2.136300 0.081330 0.148160 
#    y 0.081330 1.900880 0.067570 
#    z 0.148160 0.067570 2.327540 
# 
# From -- ./inp_files/121583.got.cif
#   From: 2010.05.17/outbox.cif.g08.bks.cpg/sg2_61_cif.got.tgz:121583.got - 2010.06.03 11:33:40.
