data_PCOD9019792
_publ_section_title
;
Structure prediction by ZEFSAII (Michael W. Deem and Ramdas Pophale) SiO2 
 PCOD9019792
Probable space group: P -1
;
_chemical_formula_sum "Si O2"
_cell_formula_units_Z 15
_cell_length_a 13.212290
_cell_length_b 13.369256
_cell_length_c 9.374361
_cell_angle_alpha 81.659529
_cell_angle_beta 103.370643
_cell_angle_gamma 31.507865
_cell_volume 622.689269
_symmetry_space_group_name_H-M "P -1"
_symmetry_group_IT_number 2
_symmetry_cell_setting 'triclinic'
loop_
_space_group_symop_operation_xyz
x,y,z
-x,-y,-z
loop_
_atom_site_type_symbol
_atom_site_label
_atom_site_fract_x
_atom_site_fract_y
_atom_site_fract_z
Si Si1 0.789528 0.108229 0.851127
Si Si2 0.484057 0.066535 0.827762
Si Si3 0.058586 0.563845 0.198745
Si Si4 0.080869 0.073531 0.368796
Si Si5 0.730016 0.309090 0.440530
Si Si6 0.863984 0.935132 0.187700
Si Si7 0.000000 0.500000 0.500000
Si Si8 0.384247 0.958983 0.663233
O O1 0.915317 0.934342 0.797804
O O2 0.535596 0.398491 0.659791
O O3 0.721844 0.101781 0.966651
O O4 0.000000 0.000000 0.000000
O O5 0.320346 0.131161 0.657894
O O6 0.257515 0.350116 0.668753
O O7 0.795807 0.801490 0.959921
O O8 0.500000 0.000000 0.000000
O O9 0.320826 0.306067 0.247600
O O10 0.062653 0.670824 0.250130
O O11 0.028368 0.515422 0.332326
O O12 0.276787 0.806002 0.538829
O O13 0.190481 0.080815 0.461692
O O14 0.812687 0.279104 0.318616
O O15 0.969021 0.130373 0.659839
O O16 0.659042 0.066751 0.202414
#
# Coordination Sequence:
#
# PCOD9019792 Si02
#       8
#     2   2   2   2   2   2   1   2
#     4  12  25  41  71  99 135 188 225 268 336 393
#     4  10  21  45  68  98 132 172 218 273 342 395
#     4  11  24  43  72  98 134 173 225 277 336 399
#     4  10  23  44  68 100 136 180 222 278 335 389
#     4  10  23  45  66  96 145 176 219 282 332 389
#     4  11  24  45  66 102 139 177 225 275 332 398
#     4  10  22  44  72  94 136 170 216 282 338 400
#     4  11  23  44  71  99 134 177 219 282 337 394
#
# _framework density 24.089061999999998
#
# number of rings (size 3 to 8) (size 9 to 14) (size 15 to 20)
#    0.000    1.333    4.000    1.600    1.867    4.267 
#    0.000    4.000    0.000    0.000    0.000    0.000 
#    0.000    0.000    0.000    0.000    0.000    0.000 
#
# Total GULP energy -83607.516147 kJ/mol
# GULP energy per Si atom -5573.834410 kJ/mol
# Density = 2.403423 g / cm^3
# Si number density = 24.089062 Si / 1000 Ang^3
#
#
#
# Elastic Constant Matrix: (Units=GPa)
#
#
# Indices 1 2 3 4 5 6 
#
# 1 59.7446 32.6029 35.6675 6.1970 8.2529 7.0031
# 2 32.6029 134.8029 36.0915 14.1901 4.3073 -17.9765
# 3 35.6675 36.0915 130.2498 5.8933 -1.8608 -6.7964
# 4 6.1970 14.1901 5.8933 43.2709 2.9637 9.4072
# 5 8.2529 4.3073 -1.8608 2.9637 38.6222 8.9172
# 6 7.0031 -17.9765 -6.7964 9.4072 8.9172 41.3480
#
#
#
# Elastic Compliance Matrix: (Units=1/GPa)
#
#
# Indices 1 2 3 4 5 6 
#
# 1 0.024075 -0.005186 -0.005584 0.000696 -0.003345 -0.006687
# 2 -0.005186 0.010192 -0.000924 -0.003754 -0.001234 0.006278
# 3 -0.005584 -0.000924 0.009620 -0.000735 0.001354 0.002000
# 4 0.000696 -0.003754 -0.000735 0.026035 0.000038 -0.007802
# 5 -0.003345 -0.001234 0.001354 0.000038 0.028152 -0.005828
# 6 -0.006687 0.006278 0.002000 -0.007802 -0.005828 0.031408
#
#
# Mechanical properties :
#
#
# Convention : Reuss Voigt Hill
#
# Bulk Modulus (GPa) = 48.78400 59.28011 54.03205
# Shear Modulus (GPa) = 31.30828 39.34392 35.32610
#
# Velocity S-wave (km/s) = 3.60903 4.04576 3.83362
# Velocity P-wave (km/s) = 6.13696 6.81809 6.48647
#
# Compressibility (1/GPa) = 0.02049853
#
# Stress axis : x y z
#
# Youngs Moduli (GPa) = 41.53667 98.11962 103.95306
#
# Poissons Ratio (x) = 0.50883 0.58047
# Poissons Ratio (y) = 0.21540 0.09607
# Poissons Ratio (z) = 0.23194 0.09068
#
# Static dielectric constant tensor:
#      x y z
#    x 2.050010 0.043660 -0.005180 
#    y 0.043660 2.084600 -0.078010 
#    z -0.005180 -0.078010 1.993660 
# 
# From -- ./inp_files/315292.got.cif
#   From: 2010.05.17/outbox.cif.g08.bks.cpg/sg2_158_cif.got.tgz:315292.got - 2010.06.03 11:33:40.
