data_PCOD9019417
_publ_section_title
;
Structure prediction by ZEFSAII (Michael W. Deem and Ramdas Pophale) SiO2 
 PCOD9019417
Probable space group: P -1
;
_chemical_formula_sum "Si O2"
_cell_formula_units_Z 16
_cell_length_a 9.117580
_cell_length_b 17.403577
_cell_length_c 16.379628
_cell_angle_alpha 148.519694
_cell_angle_beta 32.003072
_cell_angle_gamma 137.738374
_cell_volume 717.962515
_symmetry_space_group_name_H-M "P -1"
_symmetry_group_IT_number 2
_symmetry_cell_setting 'triclinic'
loop_
_space_group_symop_operation_xyz
x,y,z
-x,-y,-z
loop_
_atom_site_type_symbol
_atom_site_label
_atom_site_fract_x
_atom_site_fract_y
_atom_site_fract_z
Si Si1 0.717230 0.557901 0.220456
Si Si2 0.462153 0.861110 0.830922
Si Si3 0.066396 0.330084 0.609018
Si Si4 0.665048 0.990780 0.146056
Si Si5 0.765022 0.669612 0.797069
Si Si6 0.420537 0.831883 0.359306
Si Si7 0.323092 0.763078 0.518499
Si Si8 0.915282 0.644371 0.892082
O O1 0.455449 0.440346 0.242774
O O2 0.592949 0.673830 0.323163
O O3 0.779370 0.628589 0.342278
O O4 0.000000 0.500000 0.000000
O O5 0.712074 0.754171 0.624532
O O6 0.185190 0.755778 0.876187
O O7 0.441825 0.928280 0.809844
O O8 0.500000 0.000000 0.000000
O O9 0.810996 0.210225 0.637003
O O10 0.964386 0.484962 0.763053
O O11 0.593089 0.076022 0.338533
O O12 0.602243 0.818353 0.016310
O O13 0.000000 0.000000 0.000000
O O14 0.843283 0.624819 0.811879
O O15 0.053023 0.698439 0.637328
O O16 0.265100 0.768877 0.456580
O O17 0.500000 0.000000 0.500000
O O18 0.674164 0.733332 0.128480
#
# Coordination Sequence:
#
# PCOD9019417 Si02
#       8
#     2   2   2   2   2   2   2   2
#     4  12  25  45  68 108 148 186 229 296 365 416
#     4  12  26  44  72 108 144 181 240 306 363 411
#     4  12  27  46  68 109 147 182 238 304 362 427
#     4  10  21  44  71  99 136 182 248 286 339 428
#     4  11  24  44  77  98 137 194 245 282 346 433
#     4  12  27  46  74 103 145 193 244 289 363 432
#     4  11  23  46  71 101 136 190 244 285 344 438
#     4  12  24  48  72 107 144 196 237 295 353 438
#
# _framework density 22.285285999999999
#
# number of rings (size 3 to 8) (size 9 to 14) (size 15 to 20)
#    0.000    0.500    3.750    4.875    7.000    1.000 
#    2.250    1.250    0.000    0.000    0.000    0.000 
#    0.000    0.000    0.000    0.000    0.000    0.000 
#
# Total GULP energy -89448.509819 kJ/mol
# GULP energy per Si atom -5590.531864 kJ/mol
# Density = 2.223456 g / cm^3
# Si number density = 22.285286 Si / 1000 Ang^3
#
#
#
# Elastic Constant Matrix: (Units=GPa)
#
#
# Indices 1 2 3 4 5 6 
#
# 1 103.0152 53.2566 39.5409 -0.7089 -0.0457 25.2690
# 2 53.2566 83.5679 35.7495 6.7450 4.2113 36.8177
# 3 39.5409 35.7495 143.1869 -4.2664 1.6458 24.6110
# 4 -0.7089 6.7450 -4.2664 37.8505 2.6609 8.3895
# 5 -0.0457 4.2113 1.6458 2.6609 31.8715 0.2366
# 6 25.2690 36.8177 24.6110 8.3895 0.2366 46.4041
#
#
#
# Elastic Compliance Matrix: (Units=1/GPa)
#
#
# Indices 1 2 3 4 5 6 
#
# 1 0.015107 -0.008767 -0.001842 0.001692 0.001138 -0.000606
# 2 -0.008767 0.024373 -0.001340 -0.001442 -0.002943 -0.013578
# 3 -0.001842 -0.001340 0.008344 0.001765 -0.000384 -0.002677
# 4 0.001692 -0.001442 0.001765 0.028355 -0.002222 -0.005828
# 5 0.001138 -0.002943 -0.000384 -0.002222 0.031956 0.002157
# 6 -0.000606 -0.013578 -0.002677 -0.005828 0.002157 0.035115
#
#
# Mechanical properties :
#
#
# Convention : Reuss Voigt Hill
#
# Bulk Modulus (GPa) = 41.79182 65.20712 53.49947
# Shear Modulus (GPa) = 28.55143 36.64008 32.59576
#
# Velocity S-wave (km/s) = 3.58324 4.05920 3.82862
# Velocity P-wave (km/s) = 5.99277 7.16192 6.60327
#
# Compressibility (1/GPa) = 0.02392813
#
# Stress axis : x y z
#
# Youngs Moduli (GPa) = 66.19375 41.02879 119.84670
#
# Poissons Ratio (x) = 0.35969 0.22071
# Poissons Ratio (y) = 0.58031 0.16056
# Poissons Ratio (z) = 0.12190 0.05497
#
# Static dielectric constant tensor:
#      x y z
#    x 2.013810 -0.204750 0.052170 
#    y -0.204750 2.062940 0.005730 
#    z 0.052170 0.005730 1.863660 
# 
# From -- ./inp_files/562083.got.cif
#   From: 2010.05.17/outbox.cif.g08.bks.cpg/sg2_282_cif.got.tgz:562083.got - 2010.06.03 11:33:40.
