data_PCOD9019262
_publ_section_title
;
Structure prediction by ZEFSAII (Michael W. Deem and Ramdas Pophale) SiO2 
 PCOD9019262
Probable space group: P -1
;
_chemical_formula_sum "Si O2"
_cell_formula_units_Z 14
_cell_length_a 5.242052
_cell_length_b 21.106406
_cell_length_c 5.018025
_cell_angle_alpha 108.477666
_cell_angle_beta 87.461739
_cell_angle_gamma 93.735532
_cell_volume 525.294008
_symmetry_space_group_name_H-M "P -1"
_symmetry_group_IT_number 2
_symmetry_cell_setting 'triclinic'
loop_
_space_group_symop_operation_xyz
x,y,z
-x,-y,-z
loop_
_atom_site_type_symbol
_atom_site_label
_atom_site_fract_x
_atom_site_fract_y
_atom_site_fract_z
Si Si1 0.668281 0.236742 0.478908
Si Si2 0.332327 0.518286 0.284430
Si Si3 0.821120 0.680448 0.258102
Si Si4 0.719179 0.868203 0.501622
Si Si5 0.943849 0.602191 0.632965
Si Si6 0.242173 0.989656 0.164048
Si Si7 0.055444 0.843965 0.987972
O O1 0.426342 0.278910 0.610742
O O2 0.567247 0.162917 0.488645
O O3 0.755547 0.215260 0.150087
O O4 0.919652 0.276793 0.623633
O O5 0.500000 0.500000 0.500000
O O6 0.098941 0.462085 0.253313
O O7 0.216097 0.588621 0.462179
O O8 0.500000 0.500000 0.000000
O O9 0.794975 0.618956 0.390677
O O10 0.863747 0.657996 0.922004
O O11 0.884285 0.855511 0.744965
O O12 0.741072 0.947935 0.550434
O O13 0.850860 0.830669 0.208115
O O14 0.210114 0.913037 0.148969
O O15 0.500000 0.000000 0.000000
O O16 0.000000 0.000000 0.000000
#
# Coordination Sequence:
#
# PCOD9019262 Si02
#       7
#     2   2   2   2   2   2   2
#     4  12  28  51  70 109 146 200 252 296 360 432
#     4  11  24  47  82 111 147 186 236 303 356 419
#     4  12  30  47  78 103 156 200 242 296 354 434
#     4  11  25  47  72 104 141 189 243 312 371 439
#     4  11  28  50  72 116 146 191 244 294 358 423
#     4  10  21  44  70 103 137 181 240 308 382 437
#     4  11  25  47  72 104 141 189 243 312 371 439
#
# _framework density 26.651741999999999
#
# number of rings (size 3 to 8) (size 9 to 14) (size 15 to 20)
#    0.000    0.857    2.857    2.143    8.000    5.714 
#    0.000    2.857    0.000    0.000    0.000    0.000 
#    0.000    0.000    0.000    0.000    0.000    0.000 
#
# Total GULP energy -78266.775345 kJ/mol
# GULP energy per Si atom -5590.483953 kJ/mol
# Density = 2.659108 g / cm^3
# Si number density = 26.651742 Si / 1000 Ang^3
#
#
#
# Elastic Constant Matrix: (Units=GPa)
#
#
# Indices 1 2 3 4 5 6 
#
# 1 135.9912 20.8560 60.4559 3.7397 -41.7403 8.5534
# 2 20.8560 68.5186 39.9489 -8.2492 -9.1797 1.9614
# 3 60.4559 39.9489 233.8789 0.0794 -49.6400 -6.5658
# 4 3.7397 -8.2492 0.0794 49.1380 -6.1431 -8.6724
# 5 -41.7403 -9.1797 -49.6400 -6.1431 53.4260 -0.4155
# 6 8.5534 1.9614 -6.5658 -8.6724 -0.4155 54.8642
#
#
#
# Elastic Compliance Matrix: (Units=1/GPa)
#
#
# Indices 1 2 3 4 5 6 
#
# 1 0.010226 -0.001653 -0.000981 -0.000511 0.006722 -0.001682
# 2 -0.001653 0.016881 -0.002555 0.002874 -0.000437 -0.000201
# 3 -0.000981 -0.002555 0.005916 0.000363 0.004341 0.001043
# 4 -0.000511 0.002874 0.000363 0.021861 0.002973 0.003498
# 5 0.006722 -0.000437 0.004341 0.002973 0.028271 0.000171
# 6 -0.001682 -0.000201 0.001043 0.003498 0.000171 0.019175
#
#
# Mechanical properties :
#
#
# Convention : Reuss Voigt Hill
#
# Bulk Modulus (GPa) = 44.16274 75.65670 59.90972
# Shear Modulus (GPa) = 41.57717 52.62750 47.10234
#
# Velocity S-wave (km/s) = 3.95399 4.44851 4.20852
# Velocity P-wave (km/s) = 6.11978 7.40503 6.79287
#
# Compressibility (1/GPa) = 0.02264352
#
# Stress axis : x y z
#
# Youngs Moduli (GPa) = 97.78744 59.23843 169.02096
#
# Poissons Ratio (x) = 0.09794 0.16588
# Poissons Ratio (y) = 0.16168 0.43190
# Poissons Ratio (z) = 0.09597 0.15137
#
# Static dielectric constant tensor:
#      x y z
#    x 2.187940 0.247450 0.046460 
#    y 0.247450 2.424820 0.028320 
#    z 0.046460 0.028320 2.028640 
# 
# From -- ./inp_files/12541.got.cif
#   From: 2010.05.17/outbox.cif.g08.bks.cpg/sg2_7_cif.got.tgz:12541.got - 2010.06.03 11:33:40.
