data_PCOD9019376
_publ_section_title
;
Structure prediction by ZEFSAII (Michael W. Deem and Ramdas Pophale) SiO2 
 PCOD9019376
Probable space group: P -1
;
_chemical_formula_sum "Si O2"
_cell_formula_units_Z 15
_cell_length_a 6.427246
_cell_length_b 12.978787
_cell_length_c 12.689837
_cell_angle_alpha 103.283901
_cell_angle_beta 61.138303
_cell_angle_gamma 135.038461
_cell_volume 644.326139
_symmetry_space_group_name_H-M "P -1"
_symmetry_group_IT_number 2
_symmetry_cell_setting 'triclinic'
loop_
_space_group_symop_operation_xyz
x,y,z
-x,-y,-z
loop_
_atom_site_type_symbol
_atom_site_label
_atom_site_fract_x
_atom_site_fract_y
_atom_site_fract_z
Si Si1 0.973006 0.562582 0.125658
Si Si2 0.745290 0.111933 0.874322
Si Si3 0.500000 0.000000 0.500000
Si Si4 0.669895 0.828785 0.345690
Si Si5 0.043290 0.531833 0.334725
Si Si6 0.675729 0.743101 0.558830
Si Si7 0.432024 0.891672 0.711689
Si Si8 0.810227 0.658185 0.694062
O O1 0.578134 0.453464 0.216903
O O2 0.148208 0.731964 0.110855
O O3 0.111569 0.552884 0.197204
O O4 0.000000 0.500000 0.000000
O O5 0.082205 0.147994 0.792373
O O6 0.551728 0.012693 0.794545
O O7 0.500000 0.000000 0.000000
O O8 0.678199 0.956299 0.378825
O O9 0.582776 0.964236 0.579295
O O10 0.297837 0.686619 0.366324
O O11 0.751463 0.801557 0.434393
O O12 0.097745 0.435651 0.353220
O O13 0.652415 0.432462 0.416876
O O14 0.553910 0.806952 0.673567
O O15 0.917686 0.752519 0.581023
O O16 0.036080 0.769286 0.761033
#
# Coordination Sequence:
#
# PCOD9019376 Si02
#       8
#     2   2   1   2   2   2   2   2
#     4  11  26  47  74 101 143 197 257 307 358 437
#     4  12  29  47  72 106 152 203 250 303 360 451
#     4  10  24  42  74 104 144 190 234 306 380 444
#     4  11  23  45  71 108 152 190 242 300 380 438
#     4  10  21  44  71 108 142 183 242 310 375 444
#     4   9  22  40  73 110 143 184 236 313 369 446
#     4  10  24  43  69 108 148 187 248 295 377 441
#     4  10  22  43  72 104 140 192 239 308 367 433
#
# _framework density 23.280135000000001
#
# number of rings (size 3 to 8) (size 9 to 14) (size 15 to 20)
#    0.000    1.600    1.333    1.200    9.333    3.200 
#    2.400    2.000    0.000    0.000    0.000    0.000 
#    0.000    0.000    0.000    0.000    0.000    0.000 
#
# Total GULP energy -83660.349966 kJ/mol
# GULP energy per Si atom -5577.356664 kJ/mol
# Density = 2.322715 g / cm^3
# Si number density = 23.280135 Si / 1000 Ang^3
#
#
#
# Elastic Constant Matrix: (Units=GPa)
#
#
# Indices 1 2 3 4 5 6 
#
# 1 101.2619 48.5337 42.0413 23.2249 9.4999 -13.1880
# 2 48.5337 158.9295 45.7794 14.7942 -1.7480 -2.2535
# 3 42.0413 45.7794 109.5836 1.1586 -4.4911 -15.4984
# 4 23.2249 14.7942 1.1586 29.6320 0.4916 14.4205
# 5 9.4999 -1.7480 -4.4911 0.4916 26.7493 4.1421
# 6 -13.1880 -2.2535 -15.4984 14.4205 4.1421 43.4075
#
#
#
# Elastic Compliance Matrix: (Units=1/GPa)
#
#
# Indices 1 2 3 4 5 6 
#
# 1 0.020391 -0.002823 -0.005170 -0.019928 -0.009748 0.011753
# 2 -0.002823 0.007929 -0.002304 -0.001192 0.001310 -0.000998
# 3 -0.005170 -0.002304 0.012310 0.004187 0.003524 0.000978
# 4 -0.019928 -0.001192 0.004187 0.062463 0.010641 -0.026388
# 5 -0.009748 0.001310 0.003524 0.010641 0.042760 -0.009251
# 6 0.011753 -0.000998 0.000978 -0.026388 -0.009251 0.036555
#
#
# Mechanical properties :
#
#
# Convention : Reuss Voigt Hill
#
# Bulk Modulus (GPa) = 49.91235 71.38708 60.64971
# Shear Modulus (GPa) = 23.84573 35.51913 29.68243
#
# Velocity S-wave (km/s) = 3.20393 3.91029 3.57460
# Velocity P-wave (km/s) = 5.93071 7.14969 6.56854
#
# Compressibility (1/GPa) = 0.02003512
#
# Stress axis : x y z
#
# Youngs Moduli (GPa) = 49.04175 126.11625 81.23544
#
# Poissons Ratio (x) = 0.35605 0.41998
# Poissons Ratio (y) = 0.13846 0.18718
# Poissons Ratio (z) = 0.25354 0.29059
#
# Static dielectric constant tensor:
#      x y z
#    x 1.894050 0.038490 0.013270 
#    y 0.038490 1.570140 -0.063510 
#    z 0.013270 -0.063510 1.853110 
# 
# From -- ./inp_files/364738.got.cif
#   From: 2010.05.17/outbox.cif.g08.bks.cpg/sg2_183_cif.got.tgz:364738.got - 2010.06.03 11:33:40.
