data_PCOD9019384
_publ_section_title
;
Structure prediction by ZEFSAII (Michael W. Deem and Ramdas Pophale) SiO2 
 PCOD9019384
Probable space group: P -1
;
_chemical_formula_sum "Si O2"
_cell_formula_units_Z 12
_cell_length_a 5.743370
_cell_length_b 4.976647
_cell_length_c 22.682061
_cell_angle_alpha 94.239657
_cell_angle_beta 125.512565
_cell_angle_gamma 97.793090
_cell_volume 513.389847
_symmetry_space_group_name_H-M "P -1"
_symmetry_group_IT_number 2
_symmetry_cell_setting 'triclinic'
loop_
_space_group_symop_operation_xyz
x,y,z
-x,-y,-z
loop_
_atom_site_type_symbol
_atom_site_label
_atom_site_fract_x
_atom_site_fract_y
_atom_site_fract_z
Si Si1 0.896863 0.010016 0.117462
Si Si2 0.530246 0.186131 0.233436
Si Si3 0.875617 0.192698 0.403258
Si Si4 0.354583 0.293743 0.027408
Si Si5 0.399698 0.354483 0.833969
Si Si6 0.766847 0.238206 0.521564
O O1 0.841974 0.769532 0.154461
O O2 0.602594 0.127317 0.078395
O O3 0.906117 0.904666 0.049547
O O4 0.194370 0.214730 0.182573
O O5 0.700263 0.435505 0.222178
O O6 0.660930 0.184302 0.317095
O O7 0.532651 0.897747 0.197027
O O8 0.156065 0.449017 0.438128
O O9 0.747871 0.258590 0.448428
O O10 0.962592 0.900378 0.422002
O O11 0.328537 0.475567 0.083730
O O12 0.500000 0.500000 0.000000
O O13 0.500000 0.000000 0.500000
#
# Coordination Sequence:
#
# PCOD9019384 Si02
#       6
#     2   2   2   2   2   2
#     4  10  23  44  63  92 129 173 222 276 323 363
#     4  12  26  39  66  96 134 171 205 271 334 373
#     4  10  23  41  63 102 130 155 220 257 299 399
#     4   9  20  43  65  87 129 170 229 277 300 389
#     4  11  24  43  60  95 129 171 223 264 319 391
#     4  10  21  44  71  93 126 171 205 253 315 374
#
# _framework density 23.374046
#
# number of rings (size 3 to 8) (size 9 to 14) (size 15 to 20)
#    0.000    1.667    1.667    1.500    4.667    4.000 
#    0.000    0.000    0.000    0.000    0.000    0.000 
#    0.000    0.000    0.000    0.000    0.000    0.000 
#
# Total GULP energy -67053.728373 kJ/mol
# GULP energy per Si atom -5587.810698 kJ/mol
# Density = 2.332085 g / cm^3
# Si number density = 23.374046 Si / 1000 Ang^3
#
#
#
# Elastic Constant Matrix: (Units=GPa)
#
#
# Indices 1 2 3 4 5 6 
#
# 1 44.0244 21.3302 45.5463 -0.9140 -6.5232 7.0549
# 2 21.3302 129.9220 47.6935 -11.4503 -15.4113 -2.6889
# 3 45.5463 47.6935 188.3655 -22.7733 -20.3312 7.3652
# 4 -0.9140 -11.4503 -22.7733 35.2097 10.0207 -4.4954
# 5 -6.5232 -15.4113 -20.3312 10.0207 18.1432 -2.7843
# 6 7.0549 -2.6889 7.3652 -4.4954 -2.7843 44.5399
#
#
#
# Elastic Compliance Matrix: (Units=1/GPa)
#
#
# Indices 1 2 3 4 5 6 
#
# 1 0.033002 -0.002889 -0.007434 -0.006626 0.004036 -0.004589
# 2 -0.002889 0.009309 -0.001019 0.000949 0.005452 0.001625
# 3 -0.007434 -0.001019 0.008199 0.003799 0.003608 0.000369
# 4 -0.006626 0.000949 0.003799 0.036177 -0.016828 0.003078
# 5 0.004036 0.005452 0.003608 -0.016828 0.074855 0.002074
# 6 -0.004589 0.001625 0.000369 0.003078 0.002074 0.023656
#
#
# Mechanical properties :
#
#
# Convention : Reuss Voigt Hill
#
# Bulk Modulus (GPa) = 35.93886 65.71690 50.82788
# Shear Modulus (GPa) = 23.02488 36.09468 29.55978
#
# Velocity S-wave (km/s) = 3.14197 3.93392 3.56004
# Velocity P-wave (km/s) = 5.34524 6.98646 6.22022
#
# Compressibility (1/GPa) = 0.02782503
#
# Stress axis : x y z
#
# Youngs Moduli (GPa) = 30.30163 107.41982 121.97257
#
# Poissons Ratio (x) = 0.31036 0.90676
# Poissons Ratio (y) = 0.08755 0.12426
# Poissons Ratio (z) = 0.22527 0.10943
#
# Static dielectric constant tensor:
#      x y z
#    x 1.952460 -0.004680 0.035190 
#    y -0.004680 1.955000 0.039220 
#    z 0.035190 0.039220 1.848120 
# 
# From -- ./inp_files/5403.got.cif
#   From: 2010.05.17/outbox.cif.g08.bks.cpg/sg2_3_cif.got.tgz:5403.got - 2010.06.03 11:33:40.
