data_PCOD9019327
_publ_section_title
;
Structure prediction by ZEFSAII (Michael W. Deem and Ramdas Pophale) SiO2 
 PCOD9019327
Probable space group: P -1
;
_chemical_formula_sum "Si O2"
_cell_formula_units_Z 16
_cell_length_a 7.947909
_cell_length_b 18.225547
_cell_length_c 11.208166
_cell_angle_alpha 147.428944
_cell_angle_beta 77.569356
_cell_angle_gamma 82.778725
_cell_volume 692.773601
_symmetry_space_group_name_H-M "P -1"
_symmetry_group_IT_number 2
_symmetry_cell_setting 'triclinic'
loop_
_space_group_symop_operation_xyz
x,y,z
-x,-y,-z
loop_
_atom_site_type_symbol
_atom_site_label
_atom_site_fract_x
_atom_site_fract_y
_atom_site_fract_z
Si Si1 0.030716 0.964967 0.807323
Si Si2 0.974879 0.277586 0.691187
Si Si3 0.448305 0.389161 0.213151
Si Si4 0.430873 0.716493 0.693031
Si Si5 0.053786 0.428643 0.259680
Si Si6 0.233365 0.393515 0.685706
Si Si7 0.291079 0.056755 0.754745
Si Si8 0.298550 0.959372 0.354656
O O1 0.208222 0.987903 0.767716
O O2 0.084671 0.792498 0.506947
O O3 0.792835 0.115399 0.006857
O O4 0.000000 0.000000 0.000000
O O5 0.147151 0.308136 0.659220
O O6 0.090247 0.125069 0.559754
O O7 0.796332 0.454519 0.023682
O O8 0.417604 0.563360 0.452467
O O9 0.423301 0.354871 0.308570
O O10 0.278975 0.399240 0.165747
O O11 0.671465 0.215556 0.910433
O O12 0.539435 0.734284 0.585984
O O13 0.000000 0.500000 0.500000
O O14 0.914510 0.522067 0.293645
O O15 0.099255 0.248923 0.021004
O O16 0.499271 0.050022 0.744781
O O17 0.326242 0.967232 0.501513
#
# Coordination Sequence:
#
# PCOD9019327 Si02
#       8
#     2   2   2   2   2   2   2   2
#     4  12  29  46  67 102 137 179 223 285 340 401
#     4  11  26  46  66  97 136 182 227 275 341 401
#     4  10  22  37  66 103 132 165 225 277 333 393
#     4  11  24  43  64 100 135 176 224 276 342 397
#     4  11  20  38  66  95 130 174 216 276 328 391
#     4  11  26  44  67  97 138 184 224 273 336 412
#     4  10  24  41  68  99 133 169 229 276 335 396
#     4  10  21  44  70  99 129 179 222 277 333 404
#
# _framework density 23.095569999999999
#
# number of rings (size 3 to 8) (size 9 to 14) (size 15 to 20)
#    0.000    1.250    3.750    0.750    8.750    1.000 
#    0.000    0.625    0.000    0.000    0.000    0.000 
#    0.000    0.000    0.000    0.000    0.000    0.000 
#
# Total GULP energy -89346.195170 kJ/mol
# GULP energy per Si atom -5584.137198 kJ/mol
# Density = 2.304300 g / cm^3
# Si number density = 23.095570 Si / 1000 Ang^3
#
#
#
# Elastic Constant Matrix: (Units=GPa)
#
#
# Indices 1 2 3 4 5 6 
#
# 1 51.1826 15.6853 18.4070 -11.6150 6.3014 2.3981
# 2 15.6853 53.3133 7.9833 -11.5749 0.3126 0.7181
# 3 18.4070 7.9833 100.5791 -9.4366 19.6271 8.6653
# 4 -11.6150 -11.5749 -9.4366 32.5180 1.9542 -6.8514
# 5 6.3014 0.3126 19.6271 1.9542 35.1720 -8.8133
# 6 2.3981 0.7181 8.6653 -6.8514 -8.8133 33.8046
#
#
#
# Elastic Compliance Matrix: (Units=1/GPa)
#
#
# Indices 1 2 3 4 5 6 
#
# 1 0.023911 -0.005310 -0.002736 0.005941 -0.003166 -0.000504
# 2 -0.005310 0.021657 -0.000545 0.005913 0.001122 0.001547
# 3 -0.002736 -0.000545 0.012597 0.001972 -0.007812 -0.004661
# 4 0.005941 0.005913 0.001972 0.036921 -0.002843 0.005689
# 5 -0.003166 0.001122 -0.007812 -0.002843 0.036284 0.011087
# 6 -0.000504 0.001547 -0.004661 0.005689 0.011087 0.034823
#
#
# Mechanical properties :
#
#
# Convention : Reuss Voigt Hill
#
# Bulk Modulus (GPa) = 24.39961 32.13621 28.26791
# Shear Modulus (GPa) = 25.37615 31.16554 28.27085
#
# Velocity S-wave (km/s) = 3.31833 3.67743 3.50248
# Velocity P-wave (km/s) = 5.02686 5.65473 5.35001
#
# Compressibility (1/GPa) = 0.04098426
#
# Stress axis : x y z
#
# Youngs Moduli (GPa) = 41.82245 46.17406 79.38167
#
# Poissons Ratio (x) = 0.24518 0.21717
# Poissons Ratio (y) = 0.22207 0.04324
# Poissons Ratio (z) = 0.11442 0.02515
#
# Static dielectric constant tensor:
#      x y z
#    x 2.045070 -0.141210 -0.023900 
#    y -0.141210 2.013430 -0.046910 
#    z -0.023900 -0.046910 1.914510 
# 
# From -- ./inp_files/405700.got.cif
#   From: 2010.05.17/outbox.cif.g08.bks.cpg/sg2_203_cif.got.tgz:405700.got - 2010.06.03 11:33:40.
