data_PCOD9019548
_publ_section_title
;
Structure prediction by ZEFSAII (Michael W. Deem and Ramdas Pophale) SiO2 
 PCOD9019548
Probable space group: P -1
;
_chemical_formula_sum "Si O2"
_cell_formula_units_Z 13
_cell_length_a 16.947460
_cell_length_b 13.151687
_cell_length_c 11.936534
_cell_angle_alpha 39.511652
_cell_angle_beta 31.110049
_cell_angle_gamma 20.912684
_cell_volume 484.867224
_symmetry_space_group_name_H-M "P -1"
_symmetry_group_IT_number 2
_symmetry_cell_setting 'triclinic'
loop_
_space_group_symop_operation_xyz
x,y,z
-x,-y,-z
loop_
_atom_site_type_symbol
_atom_site_label
_atom_site_fract_x
_atom_site_fract_y
_atom_site_fract_z
Si Si1 0.379161 0.975448 0.084743
Si Si2 0.868516 0.342777 0.054510
Si Si3 0.682347 0.484283 0.747958
Si Si4 0.092050 0.233454 0.634718
Si Si5 0.500000 0.500000 0.500000
Si Si6 0.597871 0.977779 0.241058
Si Si7 0.822441 0.316089 0.468596
O O1 0.538593 0.675022 0.185981
O O2 0.054693 0.249261 0.246354
O O3 0.500000 0.000000 0.000000
O O4 0.452741 0.933057 0.902207
O O5 0.955010 0.271770 0.879463
O O6 0.077960 0.289593 0.898143
O O7 0.834464 0.219956 0.278173
O O8 0.698050 0.432812 0.642715
O O9 0.974946 0.247839 0.656415
O O10 0.528170 0.777948 0.731398
O O11 0.500000 0.500000 0.000000
O O12 0.000000 0.500000 0.500000
O O13 0.418377 0.974208 0.474879
O O14 0.602044 0.520364 0.465378
O O15 0.000000 0.000000 0.500000
#
# Coordination Sequence:
#
# PCOD9019548 Si02
#       7
#     2   2   2   2   1   2   2
#     4  12  25  45  75 107 147 191 236 298 364 433
#     4  12  24  45  75 105 145 193 240 296 363 427
#     4  11  23  43  75 105 139 196 244 297 364 423
#     4  10  21  44  74 102 143 187 238 301 364 421
#     4  12  26  46  70 108 148 194 238 300 366 436
#     4  11  24  47  72 106 147 185 247 301 359 433
#     4  12  25  47  71 101 148 191 238 297 362 436
#
# _framework density 26.811463
#
# number of rings (size 3 to 8) (size 9 to 14) (size 15 to 20)
#    0.000    0.615    6.154    3.231    2.154    0.615 
#    2.769    1.538    0.000    0.000    0.000    0.000 
#    0.000    0.000    0.000    0.000    0.000    0.000 
#
# Total GULP energy -72521.091567 kJ/mol
# GULP energy per Si atom -5578.545505 kJ/mol
# Density = 2.675044 g / cm^3
# Si number density = 26.811463 Si / 1000 Ang^3
#
#
#
# Elastic Constant Matrix: (Units=GPa)
#
#
# Indices 1 2 3 4 5 6 
#
# 1 267.3391 37.9412 86.9850 3.4328 7.0691 -13.5834
# 2 37.9412 60.7777 10.2023 2.7026 2.1838 8.4097
# 3 86.9850 10.2023 184.3147 28.1126 -9.2727 -11.8771
# 4 3.4328 2.7026 28.1126 19.3141 -10.2444 -4.3448
# 5 7.0691 2.1838 -9.2727 -10.2444 80.3604 3.1837
# 6 -13.5834 8.4097 -11.8771 -4.3448 3.1837 40.8949
#
#
#
# Elastic Compliance Matrix: (Units=1/GPa)
#
#
# Indices 1 2 3 4 5 6 
#
# 1 0.005134 -0.003185 -0.002708 0.003778 -0.000275 0.001996
# 2 -0.003185 0.019266 0.000797 -0.004763 -0.000551 -0.005251
# 3 -0.002708 0.000797 0.008507 -0.012171 -0.000359 0.000142
# 4 0.003778 -0.004763 -0.012171 0.074936 0.007705 0.006061
# 5 -0.000275 -0.000551 -0.000359 0.007705 0.013436 -0.000310
# 6 0.001996 -0.005251 0.000142 0.006061 -0.000310 0.026905
#
#
# Mechanical properties :
#
#
# Convention : Reuss Voigt Hill
#
# Bulk Modulus (GPa) = 44.02344 86.96538 65.49441
# Shear Modulus (GPa) = 30.13005 53.26743 41.69874
#
# Velocity S-wave (km/s) = 3.35591 4.46212 3.94795
# Velocity P-wave (km/s) = 5.60994 7.68464 6.72775
#
# Compressibility (1/GPa) = 0.02271517
#
# Stress axis : x y z
#
# Youngs Moduli (GPa) = 194.78562 51.90519 117.55262
#
# Poissons Ratio (x) = 0.16530 0.31833
# Poissons Ratio (y) = 0.62032 -0.09368
# Poissons Ratio (z) = 0.52748 -0.04137
#
# Static dielectric constant tensor:
#      x y z
#    x 1.955690 0.150080 -0.148990 
#    y 0.150080 1.939540 0.557190 
#    z -0.148990 0.557190 1.895870 
# 
# From -- ./inp_files/382477.got.cif
#   From: 2010.05.17/outbox.cif.g08.bks.cpg/sg2_192_cif.got.tgz:382477.got - 2010.06.03 11:33:40.
