data_PCOD9019596
_publ_section_title
;
Structure prediction by ZEFSAII (Michael W. Deem and Ramdas Pophale) SiO2 
 PCOD9019596
Probable space group: P -1
;
_chemical_formula_sum "Si O2"
_cell_formula_units_Z 16
_cell_length_a 12.155567
_cell_length_b 13.204319
_cell_length_c 5.059137
_cell_angle_alpha 95.726622
_cell_angle_beta 103.267209
_cell_angle_gamma 129.268636
_cell_volume 578.620823
_symmetry_space_group_name_H-M "P -1"
_symmetry_group_IT_number 2
_symmetry_cell_setting 'triclinic'
loop_
_space_group_symop_operation_xyz
x,y,z
-x,-y,-z
loop_
_atom_site_type_symbol
_atom_site_label
_atom_site_fract_x
_atom_site_fract_y
_atom_site_fract_z
Si Si1 0.626432 0.104163 0.810954
Si Si2 0.651822 0.584685 0.286115
Si Si3 0.129708 0.613391 0.301526
Si Si4 0.967955 0.702481 0.405571
Si Si5 0.880338 0.103306 0.974882
Si Si6 0.167856 0.092451 0.481418
Si Si7 0.606695 0.376316 0.544354
Si Si8 0.542321 0.813611 0.071927
O O1 0.751387 0.246795 0.762448
O O2 0.720008 0.062032 0.934665
O O3 0.544894 0.130704 0.976509
O O4 0.500000 0.000000 0.500000
O O5 0.786540 0.598564 0.228451
O O6 0.733511 0.743413 0.417421
O O7 0.378148 0.496020 0.481148
O O8 0.500000 0.500000 0.000000
O O9 0.233173 0.581258 0.432002
O O10 0.048149 0.640772 0.468311
O O11 0.000000 0.500000 0.000000
O O12 0.046927 0.801234 0.221535
O O13 0.007629 0.795567 0.703705
O O14 0.856796 0.973160 0.836626
O O15 0.283232 0.085624 0.699295
O O16 0.000000 0.000000 0.500000
O O17 0.551644 0.304867 0.780385
O O18 0.483611 0.259269 0.234695
#
# Coordination Sequence:
#
# PCOD9019596 Si02
#       8
#     2   2   2   2   2   2   2   2
#     4  10  21  44  76 116 150 199 251 325 404 479
#     4  12  28  52  80 115 161 217 277 329 396 477
#     4  10  25  47  83 121 161 204 262 330 415 485
#     4  11  27  50  79 117 159 209 261 333 401 482
#     4  11  25  51  78 116 158 205 267 330 406 471
#     4  12  26  54  79 117 156 222 275 337 392 477
#     4  11  27  50  79 119 160 206 260 335 404 480
#     4  11  25  51  79 117 159 207 262 331 407 480
#
# _framework density 27.651959000000002
#
# number of rings (size 3 to 8) (size 9 to 14) (size 15 to 20)
#    0.000    1.000    3.750    0.750    7.000    2.500 
#    4.500    2.500    0.000    0.000    0.000    0.000 
#    0.000    0.000    0.000    0.000    0.000    0.000 
#
# Total GULP energy -89839.917590 kJ/mol
# GULP energy per Si atom -5614.994849 kJ/mol
# Density = 2.758902 g / cm^3
# Si number density = 27.651959 Si / 1000 Ang^3
#
#
#
# Elastic Constant Matrix: (Units=GPa)
#
#
# Indices 1 2 3 4 5 6 
#
# 1 234.2461 68.1972 56.2673 18.4710 20.0808 6.6709
# 2 68.1972 131.7239 58.0129 20.2289 1.4215 -1.1090
# 3 56.2673 58.0129 169.2328 21.1769 10.6207 2.1203
# 4 18.4710 20.2289 21.1769 53.2578 5.4261 7.0194
# 5 20.0808 1.4215 10.6207 5.4261 56.9334 4.6555
# 6 6.6709 -1.1090 2.1203 7.0194 4.6555 61.7697
#
#
#
# Elastic Compliance Matrix: (Units=1/GPa)
#
#
# Indices 1 2 3 4 5 6 
#
# 1 0.005322 -0.002317 -0.000817 -0.000423 -0.001592 -0.000420
# 2 -0.002317 0.010256 -0.002542 -0.002294 0.001197 0.000692
# 3 -0.000817 -0.002542 0.007303 -0.001571 -0.000864 0.000036
# 4 -0.000423 -0.002294 -0.001571 0.020844 -0.001306 -0.002212
# 5 -0.001592 0.001197 -0.000864 -0.001306 0.018465 -0.001020
# 6 -0.000420 0.000692 0.000036 -0.002212 -0.001020 0.016574
#
#
# Mechanical properties :
#
#
# Convention : Reuss Voigt Hill
#
# Bulk Modulus (GPa) = 86.74346 100.01752 93.38049
# Shear Modulus (GPa) = 53.21542 57.90720 55.56131
#
# Velocity S-wave (km/s) = 4.39164 4.58115 4.48739
# Velocity P-wave (km/s) = 7.55997 8.01444 7.79052
#
# Compressibility (1/GPa) = 0.01152825
#
# Stress axis : x y z
#
# Youngs Moduli (GPa) = 187.91551 97.50498 136.93872
#
# Poissons Ratio (x) = 0.22588 0.11189
# Poissons Ratio (y) = 0.43533 0.34812
# Poissons Ratio (z) = 0.15354 0.24787
#
# Static dielectric constant tensor:
#      x y z
#    x 2.244760 -0.049400 -0.035050 
#    y -0.049400 2.213680 -0.021450 
#    z -0.035050 -0.021450 2.032920 
# 
# From -- ./inp_files/81606.got.cif
#   From: 2010.05.17/outbox.cif.g08.bks.cpg/sg2_41_cif.got.tgz:81606.got - 2010.06.03 11:33:40.
