data_PCOD9019347
_publ_section_title
;
Structure prediction by ZEFSAII (Michael W. Deem and Ramdas Pophale) SiO2 
 PCOD9019347
Probable space group: P -1
;
_chemical_formula_sum "Si O2"
_cell_formula_units_Z 16
_cell_length_a 9.662344
_cell_length_b 13.499742
_cell_length_c 11.562098
_cell_angle_alpha 141.154351
_cell_angle_beta 70.319570
_cell_angle_gamma 81.310190
_cell_volume 636.129399
_symmetry_space_group_name_H-M "P -1"
_symmetry_group_IT_number 2
_symmetry_cell_setting 'triclinic'
loop_
_space_group_symop_operation_xyz
x,y,z
-x,-y,-z
loop_
_atom_site_type_symbol
_atom_site_label
_atom_site_fract_x
_atom_site_fract_y
_atom_site_fract_z
Si Si1 0.038341 0.238924 0.670680
Si Si2 0.396728 0.335507 0.376771
Si Si3 0.566275 0.123779 0.624992
Si Si4 0.320415 0.558972 0.181440
Si Si5 0.222459 0.150336 0.153590
Si Si6 0.205649 0.701800 0.590012
Si Si7 0.791576 0.954804 0.177276
Si Si8 0.148133 0.510782 0.815704
O O1 0.909009 0.232573 0.610310
O O2 0.106242 0.355695 0.703276
O O3 0.882262 0.392664 0.961069
O O4 0.242205 0.011956 0.464130
O O5 0.256084 0.293676 0.333820
O O6 0.325712 0.547842 0.527361
O O7 0.356928 0.378578 0.564657
O O8 0.620818 0.099733 0.068986
O O9 0.643839 0.121397 0.474947
O O10 0.500000 0.000000 0.500000
O O11 0.365194 0.345246 0.941890
O O12 0.342959 0.562684 0.312982
O O13 0.500000 0.500000 0.000000
O O14 0.994124 0.258159 0.329671
O O15 0.277076 0.111830 0.966088
O O16 0.149815 0.928034 0.799839
O O17 0.977707 0.726515 0.981560
#
# Coordination Sequence:
#
# PCOD9019347 Si02
#       8
#     2   2   2   2   2   2   2   2
#     4  10  24  43  72 106 137 183 232 297 341 409
#     4  11  26  43  71 107 130 185 230 286 340 417
#     4  11  25  45  74 106 132 186 236 290 345 413
#     4  12  26  46  69 101 143 184 229 284 354 414
#     4  11  26  44  70 100 138 179 233 283 341 409
#     4  12  26  48  66 100 146 182 225 284 350 407
#     4  11  24  45  69 100 142 179 227 285 343 418
#     4  10  21  44  71 101 138 176 235 286 348 406
#
# _framework density 25.152114999999998
#
# number of rings (size 3 to 8) (size 9 to 14) (size 15 to 20)
#    0.000    1.000    2.500    3.750    7.000    3.000 
#    4.500    0.000    0.000    0.000    0.000    0.000 
#    0.000    0.000    0.000    0.000    0.000    0.000 
#
# Total GULP energy -89550.586615 kJ/mol
# GULP energy per Si atom -5596.911663 kJ/mol
# Density = 2.509487 g / cm^3
# Si number density = 25.152115 Si / 1000 Ang^3
#
#
#
# Elastic Constant Matrix: (Units=GPa)
#
#
# Indices 1 2 3 4 5 6 
#
# 1 54.0861 20.2781 -9.8988 9.1781 -12.7594 -12.7280
# 2 20.2781 154.9121 30.1714 0.6042 -4.8972 -0.8190
# 3 -9.8988 30.1714 68.6254 -4.8236 -5.5125 -0.1667
# 4 9.1781 0.6042 -4.8236 44.6224 -0.5655 3.5647
# 5 -12.7594 -4.8972 -5.5125 -0.5655 35.2615 -2.2454
# 6 -12.7280 -0.8190 -0.1667 3.5647 -2.2454 30.2846
#
#
#
# Elastic Compliance Matrix: (Units=1/GPa)
#
#
# Indices 1 2 3 4 5 6 
#
# 1 0.028213 -0.004523 0.006585 -0.005950 0.011363 0.013314
# 2 -0.004523 0.007804 -0.004158 0.000508 -0.001314 -0.001870
# 3 0.006585 -0.004158 0.017772 0.000440 0.004785 0.003056
# 4 -0.005950 0.000508 0.000440 0.024086 -0.001975 -0.005466
# 5 0.011363 -0.001314 0.004785 -0.001975 0.033482 0.007481
# 6 0.013314 -0.001870 0.003056 -0.005466 0.007481 0.039780
#
#
# Mechanical properties :
#
#
# Convention : Reuss Voigt Hill
#
# Bulk Modulus (GPa) = 20.16197 39.85831 30.01014
# Shear Modulus (GPa) = 29.09324 37.83856 33.46590
#
# Velocity S-wave (km/s) = 3.40471 3.88285 3.65161
# Velocity P-wave (km/s) = 4.84659 5.99861 5.45311
#
# Compressibility (1/GPa) = 0.04959832
#
# Stress axis : x y z
#
# Youngs Moduli (GPa) = 35.44420 128.14443 56.26710
#
# Poissons Ratio (x) = 0.57958 -0.37052
# Poissons Ratio (y) = 0.16031 0.23394
# Poissons Ratio (z) = -0.23340 0.53278
#
# Static dielectric constant tensor:
#      x y z
#    x 2.610490 0.496130 0.095960 
#    y 0.496130 2.421920 0.190960 
#    z 0.095960 0.190960 2.299440 
# 
# From -- ./inp_files/428881.got.cif
#   From: 2010.05.17/outbox.cif.g08.bks.cpg/sg2_215_cif.got.tgz:428881.got - 2010.06.03 11:33:40.
