data_PCOD9019679
_publ_section_title
;
Structure prediction by ZEFSAII (Michael W. Deem and Ramdas Pophale) SiO2 
 PCOD9019679
Probable space group: P -1
;
_chemical_formula_sum "Si O2"
_cell_formula_units_Z 14
_cell_length_a 8.444837
_cell_length_b 18.828275
_cell_length_c 9.195962
_cell_angle_alpha 151.499318
_cell_angle_beta 124.069744
_cell_angle_gamma 51.084701
_cell_volume 542.735511
_symmetry_space_group_name_H-M "P -1"
_symmetry_group_IT_number 2
_symmetry_cell_setting 'triclinic'
loop_
_space_group_symop_operation_xyz
x,y,z
-x,-y,-z
loop_
_atom_site_type_symbol
_atom_site_label
_atom_site_fract_x
_atom_site_fract_y
_atom_site_fract_z
Si Si1 0.600086 0.323417 0.166794
Si Si2 0.034363 0.664374 0.826754
Si Si3 0.480496 0.843315 0.646182
Si Si4 0.822520 0.986732 0.778328
Si Si5 0.281825 0.613123 0.155199
Si Si6 0.805521 0.959430 0.373009
Si Si7 0.732396 0.672561 0.241705
O O1 0.500000 0.500000 0.500000
O O2 0.815639 0.311786 0.178302
O O3 0.434510 0.316820 0.950562
O O4 0.651576 0.166708 0.014237
O O5 0.000000 0.500000 0.500000
O O6 0.146264 0.664301 0.036608
O O7 0.823878 0.804644 0.007997
O O8 0.336482 0.764181 0.511539
O O9 0.684906 0.709666 0.458638
O O10 0.382096 0.902568 0.543403
O O11 0.500000 0.000000 0.000000
O O12 0.820683 0.958515 0.551465
O O13 0.809134 0.817437 0.512364
O O14 0.000000 0.000000 0.000000
O O15 0.500000 0.500000 0.000000
O O16 0.181353 0.520896 0.046015
O O17 0.000000 0.000000 0.500000
#
# Coordination Sequence:
#
# PCOD9019679 Si02
#       7
#     2   2   2   2   2   2   2
#     4  12  27  51  74 110 153 205 254 318 384 457
#     4  12  27  44  77 110 150 196 254 316 386 449
#     4  11  24  41  80 111 140 195 255 306 378 453
#     4  12  29  50  76 114 152 202 259 316 389 451
#     4  10  21  45  66 105 145 183 246 305 363 458
#     4  12  24  49  76 103 152 193 253 318 374 451
#     4  11  25  47  72 102 159 191 251 312 379 460
#
# _framework density 25.795255999999998
#
# number of rings (size 3 to 8) (size 9 to 14) (size 15 to 20)
#    0.000    0.571    7.143    0.429   10.000    2.286 
#    0.000    1.429    0.000    0.000    0.000    0.000 
#    0.000    0.000    0.000    0.000    0.000    0.000 
#
# Total GULP energy -77997.588696 kJ/mol
# GULP energy per Si atom -5571.256335 kJ/mol
# Density = 2.573655 g / cm^3
# Si number density = 25.795256 Si / 1000 Ang^3
#
#
#
# Elastic Constant Matrix: (Units=GPa)
#
#
# Indices 1 2 3 4 5 6 
#
# 1 47.1574 19.4793 48.5208 13.9476 12.0897 26.0065
# 2 19.4793 111.8860 47.2812 19.3233 1.6088 16.3160
# 3 48.5208 47.2812 264.9398 27.1750 22.3803 20.0947
# 4 13.9476 19.3233 27.1750 57.0563 9.0308 6.5399
# 5 12.0897 1.6088 22.3803 9.0308 54.5011 19.4511
# 6 26.0065 16.3160 20.0947 6.5399 19.4511 41.3394
#
#
#
# Elastic Compliance Matrix: (Units=1/GPa)
#
#
# Indices 1 2 3 4 5 6 
#
# 1 0.040316 -0.000679 -0.005216 -0.004870 0.002166 -0.022808
# 2 -0.000679 0.010616 -0.001399 -0.002685 0.002170 -0.003679
# 3 -0.005216 -0.001399 0.005007 -0.000647 -0.001546 0.002229
# 4 -0.004870 -0.002685 -0.000647 0.020085 -0.002827 0.002590
# 5 0.002166 0.002170 -0.001546 -0.002827 0.023160 -0.011917
# 6 -0.022808 -0.003679 0.002229 0.002590 -0.011917 0.044104
#
#
# Mechanical properties :
#
#
# Convention : Reuss Voigt Hill
#
# Bulk Modulus (GPa) = 24.18294 72.72730 48.45512
# Shear Modulus (GPa) = 29.12733 51.15950 40.14342
#
# Velocity S-wave (km/s) = 3.36396 4.45825 3.94919
# Velocity P-wave (km/s) = 4.94810 7.39977 6.29445
#
# Compressibility (1/GPa) = 0.04135147
#
# Stress axis : x y z
#
# Youngs Moduli (GPa) = 24.80414 94.19703 199.71195
#
# Poissons Ratio (x) = 0.06396 1.04166
# Poissons Ratio (y) = 0.01684 0.27941
# Poissons Ratio (z) = 0.12937 0.13179
#
# Static dielectric constant tensor:
#      x y z
#    x 2.751100 -1.008070 -0.551140 
#    y -1.008070 2.641710 1.075120 
#    z -0.551140 1.075120 2.667200 
# 
# From -- ./inp_files/219068.got.cif
#   From: 2010.05.17/outbox.cif.g08.bks.cpg/sg2_110_cif.got.tgz:219068.got - 2010.06.03 11:33:40.
