data_PCOD9019365
_publ_section_title
;
Structure prediction by ZEFSAII (Michael W. Deem and Ramdas Pophale) SiO2 
 PCOD9019365
Probable space group: P -1
;
_chemical_formula_sum "Si O2"
_cell_formula_units_Z 16
_cell_length_a 11.256466
_cell_length_b 14.104992
_cell_length_c 13.686686
_cell_angle_alpha 32.631302
_cell_angle_beta 112.096384
_cell_angle_gamma 136.221670
_cell_volume 635.092628
_symmetry_space_group_name_H-M "P -1"
_symmetry_group_IT_number 2
_symmetry_cell_setting 'triclinic'
loop_
_space_group_symop_operation_xyz
x,y,z
-x,-y,-z
loop_
_atom_site_type_symbol
_atom_site_label
_atom_site_fract_x
_atom_site_fract_y
_atom_site_fract_z
Si Si1 0.826411 0.633280 0.564669
Si Si2 0.219790 0.307608 0.165843
Si Si3 0.463854 0.158511 0.718455
Si Si4 0.546872 0.227838 0.024922
Si Si5 0.426691 0.297882 0.406210
Si Si6 0.180462 0.044620 0.023870
Si Si7 0.072839 0.644584 0.184177
Si Si8 0.637537 0.327493 0.274626
O O1 0.666251 0.479273 0.556244
O O2 0.957535 0.598157 0.611889
O O3 0.677675 0.430943 0.790100
O O4 0.996316 0.977452 0.340936
O O5 0.283243 0.242050 0.330751
O O6 0.264339 0.540235 0.036507
O O7 0.372431 0.520832 0.934628
O O8 0.322684 0.088378 0.648530
O O9 0.540827 0.062135 0.775963
O O10 0.302265 0.930152 0.953978
O O11 0.335733 0.112773 0.093238
O O12 0.568422 0.323809 0.361492
O O13 0.607677 0.614939 0.244327
O O14 0.085351 0.771781 0.175775
O O15 0.000000 0.000000 0.000000
O O16 0.883640 0.531920 0.165593
O O17 0.500000 0.000000 0.500000
#
# Coordination Sequence:
#
# PCOD9019365 Si02
#       8
#     2   2   2   2   2   2   2   2
#     4  11  22  43  74 111 147 187 243 306 361 423
#     4  11  26  45  71 104 147 193 240 301 365 434
#     4  11  23  44  76 111 142 191 244 302 357 434
#     4  10  21  44  71 103 151 193 239 298 361 433
#     4  11  26  43  70 105 149 185 245 295 364 430
#     4  11  21  41  66 101 141 186 239 298 358 427
#     4  11  23  44  73 104 146 189 240 300 363 429
#     4  12  26  48  71 100 144 198 242 297 364 442
#
# _framework density 25.193176000000001
#
# number of rings (size 3 to 8) (size 9 to 14) (size 15 to 20)
#    0.000    1.000    3.750    3.000    1.750    3.500 
#    0.000    6.875    0.000    0.000    0.000    0.000 
#    0.000    0.000    0.000    0.000    0.000    0.000 
#
# Total GULP energy -89076.498850 kJ/mol
# GULP energy per Si atom -5567.281178 kJ/mol
# Density = 2.513584 g / cm^3
# Si number density = 25.193176 Si / 1000 Ang^3
#
#
#
# Elastic Constant Matrix: (Units=GPa)
#
#
# Indices 1 2 3 4 5 6 
#
# 1 118.2331 33.0587 17.6929 -19.3388 29.8437 5.5099
# 2 33.0587 148.0907 76.9434 -26.5967 15.5786 -9.3763
# 3 17.6929 76.9434 80.1114 -7.0510 2.5735 -7.4891
# 4 -19.3388 -26.5967 -7.0510 38.2645 -9.3765 3.1939
# 5 29.8437 15.5786 2.5735 -9.3765 14.4071 2.4161
# 6 5.5099 -9.3763 -7.4891 3.1939 2.4161 37.5161
#
#
#
# Elastic Compliance Matrix: (Units=1/GPa)
#
#
# Indices 1 2 3 4 5 6 
#
# 1 0.019020 0.003373 -0.006099 0.000741 -0.041379 -0.000566
# 2 0.003373 0.017897 -0.016632 0.006163 -0.019592 0.001395
# 3 -0.006099 -0.016632 0.028862 -0.003873 0.022712 0.001367
# 4 0.000741 0.006163 -0.003873 0.034074 0.015211 -0.003222
# 5 -0.041379 -0.019592 0.022712 0.015211 0.183391 -0.007391
# 6 -0.000566 0.001395 0.001367 -0.003222 -0.007391 0.028110
#
#
# Mechanical properties :
#
#
# Convention : Reuss Voigt Hill
#
# Bulk Modulus (GPa) = 36.95163 66.86946 51.91055
# Shear Modulus (GPa) = 13.92403 32.62023 23.27213
#
# Velocity S-wave (km/s) = 2.35349 3.60224 3.04262
# Velocity P-wave (km/s) = 4.69940 6.62585 5.74396
#
# Compressibility (1/GPa) = 0.02706240
#
# Stress axis : x y z
#
# Youngs Moduli (GPa) = 52.57736 55.87384 34.64814
#
# Poissons Ratio (x) = -0.18846 0.21130
# Poissons Ratio (y) = -0.17734 0.57629
# Poissons Ratio (z) = 0.32065 0.92932
#
# Static dielectric constant tensor:
#      x y z
#    x 2.019480 -0.037020 0.012930 
#    y -0.037020 1.899760 -0.004200 
#    z 0.012930 -0.004200 2.108480 
# 
# From -- ./inp_files/522175.got.cif
#   From: 2010.05.17/outbox.cif.g08.bks.cpg/sg2_262_cif.got.tgz:522175.got - 2010.06.03 11:33:40.
