data_PCOD9019682
_publ_section_title
;
Structure prediction by ZEFSAII (Michael W. Deem and Ramdas Pophale) SiO2 
 PCOD9019682
Probable space group: P -1
;
_chemical_formula_sum "Si O2"
_cell_formula_units_Z 16
_cell_length_a 13.400859
_cell_length_b 18.750418
_cell_length_c 9.159535
_cell_angle_alpha 57.399909
_cell_angle_beta 112.929092
_cell_angle_gamma 159.856587
_cell_volume 611.787185
_symmetry_space_group_name_H-M "P -1"
_symmetry_group_IT_number 2
_symmetry_cell_setting 'triclinic'
loop_
_space_group_symop_operation_xyz
x,y,z
-x,-y,-z
loop_
_atom_site_type_symbol
_atom_site_label
_atom_site_fract_x
_atom_site_fract_y
_atom_site_fract_z
Si Si1 0.432411 0.747082 0.959439
Si Si2 0.156843 0.534863 0.327163
Si Si3 0.489646 0.338674 0.465079
Si Si4 0.253905 0.914034 0.888860
Si Si5 0.895993 0.790801 0.187718
Si Si6 0.623524 0.071183 0.739633
Si Si7 0.881781 0.980871 0.636226
Si Si8 0.420131 0.560429 0.027822
O O1 0.159545 0.555907 0.134497
O O2 0.357004 0.615262 0.952687
O O3 0.533572 0.915810 0.783104
O O4 0.770401 0.958833 0.982761
O O5 0.337416 0.578513 0.395194
O O6 0.853020 0.295577 0.519625
O O7 0.413293 0.791710 0.242415
O O8 0.742465 0.590778 0.273206
O O9 0.197583 0.179420 0.525285
O O10 0.365236 0.177292 0.457283
O O11 0.931078 0.729639 0.882901
O O12 0.317759 0.898925 0.805653
O O13 0.233065 0.850505 0.104524
O O14 0.622606 0.660365 0.155480
O O15 0.012547 0.881634 0.322822
O O16 0.687806 0.758608 0.837415
#
# Coordination Sequence:
#
# PCOD9019682 Si02
#       8
#     2   2   2   2   2   2   2   2
#     4  10  22  41  66  90 127 171 205 262 321 378
#     4  11  21  40  64  94 125 160 217 262 315 379
#     4  11  22  37  62  96 125 174 217 252 317 385
#     4  10  24  40  67  92 124 161 212 268 316 376
#     4  11  22  41  61  91 139 169 206 265 316 376
#     4  10  21  45  66  92 119 165 213 264 321 371
#     4  10  23  37  58  91 130 172 210 256 311 377
#     4  11  23  41  59  93 130 168 205 261 321 375
#
# _framework density 26.152885000000001
#
# number of rings (size 3 to 8) (size 9 to 14) (size 15 to 20)
#    0.000    1.500    1.250    4.500    5.250    1.000 
#    0.000    0.625    0.000    0.000    0.000    0.000 
#    0.000    0.000    0.000    0.000    0.000    0.000 
#
# Total GULP energy -89237.911396 kJ/mol
# GULP energy per Si atom -5577.369462 kJ/mol
# Density = 2.609336 g / cm^3
# Si number density = 26.152885 Si / 1000 Ang^3
#
#
#
# Elastic Constant Matrix: (Units=GPa)
#
#
# Indices 1 2 3 4 5 6 
#
# 1 71.8498 26.2689 26.3549 -11.5343 -9.4846 -5.2771
# 2 26.2689 127.8678 51.0334 -22.9362 -9.1012 5.6448
# 3 26.3549 51.0334 130.3647 -33.6971 -19.2449 3.4564
# 4 -11.5343 -22.9362 -33.6971 34.8669 4.4616 -8.6092
# 5 -9.4846 -9.1012 -19.2449 4.4616 35.3701 -7.1022
# 6 -5.2771 5.6448 3.4564 -8.6092 -7.1022 38.7504
#
#
#
# Elastic Compliance Matrix: (Units=1/GPa)
#
#
# Indices 1 2 3 4 5 6 
#
# 1 0.016484 -0.002239 -0.001147 0.003420 0.003611 0.004095
# 2 -0.002239 0.009907 -0.002623 0.003037 -0.000031 -0.000845
# 3 -0.001147 -0.002623 0.012015 0.009419 0.004794 0.002125
# 4 0.003420 0.003037 0.009419 0.042786 0.003292 0.009292
# 5 0.003611 -0.000031 0.004794 0.003292 0.032793 0.006810
# 6 0.004095 -0.000845 0.002125 0.009292 0.006810 0.029610
#
#
# Mechanical properties :
#
#
# Convention : Reuss Voigt Hill
#
# Bulk Modulus (GPa) = 37.89556 59.71074 48.80315
# Shear Modulus (GPa) = 30.41187 36.89248 33.65218
#
# Velocity S-wave (km/s) = 3.41376 3.75993 3.59102
# Velocity P-wave (km/s) = 5.48268 6.45991 5.99125
#
# Compressibility (1/GPa) = 0.02638831
#
# Stress axis : x y z
#
# Youngs Moduli (GPa) = 60.66565 100.93703 83.22640
#
# Poissons Ratio (x) = 0.22596 0.09550
# Poissons Ratio (y) = 0.13581 0.21829
# Poissons Ratio (z) = 0.06961 0.26475
#
# Static dielectric constant tensor:
#      x y z
#    x 2.111630 -0.042710 0.040880 
#    y -0.042710 2.102060 0.058870 
#    z 0.040880 0.058870 2.121410 
# 
# From -- ./inp_files/319310.got.cif
#   From: 2010.05.17/outbox.cif.g08.bks.cpg/sg2_160_cif.got.tgz:319310.got - 2010.06.03 11:33:40.
