data_PCOD9019320
_publ_section_title
;
Structure prediction by ZEFSAII (Michael W. Deem and Ramdas Pophale) SiO2 
 PCOD9019320
Probable space group: P -1
;
_chemical_formula_sum "Si O2"
_cell_formula_units_Z 16
_cell_length_a 13.091882
_cell_length_b 12.454049
_cell_length_c 13.988914
_cell_angle_alpha 39.453349
_cell_angle_beta 147.925440
_cell_angle_gamma 118.460539
_cell_volume 654.239853
_symmetry_space_group_name_H-M "P -1"
_symmetry_group_IT_number 2
_symmetry_cell_setting 'triclinic'
loop_
_space_group_symop_operation_xyz
x,y,z
-x,-y,-z
loop_
_atom_site_type_symbol
_atom_site_label
_atom_site_fract_x
_atom_site_fract_y
_atom_site_fract_z
Si Si1 0.201746 0.779866 0.791842
Si Si2 0.967959 0.208949 0.954567
Si Si3 0.560755 0.586664 0.077031
Si Si4 0.679040 0.778212 0.489778
Si Si5 0.778804 0.806005 0.138537
Si Si6 0.824332 0.342260 0.954348
Si Si7 0.898312 0.635144 0.566266
Si Si8 0.808439 0.192053 0.639218
O O1 0.104874 0.655545 0.751947
O O2 0.363170 0.780433 0.839411
O O3 0.296680 0.701651 0.026477
O O4 0.000000 0.000000 0.500000
O O5 0.853693 0.242688 0.943592
O O6 0.969439 0.406062 0.793233
O O7 0.841162 0.177268 0.788496
O O8 0.202152 0.992381 0.285008
O O9 0.744488 0.645644 0.163844
O O10 0.616336 0.417650 0.314653
O O11 0.500000 0.500000 0.000000
O O12 0.694872 0.577316 0.674961
O O13 0.709252 0.760936 0.410593
O O14 0.916220 0.742565 0.745818
O O15 0.447035 0.976146 0.196750
O O16 0.824850 0.726641 0.339442
O O17 0.987093 0.812421 0.254695
#
# Coordination Sequence:
#
# PCOD9019320 Si02
#       8
#     2   2   2   2   2   2   2   2
#     4  11  25  44  74 106 136 179 232 285 352 408
#     4  10  23  45  68  93 141 184 227 283 343 408
#     4  12  27  44  68 105 140 177 232 291 340 411
#     4   9  20  39  66 101 130 174 226 284 344 403
#     4  12  24  43  71  98 137 183 232 277 350 409
#     4   9  20  42  67  96 138 172 225 289 342 402
#     4  10  21  44  70  98 139 177 225 294 342 406
#     4  11  26  45  66  98 140 187 230 280 346 416
#
# _framework density 24.455863999999998
#
# number of rings (size 3 to 8) (size 9 to 14) (size 15 to 20)
#    0.000    1.500    1.250    3.750    7.000    2.000 
#    0.000    3.125    0.000    0.000    0.000    0.000 
#    0.000    0.000    0.000    0.000    0.000    0.000 
#
# Total GULP energy -89446.812305 kJ/mol
# GULP energy per Si atom -5590.425769 kJ/mol
# Density = 2.440020 g / cm^3
# Si number density = 24.455864 Si / 1000 Ang^3
#
#
#
# Elastic Constant Matrix: (Units=GPa)
#
#
# Indices 1 2 3 4 5 6 
#
# 1 119.7169 36.7908 31.2211 5.5445 -16.5467 -24.0075
# 2 36.7908 114.1946 35.8564 -12.3820 -7.4461 -17.9629
# 3 31.2211 35.8564 81.5657 -17.6890 4.2151 -12.1989
# 4 5.5445 -12.3820 -17.6890 34.4372 -5.0602 -2.5760
# 5 -16.5467 -7.4461 4.2151 -5.0602 42.4306 0.3944
# 6 -24.0075 -17.9629 -12.1989 -2.5760 0.3944 33.5240
#
#
#
# Elastic Compliance Matrix: (Units=1/GPa)
#
#
# Indices 1 2 3 4 5 6 
#
# 1 0.011805 -0.001791 -0.003835 -0.003464 0.004203 0.005783
# 2 -0.001791 0.011429 -0.003118 0.003383 0.001984 0.003944
# 3 -0.003835 -0.003118 0.017413 0.008220 -0.002816 0.002584
# 4 -0.003464 0.003383 0.008220 0.035801 0.002649 0.005043
# 5 0.004203 0.001984 -0.002816 0.002649 0.026123 0.002944
# 6 0.005783 0.003944 0.002584 0.005043 0.002944 0.037377
#
#
# Mechanical properties :
#
#
# Convention : Reuss Voigt Hill
#
# Bulk Modulus (GPa) = 43.17780 58.13486 50.65633
# Shear Modulus (GPa) = 30.27432 36.18562 33.22997
#
# Velocity S-wave (km/s) = 3.52222 3.85077 3.69015
# Velocity P-wave (km/s) = 5.85108 6.60259 6.23816
#
# Compressibility (1/GPa) = 0.02316005
#
# Stress axis : x y z
#
# Youngs Moduli (GPa) = 84.71322 87.49289 57.42724
#
# Poissons Ratio (x) = 0.15669 0.22022
# Poissons Ratio (y) = 0.15172 0.17906
# Poissons Ratio (z) = 0.32485 0.27280
#
# Static dielectric constant tensor:
#      x y z
#    x 2.234720 0.127810 -0.025210 
#    y 0.127810 1.980070 -0.010700 
#    z -0.025210 -0.010700 2.098660 
# 
# From -- ./inp_files/532371.got.cif
#   From: 2010.05.17/outbox.cif.g08.bks.cpg/sg2_267_cif.got.tgz:532371.got - 2010.06.03 11:33:40.
