data_PCOD9019576
_publ_section_title
;
Structure prediction by ZEFSAII (Michael W. Deem and Ramdas Pophale) SiO2 
 PCOD9019576
Probable space group: P -1
;
_chemical_formula_sum "Si O2"
_cell_formula_units_Z 16
_cell_length_a 9.840466
_cell_length_b 15.812663
_cell_length_c 8.076760
_cell_angle_alpha 71.721778
_cell_angle_beta 80.083215
_cell_angle_gamma 36.768957
_cell_volume 707.399207
_symmetry_space_group_name_H-M "P -1"
_symmetry_group_IT_number 2
_symmetry_cell_setting 'triclinic'
loop_
_space_group_symop_operation_xyz
x,y,z
-x,-y,-z
loop_
_atom_site_type_symbol
_atom_site_label
_atom_site_fract_x
_atom_site_fract_y
_atom_site_fract_z
Si Si1 0.483568 0.572607 0.117030
Si Si2 0.750693 0.600977 0.928742
Si Si3 0.970783 0.077770 0.298460
Si Si4 0.061587 0.861885 0.208432
Si Si5 0.262918 0.377000 0.466654
Si Si6 0.436844 0.939237 0.270099
Si Si7 0.618611 0.340723 0.432219
Si Si8 0.548402 0.076340 0.114984
O O1 0.239846 0.744906 0.098642
O O2 0.532596 0.482143 0.316052
O O3 0.500000 0.500000 0.000000
O O4 0.665137 0.557671 0.067150
O O5 0.754891 0.584184 0.743025
O O6 0.575731 0.772160 0.887132
O O7 0.000000 0.500000 0.000000
O O8 0.728025 0.245493 0.294965
O O9 0.016076 0.988656 0.189054
O O10 0.174191 0.044234 0.277746
O O11 0.000000 0.000000 0.500000
O O12 0.180770 0.762233 0.411048
O O13 0.818554 0.944366 0.169773
O O14 0.403841 0.212777 0.570821
O O15 0.421348 0.373692 0.513639
O O16 0.000000 0.500000 0.500000
O O17 0.464601 0.028885 0.248250
O O18 0.500413 0.899919 0.086126
#
# Coordination Sequence:
#
# PCOD9019576 Si02
#       8
#     2   2   2   2   2   2   2   2
#     4  12  28  47  74 106 152 193 247 303 370 434
#     4  12  29  49  72 108 147 192 247 307 368 437
#     4  10  21  44  75 103 143 185 239 300 360 429
#     4  11  25  46  77 109 148 188 251 304 362 439
#     4  12  26  47  76 100 151 193 237 298 376 442
#     4  11  25  47  73 104 148 188 236 298 374 436
#     4  11  25  48  76 112 143 196 249 301 370 444
#     4  11  28  46  74 111 143 188 249 305 372 431
#
# _framework density 22.618064
#
# number of rings (size 3 to 8) (size 9 to 14) (size 15 to 20)
#    0.000    0.750    3.750    2.625    8.750    3.500 
#    0.000    0.000    0.000    0.000    0.000    0.000 
#    0.000    0.000    0.000    0.000    0.000    0.000 
#
# Total GULP energy -89530.527749 kJ/mol
# GULP energy per Si atom -5595.657984 kJ/mol
# Density = 2.256658 g / cm^3
# Si number density = 22.618064 Si / 1000 Ang^3
#
#
#
# Elastic Constant Matrix: (Units=GPa)
#
#
# Indices 1 2 3 4 5 6 
#
# 1 144.1070 48.1191 18.8651 -11.5110 -35.6709 -8.3237
# 2 48.1191 128.7464 21.6698 0.0185 -14.8425 -1.2436
# 3 18.8651 21.6698 85.4142 -17.6777 -10.7938 5.4540
# 4 -11.5110 0.0185 -17.6777 49.4536 5.5821 -2.4213
# 5 -35.6709 -14.8425 -10.7938 5.5821 46.3385 -0.8125
# 6 -8.3237 -1.2436 5.4540 -2.4213 -0.8125 36.9340
#
#
#
# Elastic Compliance Matrix: (Units=1/GPa)
#
#
# Indices 1 2 3 4 5 6 
#
# 1 0.009781 -0.002816 -0.000483 0.001504 0.006376 0.002420
# 2 -0.002816 0.009202 -0.001934 -0.001412 0.000497 -0.000121
# 3 -0.000483 -0.001934 0.013548 0.004461 0.001594 -0.001847
# 4 0.001504 -0.001412 0.004461 0.022323 -0.000926 0.001076
# 5 0.006376 0.000497 0.001594 -0.000926 0.027161 0.001755
# 6 0.002420 -0.000121 -0.001847 0.001076 0.001755 0.027998
#
#
# Mechanical properties :
#
#
# Convention : Reuss Voigt Hill
#
# Bulk Modulus (GPa) = 45.32508 59.50839 52.41674
# Shear Modulus (GPa) = 39.11282 44.51946 41.81614
#
# Velocity S-wave (km/s) = 4.16296 4.44138 4.30443
# Velocity P-wave (km/s) = 6.57190 7.25730 6.92309
#
# Compressibility (1/GPa) = 0.02206284
#
# Stress axis : x y z
#
# Youngs Moduli (GPa) = 102.23870 108.67649 73.81292
#
# Poissons Ratio (x) = 0.30604 0.03568
# Poissons Ratio (y) = 0.28791 0.14277
# Poissons Ratio (z) = 0.04942 0.21021
#
# Static dielectric constant tensor:
#      x y z
#    x 1.875850 -0.056210 0.164480 
#    y -0.056210 1.932000 -0.113350 
#    z 0.164480 -0.113350 2.117380 
# 
# From -- ./inp_files/206307.got.cif
#   From: 2010.05.17/outbox.cif.g08.bks.cpg/sg2_104_cif.got.tgz:206307.got - 2010.06.03 11:33:40.
