data_PCOD9019175
_publ_section_title
;
Structure prediction by ZEFSAII (Michael W. Deem and Ramdas Pophale) SiO2 
 PCOD9019175
Probable space group: P -1
;
_chemical_formula_sum "Si O2"
_cell_formula_units_Z 14
_cell_length_a 8.889371
_cell_length_b 14.207893
_cell_length_c 5.509253
_cell_angle_alpha 69.399802
_cell_angle_beta 77.209392
_cell_angle_gamma 62.255920
_cell_volume 575.049198
_symmetry_space_group_name_H-M "P -1"
_symmetry_group_IT_number 2
_symmetry_cell_setting 'triclinic'
loop_
_space_group_symop_operation_xyz
x,y,z
-x,-y,-z
loop_
_atom_site_type_symbol
_atom_site_label
_atom_site_fract_x
_atom_site_fract_y
_atom_site_fract_z
Si Si1 0.234157 0.852835 0.566793
Si Si2 0.941115 0.241880 0.931459
Si Si3 0.635009 0.416122 0.719914
Si Si4 0.201067 0.249972 0.183095
Si Si5 0.887582 0.927755 0.338916
Si Si6 0.464075 0.271134 0.797229
Si Si7 0.810000 0.563484 0.617485
O O1 0.396611 0.797155 0.389478
O O2 0.070691 0.908353 0.400093
O O3 0.235433 0.946752 0.665189
O O4 0.189433 0.767588 0.819178
O O5 0.826691 0.318670 0.683324
O O6 0.066147 0.119017 0.906623
O O7 0.058701 0.286106 0.991767
O O8 0.500000 0.500000 0.500000
O O9 0.537117 0.339409 0.879686
O O10 0.704646 0.489721 0.791347
O O11 0.175029 0.157356 0.434376
O O12 0.183227 0.356265 0.246897
O O13 0.387273 0.202003 0.040830
O O14 0.306824 0.360187 0.623911
O O15 0.000000 0.500000 0.500000
#
# Coordination Sequence:
#
# PCOD9019175 Si02
#       7
#     2   2   2   2   2   2   2
#     4  10  23  40  74 103 135 178 227 285 342 400
#     4  11  22  44  72  98 141 179 230 279 336 417
#     4  10  23  43  67  97 134 173 227 284 335 393
#     4  11  25  42  69  99 140 185 220 280 340 410
#     4  10  21  44  69 102 138 182 226 275 346 410
#     4  11  24  43  65 104 138 173 228 287 337 401
#     4  11  25  44  67  95 137 183 230 280 341 406
#
# _framework density 24.345742999999999
#
# number of rings (size 3 to 8) (size 9 to 14) (size 15 to 20)
#    0.000    1.429    1.429    3.000    4.000    3.429 
#    2.571    2.857    0.000    0.000    0.000    0.000 
#    0.000    0.000    0.000    0.000    0.000    0.000 
#
# Total GULP energy -78154.550935 kJ/mol
# GULP energy per Si atom -5582.467924 kJ/mol
# Density = 2.429033 g / cm^3
# Si number density = 24.345743 Si / 1000 Ang^3
#
#
#
# Elastic Constant Matrix: (Units=GPa)
#
#
# Indices 1 2 3 4 5 6 
#
# 1 186.5802 89.0925 62.5906 15.6226 -5.8871 8.7281
# 2 89.0925 106.2402 29.0494 22.9196 -15.7172 16.3976
# 3 62.5906 29.0494 73.4708 17.4463 -29.8024 -3.4133
# 4 15.6226 22.9196 17.4463 37.0528 -4.8745 4.5527
# 5 -5.8871 -15.7172 -29.8024 -4.8745 45.8277 12.6171
# 6 8.7281 16.3976 -3.4133 4.5527 12.6171 37.6619
#
#
#
# Elastic Compliance Matrix: (Units=1/GPa)
#
#
# Indices 1 2 3 4 5 6 
#
# 1 0.014690 -0.012140 -0.013582 0.005720 -0.011555 0.003830
# 2 -0.012140 0.022898 0.008767 -0.010198 0.013574 -0.009676
# 3 -0.013582 0.008767 0.033720 -0.012080 0.022965 -0.003846
# 4 0.005720 -0.010198 -0.012080 0.035676 -0.006822 -0.000008
# 5 -0.011555 0.013574 0.022965 -0.006822 0.043283 -0.014826
# 6 0.003830 -0.009676 -0.003846 -0.000008 -0.014826 0.034497
#
#
# Mechanical properties :
#
#
# Convention : Reuss Voigt Hill
#
# Bulk Modulus (GPa) = 26.73947 80.86181 53.80064
# Shear Modulus (GPa) = 21.63195 36.47905 29.05550
#
# Velocity S-wave (km/s) = 2.98406 3.87508 3.45839
# Velocity P-wave (km/s) = 4.78329 7.30122 6.17202
#
# Compressibility (1/GPa) = 0.03739790
#
# Stress axis : x y z
#
# Youngs Moduli (GPa) = 68.07366 43.67288 29.65559
#
# Poissons Ratio (x) = 0.53018 0.40279
# Poissons Ratio (y) = 0.82639 -0.25998
# Poissons Ratio (z) = 0.92458 -0.38287
#
# Static dielectric constant tensor:
#      x y z
#    x 1.924730 0.013840 0.019060 
#    y 0.013840 1.998640 -0.009630 
#    z 0.019060 -0.009630 1.999200 
# 
# From -- ./inp_files/37185.got.cif
#   From: 2010.05.17/outbox.cif.g08.bks.cpg/sg2_19_cif.got.tgz:37185.got - 2010.06.03 11:33:40.
