data_PCOD9019949
_publ_section_title
;
Structure prediction by ZEFSAII (Michael W. Deem and Ramdas Pophale) SiO2 
 PCOD9019949
Probable space group: P -1
;
_chemical_formula_sum "Si O2"
_cell_formula_units_Z 16
_cell_length_a 7.735855
_cell_length_b 18.735021
_cell_length_c 13.348739
_cell_angle_alpha 149.823181
_cell_angle_beta 43.105130
_cell_angle_gamma 120.478144
_cell_volume 619.769689
_symmetry_space_group_name_H-M "P -1"
_symmetry_group_IT_number 2
_symmetry_cell_setting 'triclinic'
loop_
_space_group_symop_operation_xyz
x,y,z
-x,-y,-z
loop_
_atom_site_type_symbol
_atom_site_label
_atom_site_fract_x
_atom_site_fract_y
_atom_site_fract_z
Si Si1 0.100556 0.627030 0.069235
Si Si2 0.151708 0.739899 0.750451
Si Si3 0.995216 0.860638 0.762561
Si Si4 0.605961 0.831439 0.160389
Si Si5 0.607821 0.331337 0.802218
Si Si6 0.477461 0.799650 0.843022
Si Si7 0.073201 0.104492 0.675024
Si Si8 0.379528 0.415495 0.314710
O O1 0.209020 0.679468 0.188571
O O2 0.907127 0.759594 0.239724
O O3 0.357235 0.555027 0.800935
O O4 0.000000 0.500000 0.000000
O O5 0.119805 0.727718 0.631371
O O6 0.155819 0.579556 0.595839
O O7 0.877944 0.861229 0.058422
O O8 0.000000 0.000000 0.000000
O O9 0.692022 0.880756 0.876384
O O10 0.202661 0.796410 0.507027
O O11 0.603567 0.215330 0.255172
O O12 0.619361 0.726134 0.123517
O O13 0.351053 0.987737 0.460670
O O14 0.599633 0.728143 0.939465
O O15 0.500000 0.500000 0.000000
O O16 0.623555 0.635709 0.633077
O O17 0.189314 0.849928 0.085425
O O18 0.000000 0.000000 0.500000
#
# Coordination Sequence:
#
# PCOD9019949 Si02
#       8
#     2   2   2   2   2   2   2   2
#     4  10  23  43  77 119 153 203 258 339 399 466
#     4  12  26  47  78 108 154 205 260 326 387 474
#     4  12  29  53  72 113 161 206 260 327 403 472
#     4  11  23  47  79 109 152 213 262 322 394 474
#     4  11  26  48  76 114 159 207 261 330 408 469
#     4  11  26  46  78 109 146 204 264 317 397 471
#     4  11  20  47  76 108 152 202 270 320 382 481
#     4  10  21  45  73 114 149 197 264 319 392 474
#
# _framework density 25.816040999999998
#
# number of rings (size 3 to 8) (size 9 to 14) (size 15 to 20)
#    0.000    1.000    5.000    2.250    5.250    3.000 
#   11.250    0.000    0.000    0.000    0.000    0.000 
#    0.000    0.000    0.000    0.000    0.000    0.000 
#
# Total GULP energy -89359.734878 kJ/mol
# GULP energy per Si atom -5584.983430 kJ/mol
# Density = 2.575728 g / cm^3
# Si number density = 25.816041 Si / 1000 Ang^3
#
#
#
# Elastic Constant Matrix: (Units=GPa)
#
#
# Indices 1 2 3 4 5 6 
#
# 1 169.3418 33.5930 35.2189 -3.7034 -2.9547 -9.9386
# 2 33.5930 120.8665 38.6317 6.6248 2.4704 -7.2907
# 3 35.2189 38.6317 118.2245 17.0274 0.9582 -10.7249
# 4 -3.7034 6.6248 17.0274 38.9858 -8.7456 5.9697
# 5 -2.9547 2.4704 0.9582 -8.7456 38.0457 5.5686
# 6 -9.9386 -7.2907 -10.7249 5.9697 5.5686 38.0951
#
#
#
# Elastic Compliance Matrix: (Units=1/GPa)
#
#
# Indices 1 2 3 4 5 6 
#
# 1 0.006626 -0.001369 -0.001736 0.001751 0.000967 0.000562
# 2 -0.001369 0.009589 -0.002457 -0.001100 -0.001084 0.001117
# 3 -0.001736 -0.002457 0.010876 -0.005445 -0.001981 0.003282
# 4 0.001751 -0.001100 -0.005445 0.031474 0.008675 -0.007487
# 5 0.000967 -0.001084 -0.001981 0.008675 0.029376 -0.006166
# 6 0.000562 0.001117 0.003282 -0.007487 -0.006166 0.029609
#
#
# Mechanical properties :
#
#
# Convention : Reuss Voigt Hill
#
# Bulk Modulus (GPa) = 62.62243 69.25777 65.94010
# Shear Modulus (GPa) = 37.31440 43.09128 40.20284
#
# Velocity S-wave (km/s) = 3.80596 4.08998 3.95052
# Velocity P-wave (km/s) = 6.60482 7.01352 6.81224
#
# Compressibility (1/GPa) = 0.01596872
#
# Stress axis : x y z
#
# Youngs Moduli (GPa) = 150.92391 104.28423 91.94278
#
# Poissons Ratio (x) = 0.14273 0.15958
# Poissons Ratio (y) = 0.20656 0.22591
# Poissons Ratio (z) = 0.26195 0.25623
#
# Static dielectric constant tensor:
#      x y z
#    x -29.526250 12.981270 15.748810 
#    y 12.981270 -3.021610 -6.321230 
#    z 15.748810 -6.321230 -5.813660 
# 
# From -- ./inp_files/570356.got.cif
#   From: 2010.05.17/outbox.cif.g08.bks.cpg/sg2_286_cif.got.tgz:570356.got - 2010.06.03 11:33:40.
