data_PCOD9019930
_publ_section_title
;
Structure prediction by ZEFSAII (Michael W. Deem and Ramdas Pophale) SiO2 
 PCOD9019930
Probable space group: P -1
;
_chemical_formula_sum "Si O2"
_cell_formula_units_Z 15
_cell_length_a 8.762731
_cell_length_b 9.085980
_cell_length_c 10.154918
_cell_angle_alpha 104.165442
_cell_angle_beta 63.801313
_cell_angle_gamma 91.329735
_cell_volume 700.043323
_symmetry_space_group_name_H-M "P -1"
_symmetry_group_IT_number 2
_symmetry_cell_setting 'triclinic'
loop_
_space_group_symop_operation_xyz
x,y,z
-x,-y,-z
loop_
_atom_site_type_symbol
_atom_site_label
_atom_site_fract_x
_atom_site_fract_y
_atom_site_fract_z
Si Si1 0.000000 0.000000 0.500000
Si Si2 0.152501 0.237918 0.982551
Si Si3 0.759694 0.321032 0.117627
Si Si4 0.763490 0.633917 0.308367
Si Si5 0.298307 0.524854 0.102002
Si Si6 0.637370 0.930875 0.537457
Si Si7 0.428161 0.968110 0.877888
Si Si8 0.952907 0.366392 0.586936
O O1 0.990979 0.186863 0.500095
O O2 0.169242 0.023868 0.532572
O O3 0.201463 0.284643 0.825668
O O4 0.257228 0.078796 0.940479
O O5 0.223102 0.362990 0.078772
O O6 0.948381 0.249648 0.072229
O O7 0.706453 0.471368 0.255577
O O8 0.623389 0.201340 0.151073
O O9 0.771149 0.372238 0.972461
O O10 0.645336 0.749775 0.468475
O O11 0.936902 0.607114 0.318667
O O12 0.240927 0.600894 0.278830
O O13 0.500000 0.500000 0.000000
O O14 0.570198 0.986880 0.718036
O O15 0.500000 0.000000 0.500000
O O16 0.500000 0.000000 0.000000
O O17 0.000000 0.500000 0.500000
#
# Coordination Sequence:
#
# PCOD9019930 Si02
#       8
#     1   2   2   2   2   2   2   2
#     4  10  28  44  78 106 148 206 246 318 396 440
#     4  11  21  44  71  96 137 189 240 297 370 452
#     4  11  23  44  72 100 138 192 244 305 373 450
#     4  10  21  45  72  98 135 190 252 296 370 461
#     4  11  23  40  70 101 141 187 235 307 382 436
#     4  11  25  49  74 105 148 199 249 310 387 460
#     4  12  28  43  69 112 147 183 254 316 371 462
#     4  11  24  46  70 107 149 192 257 309 376 469
#
# _framework density 21.427244999999999
#
# number of rings (size 3 to 8) (size 9 to 14) (size 15 to 20)
#    0.000    1.067    4.000    2.000    3.733    5.867 
#    2.400    0.000    0.000    0.000    0.000    0.000 
#    0.000    0.000    0.000    0.000    0.000    0.000 
#
# Total GULP energy -83522.742997 kJ/mol
# GULP energy per Si atom -5568.182866 kJ/mol
# Density = 2.137848 g / cm^3
# Si number density = 21.427245 Si / 1000 Ang^3
#
#
#
# Elastic Constant Matrix: (Units=GPa)
#
#
# Indices 1 2 3 4 5 6 
#
# 1 109.3431 40.2117 28.4962 11.9262 11.8695 -4.5783
# 2 40.2117 131.4590 26.3816 16.4218 13.8670 1.3852
# 3 28.4962 26.3816 71.7174 7.7310 7.3070 -16.8026
# 4 11.9262 16.4218 7.7310 15.9385 -2.0033 0.9365
# 5 11.8695 13.8670 7.3070 -2.0033 29.6427 8.7778
# 6 -4.5783 1.3852 -16.8026 0.9365 8.7778 33.8748
#
#
#
# Elastic Compliance Matrix: (Units=1/GPa)
#
#
# Indices 1 2 3 4 5 6 
#
# 1 0.011674 -0.001885 -0.002469 -0.006207 -0.004096 0.001663
# 2 -0.001885 0.010018 -0.001639 -0.008615 -0.004054 -0.000189
# 3 -0.002469 -0.001639 0.019786 -0.007631 -0.007070 0.011591
# 4 -0.006207 -0.008615 -0.007631 0.082781 0.017258 -0.011033
# 5 -0.004096 -0.004054 -0.007070 0.017258 0.044922 -0.016012
# 6 0.001663 -0.000189 0.011591 -0.011033 -0.016012 0.039956
#
#
# Mechanical properties :
#
#
# Convention : Reuss Voigt Hill
#
# Bulk Modulus (GPa) = 33.90711 55.85540 44.88125
# Shear Modulus (GPa) = 21.64934 30.38654 26.01794
#
# Velocity S-wave (km/s) = 3.18207 3.76989 3.48838
# Velocity P-wave (km/s) = 5.41843 6.71368 6.10053
#
# Compressibility (1/GPa) = 0.02949234
#
# Stress axis : x y z
#
# Youngs Moduli (GPa) = 85.66350 99.81719 50.54123
#
# Poissons Ratio (x) = 0.18820 0.12477
# Poissons Ratio (y) = 0.16151 0.08282
# Poissons Ratio (z) = 0.21148 0.16356
#
# Static dielectric constant tensor:
#      x y z
#    x 1.874940 0.025690 -0.139750 
#    y 0.025690 1.824690 -0.030150 
#    z -0.139750 -0.030150 1.888020 
# 
# From -- ./inp_files/156847.got.cif
#   From: 2010.05.17/outbox.cif.g08.bks.cpg/sg2_79_cif.got.tgz:156847.got - 2010.06.03 11:33:40.
