data_PCOD9019612
_publ_section_title
;
Structure prediction by ZEFSAII (Michael W. Deem and Ramdas Pophale) SiO2 
 PCOD9019612
Probable space group: P -1
;
_chemical_formula_sum "Si O2"
_cell_formula_units_Z 11
_cell_length_a 7.894793
_cell_length_b 11.624479
_cell_length_c 9.345351
_cell_angle_alpha 132.000599
_cell_angle_beta 101.846219
_cell_angle_gamma 50.128353
_cell_volume 449.968991
_symmetry_space_group_name_H-M "P -1"
_symmetry_group_IT_number 2
_symmetry_cell_setting 'triclinic'
loop_
_space_group_symop_operation_xyz
x,y,z
-x,-y,-z
loop_
_atom_site_type_symbol
_atom_site_label
_atom_site_fract_x
_atom_site_fract_y
_atom_site_fract_z
Si Si1 0.500000 0.500000 0.000000
Si Si2 0.904892 0.773232 0.834117
Si Si3 0.192564 0.259973 0.891393
Si Si4 0.407965 0.763064 0.940780
Si Si5 0.374358 0.362945 0.416736
Si Si6 0.731728 0.103176 0.515211
O O1 0.619079 0.354885 0.048229
O O2 0.429526 0.705921 0.241605
O O3 0.718021 0.755162 0.733240
O O4 0.152301 0.581202 0.638002
O O5 0.909721 0.751493 0.988933
O O6 0.809341 0.999346 0.958063
O O7 0.244721 0.096954 0.647267
O O8 0.422342 0.215107 0.936292
O O9 0.000000 0.500000 0.000000
O O10 0.554811 0.611256 0.702324
O O11 0.606025 0.211878 0.431573
O O12 0.000000 0.000000 0.500000
#
# Coordination Sequence:
#
# PCOD9019612 Si02
#       6
#     1   2   2   2   2   2
#     4  12  32  44  72 112 158 206 248 298 388 440
#     4  10  21  44  80 115 135 194 256 316 376 439
#     4  11  23  45  81 112 152 190 251 319 376 445
#     4  11  23  50  74 110 146 196 254 317 369 442
#     4  10  22  44  81 108 144 196 254 310 377 444
#     4  12  27  48  70 113 159 198 244 309 376 454
#
# _framework density 24.446128999999999
#
# number of rings (size 3 to 8) (size 9 to 14) (size 15 to 20)
#    0.000    1.091    3.636    2.182    5.091    7.273 
#    0.000    1.818    0.000    0.000    0.000    0.000 
#    0.000    0.000    0.000    0.000    0.000    0.000 
#
# Total GULP energy -61360.590787 kJ/mol
# GULP energy per Si atom -5578.235526 kJ/mol
# Density = 2.439049 g / cm^3
# Si number density = 24.446129 Si / 1000 Ang^3
#
#
#
# Elastic Constant Matrix: (Units=GPa)
#
#
# Indices 1 2 3 4 5 6 
#
# 1 94.7037 60.5145 36.9712 -3.5617 16.1678 -7.7805
# 2 60.5145 189.2881 65.8893 16.8863 -6.4712 34.0372
# 3 36.9712 65.8893 210.2099 13.3969 25.4881 18.1784
# 4 -3.5617 16.8863 13.3969 54.0291 2.1454 11.5401
# 5 16.1678 -6.4712 25.4881 2.1454 26.2487 -9.6560
# 6 -7.7805 34.0372 18.1784 11.5401 -9.6560 43.3319
#
#
#
# Elastic Compliance Matrix: (Units=1/GPa)
#
#
# Indices 1 2 3 4 5 6 
#
# 1 0.017620 -0.007195 -0.000258 0.002627 -0.010420 0.005902
# 2 -0.007195 0.009768 -0.001942 -0.001997 0.006630 -0.006141
# 3 -0.000258 -0.001942 0.006634 -0.000095 -0.007869 -0.003032
# 4 0.002627 -0.001997 -0.000095 0.020522 -0.005383 -0.004584
# 5 -0.010420 0.006630 -0.007869 -0.005383 0.058133 0.010610
# 6 0.005902 -0.006141 -0.003032 -0.004584 0.010610 0.033818
#
#
# Mechanical properties :
#
#
# Convention : Reuss Voigt Hill
#
# Bulk Modulus (GPa) = 65.65286 91.21683 78.43485
# Shear Modulus (GPa) = 29.34894 46.77706 38.06300
#
# Velocity S-wave (km/s) = 3.46866 4.37907 3.95018
# Velocity P-wave (km/s) = 6.55413 7.93491 7.27734
#
# Compressibility (1/GPa) = 0.01523163
#
# Stress axis : x y z
#
# Youngs Moduli (GPa) = 56.75282 102.37247 150.74867
#
# Poissons Ratio (x) = 0.73659 0.03892
# Poissons Ratio (y) = 0.40835 0.29273
# Poissons Ratio (z) = 0.01465 0.19879
#
# Static dielectric constant tensor:
#      x y z
#    x 2.060130 0.017470 0.055780 
#    y 0.017470 1.997000 0.065670 
#    z 0.055780 0.065670 1.952530 
# 
# From -- ./inp_files/148655.got.cif
#   From: 2010.05.17/outbox.cif.g08.bks.cpg/sg2_75_cif.got.tgz:148655.got - 2010.06.03 11:33:40.
