data_PCOD9019972
_publ_section_title
;
Structure prediction by ZEFSAII (Michael W. Deem and Ramdas Pophale) SiO2 
 PCOD9019972
Probable space group: P -1
;
_chemical_formula_sum "Si O2"
_cell_formula_units_Z 16
_cell_length_a 18.761418
_cell_length_b 6.879666
_cell_length_c 17.820924
_cell_angle_alpha 125.222153
_cell_angle_beta 27.298194
_cell_angle_gamma 136.154719
_cell_volume 715.703978
_symmetry_space_group_name_H-M "P -1"
_symmetry_group_IT_number 2
_symmetry_cell_setting 'triclinic'
loop_
_space_group_symop_operation_xyz
x,y,z
-x,-y,-z
loop_
_atom_site_type_symbol
_atom_site_label
_atom_site_fract_x
_atom_site_fract_y
_atom_site_fract_z
Si Si1 0.375331 0.341263 0.391102
Si Si2 0.783010 0.848503 0.660164
Si Si3 0.534904 0.797667 0.567566
Si Si4 0.839907 0.219139 0.126082
Si Si5 0.257096 0.788114 0.100271
Si Si6 0.152386 0.627600 0.680056
Si Si7 0.501066 0.702818 0.109346
Si Si8 0.285034 0.276313 0.950623
O O1 0.255331 0.141010 0.389106
O O2 0.430448 0.217488 0.379829
O O3 0.267265 0.481426 0.553528
O O4 0.556638 0.582426 0.229991
O O5 0.675789 0.525389 0.723925
O O6 0.728151 0.025880 0.801601
O O7 0.000000 0.000000 0.500000
O O8 0.500000 0.500000 0.500000
O O9 0.357710 0.818993 0.719647
O O10 0.718803 0.092137 0.430002
O O11 0.863481 0.250337 0.199482
O O12 0.872207 0.987178 0.007557
O O13 0.000000 0.500000 0.000000
O O14 0.050755 0.623355 0.218104
O O15 0.266970 0.523389 0.053079
O O16 0.434384 0.006821 0.930553
O O17 0.664274 0.825942 0.045939
O O18 0.500000 0.500000 0.000000
#
# Coordination Sequence:
#
# PCOD9019972 Si02
#       8
#     2   2   2   2   2   2   2   2
#     4  11  24  44  74  98 140 182 231 286 351 408
#     4  10  21  45  74 106 142 183 232 292 346 410
#     4  12  26  46  72 100 136 188 232 285 356 411
#     4  12  27  46  72 103 143 180 234 293 350 417
#     4  11  25  44  73 102 141 183 236 285 351 415
#     4  12  25  47  69 103 142 180 231 294 339 419
#     4   9  22  43  70  96 139 183 228 287 345 404
#     4  11  25  44  67 102 141 184 231 287 350 413
#
# _framework density 22.355609999999999
#
# number of rings (size 3 to 8) (size 9 to 14) (size 15 to 20)
#    0.000    1.000    3.750    1.875    5.250    6.000 
#    0.000    0.625    0.000    0.000    0.000    0.000 
#    0.000    0.000    0.000    0.000    0.000    0.000 
#
# Total GULP energy -89287.336085 kJ/mol
# GULP energy per Si atom -5580.458505 kJ/mol
# Density = 2.230473 g / cm^3
# Si number density = 22.355610 Si / 1000 Ang^3
#
#
#
# Elastic Constant Matrix: (Units=GPa)
#
#
# Indices 1 2 3 4 5 6 
#
# 1 129.4855 27.1341 16.7117 -7.8319 29.9192 6.6518
# 2 27.1341 100.1755 18.9511 4.3463 8.7708 17.2312
# 3 16.7117 18.9511 46.2413 -10.0182 10.4629 2.0182
# 4 -7.8319 4.3463 -10.0182 34.5675 4.3948 1.7608
# 5 29.9192 8.7708 10.4629 4.3948 33.1922 0.8716
# 6 6.6518 17.2312 2.0182 1.7608 0.8716 27.5418
#
#
#
# Elastic Compliance Matrix: (Units=1/GPa)
#
#
# Indices 1 2 3 4 5 6 
#
# 1 0.010657 -0.002012 0.000057 0.003967 -0.009584 -0.001270
# 2 -0.002012 0.012761 -0.005051 -0.003253 0.000647 -0.006940
# 3 0.000057 -0.005051 0.027743 0.009765 -0.008774 0.000767
# 4 0.003967 -0.003253 0.009765 0.034455 -0.010317 -0.001515
# 5 -0.009584 0.000647 -0.008774 -0.010317 0.042679 0.001862
# 6 -0.001270 -0.006940 0.000767 -0.001515 0.001862 0.040939
#
#
# Mechanical properties :
#
#
# Convention : Reuss Voigt Hill
#
# Bulk Modulus (GPa) = 26.91919 44.61071 35.76495
# Shear Modulus (GPa) = 25.55854 33.26734 29.41294
#
# Velocity S-wave (km/s) = 3.38490 3.86177 3.63117
# Velocity P-wave (km/s) = 5.22917 6.31528 5.79771
#
# Compressibility (1/GPa) = 0.03714822
#
# Stress axis : x y z
#
# Youngs Moduli (GPa) = 93.83624 78.36176 36.04553
#
# Poissons Ratio (x) = 0.15766 -0.00204
# Poissons Ratio (y) = 0.18879 0.18207
# Poissons Ratio (z) = -0.00531 0.39581
#
# Static dielectric constant tensor:
#      x y z
#    x 1.763980 0.052340 -0.003920 
#    y 0.052340 2.013020 0.129050 
#    z -0.003920 0.129050 1.889700 
# 
# From -- ./inp_files/307787.got.cif
#   From: 2010.05.17/outbox.cif.g08.bks.cpg/sg2_154_cif.got.tgz:307787.got - 2010.06.03 11:33:40.
