data_PCOD9019807
_publ_section_title
;
Structure prediction by ZEFSAII (Michael W. Deem and Ramdas Pophale) SiO2 
 PCOD9019807
Probable space group: P -1
;
_chemical_formula_sum "Si O2"
_cell_formula_units_Z 15
_cell_length_a 16.206827
_cell_length_b 16.953947
_cell_length_c 11.641177
_cell_angle_alpha 34.463123
_cell_angle_beta 134.763798
_cell_angle_gamma 157.802714
_cell_volume 657.083912
_symmetry_space_group_name_H-M "P -1"
_symmetry_group_IT_number 2
_symmetry_cell_setting 'triclinic'
loop_
_space_group_symop_operation_xyz
x,y,z
-x,-y,-z
loop_
_atom_site_type_symbol
_atom_site_label
_atom_site_fract_x
_atom_site_fract_y
_atom_site_fract_z
Si Si1 0.219271 0.021036 0.430138
Si Si2 0.439583 0.159969 0.163283
Si Si3 0.267992 0.192407 0.767954
Si Si4 0.053373 0.328940 0.615380
Si Si5 0.481458 0.946354 0.310965
Si Si6 0.224081 0.313794 0.989198
Si Si7 0.632187 0.808615 0.380204
Si Si8 0.500000 0.000000 0.000000
O O1 0.988375 0.739261 0.478288
O O2 0.376570 0.048017 0.541070
O O3 0.312131 0.247823 0.175649
O O4 0.217623 0.058939 0.516523
O O5 0.191567 0.898522 0.293759
O O6 0.518855 0.093655 0.272182
O O7 0.406582 0.226284 0.941578
O O8 0.623274 0.416998 0.118556
O O9 0.410312 0.481754 0.563761
O O10 0.250255 0.118031 0.710250
O O11 0.020125 0.946578 0.874686
O O12 0.218198 0.628565 0.433949
O O13 0.168213 0.313154 0.808133
O O14 0.534803 0.062210 0.099174
O O15 0.568656 0.905246 0.198877
#
# Coordination Sequence:
#
# PCOD9019807 Si02
#       8
#     2   2   2   2   2   2   2   1
#     4  11  25  42  66 105 136 173 229 280 345 406
#     4  11  23  47  70 101 136 180 238 276 335 418
#     4  10  22  43  71  99 138 181 228 281 342 404
#     4  11  26  43  72  98 140 183 229 283 342 402
#     4  11  25  46  70 100 139 185 222 287 343 403
#     4  11  25  44  70 104 135 183 229 287 338 404
#     4  10  21  45  69 101 139 181 225 283 337 413
#     4  10  22  42  72  98 140 172 218 284 342 398
#
# _framework density 22.828135
#
# number of rings (size 3 to 8) (size 9 to 14) (size 15 to 20)
#    0.000    1.333    2.667    1.600    3.733    6.933 
#    2.400    1.333    0.000    0.000    0.000    0.000 
#    0.000    0.000    0.000    0.000    0.000    0.000 
#
# Total GULP energy -83725.107353 kJ/mol
# GULP energy per Si atom -5581.673824 kJ/mol
# Density = 2.277618 g / cm^3
# Si number density = 22.828135 Si / 1000 Ang^3
#
#
#
# Elastic Constant Matrix: (Units=GPa)
#
#
# Indices 1 2 3 4 5 6 
#
# 1 109.7538 49.5625 26.2297 10.0249 7.6975 -29.1553
# 2 49.5625 105.1015 33.7445 15.6280 -0.6952 -28.2472
# 3 26.2297 33.7445 56.4557 24.8793 2.4351 -11.4950
# 4 10.0249 15.6280 24.8793 38.7996 -12.6046 -1.8984
# 5 7.6975 -0.6952 2.4351 -12.6046 31.9944 -0.4465
# 6 -29.1553 -28.2472 -11.4950 -1.8984 -0.4465 35.0824
#
#
#
# Elastic Compliance Matrix: (Units=1/GPa)
#
#
# Indices 1 2 3 4 5 6 
#
# 1 0.013613 -0.003555 -0.001590 -0.001950 -0.003891 0.007775
# 2 -0.003555 0.015080 -0.005603 -0.000743 0.001419 0.007329
# 3 -0.001590 -0.005603 0.032378 -0.021357 -0.010569 0.003486
# 4 -0.001950 -0.000743 -0.021357 0.046561 0.020332 -0.006438
# 5 -0.003891 0.001419 -0.010569 0.020332 0.040982 -0.003932
# 6 0.007775 0.007329 0.003486 -0.006438 -0.003932 0.041610
#
#
# Mechanical properties :
#
#
# Convention : Reuss Voigt Hill
#
# Bulk Modulus (GPa) = 25.26892 54.48714 39.87803
# Shear Modulus (GPa) = 22.23093 31.96024 27.09559
#
# Velocity S-wave (km/s) = 3.12403 3.74577 3.44893
# Velocity P-wave (km/s) = 4.90978 6.52901 5.77641
#
# Compressibility (1/GPa) = 0.03957431
#
# Stress axis : x y z
#
# Youngs Moduli (GPa) = 73.45945 66.31387 30.88517
#
# Poissons Ratio (x) = 0.23577 0.04910
# Poissons Ratio (y) = 0.26118 0.17306
# Poissons Ratio (z) = 0.11677 0.37157
#
# Static dielectric constant tensor:
#      x y z
#    x 1.862610 0.027920 -0.009790 
#    y 0.027920 1.864890 0.006040 
#    z -0.009790 0.006040 1.861400 
# 
# From -- ./inp_files/65472.got.cif
#   From: 2010.05.17/outbox.cif.g08.bks.cpg/sg2_33_cif.got.tgz:65472.got - 2010.06.03 11:33:40.
