data_PCOD9019937
_publ_section_title
;
Structure prediction by ZEFSAII (Michael W. Deem and Ramdas Pophale) SiO2 
 PCOD9019937
Probable space group: P -1
;
_chemical_formula_sum "Si O2"
_cell_formula_units_Z 14
_cell_length_a 5.001517
_cell_length_b 10.395795
_cell_length_c 13.662208
_cell_angle_alpha 128.096966
_cell_angle_beta 94.113016
_cell_angle_gamma 75.053875
_cell_volume 536.539364
_symmetry_space_group_name_H-M "P -1"
_symmetry_group_IT_number 2
_symmetry_cell_setting 'triclinic'
loop_
_space_group_symop_operation_xyz
x,y,z
-x,-y,-z
loop_
_atom_site_type_symbol
_atom_site_label
_atom_site_fract_x
_atom_site_fract_y
_atom_site_fract_z
Si Si1 0.247748 0.703006 0.421708
Si Si2 0.051704 0.973878 0.697464
Si Si3 0.746115 0.326865 0.809343
Si Si4 0.013725 0.796699 0.892280
Si Si5 0.509962 0.691694 0.002119
Si Si6 0.151101 0.498398 0.609026
Si Si7 0.437454 0.061407 0.186600
O O1 0.083901 0.876143 0.550823
O O2 0.337155 0.722328 0.322293
O O3 0.531744 0.612745 0.442774
O O4 0.032591 0.588725 0.367113
O O5 0.328838 0.889499 0.723905
O O6 0.800088 0.951632 0.747803
O O7 0.011065 0.173561 0.772271
O O8 0.534989 0.324430 0.890924
O O9 0.740407 0.523696 0.896196
O O10 0.699019 0.822959 0.853170
O O11 0.157454 0.669952 0.747155
O O12 0.212952 0.712318 0.948620
O O13 0.000000 0.000000 0.000000
O O14 0.579014 0.867953 0.066603
O O15 0.000000 0.500000 0.500000
#
# Coordination Sequence:
#
# PCOD9019937 Si02
#       7
#     2   2   2   2   2   2   2
#     4  12  25  44  70 102 140 180 232 280 349 412
#     4  11  23  44  69 102 138 183 227 288 341 414
#     4  10  22  43  70  98 143 181 239 275 347 406
#     4  10  21  45  73 102 138 180 234 284 348 409
#     4   9  20  45  69 100 138 185 231 290 339 409
#     4  12  26  46  72 104 142 181 228 288 351 416
#     4  10  23  43  70 101 136 178 232 287 349 405
#
# _framework density 26.093147999999999
#
# number of rings (size 3 to 8) (size 9 to 14) (size 15 to 20)
#    0.000    1.429    1.429    3.429    0.000    4.000 
#    7.714   12.857    0.000    0.000    0.000    0.000 
#    0.000    0.000    0.000    0.000    0.000    0.000 
#
# Total GULP energy -78227.484156 kJ/mol
# GULP energy per Si atom -5587.677440 kJ/mol
# Density = 2.603376 g / cm^3
# Si number density = 26.093148 Si / 1000 Ang^3
#
#
#
# Elastic Constant Matrix: (Units=GPa)
#
#
# Indices 1 2 3 4 5 6 
#
# 1 95.8079 33.2071 21.5327 -3.7069 9.3048 -14.0655
# 2 33.2071 112.2419 61.6077 -3.3937 -10.9562 -10.5753
# 3 21.5327 61.6077 208.5496 -4.0987 -19.6690 3.3208
# 4 -3.7069 -3.3937 -4.0987 57.8516 -6.9076 -2.4034
# 5 9.3048 -10.9562 -19.6690 -6.9076 24.4644 -3.3861
# 6 -14.0655 -10.5753 3.3208 -2.4034 -3.3861 18.8563
#
#
#
# Elastic Compliance Matrix: (Units=1/GPa)
#
#
# Indices 1 2 3 4 5 6 
#
# 1 0.013558 -0.003329 -0.001146 0.000116 -0.006527 0.007291
# 2 -0.003329 0.012718 -0.002938 0.001288 0.005846 0.006381
# 3 -0.001146 -0.002938 0.006202 0.000538 0.003866 -0.002832
# 4 0.000116 0.001288 0.000538 0.018390 0.006748 0.004270
# 5 -0.006527 0.005846 0.003866 0.006748 0.052089 0.007943
# 6 0.007291 0.006381 -0.002832 0.004270 0.007943 0.064519
#
#
# Mechanical properties :
#
#
# Convention : Reuss Voigt Hill
#
# Bulk Modulus (GPa) = 56.65342 72.14383 64.39862
# Shear Modulus (GPa) = 26.56979 40.25126 33.41052
#
# Velocity S-wave (km/s) = 3.19449 3.93185 3.58220
# Velocity P-wave (km/s) = 5.94689 6.95135 6.46864
#
# Compressibility (1/GPa) = 0.01765119
#
# Stress axis : x y z
#
# Youngs Moduli (GPa) = 73.75991 78.63091 161.25039
#
# Poissons Ratio (x) = 0.26174 0.18476
# Poissons Ratio (y) = 0.24553 0.47378
# Poissons Ratio (z) = 0.08452 0.23103
#
# Static dielectric constant tensor:
#      x y z
#    x 2.140260 0.088060 -0.063430 
#    y 0.088060 2.110490 -0.018480 
#    z -0.063430 -0.018480 2.077800 
# 
# From -- ./inp_files/482354.got.cif
#   From: 2010.05.17/outbox.cif.g08.bks.cpg/sg2_242_cif.got.tgz:482354.got - 2010.06.03 11:33:40.
