data_PCOD9019620
_publ_section_title
;
Structure prediction by ZEFSAII (Michael W. Deem and Ramdas Pophale) SiO2 
 PCOD9019620
Probable space group: P -1
;
_chemical_formula_sum "Si O2"
_cell_formula_units_Z 14
_cell_length_a 7.722998
_cell_length_b 5.551501
_cell_length_c 15.737586
_cell_angle_alpha 91.790971
_cell_angle_beta 69.920937
_cell_angle_gamma 120.103675
_cell_volume 539.937813
_symmetry_space_group_name_H-M "P -1"
_symmetry_group_IT_number 2
_symmetry_cell_setting 'triclinic'
loop_
_space_group_symop_operation_xyz
x,y,z
-x,-y,-z
loop_
_atom_site_type_symbol
_atom_site_label
_atom_site_fract_x
_atom_site_fract_y
_atom_site_fract_z
Si Si1 0.522008 0.444130 0.768964
Si Si2 0.094315 0.033198 0.224659
Si Si3 0.060553 0.419005 0.624581
Si Si4 0.773292 0.071500 0.979152
Si Si5 0.659835 0.043647 0.309595
Si Si6 0.279611 0.512085 0.424270
Si Si7 0.743659 0.553437 0.049487
O O1 0.595333 0.575077 0.663288
O O2 0.337808 0.483252 0.840664
O O3 0.730790 0.633921 0.793452
O O4 0.452684 0.117514 0.762705
O O5 0.150522 0.925985 0.129306
O O6 0.101771 0.863100 0.301835
O O7 0.857535 0.986595 0.270019
O O8 0.217604 0.642957 0.670761
O O9 0.196150 0.375429 0.527882
O O10 0.923466 0.525650 0.596836
O O11 0.997195 0.252887 0.997918
O O12 0.664530 0.253576 0.017321
O O13 0.666154 0.754275 0.027096
O O14 0.463511 0.844631 0.404798
#
# Coordination Sequence:
#
# PCOD9019620 Si02
#       7
#     2   2   2   2   2   2   2
#     4  10  23  42  65  96 136 170 227 279 344 406
#     4  12  25  40  67 101 131 176 228 283 342 411
#     4  11  23  41  69  96 134 177 226 282 340 414
#     4  10  23  41  70  99 137 181 234 282 354 413
#     4  10  21  45  62  95 133 180 215 286 331 424
#     4   9  22  43  65  96 135 176 224 280 345 410
#     4  10  22  43  68 100 137 182 229 290 346 422
#
# _framework density 25.928913000000001
#
# number of rings (size 3 to 8) (size 9 to 14) (size 15 to 20)
#    0.857    0.857    2.857    0.429    2.000    5.714 
#    0.000    0.000    0.000    0.000    0.000    0.000 
#    0.000    0.000    0.000    0.000    0.000    0.000 
#
# Total GULP energy -78134.363732 kJ/mol
# GULP energy per Si atom -5581.025981 kJ/mol
# Density = 2.586990 g / cm^3
# Si number density = 25.928913 Si / 1000 Ang^3
#
#
#
# Elastic Constant Matrix: (Units=GPa)
#
#
# Indices 1 2 3 4 5 6 
#
# 1 82.7366 37.4016 9.2848 7.4677 -6.7297 5.7373
# 2 37.4016 170.0921 58.3810 18.3380 12.0842 12.8388
# 3 9.2848 58.3810 148.0638 24.2996 -1.1756 -26.5665
# 4 7.4677 18.3380 24.2996 27.7636 -5.8384 -6.4112
# 5 -6.7297 12.0842 -1.1756 -5.8384 13.7128 -4.7758
# 6 5.7373 12.8388 -26.5665 -6.4112 -4.7758 36.9272
#
#
#
# Elastic Compliance Matrix: (Units=1/GPa)
#
#
# Indices 1 2 3 4 5 6 
#
# 1 0.015011 -0.005054 0.001339 0.001496 0.013401 0.002381
# 2 -0.005054 0.012230 -0.005228 -0.009422 -0.021786 -0.011682
# 3 0.001339 -0.005228 0.011028 -0.002338 0.008793 0.010275
# 4 0.001496 -0.009422 -0.002338 0.055563 0.038041 0.015928
# 5 0.013401 -0.021786 0.008793 0.038041 0.127824 0.034954
# 6 0.002381 -0.011682 0.010275 0.015928 0.034954 0.045450
#
#
# Mechanical properties :
#
#
# Convention : Reuss Voigt Hill
#
# Bulk Modulus (GPa) = 49.05641 67.89190 58.47415
# Shear Modulus (GPa) = 17.13586 35.40239 26.26912
#
# Velocity S-wave (km/s) = 2.57354 3.69909 3.18641
# Velocity P-wave (km/s) = 5.27176 6.66971 6.01151
#
# Compressibility (1/GPa) = 0.02038469
#
# Stress axis : x y z
#
# Youngs Moduli (GPa) = 66.61961 81.76491 90.67562
#
# Poissons Ratio (x) = 0.41321 -0.12146
# Poissons Ratio (y) = 0.33667 0.47406
# Poissons Ratio (z) = -0.08924 0.42747
#
# Static dielectric constant tensor:
#      x y z
#    x 2.092380 0.016290 -0.016020 
#    y 0.016290 2.014530 0.025120 
#    z -0.016020 0.025120 2.044610 
# 
# From -- ./inp_files/552776.got.cif
#   From: 2010.05.17/outbox.cif.g08.bks.cpg/sg2_277_cif.got.tgz:552776.got - 2010.06.03 11:33:40.
