data_PCOD9019953
_publ_section_title
;
Structure prediction by ZEFSAII (Michael W. Deem and Ramdas Pophale) SiO2 
 PCOD9019953
Probable space group: P -1
;
_chemical_formula_sum "Si O2"
_cell_formula_units_Z 12
_cell_length_a 10.749755
_cell_length_b 6.778775
_cell_length_c 9.144974
_cell_angle_alpha 127.427521
_cell_angle_beta 117.286249
_cell_angle_gamma 79.437965
_cell_volume 466.005432
_symmetry_space_group_name_H-M "P -1"
_symmetry_group_IT_number 2
_symmetry_cell_setting 'triclinic'
loop_
_space_group_symop_operation_xyz
x,y,z
-x,-y,-z
loop_
_atom_site_type_symbol
_atom_site_label
_atom_site_fract_x
_atom_site_fract_y
_atom_site_fract_z
Si Si1 0.371619 0.627745 0.870743
Si Si2 0.075390 0.010771 0.197752
Si Si3 0.302600 0.323524 0.959014
Si Si4 0.352921 0.072916 0.493877
Si Si5 0.132889 0.802929 0.614507
Si Si6 0.158504 0.596100 0.239898
O O1 0.316273 0.582111 0.987272
O O2 0.371997 0.337869 0.699370
O O3 0.258357 0.735180 0.756682
O O4 0.535794 0.743327 0.986851
O O5 0.065349 0.729483 0.132026
O O6 0.241658 0.099287 0.316701
O O7 0.005139 0.173320 0.352415
O O8 0.000000 0.000000 0.000000
O O9 0.190441 0.094930 0.736178
O O10 0.281836 0.834027 0.437683
O O11 0.500000 0.000000 0.500000
O O12 0.240184 0.389836 0.113430
O O13 0.097258 0.602233 0.373423
#
# Coordination Sequence:
#
# PCOD9019953 Si02
#       6
#     2   2   2   2   2   2
#     4  11  23  42  70  98 144 184 227 283 342 404
#     4  10  23  44  71 102 136 183 231 279 345 413
#     4  11  23  44  67 101 142 185 227 285 336 408
#     4  10  21  45  73  97 135 183 229 280 340 405
#     4  12  25  42  66 108 136 177 231 282 346 410
#     4  10  23  43  67  97 137 178 225 283 337 396
#
# _framework density 25.750774
#
# number of rings (size 3 to 8) (size 9 to 14) (size 15 to 20)
#    1.000    0.333    3.333    2.000    0.000    3.333 
#    3.000    0.000    0.000    0.000    0.000    0.000 
#    0.000    0.000    0.000    0.000    0.000    0.000 
#
# Total GULP energy -67038.778615 kJ/mol
# GULP energy per Si atom -5586.564885 kJ/mol
# Density = 2.569216 g / cm^3
# Si number density = 25.750774 Si / 1000 Ang^3
#
#
#
# Elastic Constant Matrix: (Units=GPa)
#
#
# Indices 1 2 3 4 5 6 
#
# 1 142.6918 52.7212 46.9783 -18.6707 -15.0670 -21.8308
# 2 52.7212 68.0127 21.5243 -21.3979 -5.7032 -5.5029
# 3 46.9783 21.5243 103.4286 -20.1693 -24.0700 -8.8725
# 4 -18.6707 -21.3979 -20.1693 59.4949 -5.2343 6.7268
# 5 -15.0670 -5.7032 -24.0700 -5.2343 49.4776 1.8556
# 6 -21.8308 -5.5029 -8.8725 6.7268 1.8556 38.9725
#
#
#
# Elastic Compliance Matrix: (Units=1/GPa)
#
#
# Indices 1 2 3 4 5 6 
#
# 1 0.011676 -0.007795 -0.003210 -0.000695 0.000842 0.004789
# 2 -0.007795 0.022518 0.000060 0.006013 0.000972 -0.002258
# 3 -0.003210 0.000060 0.013295 0.004011 0.005912 0.000263
# 4 -0.000695 0.006013 0.004011 0.020805 0.004726 -0.002443
# 5 0.000842 0.000972 0.005912 0.004726 0.023955 -0.000001
# 6 0.004789 -0.002258 0.000263 -0.002443 -0.000001 0.028504
#
#
# Mechanical properties :
#
#
# Convention : Reuss Voigt Hill
#
# Bulk Modulus (GPa) = 39.06677 61.84231 50.45454
# Shear Modulus (GPa) = 33.07415 42.44962 37.76188
#
# Velocity S-wave (km/s) = 3.58773 4.06455 3.83356
# Velocity P-wave (km/s) = 5.68915 6.78935 6.26346
#
# Compressibility (1/GPa) = 0.02559720
#
# Stress axis : x y z
#
# Youngs Moduli (GPa) = 85.64825 44.40959 75.21906
#
# Poissons Ratio (x) = 0.34619 0.24142
# Poissons Ratio (y) = 0.66766 -0.00449
# Poissons Ratio (z) = 0.27490 -0.00265
#
# Static dielectric constant tensor:
#      x y z
#    x 2.380280 0.263820 -0.158580 
#    y 0.263820 2.160770 -0.116210 
#    z -0.158580 -0.116210 2.205750 
# 
# From -- ./inp_files/413759.got.cif
#   From: 2010.05.17/outbox.cif.g08.bks.cpg/sg2_207_cif.got.tgz:413759.got - 2010.06.03 11:33:40.
