data_PCOD9019438
_publ_section_title
;
Structure prediction by ZEFSAII (Michael W. Deem and Ramdas Pophale) SiO2 
 PCOD9019438
Probable space group: P -1
;
_chemical_formula_sum "Si O2"
_cell_formula_units_Z 14
_cell_length_a 9.169839
_cell_length_b 14.053853
_cell_length_c 13.155514
_cell_angle_alpha 38.964421
_cell_angle_beta 139.961017
_cell_angle_gamma 142.525404
_cell_volume 597.754724
_symmetry_space_group_name_H-M "P -1"
_symmetry_group_IT_number 2
_symmetry_cell_setting 'triclinic'
loop_
_space_group_symop_operation_xyz
x,y,z
-x,-y,-z
loop_
_atom_site_type_symbol
_atom_site_label
_atom_site_fract_x
_atom_site_fract_y
_atom_site_fract_z
Si Si1 0.783786 0.551754 0.561934
Si Si2 0.841684 0.445344 0.063357
Si Si3 0.732525 0.236361 0.692195
Si Si4 0.401202 0.893987 0.889249
Si Si5 0.248115 0.820617 0.478895
Si Si6 0.558626 0.631873 0.829656
Si Si7 0.096383 0.888788 0.929006
O O1 0.500000 0.500000 0.500000
O O2 0.732016 0.415487 0.555902
O O3 0.955816 0.524185 0.763929
O O4 0.980818 0.745588 0.463395
O O5 0.662419 0.239834 0.123739
O O6 0.670781 0.541449 0.889952
O O7 0.000000 0.500000 0.000000
O O8 0.795699 0.182664 0.662814
O O9 0.459341 0.076357 0.719061
O O10 0.917876 0.231459 0.883281
O O11 0.203074 0.851165 0.912446
O O12 0.669862 0.930119 0.057544
O O13 0.322388 0.665335 0.656584
O O14 0.500000 0.000000 0.500000
O O15 0.798721 0.828495 0.806501
O O16 0.500000 0.500000 0.000000
#
# Coordination Sequence:
#
# PCOD9019438 Si02
#       7
#     2   2   2   2   2   2   2
#     4  12  27  47  71 104 146 192 240 301 362 436
#     4  12  22  44  71 106 137 185 247 291 358 436
#     4  10  21  44  72 101 144 185 236 296 361 422
#     4   9  19  39  73 101 143 175 238 296 345 433
#     4  12  28  51  69 108 151 190 241 302 370 429
#     4  12  24  44  75  99 147 189 238 298 358 428
#     4   9  19  41  68 104 140 184 232 293 348 426
#
# _framework density 23.420978000000002
#
# number of rings (size 3 to 8) (size 9 to 14) (size 15 to 20)
#    0.857    0.286    4.286    1.286    2.000    1.143 
#    0.000    3.571    0.000    0.000    0.000    0.000 
#    0.000    0.000    0.000    0.000    0.000    0.000 
#
# Total GULP energy -77936.283856 kJ/mol
# GULP energy per Si atom -5566.877418 kJ/mol
# Density = 2.336767 g / cm^3
# Si number density = 23.420978 Si / 1000 Ang^3
#
#
#
# Elastic Constant Matrix: (Units=GPa)
#
#
# Indices 1 2 3 4 5 6 
#
# 1 121.0848 41.7193 27.3887 11.0197 -8.6268 16.5863
# 2 41.7193 135.9576 14.0417 1.5546 9.0752 4.4011
# 3 27.3887 14.0417 67.2533 1.8205 5.8471 4.8892
# 4 11.0197 1.5546 1.8205 21.9861 6.4555 -3.5231
# 5 -8.6268 9.0752 5.8471 6.4555 37.8349 -1.1892
# 6 16.5863 4.4011 4.8892 -3.5231 -1.1892 42.3108
#
#
#
# Elastic Compliance Matrix: (Units=1/GPa)
#
#
# Indices 1 2 3 4 5 6 
#
# 1 0.012057 -0.003401 -0.004140 -0.007745 0.005388 -0.004388
# 2 -0.003401 0.008591 -0.000233 0.002129 -0.003146 0.000556
# 3 -0.004140 -0.000233 0.016907 0.001768 -0.003811 -0.000266
# 4 -0.007745 0.002129 0.001768 0.053516 -0.011469 0.006744
# 5 0.005388 -0.003146 -0.003811 -0.011469 0.030915 -0.001431
# 6 -0.004388 0.000556 -0.000266 0.006744 -0.001431 0.025849
#
#
# Mechanical properties :
#
#
# Convention : Reuss Voigt Hill
#
# Bulk Modulus (GPa) = 45.44220 54.51055 49.97638
# Shear Modulus (GPa) = 29.28821 36.50275 32.89548
#
# Velocity S-wave (km/s) = 3.54009 3.95213 3.75177
# Velocity P-wave (km/s) = 6.01283 6.64459 6.33659
#
# Compressibility (1/GPa) = 0.02200598
#
# Stress axis : x y z
#
# Youngs Moduli (GPa) = 82.94152 116.40588 59.14862
#
# Poissons Ratio (x) = 0.39592 0.24486
# Poissons Ratio (y) = 0.28210 0.01378
# Poissons Ratio (z) = 0.34336 0.02712
#
# Static dielectric constant tensor:
#      x y z
#    x 1.807710 -0.012410 -0.082390 
#    y -0.012410 2.082330 -0.068450 
#    z -0.082390 -0.068450 1.824000 
# 
# From -- ./inp_files/505319.got.cif
#   From: 2010.05.17/outbox.cif.g08.bks.cpg/sg2_253_cif.got.tgz:505319.got - 2010.06.03 11:33:40.
