data_PCOD9019352
_publ_section_title
;
Structure prediction by ZEFSAII (Michael W. Deem and Ramdas Pophale) SiO2 
 PCOD9019352
Probable space group: P -1
;
_chemical_formula_sum "Si O2"
_cell_formula_units_Z 16
_cell_length_a 12.051320
_cell_length_b 5.277151
_cell_length_c 30.952645
_cell_angle_alpha 83.872298
_cell_angle_beta 21.119169
_cell_angle_gamma 87.690974
_cell_volume 695.486468
_symmetry_space_group_name_H-M "P -1"
_symmetry_group_IT_number 2
_symmetry_cell_setting 'triclinic'
loop_
_space_group_symop_operation_xyz
x,y,z
-x,-y,-z
loop_
_atom_site_type_symbol
_atom_site_label
_atom_site_fract_x
_atom_site_fract_y
_atom_site_fract_z
Si Si1 0.242050 0.198559 0.880185
Si Si2 0.624716 0.176914 0.819640
Si Si3 0.301403 0.725577 0.062454
Si Si4 0.450218 0.994351 0.310726
Si Si5 0.280350 0.608268 0.973292
Si Si6 0.196754 0.310380 0.455315
Si Si7 0.619752 0.691784 0.340614
Si Si8 0.352528 0.215826 0.574609
O O1 0.540239 0.278108 0.801105
O O2 0.342174 0.060805 0.803419
O O3 0.046488 0.419861 0.933168
O O4 0.000000 0.000000 0.000000
O O5 0.442914 0.354780 0.913675
O O6 0.983698 0.201089 0.700890
O O7 0.497016 0.868948 0.872439
O O8 0.980502 0.667770 0.206127
O O9 0.500000 0.500000 0.000000
O O10 0.220180 0.697927 0.041912
O O11 0.500000 0.000000 0.000000
O O12 0.535538 0.842486 0.325548
O O13 0.084856 0.925001 0.429656
O O14 0.454346 0.269912 0.326503
O O15 0.382238 0.423679 0.427578
O O16 0.000000 0.500000 0.500000
O O17 0.580740 0.817409 0.398255
O O18 0.500000 0.500000 0.500000
O O19 0.500000 0.000000 0.500000
#
# Coordination Sequence:
#
# PCOD9019352 Si02
#       8
#     2   2   2   2   2   2   2   2
#     4  10  23  42  71 106 142 189 232 297 365 435
#     4  11  25  46  70  99 145 185 236 286 352 426
#     4  12  26  42  71 104 142 187 231 294 356 420
#     4  10  21  44  71 102 144 179 241 299 364 428
#     4  11  22  46  68 106 137 182 235 284 358 424
#     4   9  22  41  68 103 134 184 237 297 363 422
#     4  11  25  43  70 100 138 185 241 299 354 432
#     4  12  29  48  71 101 140 192 242 294 358 422
#
# _framework density 23.005478
#
# number of rings (size 3 to 8) (size 9 to 14) (size 15 to 20)
#    0.000    1.250    1.250    3.375    5.250    4.000 
#    9.000    0.000    0.000    0.000    0.000    0.000 
#    0.000    0.000    0.000    0.000    0.000    0.000 
#
# Total GULP energy -89352.074230 kJ/mol
# GULP energy per Si atom -5584.504639 kJ/mol
# Density = 2.295312 g / cm^3
# Si number density = 23.005478 Si / 1000 Ang^3
#
#
#
# Elastic Constant Matrix: (Units=GPa)
#
#
# Indices 1 2 3 4 5 6 
#
# 1 135.2677 33.4201 57.1124 8.6744 8.9171 35.2707
# 2 33.4201 109.3040 44.7445 26.6169 -6.0685 13.4547
# 3 57.1124 44.7445 121.1765 28.9335 0.5425 17.0091
# 4 8.6744 26.6169 28.9335 39.7190 14.1833 7.5494
# 5 8.9171 -6.0685 0.5425 14.1833 38.7852 3.1778
# 6 35.2707 13.4547 17.0091 7.5494 3.1778 34.3684
#
#
#
# Elastic Compliance Matrix: (Units=1/GPa)
#
#
# Indices 1 2 3 4 5 6 
#
# 1 0.012807 -0.002241 -0.005157 0.006122 -0.004590 -0.010633
# 2 -0.002241 0.013111 -0.001526 -0.009214 0.006008 -0.000609
# 3 -0.005157 -0.001526 0.013277 -0.009142 0.004026 0.000955
# 4 0.006122 -0.009214 -0.009142 0.044449 -0.018467 -0.006207
# 5 -0.004590 0.006008 0.004026 -0.018467 0.034373 0.001245
# 6 -0.010633 -0.000609 0.000955 -0.006207 0.001245 0.041023
#
#
# Mechanical properties :
#
#
# Convention : Reuss Voigt Hill
#
# Bulk Modulus (GPa) = 46.84705 70.70026 58.77366
# Shear Modulus (GPa) = 27.17322 37.93927 32.55624
#
# Velocity S-wave (km/s) = 3.44053 4.06537 3.76593
# Velocity P-wave (km/s) = 6.01587 7.26876 6.67179
#
# Compressibility (1/GPa) = 0.02134606
#
# Stress axis : x y z
#
# Youngs Moduli (GPa) = 78.08524 76.27074 75.31611
#
# Poissons Ratio (x) = 0.17095 0.38840
# Poissons Ratio (y) = 0.17502 0.11495
# Poissons Ratio (z) = 0.40268 0.11641
#
# Static dielectric constant tensor:
#      x y z
#    x 1.928400 -0.007290 0.022320 
#    y -0.007290 1.959430 -0.043340 
#    z 0.022320 -0.043340 1.884090 
# 
# From -- ./inp_files/622880.got.cif
#   From: 2010.05.17/outbox.cif.g08.bks.cpg/sg2_312_cif.got.tgz:622880.got - 2010.06.03 11:33:40.
