data_PCOD9019227
_publ_section_title
;
Structure prediction by ZEFSAII (Michael W. Deem and Ramdas Pophale) SiO2 
 PCOD9019227
Probable space group: P -1
;
_chemical_formula_sum "Si O2"
_cell_formula_units_Z 16
_cell_length_a 11.874672
_cell_length_b 6.694473
_cell_length_c 14.711802
_cell_angle_alpha 44.712279
_cell_angle_beta 70.995712
_cell_angle_gamma 87.639266
_cell_volume 745.470020
_symmetry_space_group_name_H-M "P -1"
_symmetry_group_IT_number 2
_symmetry_cell_setting 'triclinic'
loop_
_space_group_symop_operation_xyz
x,y,z
-x,-y,-z
loop_
_atom_site_type_symbol
_atom_site_label
_atom_site_fract_x
_atom_site_fract_y
_atom_site_fract_z
Si Si1 0.610952 0.793462 0.247730
Si Si2 0.238380 0.109274 0.139910
Si Si3 0.750747 0.359123 0.408642
Si Si4 0.462225 0.297400 0.897302
Si Si5 0.596170 0.919816 0.729631
Si Si6 0.023274 0.285336 0.641956
Si Si7 0.893601 0.301298 0.213519
Si Si8 0.157370 0.672297 0.996473
O O1 0.658688 0.564974 0.367842
O O2 0.535942 0.633660 0.231638
O O3 0.523697 0.959088 0.267984
O O4 0.736444 0.033662 0.101150
O O5 0.320209 0.999399 0.228123
O O6 0.323343 0.230099 0.992876
O O7 0.204064 0.390513 0.099761
O O8 0.110834 0.865667 0.229355
O O9 0.875008 0.527052 0.376225
O O10 0.791116 0.313523 0.310364
O O11 0.680499 0.063289 0.575952
O O12 0.546912 0.568303 0.844266
O O13 0.500000 0.000000 0.000000
O O14 0.000000 0.500000 0.500000
O O15 0.069492 0.006601 0.685223
O O16 0.853297 0.310067 0.116421
O O17 0.016844 0.583589 0.099719
#
# Coordination Sequence:
#
# PCOD9019227 Si02
#       8
#     2   2   2   2   2   2   2   2
#     4  12  25  44  70 100 138 185 227 279 340 406
#     4  11  22  44  70  97 140 174 227 288 340 396
#     4  12  27  44  71 104 135 186 226 273 351 412
#     4  12  25  42  71 102 130 187 232 276 339 398
#     4  12  26  47  65  99 148 177 228 286 329 410
#     4  11  24  46  70 100 137 181 219 283 351 406
#     4  10  24  44  68 101 138 174 227 287 335 407
#     4  10  21  44  69  97 139 175 219 290 342 389
#
# _framework density 21.462969000000001
#
# number of rings (size 3 to 8) (size 9 to 14) (size 15 to 20)
#    0.000    0.750    5.000    2.250    1.750    3.500 
#    0.000    0.000    0.000    0.000    0.000    0.000 
#    0.000    0.000    0.000    0.000    0.000    0.000 
#
# Total GULP energy -89460.913518 kJ/mol
# GULP energy per Si atom -5591.307095 kJ/mol
# Density = 2.141412 g / cm^3
# Si number density = 21.462969 Si / 1000 Ang^3
#
#
#
# Elastic Constant Matrix: (Units=GPa)
#
#
# Indices 1 2 3 4 5 6 
#
# 1 98.9468 24.1553 21.6576 -8.4337 7.4321 0.5498
# 2 24.1553 48.6153 19.4709 5.0561 -13.1986 -2.7896
# 3 21.6576 19.4709 87.7808 -0.2882 -7.7423 -7.1654
# 4 -8.4337 5.0561 -0.2882 27.4546 1.0345 2.9879
# 5 7.4321 -13.1986 -7.7423 1.0345 37.9134 -1.0127
# 6 0.5498 -2.7896 -7.1654 2.9879 -1.0127 28.3166
#
#
#
# Elastic Compliance Matrix: (Units=1/GPa)
#
#
# Indices 1 2 3 4 5 6 
#
# 1 0.013667 -0.008393 -0.002253 0.006235 -0.006299 -0.002546
# 2 -0.008393 0.030479 -0.003367 -0.009078 0.011915 0.003698
# 3 -0.002253 -0.003367 0.013131 -0.000354 0.002045 0.003145
# 4 0.006235 -0.009078 -0.000354 0.040834 -0.005719 -0.005618
# 5 -0.006299 0.011915 0.002045 -0.005719 0.032428 0.003577
# 6 -0.002546 0.003698 0.003145 -0.005618 0.003577 0.037245
#
#
# Mechanical properties :
#
#
# Convention : Reuss Voigt Hill
#
# Bulk Modulus (GPa) = 34.18716 40.65670 37.42193
# Shear Modulus (GPa) = 24.32362 30.07417 27.19890
#
# Velocity S-wave (km/s) = 3.37008 3.74734 3.56370
# Velocity P-wave (km/s) = 5.57730 6.14062 5.86573
#
# Compressibility (1/GPa) = 0.02925075
#
# Stress axis : x y z
#
# Youngs Moduli (GPa) = 73.16733 32.80897 76.15732
#
# Poissons Ratio (x) = 0.27537 0.17160
# Poissons Ratio (y) = 0.61410 0.25643
# Poissons Ratio (z) = 0.16487 0.11047
#
# Static dielectric constant tensor:
#      x y z
#    x 1.786960 -0.011520 0.002200 
#    y -0.011520 1.777310 0.003830 
#    z 0.002200 0.003830 1.761690 
# 
# From -- ./inp_files/118115.got.cif
#   From: 2010.05.17/outbox.cif.g08.bks.cpg/sg2_60_cif.got.tgz:118115.got - 2010.06.03 11:33:40.
