data_PCOD9019143
_publ_section_title
;
Structure prediction by ZEFSAII (Michael W. Deem and Ramdas Pophale) SiO2 
 PCOD9019143
Probable space group: P -1
;
_chemical_formula_sum "Si O2"
_cell_formula_units_Z 16
_cell_length_a 18.729554
_cell_length_b 13.624009
_cell_length_c 8.879671
_cell_angle_alpha 131.705042
_cell_angle_beta 28.319517
_cell_angle_gamma 141.855776
_cell_volume 661.064585
_symmetry_space_group_name_H-M "P -1"
_symmetry_group_IT_number 2
_symmetry_cell_setting 'triclinic'
loop_
_space_group_symop_operation_xyz
x,y,z
-x,-y,-z
loop_
_atom_site_type_symbol
_atom_site_label
_atom_site_fract_x
_atom_site_fract_y
_atom_site_fract_z
Si Si1 0.114190 0.534383 0.167495
Si Si2 0.375436 0.729235 0.661061
Si Si3 0.207713 0.991802 0.774422
Si Si4 0.125931 0.070927 0.485141
Si Si5 0.760703 0.277322 0.416807
Si Si6 0.594604 0.390305 0.094147
Si Si7 0.652852 0.968925 0.747084
Si Si8 0.599932 0.552090 0.706638
O O1 0.000000 0.500000 0.500000
O O2 0.967178 0.428830 0.206713
O O3 0.247683 0.709367 0.019883
O O4 0.258515 0.505965 0.944542
O O5 0.593470 0.842982 0.396415
O O6 0.323667 0.765717 0.635454
O O7 0.316358 0.548885 0.567420
O O8 0.194175 0.950955 0.582491
O O9 0.234416 0.866965 0.680163
O O10 0.025264 0.969606 0.149301
O O11 0.246754 0.004688 0.249521
O O12 0.261589 0.258863 0.384113
O O13 0.000000 0.000000 0.500000
O O14 0.656998 0.321746 0.772501
O O15 0.441626 0.223144 0.283338
O O16 0.542616 0.494785 0.210575
O O17 0.500000 0.000000 0.000000
O O18 0.500000 0.500000 0.000000
#
# Coordination Sequence:
#
# PCOD9019143 Si02
#       8
#     2   2   2   2   2   2   2   2
#     4  10  23  43  63 100 138 178 233 294 350 414
#     4  12  24  43  71 103 137 195 237 284 368 424
#     4  12  25  45  69 107 144 188 234 295 357 428
#     4  11  27  48  70 110 146 184 240 298 358 423
#     4  11  23  42  70 101 145 176 240 301 348 420
#     4  10  21  44  68  98 135 184 236 289 349 423
#     4  11  23  46  75 102 144 192 236 290 357 429
#     4  11  23  45  72  96 141 185 233 290 356 422
#
# _framework density 24.203385000000001
#
# number of rings (size 3 to 8) (size 9 to 14) (size 15 to 20)
#    0.000    1.000    3.750    2.625    1.750    1.500 
#    9.000    0.000    0.000    0.000    0.000    0.000 
#    0.000    0.000    0.000    0.000    0.000    0.000 
#
# Total GULP energy -89195.111590 kJ/mol
# GULP energy per Si atom -5574.694474 kJ/mol
# Density = 2.414830 g / cm^3
# Si number density = 24.203385 Si / 1000 Ang^3
#
#
#
# Elastic Constant Matrix: (Units=GPa)
#
#
# Indices 1 2 3 4 5 6 
#
# 1 139.6854 17.8126 15.7923 -1.5637 -16.0937 -20.8727
# 2 17.8126 60.1109 9.2122 -3.3719 -24.7071 -19.1025
# 3 15.7923 9.2122 110.3940 -11.4111 1.2883 -8.0407
# 4 -1.5637 -3.3719 -11.4111 39.2795 -0.1437 -8.3600
# 5 -16.0937 -24.7071 1.2883 -0.1437 28.3838 1.5532
# 6 -20.8727 -19.1025 -8.0407 -8.3600 1.5532 45.2043
#
#
#
# Elastic Compliance Matrix: (Units=1/GPa)
#
#
# Indices 1 2 3 4 5 6 
#
# 1 0.008421 0.001544 -0.000966 0.001140 0.005929 0.004376
# 2 0.001544 0.033419 -0.001707 0.005642 0.029274 0.014569
# 3 -0.000966 -0.001707 0.009754 0.002893 -0.002527 0.001189
# 4 0.001140 0.005642 0.002893 0.028667 0.005104 0.008552
# 5 0.005929 0.029274 -0.002527 0.005104 0.063481 0.013422
# 6 0.004376 0.014569 0.001189 0.008552 0.013422 0.031631
#
#
# Mechanical properties :
#
#
# Convention : Reuss Voigt Hill
#
# Bulk Modulus (GPa) = 20.26882 43.98049 32.12466
# Shear Modulus (GPa) = 25.76300 40.39842 33.08071
#
# Velocity S-wave (km/s) = 3.26611 4.08992 3.70101
# Velocity P-wave (km/s) = 4.75561 6.36506 5.61827
#
# Compressibility (1/GPa) = 0.04933685
#
# Stress axis : x y z
#
# Youngs Moduli (GPa) = 118.74996 29.92331 102.51967
#
# Poissons Ratio (x) = -0.04621 0.09905
# Poissons Ratio (y) = -0.18340 0.17499
# Poissons Ratio (z) = 0.11473 0.05108
#
# Static dielectric constant tensor:
#      x y z
#    x 2.022210 0.093980 0.079580 
#    y 0.093980 1.999840 0.038760 
#    z 0.079580 0.038760 2.178210 
# 
# From -- ./inp_files/333584.got.cif
#   From: 2010.05.17/outbox.cif.g08.bks.cpg/sg2_167_cif.got.tgz:333584.got - 2010.06.03 11:33:40.
