data_PCOD9019358
_publ_section_title
;
Structure prediction by ZEFSAII (Michael W. Deem and Ramdas Pophale) SiO2 
 PCOD9019358
Probable space group: P -1
;
_chemical_formula_sum "Si O2"
_cell_formula_units_Z 16
_cell_length_a 12.035383
_cell_length_b 8.704571
_cell_length_c 9.607945
_cell_angle_alpha 55.073324
_cell_angle_beta 58.166849
_cell_angle_gamma 67.372639
_cell_volume 696.164969
_symmetry_space_group_name_H-M "P -1"
_symmetry_group_IT_number 2
_symmetry_cell_setting 'triclinic'
loop_
_space_group_symop_operation_xyz
x,y,z
-x,-y,-z
loop_
_atom_site_type_symbol
_atom_site_label
_atom_site_fract_x
_atom_site_fract_y
_atom_site_fract_z
Si Si1 0.726709 0.102415 0.297443
Si Si2 0.859812 0.422185 0.628633
Si Si3 0.630117 0.210316 0.575151
Si Si4 0.005871 0.712574 0.937123
Si Si5 0.814737 0.719563 0.282848
Si Si6 0.355279 0.544715 0.006484
Si Si7 0.882477 0.034613 0.670557
Si Si8 0.368223 0.377355 0.785073
O O1 0.629124 0.085663 0.500346
O O2 0.854469 0.204386 0.209523
O O3 0.777478 0.900316 0.307711
O O4 0.659907 0.241735 0.152499
O O5 0.794980 0.533217 0.479334
O O6 0.761021 0.467299 0.798836
O O7 0.890764 0.202366 0.688198
O O8 0.000000 0.500000 0.500000
O O9 0.751020 0.105942 0.636208
O O10 0.507967 0.253193 0.736179
O O11 0.635180 0.415082 0.391716
O O12 0.903817 0.843862 0.841919
O O13 0.961155 0.718143 0.124599
O O14 0.000000 0.500000 0.000000
O O15 0.726767 0.719953 0.203479
O O16 0.500000 0.500000 0.000000
O O17 0.339807 0.415741 0.946639
O O18 0.000000 0.000000 0.500000
#
# Coordination Sequence:
#
# PCOD9019358 Si02
#       8
#     2   2   2   2   2   2   2   2
#     4  11  24  45  68 102 148 187 236 304 370 431
#     4  12  26  45  71 110 146 188 245 305 365 438
#     4  10  21  44  71 103 139 187 244 296 360 433
#     4  12  24  44  70 103 146 194 239 296 370 439
#     4  12  25  44  69 104 144 191 240 296 373 435
#     4  11  25  48  74 102 144 196 251 308 367 431
#     4  12  23  42  72 108 144 188 245 301 360 436
#     4  10  23  45  75 101 142 193 239 298 368 435
#
# _framework density 22.983058
#
# number of rings (size 3 to 8) (size 9 to 14) (size 15 to 20)
#    0.000    0.750    2.500    5.625    3.500    1.500 
#    0.000    1.250    0.000    0.000    0.000    0.000 
#    0.000    0.000    0.000    0.000    0.000    0.000 
#
# Total GULP energy -89454.658209 kJ/mol
# GULP energy per Si atom -5590.916138 kJ/mol
# Density = 2.293075 g / cm^3
# Si number density = 22.983058 Si / 1000 Ang^3
#
#
#
# Elastic Constant Matrix: (Units=GPa)
#
#
# Indices 1 2 3 4 5 6 
#
# 1 118.4375 45.7414 36.2226 3.1464 16.2465 -24.9021
# 2 45.7414 183.6177 68.7039 21.1527 1.3486 -11.8254
# 3 36.2226 68.7039 130.7147 35.8357 13.3268 -16.1461
# 4 3.1464 21.1527 35.8357 55.2433 -11.1304 3.9377
# 5 16.2465 1.3486 13.3268 -11.1304 28.3837 -0.8558
# 6 -24.9021 -11.8254 -16.1461 3.9377 -0.8558 44.1113
#
#
#
# Elastic Compliance Matrix: (Units=1/GPa)
#
#
# Indices 1 2 3 4 5 6 
#
# 1 0.011566 -0.002199 -0.000236 -0.001450 -0.006797 0.005851
# 2 -0.002199 0.007264 -0.003642 0.000298 0.002722 -0.000601
# 3 -0.000236 -0.003642 0.013983 -0.010023 -0.010046 0.004709
# 4 -0.001450 0.000298 -0.010023 0.028356 0.016442 -0.006620
# 5 -0.006797 0.002722 -0.010046 0.016442 0.049937 -0.007283
# 6 0.005851 -0.000601 0.004709 -0.006620 -0.007283 0.027985
#
#
# Mechanical properties :
#
#
# Convention : Reuss Voigt Hill
#
# Bulk Modulus (GPa) = 48.40455 81.56728 64.98592
# Shear Modulus (GPa) = 31.61934 44.35448 37.98691
#
# Velocity S-wave (km/s) = 3.71316 4.39780 4.06990
# Velocity P-wave (km/s) = 6.28411 7.83293 7.10088
#
# Compressibility (1/GPa) = 0.02065922
#
# Stress axis : x y z
#
# Youngs Moduli (GPa) = 86.46145 137.67376 71.51440
#
# Poissons Ratio (x) = 0.30276 0.01687
# Poissons Ratio (y) = 0.19014 0.26043
# Poissons Ratio (z) = 0.02039 0.50136
#
# Static dielectric constant tensor:
#      x y z
#    x 1.939820 -0.005820 -0.059610 
#    y -0.005820 1.824100 0.023570 
#    z -0.059610 0.023570 1.978380 
# 
# From -- ./inp_files/242428.got.cif
#   From: 2010.05.17/outbox.cif.g08.bks.cpg/sg2_122_cif.got.tgz:242428.got - 2010.06.03 11:33:40.
