data_PCOD9019034
_publ_section_title
;
Structure prediction by ZEFSAII (Michael W. Deem and Ramdas Pophale) SiO2 
 PCOD9019034
Probable space group: P -1
;
_chemical_formula_sum "Si O2"
_cell_formula_units_Z 16
_cell_length_a 9.388799
_cell_length_b 8.202082
_cell_length_c 22.140313
_cell_angle_alpha 139.282904
_cell_angle_beta 139.415726
_cell_angle_gamma 42.700158
_cell_volume 670.649942
_symmetry_space_group_name_H-M "P -1"
_symmetry_group_IT_number 2
_symmetry_cell_setting 'triclinic'
loop_
_space_group_symop_operation_xyz
x,y,z
-x,-y,-z
loop_
_atom_site_type_symbol
_atom_site_label
_atom_site_fract_x
_atom_site_fract_y
_atom_site_fract_z
Si Si1 0.724033 0.996043 0.674066
Si Si2 0.476119 0.386856 0.895163
Si Si3 0.841724 0.432732 0.610124
Si Si4 0.211031 0.091671 0.546882
Si Si5 0.583963 0.804846 0.820811
Si Si6 0.107238 0.850759 0.655813
Si Si7 0.746463 0.496847 0.898753
Si Si8 0.001401 0.442612 0.786626
O O1 0.750490 0.743046 0.653310
O O2 0.446624 0.106731 0.599191
O O3 0.910092 0.852721 0.640709
O O4 0.771240 0.235389 0.791434
O O5 0.612439 0.460588 0.905853
O O6 0.193014 0.518151 0.833326
O O7 0.555062 0.067931 0.844716
O O8 0.500000 0.500000 0.000000
O O9 0.735087 0.209983 0.494908
O O10 0.823053 0.423720 0.673492
O O11 0.101819 0.293424 0.623921
O O12 0.007251 0.157903 0.448431
O O13 0.387662 0.683567 0.702180
O O14 0.593474 0.765495 0.885766
O O15 0.857285 0.626279 0.844023
O O16 0.124711 0.136661 0.760829
O O17 0.000000 0.500000 0.000000
#
# Coordination Sequence:
#
# PCOD9019034 Si02
#       8
#     2   2   2   2   2   2   2   2
#     4  12  24  42  69 103 142 188 240 294 361 424
#     4  11  26  45  72 105 139 184 240 302 366 425
#     4  10  23  39  70  99 143 186 241 285 364 423
#     4  10  23  44  64 105 144 187 242 289 353 439
#     4  11  25  48  73 102 147 187 239 298 359 429
#     4  10  24  41  69 101 141 185 233 290 355 426
#     4  12  28  49  77 109 145 188 247 301 361 434
#     4  10  21  44  67  96 141 186 232 293 353 423
#
# _framework density 23.857455000000002
#
# number of rings (size 3 to 8) (size 9 to 14) (size 15 to 20)
#    0.000    1.250    1.250    3.000    5.250   10.000 
#    0.000    0.000    0.000    0.000    0.000    0.000 
#    0.000    0.000    0.000    0.000    0.000    0.000 
#
# Total GULP energy -89108.705997 kJ/mol
# GULP energy per Si atom -5569.294125 kJ/mol
# Density = 2.380315 g / cm^3
# Si number density = 23.857455 Si / 1000 Ang^3
#
#
#
# Elastic Constant Matrix: (Units=GPa)
#
#
# Indices 1 2 3 4 5 6 
#
# 1 169.5807 26.5610 34.4369 -11.4016 13.2172 3.4887
# 2 26.5610 31.5955 12.1723 -5.0465 21.3037 2.5021
# 3 34.4369 12.1723 84.3485 -22.1037 11.2411 -9.8920
# 4 -11.4016 -5.0465 -22.1037 29.8611 -3.9523 0.7291
# 5 13.2172 21.3037 11.2411 -3.9523 40.3928 -2.8272
# 6 3.4887 2.5021 -9.8920 0.7291 -2.8272 23.5822
#
#
#
# Elastic Compliance Matrix: (Units=1/GPa)
#
#
# Indices 1 2 3 4 5 6 
#
# 1 0.007247 -0.005963 -0.002374 0.000214 0.001366 -0.001278
# 2 -0.005963 0.057938 -0.002806 0.001930 -0.028329 -0.009898
# 3 -0.002374 -0.002806 0.017090 0.010969 -0.000910 0.007369
# 4 0.000214 0.001930 0.010969 0.041964 0.000182 0.003089
# 5 0.001366 -0.028329 -0.000910 0.000182 0.040027 0.007215
# 6 -0.001278 -0.009898 0.007369 0.003089 0.007215 0.047505
#
#
# Mechanical properties :
#
#
# Convention : Reuss Voigt Hill
#
# Bulk Modulus (GPa) = 16.67018 47.98501 32.32760
# Shear Modulus (GPa) = 19.68088 32.92419 26.30254
#
# Velocity S-wave (km/s) = 2.87529 3.71892 3.32397
# Velocity P-wave (km/s) = 4.24566 6.21267 5.32085
#
# Compressibility (1/GPa) = 0.05998734
#
# Stress axis : x y z
#
# Youngs Moduli (GPa) = 137.98294 17.25996 58.51455
#
# Poissons Ratio (x) = 0.10293 0.13892
# Poissons Ratio (y) = 0.82286 0.16419
# Poissons Ratio (z) = 0.32759 0.04843
#
# Static dielectric constant tensor:
#      x y z
#    x 1.927970 -0.026160 0.028460 
#    y -0.026160 2.383850 -0.097300 
#    z 0.028460 -0.097300 2.041870 
# 
# From -- ./inp_files/299805.got.cif
#   From: 2010.05.17/outbox.cif.g08.bks.cpg/sg2_150_cif.got.tgz:299805.got - 2010.06.03 11:33:40.
