data_PCOD9019616
_publ_section_title
;
Structure prediction by ZEFSAII (Michael W. Deem and Ramdas Pophale) SiO2 
 PCOD9019616
Probable space group: P -1
;
_chemical_formula_sum "Si O2"
_cell_formula_units_Z 16
_cell_length_a 12.450397
_cell_length_b 14.076971
_cell_length_c 11.598194
_cell_angle_alpha 55.755670
_cell_angle_beta 25.676406
_cell_angle_gamma 61.567341
_cell_volume 725.341634
_symmetry_space_group_name_H-M "P -1"
_symmetry_group_IT_number 2
_symmetry_cell_setting 'triclinic'
loop_
_space_group_symop_operation_xyz
x,y,z
-x,-y,-z
loop_
_atom_site_type_symbol
_atom_site_label
_atom_site_fract_x
_atom_site_fract_y
_atom_site_fract_z
Si Si1 0.955003 0.249588 0.062675
Si Si2 0.710303 0.636485 0.963065
Si Si3 0.696798 0.163863 0.593936
Si Si4 0.889618 0.210880 0.625182
Si Si5 0.286233 0.568882 0.247539
Si Si6 0.850511 0.945986 0.867325
Si Si7 0.857500 0.415565 0.860173
Si Si8 0.237354 0.427219 0.801810
O O1 0.769750 0.247286 0.355741
O O2 0.072865 0.127983 0.044463
O O3 0.835613 0.296406 0.031452
O O4 0.178765 0.347745 0.803204
O O5 0.862491 0.524156 0.868750
O O6 0.826494 0.750327 0.710639
O O7 0.463491 0.587818 0.172820
O O8 0.734136 0.657467 0.060081
O O9 0.737878 0.217233 0.645463
O O10 0.918917 0.078045 0.424151
O O11 0.421571 0.102341 0.882794
O O12 0.837112 0.308482 0.700954
O O13 0.848241 0.081315 0.796845
O O14 0.349023 0.573584 0.047159
O O15 0.110092 0.452332 0.520939
O O16 0.500000 0.500000 0.500000
O O17 0.000000 0.500000 0.000000
#
# Coordination Sequence:
#
# PCOD9019616 Si02
#       8
#     2   2   2   2   2   2   2   2
#     4  10  23  37  65  87 135 159 211 251 326 371
#     4  11  22  37  64  90 129 164 210 263 315 378
#     4  10  23  38  63  97 127 168 202 258 320 380
#     4  11  23  39  60  94 126 163 216 260 310 379
#     4  10  24  37  68  85 129 165 218 259 311 368
#     4  10  24  40  64  95 129 169 206 255 326 376
#     4  10  21  45  56  96 120 172 212 260 312 378
#     4  12  25  37  61  98 132 162 201 257 322 382
#
# _framework density 22.058572000000002
#
# number of rings (size 3 to 8) (size 9 to 14) (size 15 to 20)
#    0.750    0.750    2.500    1.875    8.750    1.000 
#    0.000    0.625    0.000    1.500    0.000    0.000 
#    0.000    0.000    0.000    0.000    0.000    0.000 
#
# Total GULP energy -89113.772181 kJ/mol
# GULP energy per Si atom -5569.610761 kJ/mol
# Density = 2.200837 g / cm^3
# Si number density = 22.058572 Si / 1000 Ang^3
#
#
#
# Elastic Constant Matrix: (Units=GPa)
#
#
# Indices 1 2 3 4 5 6 
#
# 1 97.8985 12.7658 1.9798 -8.3165 5.5356 -26.5797
# 2 12.7658 64.1479 23.2667 -22.6129 3.6584 -10.7298
# 3 1.9798 23.2667 62.7765 -9.4211 -17.3097 -15.5390
# 4 -8.3165 -22.6129 -9.4211 31.0708 -7.0840 5.2037
# 5 5.5356 3.6584 -17.3097 -7.0840 33.5681 -4.0504
# 6 -26.5797 -10.7298 -15.5390 5.2037 -4.0504 35.2890
#
#
#
# Elastic Compliance Matrix: (Units=1/GPa)
#
#
# Indices 1 2 3 4 5 6 
#
# 1 0.013454 -0.001475 0.003655 0.002136 0.001625 0.011166
# 2 -0.001475 0.023700 -0.007456 0.013789 -0.003225 0.000408
# 3 0.003655 -0.007456 0.027587 0.005543 0.017270 0.013798
# 4 0.002136 0.013789 0.005543 0.046571 0.011152 0.002655
# 5 0.001625 -0.003225 0.017270 0.011152 0.042469 0.011078
# 6 0.011166 0.000408 0.013798 0.002655 0.011078 0.043828
#
#
# Mechanical properties :
#
#
# Convention : Reuss Voigt Hill
#
# Bulk Modulus (GPa) = 18.45398 33.42751 25.94074
# Shear Modulus (GPa) = 22.10194 32.43961 27.27077
#
# Velocity S-wave (km/s) = 3.16882 3.83902 3.51990
# Velocity P-wave (km/s) = 4.66611 5.90234 5.32025
#
# Compressibility (1/GPa) = 0.05418886
#
# Stress axis : x y z
#
# Youngs Moduli (GPa) = 74.32540 42.19406 36.24895
#
# Poissons Ratio (x) = 0.06224 -0.13249
# Poissons Ratio (y) = 0.10963 0.27028
# Poissons Ratio (z) = -0.27166 0.31461
#
# Static dielectric constant tensor:
#      x y z
#    x 1.823620 -0.050470 0.025710 
#    y -0.050470 1.911320 0.087990 
#    z 0.025710 0.087990 1.926530 
# 
# From -- ./inp_files/82545.got.cif
#   From: 2010.05.17/outbox.cif.g08.bks.cpg/sg2_42_cif.got.tgz:82545.got - 2010.06.03 11:33:40.
