data_PCOD9019658
_publ_section_title
;
Structure prediction by ZEFSAII (Michael W. Deem and Ramdas Pophale) SiO2 
 PCOD9019658
Probable space group: P -1
;
_chemical_formula_sum "Si O2"
_cell_formula_units_Z 14
_cell_length_a 10.196390
_cell_length_b 13.230269
_cell_length_c 11.339336
_cell_angle_alpha 51.397895
_cell_angle_beta 26.809411
_cell_angle_gamma 48.457341
_cell_volume 514.056084
_symmetry_space_group_name_H-M "P -1"
_symmetry_group_IT_number 2
_symmetry_cell_setting 'triclinic'
loop_
_space_group_symop_operation_xyz
x,y,z
-x,-y,-z
loop_
_atom_site_type_symbol
_atom_site_label
_atom_site_fract_x
_atom_site_fract_y
_atom_site_fract_z
Si Si1 0.526685 0.529936 0.648489
Si Si2 0.690503 0.074805 0.955511
Si Si3 0.572547 0.691209 0.282365
Si Si4 0.960836 0.303902 0.596053
Si Si5 0.581450 0.102366 0.269494
Si Si6 0.246160 0.625269 0.044461
Si Si7 0.084249 0.134984 0.255228
O O1 0.596108 0.648637 0.431423
O O2 0.408901 0.439048 0.717279
O O3 0.847627 0.435986 0.511949
O O4 0.289106 0.571060 0.916068
O O5 0.764247 0.023000 0.067834
O O6 0.366777 0.077129 0.159322
O O7 0.705596 0.227919 0.839910
O O8 0.930078 0.980328 0.741706
O O9 0.228191 0.793397 0.479918
O O10 0.810174 0.759501 0.988516
O O11 0.265589 0.192198 0.397536
O O12 0.996809 0.336234 0.680984
O O13 0.698760 0.226950 0.125407
O O14 0.500000 0.000000 0.500000
O O15 0.500000 0.500000 0.000000
#
# Coordination Sequence:
#
# PCOD9019658 Si02
#       7
#     2   2   2   2   2   2   2
#     4  10  22  42  67  95 135 179 225 285 342 409
#     4  10  24  41  70  94 136 180 219 283 345 419
#     4  11  25  44  67 105 136 176 231 287 332 411
#     4  10  21  45  65  94 136 175 229 276 348 410
#     4  11  25  41  68 101 132 178 231 290 341 411
#     4   9  22  43  64  97 130 179 226 277 350 410
#     4  11  25  44  70 102 137 182 228 279 350 407
#
# _framework density 27.234380999999999
#
# number of rings (size 3 to 8) (size 9 to 14) (size 15 to 20)
#    0.000    1.714    1.429    0.857    4.000    9.143 
#   10.286    0.000    0.000    0.000    0.000    0.000 
#    0.000    0.000    0.000    0.000    0.000    0.000 
#
# Total GULP energy -78384.516425 kJ/mol
# GULP energy per Si atom -5598.894030 kJ/mol
# Density = 2.717239 g / cm^3
# Si number density = 27.234381 Si / 1000 Ang^3
#
#
#
# Elastic Constant Matrix: (Units=GPa)
#
#
# Indices 1 2 3 4 5 6 
#
# 1 96.8040 40.5001 26.5598 0.1280 43.5779 24.9427
# 2 40.5001 117.1774 40.6684 -19.3759 11.0232 10.2125
# 3 26.5598 40.6684 108.1631 -7.3721 30.3986 4.6943
# 4 0.1280 -19.3759 -7.3721 56.0724 -4.0211 13.9173
# 5 43.5779 11.0232 30.3986 -4.0211 52.1700 10.4618
# 6 24.9427 10.2125 4.6943 13.9173 10.4618 47.4945
#
#
#
# Elastic Compliance Matrix: (Units=1/GPa)
#
#
# Indices 1 2 3 4 5 6 
#
# 1 0.021463 -0.006275 0.001913 -0.001683 -0.016653 -0.005950
# 2 -0.006275 0.012601 -0.004459 0.004602 0.005855 -0.001612
# 3 0.001913 -0.004459 0.012695 -0.000642 -0.008243 0.000703
# 4 -0.001683 0.004602 -0.000642 0.021403 0.003896 -0.007172
# 5 -0.016653 0.005855 -0.008243 0.003896 0.037150 -0.001023
# 6 -0.005950 -0.001612 0.000703 -0.007172 -0.001023 0.026784
#
#
# Mechanical properties :
#
#
# Convention : Reuss Voigt Hill
#
# Bulk Modulus (GPa) = 34.34557 59.73345 47.03951
# Shear Modulus (GPa) = 31.35903 45.44179 38.40041
#
# Velocity S-wave (km/s) = 3.39698 4.08921 3.75907
# Velocity P-wave (km/s) = 5.29382 6.65404 6.01252
#
# Compressibility (1/GPa) = 0.02911584
#
# Stress axis : x y z
#
# Youngs Moduli (GPa) = 46.59240 79.35720 78.77412
#
# Poissons Ratio (x) = 0.49799 -0.15070
# Poissons Ratio (y) = 0.29238 0.35125
# Poissons Ratio (z) = -0.08913 0.35385
#
# Static dielectric constant tensor:
#      x y z
#    x 2.187970 -0.033820 -0.056200 
#    y -0.033820 2.105950 -0.015690 
#    z -0.056200 -0.015690 2.137210 
# 
# From -- ./inp_files/84822.got.cif
#   From: 2010.05.17/outbox.cif.g08.bks.cpg/sg2_43_cif.got.tgz:84822.got - 2010.06.03 11:33:40.
