data_PCOD9019221
_publ_section_title
;
Structure prediction by ZEFSAII (Michael W. Deem and Ramdas Pophale) SiO2 
 PCOD9019221
Probable space group: P -1
;
_chemical_formula_sum "Si O2"
_cell_formula_units_Z 14
_cell_length_a 8.090096
_cell_length_b 5.426383
_cell_length_c 16.393129
_cell_angle_alpha 99.903383
_cell_angle_beta 117.061311
_cell_angle_gamma 63.003080
_cell_volume 570.493759
_symmetry_space_group_name_H-M "P -1"
_symmetry_group_IT_number 2
_symmetry_cell_setting 'triclinic'
loop_
_space_group_symop_operation_xyz
x,y,z
-x,-y,-z
loop_
_atom_site_type_symbol
_atom_site_label
_atom_site_fract_x
_atom_site_fract_y
_atom_site_fract_z
Si Si1 0.879946 0.977751 0.549766
Si Si2 0.521654 0.167203 0.174134
Si Si3 0.488082 0.967622 0.642178
Si Si4 0.312959 0.723861 0.229210
Si Si5 0.904402 0.825545 0.920193
Si Si6 0.080329 0.486050 0.347253
Si Si7 0.896782 0.674129 0.162796
O O1 0.667310 0.020525 0.462300
O O2 0.897633 0.227013 0.618347
O O3 0.960904 0.682672 0.597037
O O4 0.000000 0.000000 0.500000
O O5 0.562093 0.078016 0.276254
O O6 0.453708 0.494875 0.183522
O O7 0.311548 0.157035 0.094513
O O8 0.710775 0.974774 0.149083
O O9 0.700011 0.725526 0.648180
O O10 0.536130 0.237043 0.670080
O O11 0.125474 0.659985 0.210270
O O12 0.182908 0.017887 0.175164
O O13 0.081444 0.523758 0.920318
O O14 0.000000 0.000000 0.000000
O O15 0.904219 0.534154 0.243884
#
# Coordination Sequence:
#
# PCOD9019221 Si02
#       7
#     2   2   2   2   2   2   2
#     4  12  28  44  66 104 143 187 248 302 353 416
#     4  10  23  41  68 101 139 180 238 288 359 424
#     4  11  23  43  66  98 138 186 238 295 352 421
#     4  10  21  44  69  96 140 182 234 286 366 417
#     4  10  23  45  70 100 141 181 230 293 361 435
#     4  12  24  45  69  98 141 196 238 297 361 416
#     4  11  23  43  69 104 138 185 240 290 358 427
#
# _framework density 24.540147999999999
#
# number of rings (size 3 to 8) (size 9 to 14) (size 15 to 20)
#    0.000    1.143    4.286    3.000    2.000    5.143 
#    7.714    1.429    0.000    0.000    0.000    0.000 
#    0.000    0.000    0.000    0.000    0.000    0.000 
#
# Total GULP energy -78072.803827 kJ/mol
# GULP energy per Si atom -5576.628845 kJ/mol
# Density = 2.448429 g / cm^3
# Si number density = 24.540148 Si / 1000 Ang^3
#
#
#
# Elastic Constant Matrix: (Units=GPa)
#
#
# Indices 1 2 3 4 5 6 
#
# 1 63.2510 19.1951 13.0754 8.7653 2.9521 -11.5442
# 2 19.1951 76.6280 22.0955 22.3997 7.7649 -13.6796
# 3 13.0754 22.0955 89.5326 21.7454 19.3469 3.4667
# 4 8.7653 22.3997 21.7454 57.9259 12.6548 -11.8185
# 5 2.9521 7.7649 19.3469 12.6548 21.1993 8.5312
# 6 -11.5442 -13.6796 3.4667 -11.8185 8.5312 53.1683
#
#
#
# Elastic Compliance Matrix: (Units=1/GPa)
#
#
# Indices 1 2 3 4 5 6 
#
# 1 0.017807 -0.003300 -0.001704 0.000157 -0.001158 0.003349
# 2 -0.003300 0.016470 -0.002227 -0.003815 -0.002563 0.003230
# 3 -0.001704 -0.002227 0.014899 -0.002210 -0.010964 -0.000647
# 4 0.000157 -0.003815 -0.002210 0.023864 -0.013538 0.006674
# 5 -0.001158 -0.002563 -0.010964 -0.013538 0.072319 -0.014809
# 6 0.003349 0.003230 -0.000647 0.006674 -0.014809 0.024268
#
#
# Mechanical properties :
#
#
# Convention : Reuss Voigt Hill
#
# Bulk Modulus (GPa) = 28.80733 37.57150 33.18941
# Shear Modulus (GPa) = 25.55433 38.12841 31.84137
#
# Velocity S-wave (km/s) = 3.23046 3.94600 3.60602
# Velocity P-wave (km/s) = 5.06743 6.00871 5.55803
#
# Compressibility (1/GPa) = 0.03471339
#
# Stress axis : x y z
#
# Youngs Moduli (GPa) = 56.15685 60.71514 67.11953
#
# Poissons Ratio (x) = 0.20037 0.11436
# Poissons Ratio (y) = 0.18533 0.14951
# Poissons Ratio (z) = 0.09568 0.13524
#
# Static dielectric constant tensor:
#      x y z
#    x 1.924590 0.052380 -0.134030 
#    y 0.052380 2.021870 0.074790 
#    z -0.134030 0.074790 2.058150 
# 
# From -- ./inp_files/128827.got.cif
#   From: 2010.05.17/outbox.cif.g08.bks.cpg/sg2_65_cif.got.tgz:128827.got - 2010.06.03 11:33:40.
