data_PCOD9019638
_publ_section_title
;
Structure prediction by ZEFSAII (Michael W. Deem and Ramdas Pophale) SiO2 
 PCOD9019638
Probable space group: P -1
;
_chemical_formula_sum "Si O2"
_cell_formula_units_Z 16
_cell_length_a 8.245825
_cell_length_b 8.468340
_cell_length_c 13.250150
_cell_angle_alpha 97.760068
_cell_angle_beta 95.741629
_cell_angle_gamma 129.441866
_cell_volume 686.795784
_symmetry_space_group_name_H-M "P -1"
_symmetry_group_IT_number 2
_symmetry_cell_setting 'triclinic'
loop_
_space_group_symop_operation_xyz
x,y,z
-x,-y,-z
loop_
_atom_site_type_symbol
_atom_site_label
_atom_site_fract_x
_atom_site_fract_y
_atom_site_fract_z
Si Si1 0.745738 0.598896 0.019741
Si Si2 0.258383 0.024068 0.414520
Si Si3 0.849194 0.067513 0.832165
Si Si4 0.372005 0.810232 0.053815
Si Si5 0.720144 0.304450 0.558062
Si Si6 0.942871 0.779943 0.620024
Si Si7 0.431372 0.190323 0.727264
Si Si8 0.695240 0.648093 0.804994
O O1 0.730844 0.404741 0.028996
O O2 0.809677 0.648823 0.910070
O O3 0.500000 0.500000 0.000000
O O4 0.903695 0.809576 0.113009
O O5 0.185975 0.943811 0.289111
O O6 0.188069 0.816989 0.450524
O O7 0.517566 0.192112 0.459522
O O8 0.171650 0.147496 0.442620
O O9 0.805198 0.198069 0.901828
O O10 0.682134 0.826810 0.839687
O O11 0.515375 0.841353 0.160767
O O12 0.500000 0.000000 0.000000
O O13 0.877586 0.555381 0.572186
O O14 0.604544 0.246081 0.657015
O O15 0.840700 0.730550 0.721916
O O16 0.195090 0.984254 0.661444
O O17 0.476009 0.409249 0.752827
#
# Coordination Sequence:
#
# PCOD9019638 Si02
#       8
#     2   2   2   2   2   2   2   2
#     4  11  24  39  64  91 127 164 214 259 319 391
#     4  10  22  40  68  92 130 169 219 262 324 383
#     4  11  22  41  62  92 124 170 212 260 325 380
#     4  11  24  39  60  92 128 166 209 265 317 387
#     4  10  21  45  64  93 131 172 210 274 319 376
#     4  10  22  40  67  95 128 171 211 266 326 382
#     4  10  22  42  64  94 128 162 223 259 317 385
#     4   9  22  38  63  89 126 165 204 262 318 374
#
# _framework density 23.296592
#
# number of rings (size 3 to 8) (size 9 to 14) (size 15 to 20)
#    0.000    1.750    1.250    1.875    8.750    1.500 
#    2.250    2.500    0.000    0.000    0.000    0.000 
#    0.000    0.000    0.000    0.000    0.000    0.000 
#
# Total GULP energy -89358.905680 kJ/mol
# GULP energy per Si atom -5584.931605 kJ/mol
# Density = 2.324357 g / cm^3
# Si number density = 23.296592 Si / 1000 Ang^3
#
#
#
# Elastic Constant Matrix: (Units=GPa)
#
#
# Indices 1 2 3 4 5 6 
#
# 1 57.8480 72.3378 6.6886 6.1658 12.9465 -26.1278
# 2 72.3378 213.5885 62.9462 20.0053 13.1078 -20.3169
# 3 6.6886 62.9462 101.7254 7.5336 10.6586 5.6231
# 4 6.1658 20.0053 7.5336 44.6686 1.6417 -10.2245
# 5 12.9465 13.1078 10.6586 1.6417 31.1433 1.2502
# 6 -26.1278 -20.3169 5.6231 -10.2245 1.2502 37.0428
#
#
#
# Elastic Compliance Matrix: (Units=1/GPa)
#
#
# Indices 1 2 3 4 5 6 
#
# 1 0.056744 -0.017674 0.007049 0.006928 -0.020206 0.031854
# 2 -0.017674 0.011916 -0.006127 -0.003442 0.004856 -0.006114
# 3 0.007049 -0.006127 0.013742 -0.000461 -0.005013 -0.000433
# 4 0.006928 -0.003442 -0.000461 0.025498 -0.003028 0.010209
# 5 -0.020206 0.004856 -0.005013 -0.003028 0.040865 -0.013043
# 6 0.031854 -0.006114 -0.000433 0.010209 -0.013043 0.049434
#
#
# Mechanical properties :
#
#
# Convention : Reuss Voigt Hill
#
# Bulk Modulus (GPa) = 20.45140 73.01191 46.73166
# Shear Modulus (GPa) = 20.16103 37.98357 29.07230
#
# Velocity S-wave (km/s) = 2.94497 4.04224 3.53642
# Velocity P-wave (km/s) = 4.51238 7.29346 6.06449
#
# Compressibility (1/GPa) = 0.04889640
#
# Stress axis : x y z
#
# Youngs Moduli (GPa) = 17.62305 83.91863 72.77061
#
# Poissons Ratio (x) = 1.48318 -0.51294
# Poissons Ratio (y) = 0.31147 0.44590
# Poissons Ratio (z) = -0.12422 0.51421
#
# Static dielectric constant tensor:
#      x y z
#    x 1.989870 -0.014390 -0.029000 
#    y -0.014390 1.898400 0.000480 
#    z -0.029000 0.000480 1.890640 
# 
# From -- ./inp_files/111585.got.cif
#   From: 2010.05.17/outbox.cif.g08.bks.cpg/sg2_56_cif.got.tgz:111585.got - 2010.06.03 11:33:40.
