data_PCOD9019296
_publ_section_title
;
Structure prediction by ZEFSAII (Michael W. Deem and Ramdas Pophale) SiO2 
 PCOD9019296
Probable space group: P -1
;
_chemical_formula_sum "Si O2"
_cell_formula_units_Z 16
_cell_length_a 5.475452
_cell_length_b 17.398147
_cell_length_c 16.722370
_cell_angle_alpha 148.505985
_cell_angle_beta 120.125423
_cell_angle_gamma 50.767573
_cell_volume 641.856890
_symmetry_space_group_name_H-M "P -1"
_symmetry_group_IT_number 2
_symmetry_cell_setting 'triclinic'
loop_
_space_group_symop_operation_xyz
x,y,z
-x,-y,-z
loop_
_atom_site_type_symbol
_atom_site_label
_atom_site_fract_x
_atom_site_fract_y
_atom_site_fract_z
Si Si1 0.575829 0.410545 0.251558
Si Si2 0.830362 0.309435 0.443561
Si Si3 0.962850 0.858762 0.822074
Si Si4 0.585934 0.689712 0.416295
Si Si5 0.036650 0.318928 0.852665
Si Si6 0.647405 0.845340 0.081775
Si Si7 0.991625 0.025341 0.339797
Si Si8 0.472494 0.224914 0.696827
O O1 0.428745 0.542625 0.417105
O O2 0.526299 0.529916 0.273884
O O3 0.939538 0.285965 0.224412
O O4 0.404234 0.293489 0.099903
O O5 0.988713 0.149856 0.383778
O O6 0.775397 0.236558 0.287797
O O7 0.112859 0.357256 0.518216
O O8 0.630346 0.972205 0.824716
O O9 0.000000 0.000000 0.000000
O O10 0.308160 0.858891 0.552456
O O11 0.651086 0.724114 0.367557
O O12 0.301257 0.214395 0.870164
O O13 0.177638 0.256372 0.732966
O O14 0.709430 0.314360 0.817758
O O15 0.000000 0.500000 0.000000
O O16 0.952017 0.880784 0.156362
O O17 0.273687 0.949805 0.381639
#
# Coordination Sequence:
#
# PCOD9019296 Si02
#       8
#     2   2   2   2   2   2   2   2
#     4  10  24  43  67  98 134 175 234 287 349 419
#     4  11  23  43  68  98 136 176 226 286 356 413
#     4  10  21  44  70  95 132 175 229 288 348 421
#     4  11  24  42  68  99 140 182 226 290 349 419
#     4  11  24  42  67 102 146 187 235 287 352 421
#     4  10  21  45  68  97 137 180 230 288 344 410
#     4  10  23  43  68  99 138 181 232 285 344 423
#     4  11  25  40  68 103 140 190 237 288 347 419
#
# _framework density 24.927676999999999
#
# number of rings (size 3 to 8) (size 9 to 14) (size 15 to 20)
#    0.000    1.500    1.250    2.625    7.000    1.000 
#    9.000    1.250    0.000    0.000    0.000    0.000 
#    0.000    0.000    0.000    0.000    0.000    0.000 
#
# Total GULP energy -89145.878821 kJ/mol
# GULP energy per Si atom -5571.617426 kJ/mol
# Density = 2.487094 g / cm^3
# Si number density = 24.927677 Si / 1000 Ang^3
#
#
#
# Elastic Constant Matrix: (Units=GPa)
#
#
# Indices 1 2 3 4 5 6 
#
# 1 27.8529 6.5541 18.0144 -5.0104 10.2288 -0.6118
# 2 6.5541 138.2972 49.2498 10.1051 9.9849 14.9750
# 3 18.0144 49.2498 128.0550 -1.6719 20.0618 12.6423
# 4 -5.0104 10.1051 -1.6719 45.6018 8.2128 4.0047
# 5 10.2288 9.9849 20.0618 8.2128 21.8593 -1.8169
# 6 -0.6118 14.9750 12.6423 4.0047 -1.8169 19.6295
#
#
#
# Elastic Compliance Matrix: (Units=1/GPa)
#
#
# Indices 1 2 3 4 5 6 
#
# 1 0.048080 -0.000206 -0.002828 0.009500 -0.023431 -0.000630
# 2 -0.000206 0.008948 -0.002735 -0.001432 -0.001350 -0.004904
# 3 -0.002828 -0.002735 0.011507 0.003078 -0.009722 -0.006940
# 4 0.009500 -0.001432 0.003078 0.027236 -0.017494 -0.007769
# 5 -0.023431 -0.001350 -0.009722 -0.017494 0.074236 0.017001
# 6 -0.000630 -0.004904 -0.006940 -0.007769 0.017001 0.062293
#
#
# Mechanical properties :
#
#
# Convention : Reuss Voigt Hill
#
# Bulk Modulus (GPa) = 17.54469 49.09354 33.31911
# Shear Modulus (GPa) = 19.02319 32.11057 25.56688
#
# Velocity S-wave (km/s) = 2.76549 3.59297 3.20604
# Velocity P-wave (km/s) = 4.15340 6.07863 5.20579
#
# Compressibility (1/GPa) = 0.05699731
#
# Stress axis : x y z
#
# Youngs Moduli (GPa) = 20.79872 111.76001 86.90083
#
# Poissons Ratio (x) = 0.02301 0.24571
# Poissons Ratio (y) = 0.00428 0.23771
# Poissons Ratio (z) = 0.05881 0.30571
#
# Static dielectric constant tensor:
#      x y z
#    x 2.084680 -0.028180 -0.053460 
#    y -0.028180 2.023880 -0.071960 
#    z -0.053460 -0.071960 2.086120 
# 
# From -- ./inp_files/99661.got.cif
#   From: 2010.05.17/outbox.cif.g08.bks.cpg/sg2_50_cif.got.tgz:99661.got - 2010.06.03 11:33:40.
