data_PCOD9019141
_publ_section_title
;
Structure prediction by ZEFSAII (Michael W. Deem and Ramdas Pophale) SiO2 
 PCOD9019141
Probable space group: P -1
;
_chemical_formula_sum "Si O2"
_cell_formula_units_Z 14
_cell_length_a 12.364274
_cell_length_b 8.705262
_cell_length_c 14.320338
_cell_angle_alpha 86.634392
_cell_angle_beta 29.623955
_cell_angle_gamma 105.568402
_cell_volume 579.733722
_symmetry_space_group_name_H-M "P -1"
_symmetry_group_IT_number 2
_symmetry_cell_setting 'triclinic'
loop_
_space_group_symop_operation_xyz
x,y,z
-x,-y,-z
loop_
_atom_site_type_symbol
_atom_site_label
_atom_site_fract_x
_atom_site_fract_y
_atom_site_fract_z
Si Si1 0.153573 0.374473 0.190789
Si Si2 0.351044 0.992452 0.898308
Si Si3 0.975114 0.082365 0.109816
Si Si4 0.052084 0.372064 0.647277
Si Si5 0.033158 0.829411 0.482064
Si Si6 0.383489 0.508428 0.812399
Si Si7 0.600483 0.930941 0.556580
O O1 0.030362 0.488488 0.298078
O O2 0.203719 0.335368 0.259017
O O3 0.359474 0.489493 0.943161
O O4 0.907649 0.142128 0.350030
O O5 0.392144 0.956499 0.762107
O O6 0.655793 0.092978 0.716888
O O7 0.122433 0.786781 0.133405
O O8 0.213617 0.099055 0.994898
O O9 0.075771 0.305405 0.017898
O O10 0.668314 0.932844 0.397219
O O11 0.000000 0.000000 0.000000
O O12 0.389043 0.504598 0.402710
O O13 0.993832 0.255741 0.597605
O O14 0.000000 0.000000 0.500000
O O15 0.498168 0.725357 0.686705
#
# Coordination Sequence:
#
# PCOD9019141 Si02
#       7
#     2   2   2   2   2   2   2
#     4  10  23  40  63  96 135 178 225 272 331 392
#     4  11  23  45  68  97 142 177 223 283 330 401
#     4  11  26  46  74 103 131 176 225 279 349 405
#     4  12  22  41  67 100 136 186 226 267 341 398
#     4  11  25  42  67 102 140 183 228 277 331 395
#     4  11  22  42  72  95 136 177 222 281 336 399
#     4  10  21  44  68  98 135 171 223 285 331 396
#
# _framework density 24.149018000000002
#
# number of rings (size 3 to 8) (size 9 to 14) (size 15 to 20)
#    0.000    1.143    2.857    4.286    2.000    1.714 
#    2.571    0.714    0.000    0.000    0.000    0.000 
#    0.000    0.000    0.000    0.000    0.000    0.000 
#
# Total GULP energy -78147.670075 kJ/mol
# GULP energy per Si atom -5581.976434 kJ/mol
# Density = 2.409405 g / cm^3
# Si number density = 24.149018 Si / 1000 Ang^3
#
#
#
# Elastic Constant Matrix: (Units=GPa)
#
#
# Indices 1 2 3 4 5 6 
#
# 1 48.5147 28.4864 34.3122 6.4363 2.9179 -4.2475
# 2 28.4864 151.9306 56.5874 5.3122 20.7576 -11.1505
# 3 34.3122 56.5874 212.6216 7.9794 50.9678 -3.2386
# 4 6.4363 5.3122 7.9794 57.3264 1.9313 13.0815
# 5 2.9179 20.7576 50.9678 1.9313 39.8724 5.2472
# 6 -4.2475 -11.1505 -3.2386 13.0815 5.2472 29.8215
#
#
#
# Elastic Compliance Matrix: (Units=1/GPa)
#
#
# Indices 1 2 3 4 5 6 
#
# 1 0.026143 -0.003778 -0.004419 -0.002613 0.005566 0.001998
# 2 -0.003778 0.008323 -0.000637 -0.000949 -0.003666 0.003566
# 3 -0.004419 -0.000637 0.007990 -0.000689 -0.009791 0.002025
# 4 -0.002613 -0.000949 -0.000689 0.020132 0.001903 -0.009968
# 5 0.005566 -0.003666 -0.009791 0.001903 0.040263 -0.009560
# 6 0.001998 0.003566 0.002025 -0.009968 -0.009560 0.041425
#
#
# Mechanical properties :
#
#
# Convention : Reuss Voigt Hill
#
# Bulk Modulus (GPa) = 40.34274 72.42654 56.38464
# Shear Modulus (GPa) = 29.37607 44.98280 37.17943
#
# Velocity S-wave (km/s) = 3.49155 4.32060 3.92801
# Velocity P-wave (km/s) = 5.74426 7.41261 6.63111
#
# Compressibility (1/GPa) = 0.02478760
#
# Stress axis : x y z
#
# Youngs Moduli (GPa) = 38.25099 120.14474 125.16369
#
# Poissons Ratio (x) = 0.45394 0.55312
# Poissons Ratio (y) = 0.14452 0.07970
# Poissons Ratio (z) = 0.16904 0.07650
#
# Static dielectric constant tensor:
#      x y z
#    x 2.073570 0.047010 -0.034590 
#    y 0.047010 1.922390 -0.026470 
#    z -0.034590 -0.026470 1.940070 
# 
# From -- ./inp_files/529755.got.cif
#   From: 2010.05.17/outbox.cif.g08.bks.cpg/sg2_265_cif.got.tgz:529755.got - 2010.06.03 11:33:40.
