data_PCOD9019997
_publ_section_title
;
Structure prediction by ZEFSAII (Michael W. Deem and Ramdas Pophale) SiO2 
 PCOD9019997
Probable space group: P -1
;
_chemical_formula_sum "Si O2"
_cell_formula_units_Z 14
_cell_length_a 7.931171
_cell_length_b 25.559079
_cell_length_c 5.140239
_cell_angle_alpha 75.322648
_cell_angle_beta 111.541087
_cell_angle_gamma 146.703564
_cell_volume 529.141216
_symmetry_space_group_name_H-M "P -1"
_symmetry_group_IT_number 2
_symmetry_cell_setting 'triclinic'
loop_
_space_group_symop_operation_xyz
x,y,z
-x,-y,-z
loop_
_atom_site_type_symbol
_atom_site_label
_atom_site_fract_x
_atom_site_fract_y
_atom_site_fract_z
Si Si1 0.829384 0.422101 0.282650
Si Si2 0.805966 0.782562 0.544093
Si Si3 0.966142 0.342926 0.279070
Si Si4 0.904711 0.034168 0.531040
Si Si5 0.266510 0.754982 0.225737
Si Si6 0.329343 0.343661 0.742325
Si Si7 0.497581 0.075698 0.033863
O O1 0.502873 0.315128 0.355241
O O2 0.029731 0.418228 0.323500
O O3 0.000000 0.500000 0.500000
O O4 0.678304 0.418990 0.961766
O O5 0.796546 0.744716 0.324778
O O6 0.824791 0.852260 0.438787
O O7 0.145233 0.853025 0.777791
O O8 0.809583 0.309200 0.949745
O O9 0.259682 0.372971 0.447851
O O10 0.704867 0.252152 0.444365
O O11 0.739980 0.989962 0.774359
O O12 0.000000 0.000000 0.500000
O O13 0.632653 0.983603 0.228442
O O14 0.475216 0.853521 0.096920
O O15 0.906866 0.693759 0.120679
#
# Coordination Sequence:
#
# PCOD9019997 Si02
#       7
#     2   2   2   2   2   2   2
#     4  12  29  48  78 116 154 202 266 323 388 462
#     4  12  26  48  74 109 154 206 254 320 385 453
#     4  10  23  46  76 109 148 201 249 318 384 448
#     4  12  30  44  74 117 154 196 260 308 383 464
#     4  10  21  45  77 106 147 204 245 305 383 450
#     4  10  23  47  78 105 155 204 253 318 392 450
#     4  12  23  48  74 108 153 202 251 308 382 464
#
# _framework density 26.457962999999999
#
# number of rings (size 3 to 8) (size 9 to 14) (size 15 to 20)
#    0.857    0.000    2.857    3.000    8.000    1.143 
#    0.000    1.429    0.000    0.000    0.000    0.000 
#    0.000    0.000    0.000    0.000    0.000    0.000 
#
# Total GULP energy -78308.640966 kJ/mol
# GULP energy per Si atom -5593.474355 kJ/mol
# Density = 2.639774 g / cm^3
# Si number density = 26.457963 Si / 1000 Ang^3
#
#
#
# Elastic Constant Matrix: (Units=GPa)
#
#
# Indices 1 2 3 4 5 6 
#
# 1 81.2184 13.4617 7.3786 9.8085 -3.2281 -38.3028
# 2 13.4617 116.6556 20.4220 13.2059 -8.3313 -14.9315
# 3 7.3786 20.4220 134.4547 18.9141 -17.0602 -14.7237
# 4 9.8085 13.2059 18.9141 56.2691 -4.6984 -8.0167
# 5 -3.2281 -8.3313 -17.0602 -4.6984 41.7761 2.5272
# 6 -38.3028 -14.9315 -14.7237 -8.0167 2.5272 46.6407
#
#
#
# Elastic Compliance Matrix: (Units=1/GPa)
#
#
# Indices 1 2 3 4 5 6 
#
# 1 0.020307 -0.000176 0.001035 -0.001406 0.000791 0.016663
# 2 -0.000176 0.009272 -0.000793 -0.001456 0.001211 0.002257
# 3 0.001035 -0.000793 0.008489 -0.002210 0.002975 0.002735
# 4 -0.001406 -0.001456 -0.002210 0.019305 0.000812 0.000956
# 5 0.000791 0.001211 0.002975 0.000812 0.025501 0.000734
# 6 0.016663 0.002257 0.002735 0.000956 0.000734 0.036835
#
#
# Mechanical properties :
#
#
# Convention : Reuss Voigt Hill
#
# Bulk Modulus (GPa) = 26.17817 46.09482 36.13649
# Shear Modulus (GPa) = 37.79000 48.34160 43.06580
#
# Velocity S-wave (km/s) = 3.78339 4.27911 4.03886
# Velocity P-wave (km/s) = 5.38527 6.47102 5.95295
#
# Compressibility (1/GPa) = 0.03819977
#
# Stress axis : x y z
#
# Youngs Moduli (GPa) = 49.24404 107.85576 117.80163
#
# Poissons Ratio (x) = 0.01900 -0.12194
# Poissons Ratio (y) = 0.00868 0.09340
# Poissons Ratio (z) = -0.05098 0.08552
#
# Static dielectric constant tensor:
#      x y z
#    x 2.232240 0.082140 0.154450 
#    y 0.082140 2.096070 -0.009580 
#    z 0.154450 -0.009580 2.065440 
# 
# From -- ./inp_files/56904.got.cif
#   From: 2010.05.17/outbox.cif.g08.bks.cpg/sg2_29_cif.got.tgz:56904.got - 2010.06.03 11:33:40.
