data_PCOD9019670
_publ_section_title
;
Structure prediction by ZEFSAII (Michael W. Deem and Ramdas Pophale) SiO2 
 PCOD9019670
Probable space group: P -1
;
_chemical_formula_sum "Si O2"
_cell_formula_units_Z 16
_cell_length_a 7.337574
_cell_length_b 8.554221
_cell_length_c 16.494808
_cell_angle_alpha 97.343749
_cell_angle_beta 36.035312
_cell_angle_gamma 97.933728
_cell_volume 603.006663
_symmetry_space_group_name_H-M "P -1"
_symmetry_group_IT_number 2
_symmetry_cell_setting 'triclinic'
loop_
_space_group_symop_operation_xyz
x,y,z
-x,-y,-z
loop_
_atom_site_type_symbol
_atom_site_label
_atom_site_fract_x
_atom_site_fract_y
_atom_site_fract_z
Si Si1 0.750699 0.902201 0.819497
Si Si2 0.659352 0.605535 0.543845
Si Si3 0.171592 0.495191 0.825802
Si Si4 0.397740 0.813837 0.779216
Si Si5 0.703083 0.254011 0.905539
Si Si6 0.304512 0.608951 0.253369
Si Si7 0.384353 0.817574 0.521499
Si Si8 0.685192 0.094787 0.623167
O O1 0.503921 0.875246 0.832797
O O2 0.042424 0.811920 0.680529
O O3 0.835964 0.088335 0.816456
O O4 0.605456 0.815980 0.944389
O O5 0.364734 0.495341 0.671277
O O6 0.661836 0.716885 0.630546
O O7 0.577592 0.709535 0.502754
O O8 0.979967 0.532389 0.401141
O O9 0.885043 0.318415 0.129215
O O10 0.909234 0.357520 0.902272
O O11 0.403619 0.461981 0.813685
O O12 0.395549 0.968550 0.734544
O O13 0.670946 0.373324 0.850122
O O14 0.292260 0.787372 0.302459
O O15 0.366357 0.802356 0.430501
O O16 0.500000 0.000000 0.500000
O O17 0.000000 0.000000 0.500000
#
# Coordination Sequence:
#
# PCOD9019670 Si02
#       8
#     2   2   2   2   2   2   2   2
#     4  11  24  46  72  98 141 178 236 287 335 420
#     4  10  23  41  67 106 137 178 230 287 352 408
#     4  10  26  46  66 104 141 186 226 283 362 400
#     4  10  21  45  66 101 134 180 229 285 341 411
#     4  11  26  47  68 103 138 188 229 284 346 414
#     4  12  23  44  71 101 146 181 227 292 348 412
#     4  12  21  37  72 109 131 177 233 290 341 404
#     4  12  19  38  69 101 132 177 229 283 339 399
#
# _framework density 26.533705999999999
#
# number of rings (size 3 to 8) (size 9 to 14) (size 15 to 20)
#    0.750    0.250    5.000    1.125    3.500    2.000 
#    2.250    2.500    0.000    0.000    0.000    0.000 
#    0.000    0.000    0.000    0.000    0.000    0.000 
#
# Total GULP energy -89548.291710 kJ/mol
# GULP energy per Si atom -5596.768232 kJ/mol
# Density = 2.647331 g / cm^3
# Si number density = 26.533706 Si / 1000 Ang^3
#
#
#
# Elastic Constant Matrix: (Units=GPa)
#
#
# Indices 1 2 3 4 5 6 
#
# 1 95.4182 34.7753 12.1765 -2.1794 9.3917 -11.6376
# 2 34.7753 113.8310 18.6151 -12.7312 -8.0487 4.0642
# 3 12.1765 18.6151 70.0954 -19.3339 13.3809 -9.7406
# 4 -2.1794 -12.7312 -19.3339 28.4582 6.6114 10.5482
# 5 9.3917 -8.0487 13.3809 6.6114 36.3264 -12.9176
# 6 -11.6376 4.0642 -9.7406 10.5482 -12.9176 53.1429
#
#
#
# Elastic Compliance Matrix: (Units=1/GPa)
#
#
# Indices 1 2 3 4 5 6 
#
# 1 0.012662 -0.004240 -0.000667 -0.001739 -0.002704 0.002663
# 2 -0.004240 0.011086 -0.002190 0.003212 0.003036 -0.002077
# 3 -0.000667 -0.002190 0.021864 0.017648 -0.012469 -0.002505
# 4 -0.001739 0.003212 0.017648 0.058550 -0.021017 -0.014122
# 5 -0.002704 0.003036 -0.012469 -0.021017 0.041262 0.011092
# 6 0.002663 -0.002077 -0.002505 -0.014122 0.011092 0.024599
#
#
# Mechanical properties :
#
#
# Convention : Reuss Voigt Hill
#
# Bulk Modulus (GPa) = 31.82888 45.60872 38.71880
# Shear Modulus (GPa) = 25.68192 37.83733 31.75963
#
# Velocity S-wave (km/s) = 3.11448 3.78035 3.46346
# Velocity P-wave (km/s) = 4.99550 6.02337 5.53336
#
# Compressibility (1/GPa) = 0.03141801
#
# Stress axis : x y z
#
# Youngs Moduli (GPa) = 78.97852 90.20060 45.73786
#
# Poissons Ratio (x) = 0.38243 0.03051
# Poissons Ratio (y) = 0.33485 0.10017
# Poissons Ratio (z) = 0.05268 0.19754
#
# Static dielectric constant tensor:
#      x y z
#    x 2.143960 0.027890 -0.046900 
#    y 0.027890 2.093920 -0.028490 
#    z -0.046900 -0.028490 2.108670 
# 
# From -- ./inp_files/557961.got.cif
#   From: 2010.05.17/outbox.cif.g08.bks.cpg/sg2_279_cif.got.tgz:557961.got - 2010.06.03 11:33:40.
