data_PCOD9019195
_publ_section_title
;
Structure prediction by ZEFSAII (Michael W. Deem and Ramdas Pophale) SiO2 
 PCOD9019195
Probable space group: P -1
;
_chemical_formula_sum "Si O2"
_cell_formula_units_Z 16
_cell_length_a 9.375033
_cell_length_b 20.189051
_cell_length_c 20.903634
_cell_angle_alpha 20.481612
_cell_angle_beta 45.653295
_cell_angle_gamma 33.905026
_cell_volume 707.038842
_symmetry_space_group_name_H-M "P -1"
_symmetry_group_IT_number 2
_symmetry_cell_setting 'triclinic'
loop_
_space_group_symop_operation_xyz
x,y,z
-x,-y,-z
loop_
_atom_site_type_symbol
_atom_site_label
_atom_site_fract_x
_atom_site_fract_y
_atom_site_fract_z
Si Si1 0.861079 0.803663 0.116462
Si Si2 0.092959 0.770823 0.558403
Si Si3 0.627422 0.048308 0.542131
Si Si4 0.698821 0.739986 0.910606
Si Si5 0.583373 0.442971 0.782199
Si Si6 0.028452 0.184696 0.137769
Si Si7 0.564441 0.235577 0.716982
Si Si8 0.818012 0.607910 0.728048
O O1 0.684169 0.738534 0.251807
O O2 0.085648 0.738560 0.154337
O O3 0.038410 0.607316 0.178472
O O4 0.657773 0.093892 0.885585
O O5 0.421762 0.568666 0.651584
O O6 0.017403 0.649339 0.646063
O O7 0.949912 0.062329 0.318494
O O8 0.947347 0.817763 0.629200
O O9 0.558430 0.298818 0.364415
O O10 0.458920 0.130461 0.455168
O O11 0.546987 0.959223 0.704035
O O12 0.770493 0.817565 0.880289
O O13 0.505880 0.695387 0.033002
O O14 0.000000 0.500000 0.000000
O O15 0.190125 0.971540 0.222877
O O16 0.803399 0.475576 0.913054
O O17 0.500000 0.500000 0.500000
#
# Coordination Sequence:
#
# PCOD9019195 Si02
#       8
#     2   2   2   2   2   2   2   2
#     4   9  22  41  65  92 121 159 213 262 328 381
#     4  12  21  37  62  91 128 170 210 261 319 370
#     4  11  23  38  60  91 129 173 216 256 311 382
#     4  12  22  39  63  93 131 176 209 252 315 380
#     4  11  22  38  63  90 129 168 208 261 317 374
#     4  11  23  38  64  94 122 166 217 262 315 383
#     4  10  21  44  69  90 121 165 210 271 328 377
#     4  10  22  39  60  90 125 164 214 267 312 378
#
# _framework density 22.629593
#
# number of rings (size 3 to 8) (size 9 to 14) (size 15 to 20)
#    0.000    1.250    3.750    2.250    0.000    5.500 
#    0.000    1.250    0.000    0.000    0.000    0.000 
#    0.000    0.000    0.000    0.000    0.000    0.000 
#
# Total GULP energy -89365.264654 kJ/mol
# GULP energy per Si atom -5585.329041 kJ/mol
# Density = 2.257809 g / cm^3
# Si number density = 22.629593 Si / 1000 Ang^3
#
#
#
# Elastic Constant Matrix: (Units=GPa)
#
#
# Indices 1 2 3 4 5 6 
#
# 1 138.1323 -2.5907 62.5834 -9.3828 6.7534 -18.2038
# 2 -2.5907 16.7519 -1.7529 -4.8071 -0.7338 -6.4171
# 3 62.5834 -1.7529 137.5931 12.8782 -4.0535 -9.8727
# 4 -9.3828 -4.8071 12.8782 27.6060 -0.7259 0.2991
# 5 6.7534 -0.7338 -4.0535 -0.7259 39.4931 -4.4545
# 6 -18.2038 -6.4171 -9.8727 0.2991 -4.4545 31.5244
#
#
#
# Elastic Compliance Matrix: (Units=1/GPa)
#
#
# Indices 1 2 3 4 5 6 
#
# 1 0.010979 0.005176 -0.005235 0.006975 -0.001574 0.005466
# 2 0.005176 0.071284 -0.001517 0.014759 0.002499 0.017238
# 3 -0.005235 -0.001517 0.010338 -0.006821 0.001829 0.000229
# 4 0.006975 0.014759 -0.006821 0.044290 -0.000305 0.004432
# 5 -0.001574 0.002499 0.001829 -0.000305 0.026257 0.003886
# 6 0.005466 0.017238 0.000229 0.004432 0.003886 0.038965
#
#
# Mechanical properties :
#
#
# Convention : Reuss Voigt Hill
#
# Bulk Modulus (GPa) = 11.17940 45.43967 28.30954
# Shear Modulus (GPa) = 21.26913 35.34053 28.30483
#
# Velocity S-wave (km/s) = 3.06907 3.95612 3.54049
# Velocity P-wave (km/s) = 4.18448 6.40243 5.40837
#
# Compressibility (1/GPa) = 0.08945022
#
# Stress axis : x y z
#
# Youngs Moduli (GPa) = 91.08060 14.02834 96.72841
#
# Poissons Ratio (x) = -0.07262 0.50636
# Poissons Ratio (y) = -0.47146 0.14676
# Poissons Ratio (z) = 0.47680 0.02128
#
# Static dielectric constant tensor:
#      x y z
#    x 1.866090 -0.039660 0.049850 
#    y -0.039660 1.889680 -0.016580 
#    z 0.049850 -0.016580 1.905200 
# 
# From -- ./inp_files/528797.got.cif
#   From: 2010.05.17/outbox.cif.g08.bks.cpg/sg2_265_cif.got.tgz:528797.got - 2010.06.03 11:33:40.
