data_PCOD9019915
_publ_section_title
;
Structure prediction by ZEFSAII (Michael W. Deem and Ramdas Pophale) SiO2 
 PCOD9019915
Probable space group: P -1
;
_chemical_formula_sum "Si O2"
_cell_formula_units_Z 16
_cell_length_a 20.989144
_cell_length_b 11.882676
_cell_length_c 9.109833
_cell_angle_alpha 129.242595
_cell_angle_beta 50.250411
_cell_angle_gamma 151.821045
_cell_volume 809.900135
_symmetry_space_group_name_H-M "P -1"
_symmetry_group_IT_number 2
_symmetry_cell_setting 'triclinic'
loop_
_space_group_symop_operation_xyz
x,y,z
-x,-y,-z
loop_
_atom_site_type_symbol
_atom_site_label
_atom_site_fract_x
_atom_site_fract_y
_atom_site_fract_z
Si Si1 0.124791 0.259431 0.956447
Si Si2 0.855156 0.267693 0.603479
Si Si3 0.553671 0.974748 0.033338
Si Si4 0.718445 0.344788 0.710379
Si Si5 0.101288 0.352812 0.588066
Si Si6 0.618516 0.748479 0.622270
Si Si7 0.811055 0.800435 0.481774
Si Si8 0.871818 0.462582 0.008989
O O1 0.197423 0.271307 0.731053
O O2 0.072108 0.329100 0.005603
O O3 0.223658 0.448352 0.097067
O O4 0.000000 0.000000 0.000000
O O5 0.754972 0.250322 0.668604
O O6 0.000000 0.500000 0.500000
O O7 0.755282 0.987320 0.521063
O O8 0.892325 0.349084 0.786848
O O9 0.565209 0.824090 0.836352
O O10 0.443488 0.849781 0.220868
O O11 0.500000 0.000000 0.000000
O O12 0.705197 0.240014 0.075143
O O13 0.802827 0.460569 0.531544
O O14 0.175856 0.319827 0.530389
O O15 0.077206 0.438168 0.821084
O O16 0.955683 0.088850 0.524976
O O17 0.500000 0.500000 0.500000
O O18 0.682413 0.727259 0.630090
#
# Coordination Sequence:
#
# PCOD9019915 Si02
#       8
#     2   2   2   2   2   2   2   2
#     4  10  17  30  57  86 113 149 207 253 294 348
#     4  10  21  38  61  91 120 154 214 268 303 356
#     4  11  20  41  60  86 119 164 206 255 308 366
#     4  11  20  36  62  86 117 165 214 250 299 378
#     4  10  21  37  59  91 125 169 199 248 317 386
#     4  11  23  38  64  94 124 158 207 267 313 356
#     4  10  21  37  57  90 133 158 201 257 321 363
#     4   9  21  36  58  83 121 161 201 247 308 373
#
# _framework density 19.755520000000001
#
# number of rings (size 3 to 8) (size 9 to 14) (size 15 to 20)
#    0.000    1.750    5.000    1.500    3.500    0.500 
#    0.000    6.250    0.000    0.000    0.000    0.000 
#    0.000    0.000    0.000    0.000    0.000    0.000 
#
# Total GULP energy -89211.374034 kJ/mol
# GULP energy per Si atom -5575.710877 kJ/mol
# Density = 1.971056 g / cm^3
# Si number density = 19.755520 Si / 1000 Ang^3
#
#
#
# Elastic Constant Matrix: (Units=GPa)
#
#
# Indices 1 2 3 4 5 6 
#
# 1 81.7895 20.7570 23.0071 0.9753 -11.0763 -2.0446
# 2 20.7570 95.3902 18.9894 7.1894 9.7767 -2.1908
# 3 23.0071 18.9894 70.9338 3.1308 9.6075 -6.5611
# 4 0.9753 7.1894 3.1308 30.4862 -6.3276 -4.1552
# 5 -11.0763 9.7767 9.6075 -6.3276 35.2664 -3.6866
# 6 -2.0446 -2.1908 -6.5611 -4.1552 -3.6866 23.9261
#
#
#
# Elastic Compliance Matrix: (Units=1/GPa)
#
#
# Indices 1 2 3 4 5 6 
#
# 1 0.015607 -0.003328 -0.005234 0.002625 0.007853 0.001259
# 2 -0.003328 0.012256 -0.001472 -0.003764 -0.004818 -0.000962
# 3 -0.005234 -0.001472 0.017369 -0.002132 -0.006049 0.002878
# 4 0.002625 -0.003764 -0.002132 0.036843 0.009812 0.007205
# 5 0.007853 -0.004818 -0.006049 0.009812 0.036178 0.005849
# 6 0.001259 -0.000962 0.002878 0.007205 0.005849 0.044757
#
#
# Mechanical properties :
#
#
# Convention : Reuss Voigt Hill
#
# Bulk Modulus (GPa) = 39.73922 41.51339 40.62631
# Shear Modulus (GPa) = 26.11439 30.29307 28.20373
#
# Velocity S-wave (km/s) = 3.63971 3.92011 3.78251
# Velocity P-wave (km/s) = 6.15000 6.44584 6.29966
#
# Compressibility (1/GPa) = 0.02516405
#
# Stress axis : x y z
#
# Youngs Moduli (GPa) = 64.07347 81.59434 57.57360
#
# Poissons Ratio (x) = 0.27154 0.30135
# Poissons Ratio (y) = 0.21323 0.08474
# Poissons Ratio (z) = 0.33537 0.12010
#
# Static dielectric constant tensor:
#      x y z
#    x 1.728260 0.013070 -0.047490 
#    y 0.013070 1.740630 -0.000590 
#    z -0.047490 -0.000590 1.750280 
# 
# From -- ./inp_files/345580.got.cif
#   From: 2010.05.17/outbox.cif.g08.bks.cpg/sg2_173_cif.got.tgz:345580.got - 2010.06.03 11:33:40.
