data_PCOD9019590
_publ_section_title
;
Structure prediction by ZEFSAII (Michael W. Deem and Ramdas Pophale) SiO2 
 PCOD9019590
Probable space group: P -1
;
_chemical_formula_sum "Si O2"
_cell_formula_units_Z 12
_cell_length_a 7.900744
_cell_length_b 9.354703
_cell_length_c 7.505105
_cell_angle_alpha 89.011180
_cell_angle_beta 86.202420
_cell_angle_gamma 129.918146
_cell_volume 423.200182
_symmetry_space_group_name_H-M "P -1"
_symmetry_group_IT_number 2
_symmetry_cell_setting 'triclinic'
loop_
_space_group_symop_operation_xyz
x,y,z
-x,-y,-z
loop_
_atom_site_type_symbol
_atom_site_label
_atom_site_fract_x
_atom_site_fract_y
_atom_site_fract_z
Si Si1 0.999578 0.725100 0.495608
Si Si2 0.866323 0.511593 0.858429
Si Si3 0.777870 0.670556 0.143734
Si Si4 0.558720 0.950563 0.706981
Si Si5 0.374434 0.107850 0.901879
Si Si6 0.404126 0.338736 0.364804
O O1 0.903801 0.666752 0.301775
O O2 0.858197 0.782999 0.586722
O O3 0.050899 0.422392 0.349888
O O4 0.258103 0.879581 0.434714
O O5 0.627264 0.305341 0.870743
O O6 0.870168 0.668679 0.950493
O O7 0.000000 0.500000 0.000000
O O8 0.769313 0.836604 0.154257
O O9 0.530076 0.468550 0.181528
O O10 0.508066 0.773221 0.619810
O O11 0.378584 0.965673 0.788949
O O12 0.667986 0.956004 0.887931
O O13 0.500000 0.500000 0.500000
#
# Coordination Sequence:
#
# PCOD9019590 Si02
#       6
#     2   2   2   2   2   2
#     4  11  25  46  77 112 146 194 257 313 372 437
#     4  12  25  46  78 110 148 205 251 307 377 454
#     4  11  23  47  79 104 151 204 253 298 376 466
#     4  11  24  45  71 113 159 184 255 317 368 449
#     4  11  24  45  76 109 154 204 243 308 386 443
#     4  10  21  44  76 105 144 202 244 302 373 447
#
# _framework density 28.355373
#
# number of rings (size 3 to 8) (size 9 to 14) (size 15 to 20)
#    0.000    1.000    3.333    3.000    0.000    3.333 
#    0.000   15.833    0.000    0.000    0.000    0.000 
#    0.000    0.000    0.000    0.000    0.000    0.000 
#
# Total GULP energy -67236.273206 kJ/mol
# GULP energy per Si atom -5603.022767 kJ/mol
# Density = 2.829083 g / cm^3
# Si number density = 28.355373 Si / 1000 Ang^3
#
#
#
# Elastic Constant Matrix: (Units=GPa)
#
#
# Indices 1 2 3 4 5 6 
#
# 1 119.6199 50.2706 47.7593 7.9687 5.6257 -36.5196
# 2 50.2706 100.4099 71.7960 -4.9133 -15.6378 -30.0561
# 3 47.7593 71.7960 220.8691 -20.6511 7.5090 -11.8313
# 4 7.9687 -4.9133 -20.6511 67.8043 -9.5039 -13.4074
# 5 5.6257 -15.6378 7.5090 -9.5039 63.9387 -3.1321
# 6 -36.5196 -30.0561 -11.8313 -13.4074 -3.1321 55.1058
#
#
#
# Elastic Compliance Matrix: (Units=1/GPa)
#
#
# Indices 1 2 3 4 5 6 
#
# 1 0.012328 -0.004206 -0.001077 -0.001321 -0.001928 0.005214
# 2 -0.004206 0.018838 -0.004768 0.002775 0.006317 0.007498
# 3 -0.001077 -0.004768 0.006380 0.001131 -0.001739 -0.001768
# 4 -0.001321 0.002775 0.001131 0.016960 0.003438 0.005203
# 5 -0.001928 0.006317 -0.001739 0.003438 0.018250 0.003668
# 6 0.005214 0.007498 -0.001768 0.005203 0.003668 0.026786
#
#
# Mechanical properties :
#
#
# Convention : Reuss Voigt Hill
#
# Bulk Modulus (GPa) = 57.32462 86.72788 72.02625
# Shear Modulus (GPa) = 39.85379 55.44129 47.64754
#
# Velocity S-wave (km/s) = 3.75308 4.42660 4.10368
# Velocity P-wave (km/s) = 6.24830 7.53517 6.92170
#
# Compressibility (1/GPa) = 0.01744451
#
# Stress axis : x y z
#
# Youngs Moduli (GPa) = 81.11726 53.08424 156.72930
#
# Poissons Ratio (x) = 0.22328 0.16882
# Poissons Ratio (y) = 0.34119 0.74723
# Poissons Ratio (z) = 0.08738 0.25309
#
# Static dielectric constant tensor:
#      x y z
#    x 2.358020 0.028270 -0.049020 
#    y 0.028270 2.223230 0.090550 
#    z -0.049020 0.090550 2.243880 
# 
# From -- ./inp_files/146032.got.cif
#   From: 2010.05.17/outbox.cif.g08.bks.cpg/sg2_74_cif.got.tgz:146032.got - 2010.06.03 11:33:40.
