data_PCOD9019085
_publ_section_title
;
Structure prediction by ZEFSAII (Michael W. Deem and Ramdas Pophale) SiO2 
 PCOD9019085
Probable space group: P -1
;
_chemical_formula_sum "Si O2"
_cell_formula_units_Z 12
_cell_length_a 5.203738
_cell_length_b 5.523801
_cell_length_c 25.219880
_cell_angle_alpha 125.768884
_cell_angle_beta 55.425886
_cell_angle_gamma 104.492979
_cell_volume 480.704255
_symmetry_space_group_name_H-M "P -1"
_symmetry_group_IT_number 2
_symmetry_cell_setting 'triclinic'
loop_
_space_group_symop_operation_xyz
x,y,z
-x,-y,-z
loop_
_atom_site_type_symbol
_atom_site_label
_atom_site_fract_x
_atom_site_fract_y
_atom_site_fract_z
Si Si1 0.689707 0.058786 0.670927
Si Si2 0.106628 0.159370 0.198836
Si Si3 0.735171 0.298763 0.484780
Si Si4 0.568234 0.586385 0.357369
Si Si5 0.431044 0.193629 0.825644
Si Si6 0.345030 0.836401 0.949544
O O1 0.585540 0.220117 0.648702
O O2 0.522866 0.263107 0.763387
O O3 0.559122 0.740218 0.659426
O O4 0.061489 0.956432 0.606682
O O5 0.410999 0.158906 0.126718
O O6 0.923484 0.464653 0.282949
O O7 0.245889 0.968637 0.208529
O O8 0.852224 0.007575 0.173918
O O9 0.500000 0.500000 0.500000
O O10 0.549246 0.242290 0.553182
O O11 0.000000 0.500000 0.500000
O O12 0.326434 0.480806 0.911029
O O13 0.500000 0.000000 0.000000
O O14 0.000000 0.000000 0.000000
#
# Coordination Sequence:
#
# PCOD9019085 Si02
#       6
#     2   2   2   2   2   2
#     4  10  23  43  73 106 149 197 247 302 364 434
#     4  11  26  46  73 106 146 194 245 305 375 447
#     4  10  21  44  68 106 150 194 246 300 358 429
#     4  10  23  43  73 106 149 197 247 302 364 434
#     4  11  26  46  73 106 146 194 245 305 375 447
#     4  12  28  46  76 107 144 187 244 312 380 454
#
# _framework density 24.963374000000002
#
# number of rings (size 3 to 8) (size 9 to 14) (size 15 to 20)
#    0.000    1.333    0.000    3.500   11.667    4.000 
#    0.000    6.667    0.000    0.000    0.000    0.000 
#    0.000    0.000    0.000    0.000    0.000    0.000 
#
# Total GULP energy -67127.237692 kJ/mol
# GULP energy per Si atom -5593.936474 kJ/mol
# Density = 2.490656 g / cm^3
# Si number density = 24.963374 Si / 1000 Ang^3
#
#
#
# Elastic Constant Matrix: (Units=GPa)
#
#
# Indices 1 2 3 4 5 6 
#
# 1 135.9686 31.3672 62.2190 34.6369 -9.4375 -19.6865
# 2 31.3672 87.6682 49.4490 8.7429 -0.8135 -16.6793
# 3 62.2190 49.4490 219.0282 22.5017 -7.6409 1.3836
# 4 34.6369 8.7429 22.5017 67.1797 5.3926 -2.7518
# 5 -9.4375 -0.8135 -7.6409 5.3926 68.1536 1.4648
# 6 -19.6865 -16.6793 1.3836 -2.7518 1.4648 65.6733
#
#
#
# Elastic Compliance Matrix: (Units=1/GPa)
#
#
# Indices 1 2 3 4 5 6 
#
# 1 0.010249 -0.001572 -0.002069 -0.004402 0.001463 0.002500
# 2 -0.001572 0.014138 -0.002788 0.000070 -0.000436 0.003191
# 3 -0.002069 -0.002788 0.005872 -0.000632 0.000420 -0.001488
# 4 -0.004402 0.000070 -0.000632 0.017501 -0.002053 -0.000509
# 5 0.001463 -0.000436 0.000420 -0.002053 0.015082 -0.000103
# 6 0.002500 0.003191 -0.001488 -0.000509 -0.000103 0.016799
#
#
# Mechanical properties :
#
#
# Convention : Reuss Voigt Hill
#
# Bulk Modulus (GPa) = 57.46899 80.97061 69.21980
# Shear Modulus (GPa) = 50.86585 60.17662 55.52124
#
# Velocity S-wave (km/s) = 4.51890 4.91511 4.72116
# Velocity P-wave (km/s) = 7.09215 8.04470 7.58340
#
# Compressibility (1/GPa) = 0.01740069
#
# Stress axis : x y z
#
# Youngs Moduli (GPa) = 97.57276 70.73368 170.30727
#
# Poissons Ratio (x) = 0.11118 0.35237
# Poissons Ratio (y) = 0.15337 0.47478
# Poissons Ratio (z) = 0.20188 0.19719
#
# Static dielectric constant tensor:
#      x y z
#    x 1.981770 0.126390 0.035230 
#    y 0.126390 2.145170 0.007170 
#    z 0.035230 0.007170 1.941070 
# 
# From -- ./inp_files/5267.got.cif
#   From: 2010.05.17/outbox.cif.g08.bks.cpg/sg2_3_cif.got.tgz:5267.got - 2010.06.03 11:33:40.
