data_PCOD9019508
_publ_section_title
;
Structure prediction by ZEFSAII (Michael W. Deem and Ramdas Pophale) SiO2 
 PCOD9019508
Probable space group: P -1
;
_chemical_formula_sum "Si O2"
_cell_formula_units_Z 12
_cell_length_a 9.073139
_cell_length_b 12.238184
_cell_length_c 9.002346
_cell_angle_alpha 124.669098
_cell_angle_beta 80.841611
_cell_angle_gamma 136.130618
_cell_volume 511.568051
_symmetry_space_group_name_H-M "P -1"
_symmetry_group_IT_number 2
_symmetry_cell_setting 'triclinic'
loop_
_space_group_symop_operation_xyz
x,y,z
-x,-y,-z
loop_
_atom_site_type_symbol
_atom_site_label
_atom_site_fract_x
_atom_site_fract_y
_atom_site_fract_z
Si Si1 0.424561 0.095052 0.268066
Si Si2 0.464318 0.357257 0.009341
Si Si3 0.295953 0.709217 0.940173
Si Si4 0.842089 0.764202 0.789808
Si Si5 0.968364 0.967945 0.655159
Si Si6 0.881658 0.494805 0.651839
O O1 0.547206 0.203653 0.170039
O O2 0.175884 0.999400 0.249241
O O3 0.603758 0.275805 0.504308
O O4 0.388479 0.912771 0.147042
O O5 0.500000 0.500000 0.000000
O O6 0.660189 0.383174 0.029571
O O7 0.397814 0.377591 0.192437
O O8 0.230281 0.127974 0.802455
O O9 0.023507 0.539750 0.805269
O O10 0.826879 0.758905 0.610336
O O11 0.936510 0.688219 0.770335
O O12 0.000000 0.000000 0.000000
O O13 0.000000 0.000000 0.500000
O O14 0.000000 0.500000 0.500000
#
# Coordination Sequence:
#
# PCOD9019508 Si02
#       6
#     2   2   2   2   2   2
#     4  10  22  42  73 105 136 188 236 292 360 421
#     4  11  25  44  71 102 136 192 239 286 359 425
#     4  10  21  44  73 101 142 185 234 297 361 421
#     4  10  22  44  72  96 141 193 233 287 354 422
#     4  11  25  43  66 103 144 182 237 294 349 418
#     4  10  23  39  71 109 135 180 244 286 358 428
#
# _framework density 23.457291000000001
#
# number of rings (size 3 to 8) (size 9 to 14) (size 15 to 20)
#    0.000    1.667    1.667    2.000   14.000    3.333 
#    0.000    5.833    0.000    0.000    0.000    0.000 
#    0.000    0.000    0.000    0.000    0.000    0.000 
#
# Total GULP energy -67011.810284 kJ/mol
# GULP energy per Si atom -5584.317524 kJ/mol
# Density = 2.340390 g / cm^3
# Si number density = 23.457291 Si / 1000 Ang^3
#
#
#
# Elastic Constant Matrix: (Units=GPa)
#
#
# Indices 1 2 3 4 5 6 
#
# 1 188.1657 44.0865 62.7789 0.5712 1.2480 -46.1632
# 2 44.0865 81.2136 33.3889 -20.4602 10.7020 -24.9914
# 3 62.7789 33.3889 102.4727 7.7150 24.3669 -5.9616
# 4 0.5712 -20.4602 7.7150 31.9577 -3.9044 -3.0752
# 5 1.2480 10.7020 24.3669 -3.9044 34.1515 -10.4653
# 6 -46.1632 -24.9914 -5.9616 -3.0752 -10.4653 36.1421
#
#
#
# Elastic Compliance Matrix: (Units=1/GPa)
#
#
# Indices 1 2 3 4 5 6 
#
# 1 0.016487 0.008910 -0.017102 0.015039 0.020187 0.031524
# 2 0.008910 0.034832 -0.021927 0.033892 0.020765 0.040746
# 3 -0.017102 -0.021927 0.035398 -0.030736 -0.034706 -0.043832
# 4 0.015039 0.033892 -0.030736 0.069603 0.035167 0.053679
# 5 0.020187 0.020765 -0.034706 0.035167 0.068348 0.057201
# 6 0.031524 0.040746 -0.043832 0.053679 0.057201 0.110008
#
#
# Mechanical properties :
#
#
# Convention : Reuss Voigt Hill
#
# Bulk Modulus (GPa) = 37.76712 72.48450 55.12581
# Shear Modulus (GPa) = 12.38420 35.89012 24.13716
#
# Velocity S-wave (km/s) = 2.30020 3.91579 3.21126
# Velocity P-wave (km/s) = 4.81559 7.17023 6.10746
#
# Compressibility (1/GPa) = 0.02647806
#
# Stress axis : x y z
#
# Youngs Moduli (GPa) = 60.65377 28.70942 28.25053
#
# Poissons Ratio (x) = -0.25581 0.48315
# Poissons Ratio (y) = -0.54045 0.61945
# Poissons Ratio (z) = 1.03733 0.62952
#
# Static dielectric constant tensor:
#      x y z
#    x 1.871940 0.026850 0.041850 
#    y 0.026850 1.930500 -0.013900 
#    z 0.041850 -0.013900 1.951240 
# 
# From -- ./inp_files/155077.got.cif
#   From: 2010.05.17/outbox.cif.g08.bks.cpg/sg2_78_cif.got.tgz:155077.got - 2010.06.03 11:33:40.
