data_PCOD9019623
_publ_section_title
;
Structure prediction by ZEFSAII (Michael W. Deem and Ramdas Pophale) SiO2 
 PCOD9019623
Probable space group: P -1
;
_chemical_formula_sum "Si O2"
_cell_formula_units_Z 14
_cell_length_a 12.044448
_cell_length_b 11.768767
_cell_length_c 11.567278
_cell_angle_alpha 43.423647
_cell_angle_beta 51.195471
_cell_angle_gamma 40.207330
_cell_volume 717.947710
_symmetry_space_group_name_H-M "P -1"
_symmetry_group_IT_number 2
_symmetry_cell_setting 'triclinic'
loop_
_space_group_symop_operation_xyz
x,y,z
-x,-y,-z
loop_
_atom_site_type_symbol
_atom_site_label
_atom_site_fract_x
_atom_site_fract_y
_atom_site_fract_z
Si Si1 0.096970 0.104863 0.397995
Si Si2 0.783251 0.535475 0.367386
Si Si3 0.120836 0.992059 0.717052
Si Si4 0.295951 0.647935 0.030039
Si Si5 0.020152 0.347240 0.696346
Si Si6 0.552999 0.132532 0.804688
Si Si7 0.259745 0.757882 0.231976
O O1 0.173914 0.037903 0.528099
O O2 0.942236 0.345571 0.330368
O O3 0.266393 0.016790 0.273012
O O4 0.000000 0.000000 0.500000
O O5 0.854055 0.657484 0.287104
O O6 0.606367 0.691436 0.298656
O O7 0.747746 0.422704 0.575537
O O8 0.091596 0.143190 0.728141
O O9 0.933189 0.041336 0.770916
O O10 0.240027 0.776349 0.855111
O O11 0.273673 0.755559 0.087412
O O12 0.165559 0.580225 0.181551
O O13 0.500000 0.500000 0.000000
O O14 0.000000 0.500000 0.500000
O O15 0.597583 0.237857 0.795189
O O16 0.500000 0.000000 0.000000
#
# Coordination Sequence:
#
# PCOD9019623 Si02
#       7
#     2   2   2   2   2   2   2
#     4  11  23  44  72  96 130 183 228 267 340 402
#     4  11  24  43  73  96 137 181 224 278 334 406
#     4  10  22  41  72  92 132 175 222 271 332 399
#     4  11  25  39  69 102 133 172 222 280 332 401
#     4  11  20  43  68  96 133 174 219 271 342 391
#     4  12  28  42  68 102 136 175 228 282 334 401
#     4  10  21  45  63  93 132 181 216 266 343 391
#
# _framework density 19.500026999999999
#
# number of rings (size 3 to 8) (size 9 to 14) (size 15 to 20)
#    0.000    1.143    7.143    2.143    6.000    1.714 
#    0.000    1.429    0.000    0.000    0.000    0.000 
#    0.000    0.000    0.000    0.000    0.000    0.000 
#
# Total GULP energy -78029.372595 kJ/mol
# GULP energy per Si atom -5573.526614 kJ/mol
# Density = 1.945564 g / cm^3
# Si number density = 19.500027 Si / 1000 Ang^3
#
#
#
# Elastic Constant Matrix: (Units=GPa)
#
#
# Indices 1 2 3 4 5 6 
#
# 1 156.6860 26.7758 28.7389 -5.9222 -5.5921 -8.6488
# 2 26.7758 60.7066 40.1256 9.4032 1.3732 -7.8183
# 3 28.7389 40.1256 73.2250 3.9942 -2.9889 -20.5120
# 4 -5.9222 9.4032 3.9942 31.9938 -7.2091 9.6702
# 5 -5.5921 1.3732 -2.9889 -7.2091 37.1413 -4.6558
# 6 -8.6488 -7.8183 -20.5120 9.6702 -4.6558 28.4191
#
#
#
# Elastic Compliance Matrix: (Units=1/GPa)
#
#
# Indices 1 2 3 4 5 6 
#
# 1 0.007270 -0.002681 -0.001571 0.002789 0.001565 -0.000351
# 2 -0.002681 0.028476 -0.014853 -0.007416 -0.004328 -0.001888
# 3 -0.001571 -0.014853 0.027617 -0.003699 0.003983 0.017280
# 4 0.002789 -0.007416 -0.003699 0.040880 0.006232 -0.016750
# 5 0.001565 -0.004328 0.003983 0.006232 0.029460 0.004866
# 6 -0.000351 -0.001888 0.017280 -0.016750 0.004866 0.053530
#
#
# Mechanical properties :
#
#
# Convention : Reuss Voigt Hill
#
# Bulk Modulus (GPa) = 39.75592 53.54424 46.65008
# Shear Modulus (GPa) = 21.38319 32.50934 26.94626
#
# Velocity S-wave (km/s) = 3.31505 4.08750 3.72137
# Velocity P-wave (km/s) = 5.92322 7.05656 6.51458
#
# Compressibility (1/GPa) = 0.02515349
#
# Stress axis : x y z
#
# Youngs Moduli (GPa) = 137.54564 35.11720 36.20945
#
# Poissons Ratio (x) = 0.09415 0.05689
# Poissons Ratio (y) = 0.36874 0.53782
# Poissons Ratio (z) = 0.21609 0.52160
#
# Static dielectric constant tensor:
#      x y z
#    x 1.756770 -0.037580 0.007660 
#    y -0.037580 1.923790 0.147180 
#    z 0.007660 0.147180 1.840380 
# 
# From -- ./inp_files/189685.got.cif
#   From: 2010.05.17/outbox.cif.g08.bks.cpg/sg2_95_cif.got.tgz:189685.got - 2010.06.03 11:33:40.
