data_PCOD9019917
_publ_section_title
;
Structure prediction by ZEFSAII (Michael W. Deem and Ramdas Pophale) SiO2 
 PCOD9019917
Probable space group: P -1
;
_chemical_formula_sum "Si O2"
_cell_formula_units_Z 16
_cell_length_a 10.485538
_cell_length_b 9.987108
_cell_length_c 9.592115
_cell_angle_alpha 41.310596
_cell_angle_beta 82.070501
_cell_angle_gamma 100.833094
_cell_volume 587.842509
_symmetry_space_group_name_H-M "P -1"
_symmetry_group_IT_number 2
_symmetry_cell_setting 'triclinic'
loop_
_space_group_symop_operation_xyz
x,y,z
-x,-y,-z
loop_
_atom_site_type_symbol
_atom_site_label
_atom_site_fract_x
_atom_site_fract_y
_atom_site_fract_z
Si Si1 0.980858 0.733541 0.621495
Si Si2 0.651355 0.524586 0.791203
Si Si3 0.897138 0.785881 0.877017
Si Si4 0.740615 0.525911 0.476090
Si Si5 0.600111 0.329989 0.238744
Si Si6 0.582324 0.073983 0.704437
Si Si7 0.028573 0.703859 0.185928
Si Si8 0.333517 0.087382 0.923080
O O1 0.817360 0.705607 0.649631
O O2 0.994684 0.741393 0.780510
O O3 0.979569 0.512496 0.727519
O O4 0.095082 0.973109 0.357191
O O5 0.658565 0.448937 0.693238
O O6 0.540076 0.630613 0.739744
O O7 0.611203 0.329098 0.068115
O O8 0.743222 0.564445 0.069835
O O9 0.971648 0.821703 0.986918
O O10 0.705037 0.317300 0.545434
O O11 0.911807 0.639327 0.376356
O O12 0.688168 0.695148 0.282057
O O13 0.592375 0.124448 0.497645
O O14 0.443997 0.074021 0.803414
O O15 0.619251 0.907410 0.926835
O O16 0.184358 0.868179 0.087878
#
# Coordination Sequence:
#
# PCOD9019917 Si02
#       8
#     2   2   2   2   2   2   2   2
#     4  10  23  44  72 103 145 187 238 294 363 431
#     4  10  22  41  76 102 142 186 233 305 357 425
#     4  10  22  44  73 105 139 191 232 296 368 434
#     4  12  24  45  72 106 147 191 241 301 360 426
#     4  10  21  45  72 107 140 186 242 296 372 421
#     4  11  24  46  72 104 145 189 245 305 357 437
#     4  12  25  44  69 105 145 187 243 298 353 431
#     4  11  26  43  72 106 146 192 244 294 367 425
#
# _framework density 27.218174000000001
#
# number of rings (size 3 to 8) (size 9 to 14) (size 15 to 20)
#    0.000    1.250    2.500    2.625    0.000    3.000 
#    0.000    0.000    0.000    9.000    0.000    0.000 
#    0.000    0.000    0.000    0.000    0.000    0.000 
#
# Total GULP energy -89741.304803 kJ/mol
# GULP energy per Si atom -5608.831550 kJ/mol
# Density = 2.715622 g / cm^3
# Si number density = 27.218174 Si / 1000 Ang^3
#
#
#
# Elastic Constant Matrix: (Units=GPa)
#
#
# Indices 1 2 3 4 5 6 
#
# 1 114.4292 -0.4910 47.9035 10.0935 -23.1277 15.8316
# 2 -0.4910 83.6256 56.2187 39.3520 7.3301 3.7168
# 3 47.9035 56.2187 194.9048 22.7697 -9.8504 7.5120
# 4 10.0935 39.3520 22.7697 63.0227 -1.0559 -4.3663
# 5 -23.1277 7.3301 -9.8504 -1.0559 42.6849 -7.4466
# 6 15.8316 3.7168 7.5120 -4.3663 -7.4466 28.7990
#
#
#
# Elastic Compliance Matrix: (Units=1/GPa)
#
#
# Indices 1 2 3 4 5 6 
#
# 1 0.012007 0.003738 -0.003204 -0.003428 0.004042 -0.005722
# 2 0.003738 0.023000 -0.005977 -0.013347 -0.004808 -0.006731
# 3 -0.003204 -0.005977 0.007468 0.001648 0.001257 0.001160
# 4 -0.003428 -0.013347 0.001648 0.024731 0.002760 0.007640
# 5 0.004042 -0.004808 0.001257 0.002760 0.027791 0.005675
# 6 -0.005722 -0.006731 0.001160 0.007640 0.005675 0.041061
#
#
# Mechanical properties :
#
#
# Convention : Reuss Voigt Hill
#
# Bulk Modulus (GPa) = 31.65699 66.69135 49.17417
# Shear Modulus (GPa) = 31.75116 46.18985 38.97051
#
# Velocity S-wave (km/s) = 3.41917 4.12396 3.78800
# Velocity P-wave (km/s) = 5.21955 6.87254 6.10228
#
# Compressibility (1/GPa) = 0.03158860
#
# Stress axis : x y z
#
# Youngs Moduli (GPa) = 83.28326 43.47906 133.89663
#
# Poissons Ratio (x) = -0.16251 0.42899
# Poissons Ratio (y) = -0.31128 0.80029
# Poissons Ratio (z) = 0.26683 0.25987
#
# Static dielectric constant tensor:
#      x y z
#    x 2.082050 0.048130 0.005800 
#    y 0.048130 2.120080 0.013550 
#    z 0.005800 0.013550 2.141810 
# 
# From -- ./inp_files/432297.got.cif
#   From: 2010.05.17/outbox.cif.g08.bks.cpg/sg2_217_cif.got.tgz:432297.got - 2010.06.03 11:33:40.
