data_PCOD9019653
_publ_section_title
;
Structure prediction by ZEFSAII (Michael W. Deem and Ramdas Pophale) SiO2 
 PCOD9019653
Probable space group: P -1
;
_chemical_formula_sum "Si O2"
_cell_formula_units_Z 14
_cell_length_a 9.080131
_cell_length_b 23.792329
_cell_length_c 5.153537
_cell_angle_alpha 119.033577
_cell_angle_beta 58.180039
_cell_angle_gamma 142.696067
_cell_volume 568.616408
_symmetry_space_group_name_H-M "P -1"
_symmetry_group_IT_number 2
_symmetry_cell_setting 'triclinic'
loop_
_space_group_symop_operation_xyz
x,y,z
-x,-y,-z
loop_
_atom_site_type_symbol
_atom_site_label
_atom_site_fract_x
_atom_site_fract_y
_atom_site_fract_z
Si Si1 0.910311 0.923100 0.705018
Si Si2 0.541571 0.277209 0.212381
Si Si3 0.582555 0.171471 0.276442
Si Si4 0.980203 0.730268 0.525546
Si Si5 0.668190 0.533426 0.168153
Si Si6 0.275059 0.913912 0.338184
Si Si7 0.533360 0.359942 0.921544
O O1 0.729829 0.827333 0.825824
O O2 0.718304 0.896006 0.598622
O O3 0.126324 0.935508 0.422994
O O4 0.000000 0.000000 0.000000
O O5 0.668930 0.249052 0.162784
O O6 0.624483 0.335652 0.007147
O O7 0.519753 0.322044 0.570496
O O8 0.772655 0.229514 0.466077
O O9 0.617903 0.107622 0.014518
O O10 0.083456 0.817868 0.464004
O O11 0.747707 0.691164 0.841188
O O12 0.500000 0.500000 0.500000
O O13 0.721046 0.471612 0.980965
O O14 0.869072 0.643543 0.259090
O O15 0.500000 0.500000 0.000000
O O16 0.500000 0.000000 0.500000
#
# Coordination Sequence:
#
# PCOD9019653 Si02
#       7
#     2   2   2   2   2   2   2
#     4  10  21  45  65 102 144 189 237 302 357 423
#     4  10  23  42  70  98 145 182 236 293 356 414
#     4  10  25  40  69 103 141 189 239 296 363 420
#     4  11  24  41  69 105 144 187 241 302 352 438
#     4  10  23  40  71 110 143 186 242 295 359 429
#     4  12  23  44  72  99 143 190 246 292 360 431
#     4  11  21  44  73 103 138 194 236 292 362 425
#
# _framework density 24.621168000000001
#
# number of rings (size 3 to 8) (size 9 to 14) (size 15 to 20)
#    0.857    0.571    2.857    2.571    6.000    0.571 
#    0.000    2.857    0.000    0.000    0.000    0.000 
#    0.000    0.000    0.000    0.000    0.000    0.000 
#
# Total GULP energy -78240.618255 kJ/mol
# GULP energy per Si atom -5588.615590 kJ/mol
# Density = 2.456513 g / cm^3
# Si number density = 24.621168 Si / 1000 Ang^3
#
#
#
# Elastic Constant Matrix: (Units=GPa)
#
#
# Indices 1 2 3 4 5 6 
#
# 1 185.3262 54.8762 57.7242 19.5719 -6.1575 5.6185
# 2 54.8762 110.2414 59.1500 39.8335 -4.5685 3.5679
# 3 57.7242 59.1500 144.2139 44.6346 -1.6393 9.6855
# 4 19.5719 39.8335 44.6346 56.4242 0.7092 -5.0858
# 5 -6.1575 -4.5685 -1.6393 0.7092 48.8329 0.5291
# 6 5.6185 3.5679 9.6855 -5.0858 0.5291 52.8129
#
#
#
# Elastic Compliance Matrix: (Units=1/GPa)
#
#
# Indices 1 2 3 4 5 6 
#
# 1 0.006684 -0.002665 -0.001895 0.001047 0.000516 -0.000088
# 2 -0.002665 0.014502 -0.002504 -0.007432 0.001055 -0.000963
# 3 -0.001895 -0.002504 0.010833 -0.006345 0.000007 -0.002227
# 4 0.001047 -0.007432 -0.006345 0.028026 -0.001230 0.004266
# 5 0.000516 0.001055 0.000007 -0.001230 0.020665 -0.000453
# 6 -0.000088 -0.000963 -0.002227 0.004266 -0.000453 0.019833
#
#
# Mechanical properties :
#
#
# Convention : Reuss Voigt Hill
#
# Bulk Modulus (GPa) = 55.89307 87.03139 71.46223
# Shear Modulus (GPa) = 41.44746 49.48273 45.46510
#
# Velocity S-wave (km/s) = 4.10739 4.48790 4.30185
# Velocity P-wave (km/s) = 6.72642 7.89177 7.33228
#
# Compressibility (1/GPa) = 0.01789131
#
# Stress axis : x y z
#
# Youngs Moduli (GPa) = 149.60254 68.95799 92.30808
#
# Poissons Ratio (x) = 0.18376 0.17491
# Poissons Ratio (y) = 0.39867 0.23116
# Poissons Ratio (z) = 0.28348 0.17269
#
# Static dielectric constant tensor:
#      x y z
#    x 1.991660 -0.060660 -0.026660 
#    y -0.060660 2.195470 -0.068670 
#    z -0.026660 -0.068670 1.972010 
# 
# From -- ./inp_files/56691.got.cif
#   From: 2010.05.17/outbox.cif.g08.bks.cpg/sg2_29_cif.got.tgz:56691.got - 2010.06.03 11:33:40.
