data_PCOD9019888
_publ_section_title
;
Structure prediction by ZEFSAII (Michael W. Deem and Ramdas Pophale) SiO2 
 PCOD9019888
Probable space group: P -1
;
_chemical_formula_sum "Si O2"
_cell_formula_units_Z 16
_cell_length_a 23.524120
_cell_length_b 24.240128
_cell_length_c 9.694681
_cell_angle_alpha 26.559780
_cell_angle_beta 35.267344
_cell_angle_gamma 17.243268
_cell_volume 702.291729
_symmetry_space_group_name_H-M "P -1"
_symmetry_group_IT_number 2
_symmetry_cell_setting 'triclinic'
loop_
_space_group_symop_operation_xyz
x,y,z
-x,-y,-z
loop_
_atom_site_type_symbol
_atom_site_label
_atom_site_fract_x
_atom_site_fract_y
_atom_site_fract_z
Si Si1 0.657095 0.199504 0.629971
Si Si2 0.064957 0.757972 0.632118
Si Si3 0.219130 0.103276 0.674335
Si Si4 0.304652 0.454810 0.586160
Si Si5 0.810008 0.648961 0.618380
Si Si6 0.518321 0.010700 0.724850
Si Si7 0.218739 0.706750 0.688607
Si Si8 0.772917 0.512397 0.621695
O O1 0.481729 0.326371 0.608047
O O2 0.628047 0.366213 0.381887
O O3 0.844914 0.003929 0.587067
O O4 0.707678 0.062817 0.972749
O O5 0.105977 0.710551 0.493466
O O6 0.205886 0.700952 0.563174
O O7 0.148537 0.534494 0.011739
O O8 0.206769 0.250007 0.441034
O O9 0.004132 0.293018 0.628159
O O10 0.364384 0.985970 0.526167
O O11 0.296369 0.496483 0.348350
O O12 0.352051 0.255651 0.925214
O O13 0.618785 0.863004 0.420982
O O14 0.000000 0.500000 0.500000
O O15 0.352994 0.225392 0.688691
O O16 0.231300 0.562479 0.062592
O O17 0.000000 0.000000 0.500000
#
# Coordination Sequence:
#
# PCOD9019888 Si02
#       8
#     2   2   2   2   2   2   2   2
#     4  11  23  41  69  95 124 169 220 269 313 371
#     4  11  21  41  66  95 128 167 216 266 309 384
#     4  12  22  38  69  95 126 172 219 257 317 381
#     4  12  27  40  64 100 136 167 206 261 337 383
#     4  12  17  35  66  94 125 165 211 266 308 366
#     4  12  23  39  64  98 134 168 213 254 320 400
#     4  10  21  45  71  91 122 169 227 269 305 373
#     4  12  26  45  62  96 137 168 209 272 319 375
#
# _framework density 22.782554999999999
#
# number of rings (size 3 to 8) (size 9 to 14) (size 15 to 20)
#    0.000    0.500    8.750    1.500    0.000    2.500 
#    0.000    2.500    0.000    0.000    0.000    0.000 
#    0.000    0.000    0.000    0.000    0.000    0.000 
#
# Total GULP energy -89293.974519 kJ/mol
# GULP energy per Si atom -5580.873407 kJ/mol
# Density = 2.273070 g / cm^3
# Si number density = 22.782555 Si / 1000 Ang^3
#
#
#
# Elastic Constant Matrix: (Units=GPa)
#
#
# Indices 1 2 3 4 5 6 
#
# 1 104.3786 8.6901 2.5951 5.4220 -4.2615 5.5649
# 2 8.6901 68.5949 -3.8749 6.7478 -0.5435 -14.1947
# 3 2.5951 -3.8749 10.8652 -1.9682 -8.9425 -6.4657
# 4 5.4220 6.7478 -1.9682 19.0028 2.5053 -3.9864
# 5 -4.2615 -0.5435 -8.9425 2.5053 30.8156 4.4136
# 6 5.5649 -14.1947 -6.4657 -3.9864 4.4136 41.1064
#
#
#
# Elastic Compliance Matrix: (Units=1/GPa)
#
#
# Indices 1 2 3 4 5 6 
#
# 1 0.010255 -0.001918 -0.005212 -0.003557 0.000631 -0.003283
# 2 -0.001918 0.017503 0.013259 -0.003064 0.003028 0.007767
# 3 -0.005212 0.013259 0.146047 0.012335 0.037247 0.025453
# 4 -0.003557 -0.003064 0.012335 0.057887 -0.002714 0.007269
# 5 0.000631 0.003028 0.037247 -0.002714 0.043349 0.001901
# 6 -0.003283 0.007767 0.025453 0.007269 0.001901 0.031958
#
#
# Mechanical properties :
#
#
# Convention : Reuss Voigt Hill
#
# Bulk Modulus (GPa) = 5.37450 22.07327 13.72389
# Shear Modulus (GPa) = 14.01492 29.94686 21.98089
#
# Velocity S-wave (km/s) = 2.48293 3.62949 3.10951
# Velocity P-wave (km/s) = 3.25332 5.22245 4.35075
#
# Compressibility (1/GPa) = 0.18606372
#
# Stress axis : x y z
#
# Youngs Moduli (GPa) = 97.50981 57.13274 6.84711
#
# Poissons Ratio (x) = 0.10959 0.03569
# Poissons Ratio (y) = 0.18704 -0.09079
# Poissons Ratio (z) = 0.50823 -0.75754
#
# Static dielectric constant tensor:
#      x y z
#    x 1.819990 0.047800 0.014830 
#    y 0.047800 2.146440 0.131390 
#    z 0.014830 0.131390 1.929070 
# 
# From -- ./inp_files/355407.got.cif
#   From: 2010.05.17/outbox.cif.g08.bks.cpg/sg2_178_cif.got.tgz:355407.got - 2010.06.03 11:33:40.
