data_PCOD9019602
_publ_section_title
;
Structure prediction by ZEFSAII (Michael W. Deem and Ramdas Pophale) SiO2 
 PCOD9019602
Probable space group: P -1
;
_chemical_formula_sum "Si O2"
_cell_formula_units_Z 12
_cell_length_a 8.385499
_cell_length_b 9.035057
_cell_length_c 7.163265
_cell_angle_alpha 91.791363
_cell_angle_beta 54.382938
_cell_angle_gamma 88.600526
_cell_volume 440.363975
_symmetry_space_group_name_H-M "P -1"
_symmetry_group_IT_number 2
_symmetry_cell_setting 'triclinic'
loop_
_space_group_symop_operation_xyz
x,y,z
-x,-y,-z
loop_
_atom_site_type_symbol
_atom_site_label
_atom_site_fract_x
_atom_site_fract_y
_atom_site_fract_z
Si Si1 0.754831 0.095145 0.164838
Si Si2 0.741459 0.103049 0.737972
Si Si3 0.416509 0.369874 0.928968
Si Si4 0.187407 0.459520 0.735753
Si Si5 0.012681 0.733451 0.701278
Si Si6 0.328168 0.157784 0.501388
O O1 0.930963 0.171460 0.150999
O O2 0.556004 0.197154 0.340498
O O3 0.311892 0.046442 0.334967
O O4 0.781746 0.079851 0.926636
O O5 0.924501 0.167543 0.508948
O O6 0.565102 0.226509 0.831841
O O7 0.207174 0.317571 0.145793
O O8 0.500000 0.500000 0.000000
O O9 0.364834 0.434894 0.760846
O O10 0.162536 0.589022 0.606792
O O11 0.190316 0.304299 0.619670
O O12 0.000000 0.500000 0.000000
O O13 0.710095 0.944412 0.296641
#
# Coordination Sequence:
#
# PCOD9019602 Si02
#       6
#     2   2   2   2   2   2
#     4  10  21  44  77 111 151 198 249 309 375 446
#     4  11  24  46  77 115 154 197 248 310 376 447
#     4  11  24  44  75 110 147 197 253 309 374 447
#     4  10  22  45  75 106 148 197 246 311 377 440
#     4  10  24  46  75 111 150 196 253 309 375 446
#     4  10  22  44  79 111 149 202 252 304 375 450
#
# _framework density 27.250188000000001
#
# number of rings (size 3 to 8) (size 9 to 14) (size 15 to 20)
#    0.000    1.667    0.000    4.500    0.000    4.667 
#    0.000   32.500    0.000   49.000    0.000    0.000 
#    0.000    0.000    0.000    0.000    0.000    0.000 
#
# Total GULP energy -67444.184465 kJ/mol
# GULP energy per Si atom -5620.348705 kJ/mol
# Density = 2.718817 g / cm^3
# Si number density = 27.250188 Si / 1000 Ang^3
#
#
#
# Elastic Constant Matrix: (Units=GPa)
#
#
# Indices 1 2 3 4 5 6 
#
# 1 171.2390 89.0528 77.7055 16.1855 6.8596 12.1583
# 2 89.0528 159.7102 78.4332 16.4047 2.3023 18.4866
# 3 77.7055 78.4332 164.1271 8.3299 -1.1053 17.5654
# 4 16.1855 16.4047 8.3299 63.9693 -5.4047 -7.4701
# 5 6.8596 2.3023 -1.1053 -5.4047 71.7364 -0.4291
# 6 12.1583 18.4866 17.5654 -7.4701 -0.4291 66.6226
#
#
#
# Elastic Compliance Matrix: (Units=1/GPa)
#
#
# Indices 1 2 3 4 5 6 
#
# 1 0.009013 -0.003687 -0.002443 -0.001102 -0.000865 -0.000107
# 2 -0.003687 0.010026 -0.002808 -0.001463 -0.000132 -0.001534
# 3 -0.002443 -0.002808 0.008701 0.000121 0.000461 -0.001052
# 4 -0.001102 -0.001463 0.000121 0.016678 0.001425 0.002454
# 5 -0.000865 -0.000132 0.000461 0.001425 0.014143 0.000324
# 6 -0.000107 -0.001534 -0.001052 0.002454 0.000324 0.016010
#
#
# Mechanical properties :
#
#
# Convention : Reuss Voigt Hill
#
# Bulk Modulus (GPa) = 101.39648 109.49549 105.44598
# Shear Modulus (GPa) = 52.22743 57.12464 54.67603
#
# Velocity S-wave (km/s) = 4.38264 4.58351 4.48420
# Velocity P-wave (km/s) = 7.93097 8.26318 8.09878
#
# Compressibility (1/GPa) = 0.00986228
#
# Stress axis : x y z
#
# Youngs Moduli (GPa) = 110.95663 99.74006 114.92826
#
# Poissons Ratio (x) = 0.36778 0.28081
# Poissons Ratio (y) = 0.40914 0.32272
# Poissons Ratio (z) = 0.27110 0.28007
#
# Static dielectric constant tensor:
#      x y z
#    x 2.168040 -0.008010 -0.021540 
#    y -0.008010 2.098060 -0.012370 
#    z -0.021540 -0.012370 2.131900 
# 
# From -- ./inp_files/163177.got.cif
#   From: 2010.05.17/outbox.cif.g08.bks.cpg/sg2_82_cif.got.tgz:163177.got - 2010.06.03 11:33:40.
