data_PCOD9019927
_publ_section_title
;
Structure prediction by ZEFSAII (Michael W. Deem and Ramdas Pophale) SiO2 
 PCOD9019927
Probable space group: P -1
;
_chemical_formula_sum "Si O2"
_cell_formula_units_Z 14
_cell_length_a 16.343897
_cell_length_b 5.076947
_cell_length_c 9.045352
_cell_angle_alpha 78.761495
_cell_angle_beta 60.628966
_cell_angle_gamma 103.071600
_cell_volume 594.350247
_symmetry_space_group_name_H-M "P -1"
_symmetry_group_IT_number 2
_symmetry_cell_setting 'triclinic'
loop_
_space_group_symop_operation_xyz
x,y,z
-x,-y,-z
loop_
_atom_site_type_symbol
_atom_site_label
_atom_site_fract_x
_atom_site_fract_y
_atom_site_fract_z
Si Si1 0.693380 0.206136 0.045421
Si Si2 0.996308 0.300949 0.161310
Si Si3 0.669603 0.750420 0.356696
Si Si4 0.776525 0.847805 0.797370
Si Si5 0.814501 0.780059 0.456973
Si Si6 0.025106 0.781878 0.288096
Si Si7 0.480351 0.743794 0.661199
O O1 0.576342 0.182519 0.159087
O O2 0.711493 0.058188 0.198700
O O3 0.755341 0.547963 0.935011
O O4 0.719044 0.027469 0.911182
O O5 0.046166 0.520082 0.226501
O O6 0.879943 0.115608 0.324952
O O7 0.041448 0.051144 0.131018
O O8 0.000000 0.500000 0.000000
O O9 0.753818 0.662116 0.373064
O O10 0.589896 0.726076 0.563068
O O11 0.602006 0.535835 0.314467
O O12 0.749202 0.762737 0.661693
O O13 0.895527 0.060641 0.673368
O O14 0.904950 0.673586 0.434026
O O15 0.500000 0.000000 0.500000
#
# Coordination Sequence:
#
# PCOD9019927 Si02
#       7
#     2   2   2   2   2   2   2
#     4  11  24  42  70  95 130 172 223 261 326 394
#     4  10  23  39  62  92 129 168 223 273 311 368
#     4  10  21  45  72  98 126 170 218 276 322 389
#     4  12  25  42  64  97 135 182 212 264 324 394
#     4  10  27  40  66  97 137 167 225 269 326 373
#     4  10  24  40  62  86 135 177 215 252 325 373
#     4   9  20  42  74  97 127 163 220 268 336 385
#
# _framework density 23.555136000000001
#
# number of rings (size 3 to 8) (size 9 to 14) (size 15 to 20)
#    0.857    0.857    1.429    1.714    6.000    2.857 
#    0.000    1.429    0.000    0.000    0.000    0.000 
#    0.000    0.000    0.000    0.000    0.000    0.000 
#
# Total GULP energy -78043.593899 kJ/mol
# GULP energy per Si atom -5574.542421 kJ/mol
# Density = 2.350152 g / cm^3
# Si number density = 23.555136 Si / 1000 Ang^3
#
#
#
# Elastic Constant Matrix: (Units=GPa)
#
#
# Indices 1 2 3 4 5 6 
#
# 1 46.7533 9.4384 34.5817 -4.0776 5.6817 -3.4670
# 2 9.4384 94.1813 20.2191 -9.5602 -7.3227 -19.1892
# 3 34.5817 20.2191 92.8240 4.2815 -10.5288 -12.3005
# 4 -4.0776 -9.5602 4.2815 31.8902 -6.7447 -8.8409
# 5 5.6817 -7.3227 -10.5288 -6.7447 20.6099 13.7187
# 6 -3.4670 -19.1892 -12.3005 -8.8409 13.7187 26.3170
#
#
#
# Elastic Compliance Matrix: (Units=1/GPa)
#
#
# Indices 1 2 3 4 5 6 
#
# 1 0.036911 0.000864 -0.015252 0.005437 -0.024514 0.012969
# 2 0.000864 0.014400 -0.002334 0.007932 -0.002803 0.013649
# 3 -0.015252 -0.002334 0.018228 -0.003114 0.014033 -0.003553
# 4 0.005437 0.007932 -0.003114 0.040028 0.000796 0.018077
# 5 -0.024514 -0.002803 0.014033 0.000796 0.092921 -0.046886
# 6 0.012969 0.013649 -0.003553 0.018077 -0.046886 0.078512
#
#
# Mechanical properties :
#
#
# Convention : Reuss Voigt Hill
#
# Bulk Modulus (GPa) = 27.70442 40.24856 33.97649
# Shear Modulus (GPa) = 15.31505 27.06472 21.18988
#
# Velocity S-wave (km/s) = 2.55263 3.39336 3.00256
# Velocity P-wave (km/s) = 4.52492 5.69888 5.14549
#
# Compressibility (1/GPa) = 0.03609532
#
# Stress axis : x y z
#
# Youngs Moduli (GPa) = 27.09232 69.44262 54.86010
#
# Poissons Ratio (x) = -0.05997 0.83673
# Poissons Ratio (y) = -0.02340 0.12802
# Poissons Ratio (z) = 0.41321 0.16205
#
# Static dielectric constant tensor:
#      x y z
#    x 1.954040 -0.036740 -0.071410 
#    y -0.036740 1.960850 -0.007690 
#    z -0.071410 -0.007690 1.959110 
# 
# From -- ./inp_files/322450.got.cif
#   From: 2010.05.17/outbox.cif.g08.bks.cpg/sg2_162_cif.got.tgz:322450.got - 2010.06.03 11:33:40.
