data_PCOD9019742
_publ_section_title
;
Structure prediction by ZEFSAII (Michael W. Deem and Ramdas Pophale) SiO2 
 PCOD9019742
Probable space group: P -1
;
_chemical_formula_sum "Si O2"
_cell_formula_units_Z 16
_cell_length_a 11.892978
_cell_length_b 6.566714
_cell_length_c 17.065546
_cell_angle_alpha 105.432811
_cell_angle_beta 132.888339
_cell_angle_gamma 46.035399
_cell_volume 646.814959
_symmetry_space_group_name_H-M "P -1"
_symmetry_group_IT_number 2
_symmetry_cell_setting 'triclinic'
loop_
_space_group_symop_operation_xyz
x,y,z
-x,-y,-z
loop_
_atom_site_type_symbol
_atom_site_label
_atom_site_fract_x
_atom_site_fract_y
_atom_site_fract_z
Si Si1 0.301933 0.668138 0.283073
Si Si2 0.290453 0.039835 0.756051
Si Si3 0.921672 0.127070 0.638319
Si Si4 0.032443 0.212858 0.985355
Si Si5 0.460334 0.831847 0.055443
Si Si6 0.410598 0.243768 0.550955
Si Si7 0.706082 0.552619 0.990910
Si Si8 0.244391 0.050678 0.557620
O O1 0.171890 0.842933 0.319638
O O2 0.134128 0.716723 0.151059
O O3 0.406545 0.790983 0.323154
O O4 0.510821 0.306731 0.366181
O O5 0.342703 0.232710 0.815104
O O6 0.530118 0.694138 0.851208
O O7 0.130699 0.071125 0.740657
O O8 0.199283 0.101802 0.632981
O O9 0.745476 0.442682 0.539046
O O10 0.939557 0.901158 0.570704
O O11 0.941319 0.250158 0.034163
O O12 0.000000 0.500000 0.000000
O O13 0.286642 0.914028 0.045784
O O14 0.405731 0.412022 0.977496
O O15 0.310045 0.173197 0.980124
O O16 0.500000 0.000000 0.500000
O O17 0.280417 0.236102 0.551688
#
# Coordination Sequence:
#
# PCOD9019742 Si02
#       8
#     2   2   2   2   2   2   2   2
#     4  11  20  35  62  87 109 153 196 231 293 351
#     4  10  19  33  51  84 116 150 189 234 294 343
#     4  11  22  33  60  84 111 154 196 232 290 353
#     4  10  17  30  56  88 114 147 193 235 290 347
#     4   8  16  30  49  82 120 142 189 244 282 347
#     4  11  21  39  56  84 119 146 197 246 282 341
#     4   8  15  28  48  79 117 141 182 242 280 334
#     4  11  20  38  56  82 118 150 187 245 284 344
#
# _framework density 24.736597
#
# number of rings (size 3 to 8) (size 9 to 14) (size 15 to 20)
#    0.750    1.250    3.750    1.875    1.750    0.500 
#    0.000    0.000    0.000    3.000    0.000    1.750 
#    0.000    0.000    0.000    0.000    0.000    0.000 
#
# Total GULP energy -89315.707478 kJ/mol
# GULP energy per Si atom -5582.231717 kJ/mol
# Density = 2.468030 g / cm^3
# Si number density = 24.736597 Si / 1000 Ang^3
#
#
#
# Elastic Constant Matrix: (Units=GPa)
#
#
# Indices 1 2 3 4 5 6 
#
# 1 147.3947 33.1172 18.4217 14.0723 16.3548 -17.1527
# 2 33.1172 75.9371 32.5260 13.6633 0.0175 -14.1437
# 3 18.4217 32.5260 134.6693 26.4085 15.8666 -1.4034
# 4 14.0723 13.6633 26.4085 24.3037 -1.4257 -1.6295
# 5 16.3548 0.0175 15.8666 -1.4257 38.2046 10.2846
# 6 -17.1527 -14.1437 -1.4034 -1.6295 10.2846 44.8280
#
#
#
# Elastic Compliance Matrix: (Units=1/GPa)
#
#
# Indices 1 2 3 4 5 6 
#
# 1 0.008722 -0.002744 0.001060 -0.004732 -0.005305 0.003550
# 2 -0.002744 0.017168 -0.002996 -0.004480 0.001212 0.003832
# 3 0.001060 -0.002996 0.010811 -0.010957 -0.005531 0.000670
# 4 -0.004732 -0.004480 -0.010957 0.058637 0.009755 -0.003674
# 5 -0.005305 0.001212 -0.005531 0.009755 0.033575 -0.009169
# 6 0.003550 0.003832 0.000670 -0.003674 -0.009169 0.026866
#
#
# Mechanical properties :
#
#
# Convention : Reuss Voigt Hill
#
# Bulk Modulus (GPa) = 36.57360 58.45900 47.51630
# Shear Modulus (GPa) = 28.69406 39.72967 34.21186
#
# Velocity S-wave (km/s) = 3.40955 4.01198 3.72297
# Velocity P-wave (km/s) = 5.50612 6.71902 6.14258
#
# Compressibility (1/GPa) = 0.02734213
#
# Stress axis : x y z
#
# Youngs Moduli (GPa) = 114.65142 58.24777 92.49450
#
# Poissons Ratio (x) = 0.15982 -0.09800
# Poissons Ratio (y) = 0.31458 0.27707
# Poissons Ratio (z) = -0.12148 0.17448
#
# Static dielectric constant tensor:
#      x y z
#    x 1.986030 -0.017250 0.056110 
#    y -0.017250 2.014850 0.030050 
#    z 0.056110 0.030050 1.985370 
# 
# From -- ./inp_files/592589.got.cif
#   From: 2010.05.17/outbox.cif.g08.bks.cpg/sg2_297_cif.got.tgz:592589.got - 2010.06.03 11:33:40.
