data_PCOD9019593
_publ_section_title
;
Structure prediction by ZEFSAII (Michael W. Deem and Ramdas Pophale) SiO2 
 PCOD9019593
Probable space group: P -1
;
_chemical_formula_sum "Si O2"
_cell_formula_units_Z 16
_cell_length_a 15.756422
_cell_length_b 7.141907
_cell_length_c 6.952046
_cell_angle_alpha 89.408775
_cell_angle_beta 131.942250
_cell_angle_gamma 86.716138
_cell_volume 579.703129
_symmetry_space_group_name_H-M "P -1"
_symmetry_group_IT_number 2
_symmetry_cell_setting 'triclinic'
loop_
_space_group_symop_operation_xyz
x,y,z
-x,-y,-z
loop_
_atom_site_type_symbol
_atom_site_label
_atom_site_fract_x
_atom_site_fract_y
_atom_site_fract_z
Si Si1 0.611841 0.458981 0.032331
Si Si2 0.315421 0.938087 0.747521
Si Si3 0.345866 0.636538 0.354777
Si Si4 0.300303 0.203399 0.354123
Si Si5 0.435007 0.162881 0.185094
Si Si6 0.923172 0.871695 0.503624
Si Si7 0.058643 0.327059 0.832982
Si Si8 0.907143 0.272221 0.932936
O O1 0.618004 0.391214 0.815998
O O2 0.500000 0.500000 0.000000
O O3 0.683283 0.287571 0.249923
O O4 0.645859 0.670425 0.047401
O O5 0.317775 0.069929 0.563743
O O6 0.424166 0.980825 0.042817
O O7 0.201133 0.024226 0.676157
O O8 0.223225 0.754694 0.204422
O O9 0.329978 0.423841 0.413962
O O10 0.448498 0.739622 0.604403
O O11 0.382719 0.125109 0.311078
O O12 0.169844 0.203269 0.084560
O O13 0.930004 0.688028 0.379325
O O14 0.987677 0.846791 0.803355
O O15 0.000000 0.000000 0.500000
O O16 0.078567 0.527337 0.949102
O O17 0.941634 0.276809 0.760598
#
# Coordination Sequence:
#
# PCOD9019593 Si02
#       8
#     2   2   2   2   2   2   2   2
#     4  11  27  53  75 112 155 208 272 326 390 472
#     4  12  27  50  83 119 156 212 263 331 407 466
#     4  10  24  50  75 117 164 213 257 329 396 468
#     4  10  21  47  77 116 160 207 268 323 392 474
#     4  11  26  51  80 111 166 205 265 329 392 481
#     4  12  25  46  73 117 161 194 259 329 396 469
#     4  10  21  44  76 112 149 206 257 316 387 467
#     4  10  22  46  77 109 156 200 259 311 390 469
#
# _framework density 27.600331000000001
#
# number of rings (size 3 to 8) (size 9 to 14) (size 15 to 20)
#    0.000    1.250    2.500    2.625    3.500    1.500 
#   11.250    0.625    0.000    0.000    0.000    0.000 
#    0.000    0.000    0.000    0.000    0.000    0.000 
#
# Total GULP energy -89570.248344 kJ/mol
# GULP energy per Si atom -5598.140521 kJ/mol
# Density = 2.753751 g / cm^3
# Si number density = 27.600331 Si / 1000 Ang^3
#
#
#
# Elastic Constant Matrix: (Units=GPa)
#
#
# Indices 1 2 3 4 5 6 
#
# 1 219.4147 31.6146 47.7120 0.2713 6.5273 9.0154
# 2 31.6146 131.7512 22.7605 -9.0241 -4.1609 -2.1630
# 3 47.7120 22.7605 106.2288 1.1041 8.0949 10.0026
# 4 0.2713 -9.0241 1.1041 41.0478 4.5597 -11.6272
# 5 6.5273 -4.1609 8.0949 4.5597 39.4035 -9.6065
# 6 9.0154 -2.1630 10.0026 -11.6272 -9.6065 46.8804
#
#
#
# Elastic Compliance Matrix: (Units=1/GPa)
#
#
# Indices 1 2 3 4 5 6 
#
# 1 0.005184 -0.000962 -0.001983 -0.000354 -0.000720 -0.000854
# 2 -0.000962 0.008340 -0.001666 0.002220 0.001563 0.001796
# 3 -0.001983 -0.001666 0.011156 -0.001180 -0.002716 -0.002925
# 4 -0.000354 0.002220 -0.001180 0.026944 -0.000895 0.006922
# 5 -0.000720 0.001563 -0.002716 -0.000895 0.027854 0.006276
# 6 -0.000854 0.001796 -0.002925 0.006922 0.006276 0.025205
#
#
# Mechanical properties :
#
#
# Convention : Reuss Voigt Hill
#
# Bulk Modulus (GPa) = 64.69701 73.50766 69.10234
# Shear Modulus (GPa) = 41.99601 49.15353 45.57477
#
# Velocity S-wave (km/s) = 3.90497 4.22465 4.06795
# Velocity P-wave (km/s) = 6.61992 7.10547 6.86698
#
# Compressibility (1/GPa) = 0.01545666
#
# Stress axis : x y z
#
# Youngs Moduli (GPa) = 192.88303 119.90850 89.63744
#
# Poissons Ratio (x) = 0.11540 0.17779
# Poissons Ratio (y) = 0.18564 0.14933
# Poissons Ratio (z) = 0.38257 0.19976
#
# Static dielectric constant tensor:
#      x y z
#    x 3.430170 -1.585500 0.325770 
#    y -1.585500 3.992630 -0.428140 
#    z 0.325770 -0.428140 2.460670 
# 
# From -- ./inp_files/107406.got.cif
#   From: 2010.05.17/outbox.cif.g08.bks.cpg/sg2_54_cif.got.tgz:107406.got - 2010.06.03 11:33:40.
