data_PCOD9019611
_publ_section_title
;
Structure prediction by ZEFSAII (Michael W. Deem and Ramdas Pophale) SiO2 
 PCOD9019611
Probable space group: P -1
;
_chemical_formula_sum "Si O2"
_cell_formula_units_Z 14
_cell_length_a 11.120088
_cell_length_b 5.241740
_cell_length_c 26.495878
_cell_angle_alpha 112.606889
_cell_angle_beta 23.185585
_cell_angle_gamma 117.458177
_cell_volume 536.099956
_symmetry_space_group_name_H-M "P -1"
_symmetry_group_IT_number 2
_symmetry_cell_setting 'triclinic'
loop_
_space_group_symop_operation_xyz
x,y,z
-x,-y,-z
loop_
_atom_site_type_symbol
_atom_site_label
_atom_site_fract_x
_atom_site_fract_y
_atom_site_fract_z
Si Si1 0.791750 0.751503 0.525450
Si Si2 0.128385 0.967663 0.652424
Si Si3 0.102557 0.607971 0.734905
Si Si4 0.391805 0.411615 0.736773
Si Si5 0.754449 0.951878 0.937218
Si Si6 0.699651 0.446246 0.730069
Si Si7 0.853808 0.487064 0.000464
O O1 0.459606 0.755952 0.629570
O O2 0.662564 0.498732 0.597379
O O3 0.020731 0.702068 0.389836
O O4 0.000000 0.000000 0.500000
O O5 0.082741 0.276829 0.705779
O O6 0.500000 0.000000 0.500000
O O7 0.045180 0.756003 0.716652
O O8 0.892881 0.785709 0.686506
O O9 0.827117 0.644736 0.882324
O O10 0.536293 0.373487 0.732349
O O11 0.117872 0.145907 0.799825
O O12 0.158921 0.615033 0.855467
O O13 0.710087 0.144089 0.016615
O O14 0.500000 0.000000 0.000000
O O15 0.430845 0.372639 0.871670
O O16 0.000000 0.500000 0.000000
#
# Coordination Sequence:
#
# PCOD9019611 Si02
#       7
#     2   2   2   2   2   2   2
#     4  12  26  40  73 109 152 203 258 318 389 465
#     4  12  27  46  74 111 157 204 254 324 391 465
#     4  12  27  49  73 114 154 197 267 319 386 469
#     4   9  22  44  70 110 147 198 259 312 381 467
#     4  10  21  44  80 103 151 197 259 312 387 458
#     4  11  22  44  75 105 154 199 252 320 395 454
#     4   8  19  40  71 102 150 191 250 315 380 451
#
# _framework density 26.114533999999999
#
# number of rings (size 3 to 8) (size 9 to 14) (size 15 to 20)
#    0.857    0.571    1.429    3.429    2.000    0.000 
#    0.000    7.143    0.000    0.000    0.000    0.000 
#    0.000    0.000    0.000    0.000    0.000    0.000 
#
# Total GULP energy -78147.516161 kJ/mol
# GULP energy per Si atom -5581.965440 kJ/mol
# Density = 2.605510 g / cm^3
# Si number density = 26.114534 Si / 1000 Ang^3
#
#
#
# Elastic Constant Matrix: (Units=GPa)
#
#
# Indices 1 2 3 4 5 6 
#
# 1 109.9929 48.3229 24.6219 10.9197 -22.6737 19.7027
# 2 48.3229 113.2730 35.9547 23.1664 -19.2231 19.5371
# 3 24.6219 35.9547 130.0981 31.7756 -24.9978 17.9831
# 4 10.9197 23.1664 31.7756 56.5035 11.1174 1.9755
# 5 -22.6737 -19.2231 -24.9978 11.1174 43.3762 -8.2227
# 6 19.7027 19.5371 17.9831 1.9755 -8.2227 44.3746
#
#
#
# Elastic Compliance Matrix: (Units=1/GPa)
#
#
# Indices 1 2 3 4 5 6 
#
# 1 0.012384 -0.003620 0.000610 -0.002165 0.005189 -0.003094
# 2 -0.003620 0.012745 -0.000387 -0.005054 0.004292 -0.002827
# 3 0.000610 -0.000387 0.011661 -0.008064 0.008382 -0.002914
# 4 -0.002165 -0.005054 -0.008064 0.027506 -0.014590 0.002527
# 5 0.005189 0.004292 0.008382 -0.014590 0.036195 -0.000234
# 6 -0.003094 -0.002827 -0.002914 0.002527 -0.000234 0.026179
#
#
# Mechanical properties :
#
#
# Convention : Reuss Voigt Hill
#
# Bulk Modulus (GPa) = 33.33710 63.46254 48.39982
# Shear Modulus (GPa) = 34.85253 45.14849 40.00051
#
# Velocity S-wave (km/s) = 3.65718 4.16247 3.91798
# Velocity P-wave (km/s) = 5.53415 6.88883 6.24831
#
# Compressibility (1/GPa) = 0.02999661
#
# Stress axis : x y z
#
# Youngs Moduli (GPa) = 80.74905 78.46273 85.75535
#
# Poissons Ratio (x) = 0.28400 -0.05233
# Poissons Ratio (y) = 0.29228 0.03322
# Poissons Ratio (z) = -0.04928 0.03040
#
# Static dielectric constant tensor:
#      x y z
#    x 2.037330 -0.040570 0.015200 
#    y -0.040570 2.266370 0.029340 
#    z 0.015200 0.029340 2.071440 
# 
# From -- ./inp_files/622887.got.cif
#   From: 2010.05.17/outbox.cif.g08.bks.cpg/sg2_312_cif.got.tgz:622887.got - 2010.06.03 11:33:40.
