data_PCOD9019398
_publ_section_title
;
Structure prediction by ZEFSAII (Michael W. Deem and Ramdas Pophale) SiO2 
 PCOD9019398
Probable space group: P -1
;
_chemical_formula_sum "Si O2"
_cell_formula_units_Z 16
_cell_length_a 8.136599
_cell_length_b 15.970910
_cell_length_c 12.236670
_cell_angle_alpha 36.213973
_cell_angle_beta 127.911625
_cell_angle_gamma 129.547424
_cell_volume 706.484588
_symmetry_space_group_name_H-M "P -1"
_symmetry_group_IT_number 2
_symmetry_cell_setting 'triclinic'
loop_
_space_group_symop_operation_xyz
x,y,z
-x,-y,-z
loop_
_atom_site_type_symbol
_atom_site_label
_atom_site_fract_x
_atom_site_fract_y
_atom_site_fract_z
Si Si1 0.724719 0.049843 0.103958
Si Si2 0.515505 0.557990 0.822165
Si Si3 0.932645 0.638907 0.781802
Si Si4 0.339870 0.823570 0.446966
Si Si5 0.861059 0.762877 0.405550
Si Si6 0.785438 0.056280 0.368279
Si Si7 0.707864 0.575569 0.337477
Si Si8 0.179383 0.713251 0.275891
O O1 0.717795 0.088692 0.185481
O O2 0.856926 0.198917 0.937198
O O3 0.808237 0.905843 0.281007
O O4 0.500000 0.000000 0.000000
O O5 0.756037 0.657315 0.778839
O O6 0.355597 0.658806 0.646411
O O7 0.450217 0.444881 0.810980
O O8 0.500000 0.500000 0.000000
O O9 0.837485 0.638403 0.621276
O O10 0.136491 0.787146 0.704328
O O11 0.000000 0.500000 0.000000
O O12 0.112871 0.825909 0.402692
O O13 0.315737 0.828606 0.300632
O O14 0.569184 0.939978 0.452983
O O15 0.711592 0.687790 0.319955
O O16 0.000000 0.000000 0.500000
O O17 0.701640 0.414102 0.554235
O O18 0.946999 0.638540 0.315065
#
# Coordination Sequence:
#
# PCOD9019398 Si02
#       8
#     2   2   2   2   2   2   2   2
#     4  12  25  43  71 100 139 189 230 288 349 420
#     4  11  23  43  70 100 136 188 234 282 350 419
#     4  12  28  46  67 104 141 179 239 291 350 423
#     4  10  21  44  71  97 139 178 235 286 340 423
#     4  11  25  46  69 106 142 177 237 297 341 415
#     4  12  24  47  70  99 140 192 229 284 363 411
#     4   9  22  40  70  98 133 180 224 288 345 398
#     4   9  20  41  66  99 131 177 228 273 344 416
#
# _framework density 22.647345999999999
#
# number of rings (size 3 to 8) (size 9 to 14) (size 15 to 20)
#    0.000    1.250    3.750    1.500    5.250    4.000 
#    2.250    0.000    0.000    0.000    0.000    0.000 
#    0.000    0.000    0.000    0.000    0.000    0.000 
#
# Total GULP energy -89351.218779 kJ/mol
# GULP energy per Si atom -5584.451174 kJ/mol
# Density = 2.259580 g / cm^3
# Si number density = 22.647346 Si / 1000 Ang^3
#
#
#
# Elastic Constant Matrix: (Units=GPa)
#
#
# Indices 1 2 3 4 5 6 
#
# 1 53.9338 10.6902 6.9671 7.0575 -8.8608 7.8637
# 2 10.6902 101.9910 16.6446 10.7849 -16.5566 0.6928
# 3 6.9671 16.6446 101.5075 16.3822 -23.4541 -8.0015
# 4 7.0575 10.7849 16.3822 31.7517 -6.5453 -4.1061
# 5 -8.8608 -16.5566 -23.4541 -6.5453 40.8466 5.4435
# 6 7.8637 0.6928 -8.0015 -4.1061 5.4435 32.9267
#
#
#
# Elastic Compliance Matrix: (Units=1/GPa)
#
#
# Indices 1 2 3 4 5 6 
#
# 1 0.020902 -0.001003 -0.000109 -0.004182 0.004223 -0.006217
# 2 -0.001003 0.010863 -0.000547 -0.002577 0.003597 -0.001038
# 3 -0.000109 -0.000547 0.012157 -0.004681 0.005791 0.001451
# 4 -0.004182 -0.002577 -0.004681 0.036404 0.000614 0.004354
# 5 0.004223 0.003597 0.005791 0.000614 0.030907 -0.004710
# 6 -0.006217 -0.001038 0.001451 0.004354 -0.004710 0.033551
#
#
# Mechanical properties :
#
#
# Convention : Reuss Voigt Hill
#
# Bulk Modulus (GPa) = 24.62945 36.22621 30.42783
# Shear Modulus (GPa) = 30.93361 35.98038 33.45700
#
# Velocity S-wave (km/s) = 3.69979 3.99020 3.84774
# Velocity P-wave (km/s) = 5.39908 6.10405 5.76236
#
# Compressibility (1/GPa) = 0.04060180
#
# Stress axis : x y z
#
# Youngs Moduli (GPa) = 47.84290 92.05865 82.25964
#
# Poissons Ratio (x) = 0.09233 0.00901
# Poissons Ratio (y) = 0.04798 0.04501
# Poissons Ratio (z) = 0.00524 0.05038
#
# Static dielectric constant tensor:
#      x y z
#    x 1.856610 0.041960 -0.001830 
#    y 0.041960 1.929080 0.017850 
#    z -0.001830 0.017850 1.887250 
# 
# From -- ./inp_files/272706.got.cif
#   From: 2010.05.17/outbox.cif.g08.bks.cpg/sg2_137_cif.got.tgz:272706.got - 2010.06.03 11:33:40.
