data_PCOD9019121
_publ_section_title
;
Structure prediction by ZEFSAII (Michael W. Deem and Ramdas Pophale) SiO2 
 PCOD9019121
Probable space group: P -1
;
_chemical_formula_sum "Si O2"
_cell_formula_units_Z 16
_cell_length_a 9.425636
_cell_length_b 15.237681
_cell_length_c 11.196100
_cell_angle_alpha 69.907015
_cell_angle_beta 50.831540
_cell_angle_gamma 38.735810
_cell_volume 742.323964
_symmetry_space_group_name_H-M "P -1"
_symmetry_group_IT_number 2
_symmetry_cell_setting 'triclinic'
loop_
_space_group_symop_operation_xyz
x,y,z
-x,-y,-z
loop_
_atom_site_type_symbol
_atom_site_label
_atom_site_fract_x
_atom_site_fract_y
_atom_site_fract_z
Si Si1 0.728058 0.107262 0.873549
Si Si2 0.645856 0.225304 0.343613
Si Si3 0.726061 0.174028 0.593576
Si Si4 0.171152 0.376217 0.362560
Si Si5 0.442265 0.658046 0.009090
Si Si6 0.182350 0.655546 0.549542
Si Si7 0.741853 0.831986 0.909193
Si Si8 0.751258 0.373765 0.095065
O O1 0.600270 0.175665 0.776976
O O2 0.765356 0.185138 0.892917
O O3 0.458986 0.163572 0.051624
O O4 0.020120 0.933782 0.784082
O O5 0.570930 0.243315 0.515008
O O6 0.456212 0.235848 0.352325
O O7 0.611344 0.346407 0.262533
O O8 0.789867 0.253974 0.567947
O O9 0.000000 0.000000 0.500000
O O10 0.299639 0.393753 0.181348
O O11 0.000000 0.500000 0.500000
O O12 0.978164 0.366666 0.421173
O O13 0.257526 0.668447 0.011363
O O14 0.577119 0.537785 0.094335
O O15 0.500000 0.500000 0.500000
O O16 0.977409 0.766004 0.717500
O O17 0.938788 0.728668 0.965804
O O18 0.500000 0.000000 0.000000
#
# Coordination Sequence:
#
# PCOD9019121 Si02
#       8
#     2   2   2   2   2   2   2   2
#     4  11  23  41  69 100 137 169 232 288 332 409
#     4  10  21  44  68  96 134 187 220 280 352 405
#     4  10  22  43  67  99 139 179 225 285 344 410
#     4  11  25  43  68  97 141 181 233 284 348 421
#     4  10  24  42  63 103 130 173 228 281 346 388
#     4  12  26  43  71 101 134 185 236 277 352 418
#     4  12  23  42  69 104 134 178 232 280 346 411
#     4  10  22  40  66  93 140 172 217 284 338 407
#
# _framework density 21.553932
#
# number of rings (size 3 to 8) (size 9 to 14) (size 15 to 20)
#    0.000    1.250    3.750    1.500    3.500    6.500 
#    0.000    2.500    0.000    0.000    0.000    0.000 
#    0.000    0.000    0.000    0.000    0.000    0.000 
#
# Total GULP energy -89154.223836 kJ/mol
# GULP energy per Si atom -5572.138990 kJ/mol
# Density = 2.150487 g / cm^3
# Si number density = 21.553932 Si / 1000 Ang^3
#
#
#
# Elastic Constant Matrix: (Units=GPa)
#
#
# Indices 1 2 3 4 5 6 
#
# 1 123.1200 27.7544 4.9571 6.8063 -9.9027 -6.5395
# 2 27.7544 77.8458 26.6102 -6.1202 3.6728 -1.6398
# 3 4.9571 26.6102 72.3690 16.0800 5.5382 -3.3696
# 4 6.8063 -6.1202 16.0800 25.4167 0.8614 5.7670
# 5 -9.9027 3.6728 5.5382 0.8614 31.6950 6.4187
# 6 -6.5395 -1.6398 -3.3696 5.7670 6.4187 39.0245
#
#
#
# Elastic Compliance Matrix: (Units=1/GPa)
#
#
# Indices 1 2 3 4 5 6 
#
# 1 0.009776 -0.004799 0.002236 -0.005740 0.002973 0.001989
# 2 -0.004799 0.018714 -0.009227 0.012217 -0.001921 -0.002304
# 3 0.002236 -0.009227 0.021315 -0.017309 -0.002456 0.004789
# 4 -0.005740 0.012217 -0.017309 0.057131 0.000379 -0.010448
# 5 0.002973 -0.001921 -0.002456 0.000379 0.034231 -0.005481
# 6 0.001989 -0.002304 0.004789 -0.010448 -0.005481 0.028720
#
#
# Mechanical properties :
#
#
# Convention : Reuss Voigt Hill
#
# Bulk Modulus (GPa) = 38.13493 43.55313 40.84403
# Shear Modulus (GPa) = 24.72680 33.49477 29.11078
#
# Velocity S-wave (km/s) = 3.39072 3.94635 3.67904
# Velocity P-wave (km/s) = 5.74982 6.40433 6.08588
#
# Compressibility (1/GPa) = 0.02622268
#
# Stress axis : x y z
#
# Youngs Moduli (GPa) = 102.29001 53.43673 46.91622
#
# Poissons Ratio (x) = 0.25646 -0.10488
# Poissons Ratio (y) = 0.49092 0.43290
# Poissons Ratio (z) = -0.22867 0.49307
#
# Static dielectric constant tensor:
#      x y z
#    x 1.863730 0.033780 0.028830 
#    y 0.033780 1.832560 0.035450 
#    z 0.028830 0.035450 2.029350 
# 
# From -- ./inp_files/399042.got.cif
#   From: 2010.05.17/outbox.cif.g08.bks.cpg/sg2_200_cif.got.tgz:399042.got - 2010.06.03 11:33:40.
