data_PCOD9019900
_publ_section_title
;
Structure prediction by ZEFSAII (Michael W. Deem and Ramdas Pophale) SiO2 
 PCOD9019900
Probable space group: P -1
;
_chemical_formula_sum "Si O2"
_cell_formula_units_Z 16
_cell_length_a 15.496785
_cell_length_b 8.532275
_cell_length_c 12.262110
_cell_angle_alpha 87.677423
_cell_angle_beta 149.363686
_cell_angle_gamma 103.238800
_cell_volume 763.165614
_symmetry_space_group_name_H-M "P -1"
_symmetry_group_IT_number 2
_symmetry_cell_setting 'triclinic'
loop_
_space_group_symop_operation_xyz
x,y,z
-x,-y,-z
loop_
_atom_site_type_symbol
_atom_site_label
_atom_site_fract_x
_atom_site_fract_y
_atom_site_fract_z
Si Si1 0.456234 0.782345 0.850689
Si Si2 0.177004 0.135228 0.632239
Si Si3 0.028843 0.625434 0.925247
Si Si4 0.337261 0.060671 0.600129
Si Si5 0.686033 0.118516 0.640900
Si Si6 0.620623 0.428571 0.445506
Si Si7 0.661472 0.416514 0.888594
Si Si8 0.196229 0.491569 0.723373
O O1 0.440060 0.655246 0.736572
O O2 0.336054 0.663045 0.817812
O O3 0.386891 0.921430 0.724689
O O4 0.654350 0.873363 0.114707
O O5 0.200371 0.101855 0.531422
O O6 0.191760 0.326434 0.659811
O O7 0.000000 0.000000 0.500000
O O8 0.823952 0.577318 0.658187
O O9 0.143241 0.811339 0.092806
O O10 0.169341 0.590791 0.996355
O O11 0.000000 0.500000 0.000000
O O12 0.517267 0.229044 0.768859
O O13 0.269634 0.975332 0.411702
O O14 0.642091 0.279548 0.545536
O O15 0.500000 0.000000 0.500000
O O16 0.464281 0.496133 0.309024
O O17 0.746617 0.514124 0.089623
O O18 0.000000 0.500000 0.500000
#
# Coordination Sequence:
#
# PCOD9019900 Si02
#       8
#     2   2   2   2   2   2   2   2
#     4  11  22  45  64  97 143 180 220 285 343 414
#     4  12  25  41  66 103 139 179 232 281 346 422
#     4  10  23  43  72  96 132 175 237 287 351 412
#     4  11  24  41  70  96 139 182 228 281 352 409
#     4  10  21  45  71  97 134 180 226 295 352 404
#     4  10  23  43  70  99 135 179 233 281 354 418
#     4  12  23  43  71 101 136 185 233 288 348 417
#     4  12  25  42  71  99 139 187 235 276 348 421
#
# _framework density 20.965308
#
# number of rings (size 3 to 8) (size 9 to 14) (size 15 to 20)
#    0.000    1.000    3.750    3.000    1.750    4.000 
#    0.000    0.625    0.000    0.000    0.000    0.000 
#    0.000    0.000    0.000    0.000    0.000    0.000 
#
# Total GULP energy -89432.565832 kJ/mol
# GULP energy per Si atom -5589.535365 kJ/mol
# Density = 2.091759 g / cm^3
# Si number density = 20.965308 Si / 1000 Ang^3
#
#
#
# Elastic Constant Matrix: (Units=GPa)
#
#
# Indices 1 2 3 4 5 6 
#
# 1 126.6818 47.6699 51.4783 11.9462 5.7456 -3.8620
# 2 47.6699 68.7306 27.9379 17.4515 -3.4673 -11.0853
# 3 51.4783 27.9379 112.6406 24.4336 6.4933 -8.2878
# 4 11.9462 17.4515 24.4336 32.2299 3.8501 6.0364
# 5 5.7456 -3.4673 6.4933 3.8501 31.5643 10.3146
# 6 -3.8620 -11.0853 -8.2878 6.0364 10.3146 40.2990
#
#
#
# Elastic Compliance Matrix: (Units=1/GPa)
#
#
# Indices 1 2 3 4 5 6 
#
# 1 0.012513 -0.008261 -0.004555 0.003921 -0.002049 -0.002073
# 2 -0.008261 0.024452 0.000755 -0.012471 0.003225 0.007132
# 3 -0.004555 0.000755 0.013247 -0.009341 -0.002124 0.004438
# 4 0.003921 -0.012471 -0.009341 0.045770 -0.002050 -0.011307
# 5 -0.002049 0.003225 -0.002124 -0.002050 0.035916 -0.008632
# 6 -0.002073 0.007132 0.004438 -0.011307 -0.008632 0.031394
#
#
# Mechanical properties :
#
#
# Convention : Reuss Voigt Hill
#
# Bulk Modulus (GPa) = 38.32753 62.46948 50.39850
# Shear Modulus (GPa) = 25.49581 32.88311 29.18946
#
# Velocity S-wave (km/s) = 3.49104 3.96467 3.73537
# Velocity P-wave (km/s) = 5.87970 7.12877 6.53415
#
# Compressibility (1/GPa) = 0.02609091
#
# Stress axis : x y z
#
# Youngs Moduli (GPa) = 79.91664 40.89691 75.48683
#
# Poissons Ratio (x) = 0.33783 0.34381
# Poissons Ratio (y) = 0.66015 -0.05696
# Poissons Ratio (z) = 0.36399 -0.03086
#
# Static dielectric constant tensor:
#      x y z
#    x 1.735710 -0.030850 -0.028150 
#    y -0.030850 1.734910 -0.002360 
#    z -0.028150 -0.002360 1.748830 
# 
# From -- ./inp_files/223369.got.cif
#   From: 2010.05.17/outbox.cif.g08.bks.cpg/sg2_112_cif.got.tgz:223369.got - 2010.06.03 11:33:40.
