data_PCOD9019390
_publ_section_title
;
Structure prediction by ZEFSAII (Michael W. Deem and Ramdas Pophale) SiO2 
 PCOD9019390
Probable space group: P -1
;
_chemical_formula_sum "Si O2"
_cell_formula_units_Z 12
_cell_length_a 9.017587
_cell_length_b 12.306657
_cell_length_c 9.536552
_cell_angle_alpha 99.038485
_cell_angle_beta 118.002326
_cell_angle_gamma 128.997378
_cell_volume 545.891291
_symmetry_space_group_name_H-M "P -1"
_symmetry_group_IT_number 2
_symmetry_cell_setting 'triclinic'
loop_
_space_group_symop_operation_xyz
x,y,z
-x,-y,-z
loop_
_atom_site_type_symbol
_atom_site_label
_atom_site_fract_x
_atom_site_fract_y
_atom_site_fract_z
Si Si1 0.414753 0.873037 0.316981
Si Si2 0.775873 0.446534 0.787330
Si Si3 0.333732 0.011678 0.854911
Si Si4 0.192312 0.383441 0.955704
Si Si5 0.764779 0.583165 0.555303
Si Si6 0.447900 0.634643 0.872357
O O1 0.423618 0.760397 0.375735
O O2 0.582959 0.947526 0.263712
O O3 0.102728 0.759506 0.123383
O O4 0.500000 0.000000 0.500000
O O5 0.886541 0.560425 0.719355
O O6 0.611729 0.447171 0.812652
O O7 0.000000 0.500000 0.000000
O O8 0.440304 0.183771 0.006410
O O9 0.003629 0.801537 0.677139
O O10 0.500000 0.000000 0.000000
O O11 0.203845 0.462199 0.836432
O O12 0.297271 0.316597 0.969137
O O13 0.500000 0.500000 0.500000
O O14 0.661506 0.457007 0.349478
#
# Coordination Sequence:
#
# PCOD9019390 Si02
#       6
#     2   2   2   2   2   2
#     4  11  24  43  71 103 139 192 246 288 357 443
#     4  10  21  44  71  95 144 187 230 293 360 425
#     4  12  28  46  71 110 146 185 245 304 359 430
#     4  10  21  46  71 102 142 194 232 297 375 418
#     4  12  27  47  73 110 145 190 244 300 367 433
#     4  11  25  45  75 104 148 189 241 302 366 430
#
# _framework density 21.982396999999999
#
# number of rings (size 3 to 8) (size 9 to 14) (size 15 to 20)
#    0.000    1.000    3.333    3.000    4.667    2.667 
#    0.000    3.333    0.000    0.000    0.000    0.000 
#    0.000    0.000    0.000    0.000    0.000    0.000 
#
# Total GULP energy -66850.384278 kJ/mol
# GULP energy per Si atom -5570.865357 kJ/mol
# Density = 2.193236 g / cm^3
# Si number density = 21.982397 Si / 1000 Ang^3
#
#
#
# Elastic Constant Matrix: (Units=GPa)
#
#
# Indices 1 2 3 4 5 6 
#
# 1 130.9712 78.0022 55.2249 20.0484 -31.4937 -7.3808
# 2 78.0022 153.1807 68.1917 0.9541 -23.5676 -5.4331
# 3 55.2249 68.1917 123.0016 -0.8788 -41.5746 -1.5906
# 4 20.0484 0.9541 -0.8788 36.2214 0.2754 -7.4215
# 5 -31.4937 -23.5676 -41.5746 0.2754 52.0574 10.0819
# 6 -7.3808 -5.4331 -1.5906 -7.4215 10.0819 54.2395
#
#
#
# Elastic Compliance Matrix: (Units=1/GPa)
#
#
# Indices 1 2 3 4 5 6 
#
# 1 0.013980 -0.005649 -0.001585 -0.007801 0.004805 -0.000671
# 2 -0.005649 0.010980 -0.004194 0.002953 -0.002002 0.000984
# 3 -0.001585 -0.004194 0.014103 0.000911 0.008734 -0.001721
# 4 -0.007801 0.002953 0.000911 0.032807 -0.003688 0.004435
# 5 0.004805 -0.002002 0.008734 -0.003688 0.029217 -0.005226
# 6 -0.000671 0.000984 -0.001721 0.004435 -0.005226 0.019972
#
#
# Mechanical properties :
#
#
# Convention : Reuss Voigt Hill
#
# Bulk Modulus (GPa) = 61.70161 89.99900 75.85030
# Shear Modulus (GPa) = 33.48546 42.21932 37.85239
#
# Velocity S-wave (km/s) = 3.90716 4.38722 4.15413
# Velocity P-wave (km/s) = 6.96306 8.16663 7.58874
#
# Compressibility (1/GPa) = 0.01620703
#
# Stress axis : x y z
#
# Youngs Moduli (GPa) = 71.53109 91.07122 70.90596
#
# Poissons Ratio (x) = 0.51447 0.11239
# Poissons Ratio (y) = 0.40408 0.29739
# Poissons Ratio (z) = 0.11338 0.38197
#
# Static dielectric constant tensor:
#      x y z
#    x 1.825010 0.035390 0.134890 
#    y 0.035390 1.862810 -0.025980 
#    z 0.134890 -0.025980 1.642270 
# 
# From -- ./inp_files/165142.got.cif
#   From: 2010.05.17/outbox.cif.g08.bks.cpg/sg2_83_cif.got.tgz:165142.got - 2010.06.03 11:33:40.
