data_PCOD9019244
_publ_section_title
;
Structure prediction by ZEFSAII (Michael W. Deem and Ramdas Pophale) SiO2 
 PCOD9019244
Probable space group: P -1
;
_chemical_formula_sum "Si O2"
_cell_formula_units_Z 14
_cell_length_a 5.342561
_cell_length_b 12.248918
_cell_length_c 10.906676
_cell_angle_alpha 101.567537
_cell_angle_beta 116.707525
_cell_angle_gamma 60.495634
_cell_volume 554.709046
_symmetry_space_group_name_H-M "P -1"
_symmetry_group_IT_number 2
_symmetry_cell_setting 'triclinic'
loop_
_space_group_symop_operation_xyz
x,y,z
-x,-y,-z
loop_
_atom_site_type_symbol
_atom_site_label
_atom_site_fract_x
_atom_site_fract_y
_atom_site_fract_z
Si Si1 0.738291 0.880580 0.882021
Si Si2 0.613856 0.604368 0.191519
Si Si3 0.369114 0.836004 0.593472
Si Si4 0.381922 0.865314 0.118029
Si Si5 0.985160 0.395895 0.062308
Si Si6 0.634135 0.576928 0.468395
Si Si7 0.202443 0.994329 0.369365
O O1 0.625251 0.873549 0.716812
O O2 0.752051 0.751199 0.912029
O O3 0.528353 0.031077 0.896672
O O4 0.092189 0.863771 0.977795
O O5 0.647445 0.725607 0.178522
O O6 0.905435 0.470569 0.191149
O O7 0.505515 0.615807 0.310564
O O8 0.324156 0.612281 0.050567
O O9 0.555549 0.695997 0.560491
O O10 0.110694 0.875156 0.652915
O O11 0.167649 0.901971 0.442340
O O12 0.247322 0.926725 0.235142
O O13 0.000000 0.500000 0.000000
O O14 0.500000 0.500000 0.500000
O O15 0.000000 0.500000 0.500000
O O16 0.500000 0.000000 0.500000
#
# Coordination Sequence:
#
# PCOD9019244 Si02
#       7
#     2   2   2   2   2   2   2
#     4  10  22  43  68 104 139 189 251 315 380 453
#     4  10  23  45  70 101 146 195 250 313 387 453
#     4  11  25  43  70 106 144 194 249 308 386 457
#     4  10  21  44  70 100 147 190 251 315 383 457
#     4  10  23  45  70 100 143 195 248 316 388 460
#     4  12  29  47  77 116 154 205 260 319 383 473
#     4  11  23  44  69  99 144 194 238 310 385 455
#
# _framework density 25.238455999999999
#
# number of rings (size 3 to 8) (size 9 to 14) (size 15 to 20)
#    0.000    1.429    2.857    0.857    6.000    1.714 
#   12.857    0.000    0.000    0.000    0.000    0.000 
#    0.000    0.000    0.000    0.000    0.000    0.000 
#
# Total GULP energy -78057.514810 kJ/mol
# GULP energy per Si atom -5575.536772 kJ/mol
# Density = 2.518101 g / cm^3
# Si number density = 25.238456 Si / 1000 Ang^3
#
#
#
# Elastic Constant Matrix: (Units=GPa)
#
#
# Indices 1 2 3 4 5 6 
#
# 1 81.0647 45.5507 33.3422 11.5993 -16.2601 -7.1987
# 2 45.5507 199.3788 44.2240 14.2667 -1.0298 11.0856
# 3 33.3422 44.2240 152.3721 9.0861 -14.9391 -3.8612
# 4 11.5993 14.2667 9.0861 47.6741 8.4155 -5.2970
# 5 -16.2601 -1.0298 -14.9391 8.4155 24.6997 -13.8544
# 6 -7.1987 11.0856 -3.8612 -5.2970 -13.8544 43.6395
#
#
#
# Elastic Compliance Matrix: (Units=1/GPa)
#
#
# Indices 1 2 3 4 5 6 
#
# 1 0.021571 -0.004859 -0.000493 -0.006369 0.022021 0.010967
# 2 -0.004859 0.006715 -0.001664 0.000134 -0.006632 -0.004744
# 3 -0.000493 -0.001664 0.007990 -0.001758 0.006699 0.002962
# 4 -0.006369 0.000134 -0.001758 0.025227 -0.015602 -0.003131
# 5 0.022021 -0.006632 0.006699 -0.015602 0.080697 0.029635
# 6 0.010967 -0.004744 0.002962 -0.003131 0.029635 0.035220
#
#
# Mechanical properties :
#
#
# Convention : Reuss Voigt Hill
#
# Bulk Modulus (GPa) = 44.95596 75.44993 60.20295
# Shear Modulus (GPa) = 25.14236 43.84926 34.49581
#
# Velocity S-wave (km/s) = 3.15968 4.17273 3.70103
# Velocity P-wave (km/s) = 5.58234 7.29214 6.49376
#
# Compressibility (1/GPa) = 0.02224399
#
# Stress axis : x y z
#
# Youngs Moduli (GPa) = 46.35771 148.92617 125.14934
#
# Poissons Ratio (x) = 0.72366 0.06172
# Poissons Ratio (y) = 0.22526 0.20824
# Poissons Ratio (z) = 0.02286 0.24780
#
# Static dielectric constant tensor:
#      x y z
#    x 2.092610 0.087830 -0.070530 
#    y 0.087830 2.171090 -0.099280 
#    z -0.070530 -0.099280 2.054320 
# 
# From -- ./inp_files/365120.got.cif
#   From: 2010.05.17/outbox.cif.g08.bks.cpg/sg2_183_cif.got.tgz:365120.got - 2010.06.03 11:33:40.
