data_PCOD9019750
_publ_section_title
;
Structure prediction by ZEFSAII (Michael W. Deem and Ramdas Pophale) SiO2 
 PCOD9019750
Probable space group: P -1
;
_chemical_formula_sum "Si O2"
_cell_formula_units_Z 10
_cell_length_a 11.365669
_cell_length_b 8.003743
_cell_length_c 5.571778
_cell_angle_alpha 88.784109
_cell_angle_beta 55.558885
_cell_angle_gamma 80.140590
_cell_volume 410.044494
_symmetry_space_group_name_H-M "P -1"
_symmetry_group_IT_number 2
_symmetry_cell_setting 'triclinic'
loop_
_space_group_symop_operation_xyz
x,y,z
-x,-y,-z
loop_
_atom_site_type_symbol
_atom_site_label
_atom_site_fract_x
_atom_site_fract_y
_atom_site_fract_z
Si Si1 0.133269 0.144317 0.602919
Si Si2 0.168218 0.484638 0.367799
Si Si3 0.374347 0.898951 0.597054
Si Si4 0.540758 0.579496 0.200279
Si Si5 0.179856 0.834529 0.206477
O O1 0.191686 0.321165 0.519444
O O2 0.227198 0.028273 0.694255
O O3 0.958114 0.177217 0.807355
O O4 0.162766 0.020784 0.338077
O O5 0.000000 0.500000 0.500000
O O6 0.285970 0.429554 0.022763
O O7 0.179431 0.680555 0.402174
O O8 0.445072 0.768807 0.315974
O O9 0.326046 0.803144 0.885466
O O10 0.500000 0.000000 0.500000
O O11 0.500000 0.500000 0.500000
O O12 0.500000 0.500000 0.000000
#
# Coordination Sequence:
#
# PCOD9019750 Si02
#       5
#     2   2   2   2   2
#     4  10  23  42  70 101 142 187 248 302 370 446
#     4  10  22  44  72 102 139 191 246 301 371 443
#     4  12  26  42  71 105 148 191 248 303 380 439
#     4  12  27  48  75 107 152 199 249 309 380 447
#     4  10  21  45  68 100 140 190 239 310 370 442
#
# _framework density 24.387598000000001
#
# number of rings (size 3 to 8) (size 9 to 14) (size 15 to 20)
#    0.000    1.200    2.000    3.000    2.800    1.600 
#    0.000    3.000    0.000    0.000    0.000    0.000 
#    0.000    0.000    0.000    0.000    0.000    0.000 
#
# Total GULP energy -55818.169496 kJ/mol
# GULP energy per Si atom -5581.816950 kJ/mol
# Density = 2.433209 g / cm^3
# Si number density = 24.387598 Si / 1000 Ang^3
#
#
#
# Elastic Constant Matrix: (Units=GPa)
#
#
# Indices 1 2 3 4 5 6 
#
# 1 92.8708 47.4604 43.7169 -13.9168 -4.5469 12.7181
# 2 47.4604 145.5984 44.3080 -1.1624 -1.1982 -3.6258
# 3 43.7169 44.3080 129.1901 -8.5774 -22.2033 16.8194
# 4 -13.9168 -1.1624 -8.5774 37.1142 3.6596 0.4978
# 5 -4.5469 -1.1982 -22.2033 3.6596 40.8164 -4.5427
# 6 12.7181 -3.6258 16.8194 0.4978 -4.5427 38.3521
#
#
#
# Elastic Compliance Matrix: (Units=1/GPa)
#
#
# Indices 1 2 3 4 5 6 
#
# 1 0.015756 -0.004264 -0.003121 0.005215 -0.001030 -0.004449
# 2 -0.004264 0.009034 -0.002361 -0.001809 -0.000975 0.003212
# 3 -0.003121 -0.002361 0.010983 0.000837 0.005103 -0.003411
# 4 0.005215 -0.001809 0.000837 0.029268 -0.001962 -0.002879
# 5 -0.001030 -0.000975 0.005103 -0.001962 0.027452 0.001289
# 6 -0.004449 0.003212 -0.003411 -0.002879 0.001289 0.029539
#
#
# Mechanical properties :
#
#
# Convention : Reuss Voigt Hill
#
# Bulk Modulus (GPa) = 61.42080 70.95887 66.18983
# Shear Modulus (GPa) = 34.02479 38.73480 36.37980
#
# Velocity S-wave (km/s) = 3.73925 3.98967 3.86649
# Velocity P-wave (km/s) = 6.62439 7.09808 6.86532
#
# Compressibility (1/GPa) = 0.01628113
#
# Stress axis : x y z
#
# Youngs Moduli (GPa) = 63.46792 110.69080 91.04806
#
# Poissons Ratio (x) = 0.47197 0.28416
# Poissons Ratio (y) = 0.27062 0.21499
# Poissons Ratio (z) = 0.19808 0.26137
#
# Static dielectric constant tensor:
#      x y z
#    x 2.040360 -0.056480 -0.003040 
#    y -0.056480 2.013740 -0.007410 
#    z -0.003040 -0.007410 1.872360 
# 
# From -- ./inp_files/57791.got.cif
#   From: 2010.05.17/outbox.cif.g08.bks.cpg/sg2_29_cif.got.tgz:57791.got - 2010.06.03 11:33:40.
