data_PCOD9019711
_publ_section_title
;
Structure prediction by ZEFSAII (Michael W. Deem and Ramdas Pophale) SiO2 
 PCOD9019711
Probable space group: P -1
;
_chemical_formula_sum "Si O2"
_cell_formula_units_Z 14
_cell_length_a 20.985433
_cell_length_b 9.327886
_cell_length_c 9.784362
_cell_angle_alpha 44.413295
_cell_angle_beta 124.711061
_cell_angle_gamma 148.408172
_cell_volume 698.186845
_symmetry_space_group_name_H-M "P -1"
_symmetry_group_IT_number 2
_symmetry_cell_setting 'triclinic'
loop_
_space_group_symop_operation_xyz
x,y,z
-x,-y,-z
loop_
_atom_site_type_symbol
_atom_site_label
_atom_site_fract_x
_atom_site_fract_y
_atom_site_fract_z
Si Si1 0.798470 0.642674 0.192027
Si Si2 0.693554 0.328285 0.818621
Si Si3 0.555990 0.265259 0.006185
Si Si4 0.630249 0.665128 0.583165
Si Si5 0.868261 0.624407 0.574230
Si Si6 0.822272 0.366439 0.204165
Si Si7 0.039853 0.625783 0.119811
O O1 0.800520 0.585572 0.390467
O O2 0.870188 0.621959 0.202718
O O3 0.661972 0.376840 0.146441
O O4 0.867209 0.996698 0.021289
O O5 0.662685 0.508319 0.664748
O O6 0.787648 0.480384 0.709092
O O7 0.754295 0.365499 0.006629
O O8 0.564758 0.944432 0.908922
O O9 0.615513 0.576803 0.785626
O O10 0.500000 0.000000 0.000000
O O11 0.500000 0.500000 0.500000
O O12 0.731103 0.028421 0.403731
O O13 0.895525 0.444628 0.699646
O O14 0.000000 0.000000 0.500000
O O15 0.924654 0.449439 0.192528
O O16 0.000000 0.500000 0.000000
#
# Coordination Sequence:
#
# PCOD9019711 Si02
#       7
#     2   2   2   2   2   2   2
#     4  12  26  45  71 103 143 181 236 289 342 416
#     4  11  22  43  72 100 144 184 223 286 357 407
#     4  10  21  45  67 102 139 175 226 293 339 406
#     4  11  21  38  72 103 132 178 233 279 347 407
#     4  12  26  46  70 101 144 188 229 286 350 413
#     4  12  23  43  74 104 136 186 234 286 347 409
#     4  12  26  46  71 100 145 184 234 288 345 412
#
# _framework density 20.051938
#
# number of rings (size 3 to 8) (size 9 to 14) (size 15 to 20)
#    0.000    0.571    7.143    2.143    2.000    1.143 
#    0.000    0.714    0.000    0.000    0.000    0.000 
#    0.000    0.000    0.000    0.000    0.000    0.000 
#
# Total GULP energy -78203.517207 kJ/mol
# GULP energy per Si atom -5585.965515 kJ/mol
# Density = 2.000630 g / cm^3
# Si number density = 20.051938 Si / 1000 Ang^3
#
#
#
# Elastic Constant Matrix: (Units=GPa)
#
#
# Indices 1 2 3 4 5 6 
#
# 1 104.8336 32.5779 41.3388 -20.5286 -3.3560 9.9972
# 2 32.5779 92.2629 53.5406 -7.1689 -10.5904 0.7058
# 3 41.3388 53.5406 147.9353 -7.3094 -0.3750 0.9895
# 4 -20.5286 -7.1689 -7.3094 35.0179 0.9158 5.3186
# 5 -3.3560 -10.5904 -0.3750 0.9158 45.9377 -5.3021
# 6 9.9972 0.7058 0.9895 5.3186 -5.3021 28.9079
#
#
#
# Elastic Compliance Matrix: (Units=1/GPa)
#
#
# Indices 1 2 3 4 5 6 
#
# 1 0.013386 -0.002804 -0.002305 0.007717 -0.000534 -0.005999
# 2 -0.002804 0.014880 -0.004595 0.000151 0.003341 0.001349
# 3 -0.002305 -0.004595 0.009039 -0.000450 -0.001089 0.000483
# 4 0.007717 0.000151 -0.000450 0.034446 -0.001154 -0.009206
# 5 -0.000534 0.003341 -0.001089 -0.001154 0.023042 0.004579
# 6 -0.005999 0.001349 0.000483 -0.009206 0.004579 0.039152
#
#
# Mechanical properties :
#
#
# Convention : Reuss Voigt Hill
#
# Bulk Modulus (GPa) = 55.88112 66.66070 61.27091
# Shear Modulus (GPa) = 31.38362 36.47768 33.93065
#
# Velocity S-wave (km/s) = 3.96045 4.26979 4.11802
# Velocity P-wave (km/s) = 6.98872 7.59107 7.29611
#
# Compressibility (1/GPa) = 0.01789513
#
# Stress axis : x y z
#
# Youngs Moduli (GPa) = 74.70671 67.20392 110.63595
#
# Poissons Ratio (x) = 0.18846 0.25507
# Poissons Ratio (y) = 0.20950 0.50835
# Poissons Ratio (z) = 0.17223 0.30879
#
# Static dielectric constant tensor:
#      x y z
#    x 1.741610 0.002510 -0.013170 
#    y 0.002510 1.720510 0.004900 
#    z -0.013170 0.004900 1.746890 
# 
# From -- ./inp_files/343336.got.cif
#   From: 2010.05.17/outbox.cif.g08.bks.cpg/sg2_172_cif.got.tgz:343336.got - 2010.06.03 11:33:40.
