data_PCOD9019810
_publ_section_title
;
Structure prediction by ZEFSAII (Michael W. Deem and Ramdas Pophale) SiO2 
 PCOD9019810
Probable space group: P -1
;
_chemical_formula_sum "Si O2"
_cell_formula_units_Z 16
_cell_length_a 15.189188
_cell_length_b 14.603377
_cell_length_c 7.697281
_cell_angle_alpha 37.129254
_cell_angle_beta 126.557158
_cell_angle_gamma 139.188870
_cell_volume 673.427392
_symmetry_space_group_name_H-M "P -1"
_symmetry_group_IT_number 2
_symmetry_cell_setting 'triclinic'
loop_
_space_group_symop_operation_xyz
x,y,z
-x,-y,-z
loop_
_atom_site_type_symbol
_atom_site_label
_atom_site_fract_x
_atom_site_fract_y
_atom_site_fract_z
Si Si1 0.630842 0.998479 0.198704
Si Si2 0.231483 0.016747 0.923966
Si Si3 0.482993 0.835577 0.610048
Si Si4 0.159035 0.684147 0.567526
Si Si5 0.705285 0.497945 0.352578
Si Si6 0.429163 0.380687 0.766708
Si Si7 0.159601 0.605484 0.057801
Si Si8 0.953882 0.711838 0.140897
O O1 0.602251 0.923118 0.474434
O O2 0.772219 0.201862 0.050566
O O3 0.500000 0.000000 0.000000
O O4 0.663465 0.903062 0.233270
O O5 0.245570 0.866078 0.270755
O O6 0.069322 0.891905 0.897856
O O7 0.280817 0.195556 0.827745
O O8 0.491487 0.701301 0.951191
O O9 0.500000 0.000000 0.500000
O O10 0.035444 0.704897 0.411288
O O11 0.094212 0.478995 0.724947
O O12 0.221078 0.675161 0.831815
O O13 0.643742 0.315674 0.433902
O O14 0.588409 0.508975 0.271692
O O15 0.780307 0.487162 0.625516
O O16 0.818085 0.677134 0.101970
O O17 0.500000 0.500000 0.500000
O O18 0.000000 0.500000 0.000000
#
# Coordination Sequence:
#
# PCOD9019810 Si02
#       8
#     2   2   2   2   2   2   2   2
#     4  12  24  41  73 113 147 192 266 324 371 456
#     4  10  21  45  69 101 151 200 245 313 381 455
#     4  12  29  49  80 111 146 207 269 328 384 462
#     4   9  19  37  68 107 146 189 247 322 365 426
#     4  12  26  45  73 112 158 205 253 322 398 469
#     4  12  29  50  72 110 161 202 251 324 402 472
#     4  12  22  39  68 112 154 196 253 314 380 446
#     4   9  20  40  70 107 145 195 254 320 374 449
#
# _framework density 23.759058
#
# number of rings (size 3 to 8) (size 9 to 14) (size 15 to 20)
#    0.750    0.250    2.500    4.125    5.250    0.500 
#    0.000    0.000    0.000    4.500    0.000    0.000 
#    0.000    0.000    0.000    0.000    0.000    0.000 
#
# Total GULP energy -89109.400053 kJ/mol
# GULP energy per Si atom -5569.337503 kJ/mol
# Density = 2.370498 g / cm^3
# Si number density = 23.759058 Si / 1000 Ang^3
#
#
#
# Elastic Constant Matrix: (Units=GPa)
#
#
# Indices 1 2 3 4 5 6 
#
# 1 106.7372 35.7500 36.7174 -2.2075 -14.9971 -6.5063
# 2 35.7500 117.5449 36.8275 -13.8938 -2.7197 3.3135
# 3 36.7174 36.8275 111.6084 8.5997 -15.3566 -5.8024
# 4 -2.2075 -13.8938 8.5997 39.8591 3.4561 -7.6243
# 5 -14.9971 -2.7197 -15.3566 3.4561 33.1825 -6.0823
# 6 -6.5063 3.3135 -5.8024 -7.6243 -6.0823 36.3632
#
#
#
# Elastic Compliance Matrix: (Units=1/GPa)
#
#
# Indices 1 2 3 4 5 6 
#
# 1 0.011923 -0.002874 -0.002210 0.000284 0.004628 0.002876
# 2 -0.002874 0.010964 -0.003470 0.004340 -0.002755 -0.001618
# 3 -0.002210 -0.003470 0.011919 -0.003987 0.004982 0.001820
# 4 0.000284 0.004340 -0.003987 0.028631 -0.003531 0.004432
# 5 0.004628 -0.002755 0.004982 -0.003531 0.035987 0.007153
# 6 0.002876 -0.001618 0.001820 0.004432 0.007153 0.030579
#
#
# Mechanical properties :
#
#
# Convention : Reuss Voigt Hill
#
# Bulk Modulus (GPa) = 56.50205 61.60893 59.05549
# Shear Modulus (GPa) = 32.67785 36.98733 34.83259
#
# Velocity S-wave (km/s) = 3.71264 3.94987 3.83309
# Velocity P-wave (km/s) = 6.49701 6.84025 6.67084
#
# Compressibility (1/GPa) = 0.01769847
#
# Stress axis : x y z
#
# Youngs Moduli (GPa) = 83.87044 91.21123 83.89979
#
# Poissons Ratio (x) = 0.26218 0.18538
# Poissons Ratio (y) = 0.24108 0.29110
# Poissons Ratio (z) = 0.18532 0.31647
#
# Static dielectric constant tensor:
#      x y z
#    x 2.011200 0.072720 -0.086230 
#    y 0.072720 2.049330 -0.000650 
#    z -0.086230 -0.000650 1.955350 
# 
# From -- ./inp_files/312552.got.cif
#   From: 2010.05.17/outbox.cif.g08.bks.cpg/sg2_157_cif.got.tgz:312552.got - 2010.06.03 11:33:40.
