data_PCOD9019681
_publ_section_title
;
Structure prediction by ZEFSAII (Michael W. Deem and Ramdas Pophale) SiO2 
 PCOD9019681
Probable space group: P -1
;
_chemical_formula_sum "Si O2"
_cell_formula_units_Z 16
_cell_length_a 23.735574
_cell_length_b 6.899497
_cell_length_c 12.211188
_cell_angle_alpha 50.036646
_cell_angle_beta 150.774940
_cell_angle_gamma 121.540020
_cell_volume 744.580202
_symmetry_space_group_name_H-M "P -1"
_symmetry_group_IT_number 2
_symmetry_cell_setting 'triclinic'
loop_
_space_group_symop_operation_xyz
x,y,z
-x,-y,-z
loop_
_atom_site_type_symbol
_atom_site_label
_atom_site_fract_x
_atom_site_fract_y
_atom_site_fract_z
Si Si1 0.207127 0.346719 0.623338
Si Si2 0.589618 0.393217 0.850536
Si Si3 0.942324 0.195083 0.676856
Si Si4 0.582224 0.855246 0.514419
Si Si5 0.128357 0.364774 0.245147
Si Si6 0.172241 0.363569 0.080000
Si Si7 0.150441 0.794706 0.708324
Si Si8 0.532785 0.601899 0.900045
O O1 0.135432 0.577429 0.479269
O O2 0.203522 0.399563 0.467661
O O3 0.147800 0.087070 0.632716
O O4 0.337501 0.314673 0.899097
O O5 0.580010 0.682509 0.682303
O O6 0.512990 0.240099 0.695355
O O7 0.542921 0.398194 0.892942
O O8 0.723180 0.279743 0.106649
O O9 0.943868 0.237811 0.533278
O O10 0.885435 0.932967 0.685791
O O11 0.068517 0.188727 0.946477
O O12 0.707071 0.782059 0.699010
O O13 0.553107 0.154621 0.368810
O O14 0.175837 0.452147 0.179191
O O15 0.000000 0.500000 0.000000
O O16 0.144031 0.607025 0.866300
O O17 0.500000 0.500000 0.000000
#
# Coordination Sequence:
#
# PCOD9019681 Si02
#       8
#     2   2   2   2   2   2   2   2
#     4  11  24  43  66  93 132 173 207 266 331 374
#     4  10  21  45  66  90 130 168 212 264 324 369
#     4  11  23  44  68  94 134 167 212 264 325 385
#     4  10  24  43  65  93 129 167 212 269 315 376
#     4  11  25  44  65  93 133 173 208 263 322 381
#     4  11  24  43  67  97 128 169 220 265 315 385
#     4  10  22  44  68  95 127 169 216 270 317 378
#     4  12  26  39  66  98 127 170 219 259 317 388
#
# _framework density 21.488620000000001
#
# number of rings (size 3 to 8) (size 9 to 14) (size 15 to 20)
#    0.000    1.250    3.750    1.125    3.500    1.000 
#    2.250    0.000    0.000    0.000    0.000    0.000 
#    0.000    0.000    0.000    0.000    0.000    0.000 
#
# Total GULP energy -89516.063424 kJ/mol
# GULP energy per Si atom -5594.753964 kJ/mol
# Density = 2.143971 g / cm^3
# Si number density = 21.488620 Si / 1000 Ang^3
#
#
#
# Elastic Constant Matrix: (Units=GPa)
#
#
# Indices 1 2 3 4 5 6 
#
# 1 77.7246 8.9106 -5.8536 -11.5345 -8.9068 -13.6809
# 2 8.9106 69.8684 -0.9643 -16.8839 -4.3644 -15.4842
# 3 -5.8536 -0.9643 59.9089 -1.3011 -3.1995 -6.7718
# 4 -11.5345 -16.8839 -1.3011 37.4497 -1.8929 1.7632
# 5 -8.9068 -4.3644 -3.1995 -1.8929 30.1722 3.6119
# 6 -13.6809 -15.4842 -6.7718 1.7632 3.6119 18.5484
#
#
#
# Elastic Compliance Matrix: (Units=1/GPa)
#
#
# Indices 1 2 3 4 5 6 
#
# 1 0.016835 0.002951 0.003735 0.006171 0.004408 0.014799
# 2 0.002951 0.020707 0.003134 0.009575 0.002500 0.019210
# 3 0.003735 0.003134 0.018585 0.002789 0.002332 0.011437
# 4 0.006171 0.009575 0.002789 0.032789 0.004412 0.009587
# 5 0.004408 0.002500 0.002332 0.004412 0.035466 -0.001136
# 6 0.014799 0.019210 0.011437 0.009587 -0.001136 0.084350
#
#
# Mechanical properties :
#
#
# Convention : Reuss Voigt Hill
#
# Bulk Modulus (GPa) = 13.19840 23.52084 18.35962
# Shear Modulus (GPa) = 23.32662 30.92799 27.12731
#
# Velocity S-wave (km/s) = 3.29832 3.79789 3.55689
# Velocity P-wave (km/s) = 4.54539 5.49558 5.04292
#
# Compressibility (1/GPa) = 0.07576676
#
# Stress axis : x y z
#
# Youngs Moduli (GPa) = 59.40114 48.29312 53.80602
#
# Poissons Ratio (x) = -0.14251 -0.20094
# Poissons Ratio (y) = -0.17529 -0.16865
# Poissons Ratio (z) = -0.22184 -0.15137
#
# Static dielectric constant tensor:
#      x y z
#    x 1.786250 0.012910 -0.024370 
#    y 0.012910 1.755560 -0.003440 
#    z -0.024370 -0.003440 1.758540 
# 
# From -- ./inp_files/68575.got.cif
#   From: 2010.05.17/outbox.cif.g08.bks.cpg/sg2_35_cif.got.tgz:68575.got - 2010.06.03 11:33:40.
