data_PCOD9019589
_publ_section_title
;
Structure prediction by ZEFSAII (Michael W. Deem and Ramdas Pophale) SiO2 
 PCOD9019589
Probable space group: P -1
;
_chemical_formula_sum "Si O2"
_cell_formula_units_Z 16
_cell_length_a 11.244253
_cell_length_b 7.802562
_cell_length_c 8.667916
_cell_angle_alpha 111.835730
_cell_angle_beta 112.795690
_cell_angle_gamma 73.305940
_cell_volume 641.603060
_symmetry_space_group_name_H-M "P -1"
_symmetry_group_IT_number 2
_symmetry_cell_setting 'triclinic'
loop_
_space_group_symop_operation_xyz
x,y,z
-x,-y,-z
loop_
_atom_site_type_symbol
_atom_site_label
_atom_site_fract_x
_atom_site_fract_y
_atom_site_fract_z
Si Si1 0.648118 0.147429 0.753966
Si Si2 0.781441 0.443031 0.525059
Si Si3 0.023746 0.559072 0.855429
Si Si4 0.229969 0.704088 0.869130
Si Si5 0.151335 0.184537 0.704477
Si Si6 0.386116 0.929733 0.828639
Si Si7 0.544086 0.755193 0.595187
Si Si8 0.103983 0.926202 0.350871
O O1 0.547009 0.226254 0.595229
O O2 0.794892 0.089656 0.741660
O O3 0.602532 0.949931 0.709020
O O4 0.663080 0.307995 0.941650
O O5 0.770095 0.422812 0.328338
O O6 0.656343 0.577234 0.577068
O O7 0.820740 0.233898 0.546889
O O8 0.902366 0.536836 0.680221
O O9 0.087936 0.733488 0.889910
O O10 0.144135 0.398258 0.813193
O O11 0.000000 0.500000 0.000000
O O12 0.275459 0.883721 0.872035
O O13 0.041886 0.121453 0.744854
O O14 0.302036 0.091231 0.740157
O O15 0.094558 0.127231 0.494452
O O16 0.452207 0.758035 0.699805
O O17 0.500000 0.000000 0.000000
#
# Coordination Sequence:
#
# PCOD9019589 Si02
#       8
#     2   2   2   2   2   2   2   2
#     4  11  24  45  68 106 139 194 238 285 364 430
#     4  11  25  47  71 110 145 185 237 306 354 422
#     4  11  27  47  74 109 147 184 239 300 366 420
#     4  12  25  45  73 104 145 185 245 291 358 429
#     4  10  22  44  73  96 139 185 232 299 350 427
#     4  12  25  47  69 104 142 190 238 293 354 424
#     4  11  26  46  72  99 152 187 238 297 353 426
#     4  10  21  44  75  97 135 187 239 289 366 415
#
# _framework density 24.937538
#
# number of rings (size 3 to 8) (size 9 to 14) (size 15 to 20)
#    0.000    1.000    3.750    1.875    3.500    3.500 
#    2.250    1.875    0.000    0.000    0.000    0.000 
#    0.000    0.000    0.000    0.000    0.000    0.000 
#
# Total GULP energy -89243.766310 kJ/mol
# GULP energy per Si atom -5577.735394 kJ/mol
# Density = 2.488078 g / cm^3
# Si number density = 24.937538 Si / 1000 Ang^3
#
#
#
# Elastic Constant Matrix: (Units=GPa)
#
#
# Indices 1 2 3 4 5 6 
#
# 1 131.9802 35.9323 62.9272 -7.0292 -1.0118 -5.2545
# 2 35.9323 34.3110 36.7450 3.2565 -9.9614 -7.1968
# 3 62.9272 36.7450 158.5087 10.9824 15.6028 -3.0239
# 4 -7.0292 3.2565 10.9824 13.7621 2.5599 -8.3570
# 5 -1.0118 -9.9614 15.6028 2.5599 36.5455 -3.7110
# 6 -5.2545 -7.1968 -3.0239 -8.3570 -3.7110 48.7628
#
#
#
# Elastic Compliance Matrix: (Units=1/GPa)
#
#
# Indices 1 2 3 4 5 6 
#
# 1 0.013069 -0.012057 -0.003052 0.013348 -0.002400 0.001545
# 2 -0.012057 0.063038 -0.011124 -0.012272 0.023166 0.006974
# 3 -0.003052 -0.011124 0.011391 -0.008602 -0.007715 -0.003326
# 4 0.013348 -0.012272 -0.008602 0.099733 -0.004682 0.015830
# 5 -0.002400 0.023166 -0.007715 -0.004682 0.037715 0.004750
# 6 0.001545 0.006974 -0.003326 0.015830 0.004750 0.024571
#
#
# Mechanical properties :
#
#
# Convention : Reuss Voigt Hill
#
# Bulk Modulus (GPa) = 28.54547 66.22322 47.38435
# Shear Modulus (GPa) = 15.94074 32.42711 24.18393
#
# Velocity S-wave (km/s) = 2.53104 3.60993 3.11751
# Velocity P-wave (km/s) = 4.47361 6.63240 5.65694
#
# Compressibility (1/GPa) = 0.03503182
#
# Stress axis : x y z
#
# Youngs Moduli (GPa) = 76.51761 15.86340 87.78673
#
# Poissons Ratio (x) = 0.19127 0.26796
# Poissons Ratio (y) = 0.92258 0.97652
# Poissons Ratio (z) = 0.23356 0.17646
#
# Static dielectric constant tensor:
#      x y z
#    x 2.166190 0.409590 0.121390 
#    y 0.409590 2.758210 0.210760 
#    z 0.121390 0.210760 2.108650 
# 
# From -- ./inp_files/245105.got.cif
#   From: 2010.05.17/outbox.cif.g08.bks.cpg/sg2_123_cif.got.tgz:245105.got - 2010.06.03 11:33:40.
