data_PCOD9019656
_publ_section_title
;
Structure prediction by ZEFSAII (Michael W. Deem and Ramdas Pophale) SiO2 
 PCOD9019656
Probable space group: P -1
;
_chemical_formula_sum "Si O2"
_cell_formula_units_Z 14
_cell_length_a 11.909021
_cell_length_b 18.649412
_cell_length_c 8.002134
_cell_angle_alpha 43.066229
_cell_angle_beta 138.866585
_cell_angle_gamma 141.211163
_cell_volume 686.549581
_symmetry_space_group_name_H-M "P -1"
_symmetry_group_IT_number 2
_symmetry_cell_setting 'triclinic'
loop_
_space_group_symop_operation_xyz
x,y,z
-x,-y,-z
loop_
_atom_site_type_symbol
_atom_site_label
_atom_site_fract_x
_atom_site_fract_y
_atom_site_fract_z
Si Si1 0.227531 0.780049 0.405258
Si Si2 0.006406 0.927135 0.887708
Si Si3 0.061907 0.448299 0.316178
Si Si4 0.635009 0.302472 0.586691
Si Si5 0.395524 0.205019 0.163509
Si Si6 0.322650 0.365677 0.562777
Si Si7 0.754093 0.824111 0.442418
O O1 0.242552 0.752943 0.271044
O O2 0.456153 0.845663 0.609900
O O3 0.113358 0.650469 0.594790
O O4 0.120443 0.856281 0.181169
O O5 0.828393 0.895305 0.870528
O O6 0.890805 0.873699 0.674036
O O7 0.157862 0.068262 0.778304
O O8 0.219072 0.564633 0.402721
O O9 0.163838 0.377087 0.474998
O O10 0.000000 0.500000 0.000000
O O11 0.497073 0.293580 0.289471
O O12 0.472091 0.219879 0.683122
O O13 0.401714 0.289966 0.879306
O O14 0.500000 0.500000 0.500000
O O15 0.240456 0.291615 0.426195
#
# Coordination Sequence:
#
# PCOD9019656 Si02
#       7
#     2   2   2   2   2   2   2
#     4  10  22  41  64  90 125 168 208 256 310 376
#     4  10  21  45  65  90 127 169 217 249 310 373
#     4  12  24  39  61  96 130 164 209 262 318 374
#     4   9  22  40  62  88 127 164 206 260 305 377
#     4   9  22  41  61  93 125 162 212 253 309 379
#     4  12  23  39  64  91 131 162 203 268 319 362
#     4  10  23  41  65  95 123 167 213 260 307 375
#
# _framework density 20.391825000000001
#
# number of rings (size 3 to 8) (size 9 to 14) (size 15 to 20)
#    0.857    0.857    2.857    1.286    2.000    2.857 
#    0.000    0.714    0.000    0.000    0.000    0.000 
#    0.000    0.000    0.000    0.000    0.000    0.000 
#
# Total GULP energy -78072.227555 kJ/mol
# GULP energy per Si atom -5576.587683 kJ/mol
# Density = 2.034541 g / cm^3
# Si number density = 20.391825 Si / 1000 Ang^3
#
#
#
# Elastic Constant Matrix: (Units=GPa)
#
#
# Indices 1 2 3 4 5 6 
#
# 1 96.7256 38.1030 17.6819 2.5423 14.0879 36.7672
# 2 38.1030 103.3360 22.1523 -7.2964 1.2080 17.9685
# 3 17.6819 22.1523 80.3895 -2.6454 8.0644 25.9640
# 4 2.5423 -7.2964 -2.6454 18.0477 2.7012 -7.3037
# 5 14.0879 1.2080 8.0644 2.7012 35.0184 4.4224
# 6 36.7672 17.9685 25.9640 -7.3037 4.4224 37.0641
#
#
#
# Elastic Compliance Matrix: (Units=1/GPa)
#
#
# Indices 1 2 3 4 5 6 
#
# 1 0.022436 -0.005911 0.004835 -0.014049 -0.005712 -0.024865
# 2 -0.005911 0.012415 -0.003072 0.006364 0.001782 0.003038
# 3 0.004835 -0.003072 0.017666 -0.005436 -0.003424 -0.016346
# 4 -0.014049 0.006364 -0.005436 0.071270 -0.002475 0.028998
# 5 -0.005712 0.001782 -0.003424 -0.002475 0.031398 0.002966
# 6 -0.024865 0.003038 -0.016346 0.028998 0.002966 0.066984
#
#
# Mechanical properties :
#
#
# Convention : Reuss Voigt Hill
#
# Bulk Modulus (GPa) = 22.61262 48.48064 35.54663
# Shear Modulus (GPa) = 20.39119 31.52696 25.95908
#
# Velocity S-wave (km/s) = 3.16566 3.93626 3.57180
# Velocity P-wave (km/s) = 4.94722 6.66971 5.87197
#
# Compressibility (1/GPa) = 0.04422309
#
# Stress axis : x y z
#
# Youngs Moduli (GPa) = 44.57168 80.54454 56.60537
#
# Poissons Ratio (x) = 0.47609 -0.27371
# Poissons Ratio (y) = 0.26346 0.17387
# Poissons Ratio (z) = -0.21552 0.24740
#
# Static dielectric constant tensor:
#      x y z
#    x 1.787910 -0.001480 -0.012490 
#    y -0.001480 1.708580 0.032460 
#    z -0.012490 0.032460 1.705580 
# 
# From -- ./inp_files/238433.got.cif
#   From: 2010.05.17/outbox.cif.g08.bks.cpg/sg2_120_cif.got.tgz:238433.got - 2010.06.03 11:33:40.
