data_PCOD9019242
_publ_section_title
;
Structure prediction by ZEFSAII (Michael W. Deem and Ramdas Pophale) SiO2 
 PCOD9019242
Probable space group: P -1
;
_chemical_formula_sum "Si O2"
_cell_formula_units_Z 16
_cell_length_a 14.883089
_cell_length_b 11.913466
_cell_length_c 9.723549
_cell_angle_alpha 49.478105
_cell_angle_beta 67.390281
_cell_angle_gamma 108.291032
_cell_volume 720.709292
_symmetry_space_group_name_H-M "P -1"
_symmetry_group_IT_number 2
_symmetry_cell_setting 'triclinic'
loop_
_space_group_symop_operation_xyz
x,y,z
-x,-y,-z
loop_
_atom_site_type_symbol
_atom_site_label
_atom_site_fract_x
_atom_site_fract_y
_atom_site_fract_z
Si Si1 0.765199 0.836878 0.236280
Si Si2 0.660276 0.157110 0.692489
Si Si3 0.755620 0.937798 0.865336
Si Si4 0.354977 0.887706 0.581553
Si Si5 0.854062 0.608028 0.405559
Si Si6 0.647524 0.776674 0.635273
Si Si7 0.853322 0.542871 0.769037
Si Si8 0.819373 0.802451 0.705776
O O1 0.768759 0.663283 0.387542
O O2 0.659923 0.781629 0.461572
O O3 0.705582 0.816825 0.139182
O O4 0.952580 0.121736 0.917923
O O5 0.688241 0.016066 0.806445
O O6 0.646552 0.173206 0.524984
O O7 0.802611 0.428419 0.463158
O O8 0.500000 0.000000 0.000000
O O9 0.952791 0.196793 0.547595
O O10 0.721662 0.771635 0.903876
O O11 0.500000 0.000000 0.500000
O O12 0.367448 0.078042 0.416988
O O13 0.195189 0.652580 0.952154
O O14 0.805509 0.484426 0.683198
O O15 0.810891 0.897468 0.502666
O O16 0.500000 0.500000 0.000000
O O17 0.766187 0.577131 0.865586
O O18 0.000000 0.000000 0.500000
#
# Coordination Sequence:
#
# PCOD9019242 Si02
#       8
#     2   2   2   2   2   2   2   2
#     4  10  24  43  73 100 132 186 232 280 350 417
#     4  12  28  45  67  98 148 181 229 295 349 421
#     4  10  24  44  68 104 136 178 232 287 348 419
#     4  12  28  46  69 100 138 189 235 282 367 416
#     4  10  23  44  70 103 140 177 228 284 348 417
#     4  12  26  46  73  96 138 189 240 291 350 429
#     4  10  22  43  73 100 139 179 226 292 345 416
#     4  10  21  44  70 100 140 176 231 297 343 410
#
# _framework density 22.200353
#
# number of rings (size 3 to 8) (size 9 to 14) (size 15 to 20)
#    0.000    1.250    2.500    1.500   10.500    2.500 
#    0.000    1.250    0.000    0.000    0.000    0.000 
#    0.000    0.000    0.000    0.000    0.000    0.000 
#
# Total GULP energy -89490.242795 kJ/mol
# GULP energy per Si atom -5593.140175 kJ/mol
# Density = 2.214982 g / cm^3
# Si number density = 22.200353 Si / 1000 Ang^3
#
#
#
# Elastic Constant Matrix: (Units=GPa)
#
#
# Indices 1 2 3 4 5 6 
#
# 1 92.1251 47.8318 14.2014 0.5827 13.7389 3.9575
# 2 47.8318 161.4999 56.8459 30.3478 17.5048 0.6620
# 3 14.2014 56.8459 95.8263 19.5783 21.8861 9.8011
# 4 0.5827 30.3478 19.5783 35.4854 5.8371 10.4970
# 5 13.7389 17.5048 21.8861 5.8371 28.2956 7.3786
# 6 3.9575 0.6620 9.8011 10.4970 7.3786 38.4364
#
#
#
# Elastic Compliance Matrix: (Units=1/GPa)
#
#
# Indices 1 2 3 4 5 6 
#
# 1 0.014046 -0.004919 0.001265 0.004719 -0.005215 -0.001972
# 2 -0.004919 0.010610 -0.004329 -0.007623 -0.000178 0.003544
# 3 0.001265 -0.004329 0.015649 -0.003028 -0.009028 -0.001486
# 4 0.004719 -0.007623 -0.003028 0.039431 -0.000704 -0.010216
# 5 -0.005215 -0.000178 -0.009028 -0.000704 0.046656 -0.005922
# 6 -0.001972 0.003544 -0.001486 -0.010216 -0.005922 0.030465
#
#
# Mechanical properties :
#
#
# Convention : Reuss Voigt Hill
#
# Bulk Modulus (GPa) = 41.08728 65.24551 53.16639
# Shear Modulus (GPa) = 27.63408 35.81497 31.72453
#
# Velocity S-wave (km/s) = 3.53194 4.02090 3.78433
# Velocity P-wave (km/s) = 5.93131 7.14213 6.56470
#
# Compressibility (1/GPa) = 0.02433843
#
# Stress axis : x y z
#
# Youngs Moduli (GPa) = 71.19334 94.25117 63.90293
#
# Poissons Ratio (x) = 0.46360 -0.08082
# Poissons Ratio (y) = 0.35019 0.27665
# Poissons Ratio (z) = -0.09004 0.40804
#
# Static dielectric constant tensor:
#      x y z
#    x 1.830280 0.066250 -0.006010 
#    y 0.066250 1.981310 0.081380 
#    z -0.006010 0.081380 1.911900 
# 
# From -- ./inp_files/271464.got.cif
#   From: 2010.05.17/outbox.cif.g08.bks.cpg/sg2_136_cif.got.tgz:271464.got - 2010.06.03 11:33:40.
