data_PCOD9019035
_publ_section_title
;
Structure prediction by ZEFSAII (Michael W. Deem and Ramdas Pophale) SiO2 
 PCOD9019035
Probable space group: P -1
;
_chemical_formula_sum "Si O2"
_cell_formula_units_Z 16
_cell_length_a 8.871247
_cell_length_b 7.438016
_cell_length_c 14.652295
_cell_angle_alpha 58.766160
_cell_angle_beta 59.632239
_cell_angle_gamma 96.436549
_cell_volume 614.678315
_symmetry_space_group_name_H-M "P -1"
_symmetry_group_IT_number 2
_symmetry_cell_setting 'triclinic'
loop_
_space_group_symop_operation_xyz
x,y,z
-x,-y,-z
loop_
_atom_site_type_symbol
_atom_site_label
_atom_site_fract_x
_atom_site_fract_y
_atom_site_fract_z
Si Si1 0.292428 0.799008 0.378396
Si Si2 0.484055 0.812134 0.654393
Si Si3 0.736928 0.894157 0.405402
Si Si4 0.609366 0.455148 0.072938
Si Si5 0.154314 0.088025 0.036132
Si Si6 0.939221 0.367812 0.695382
Si Si7 0.734731 0.906001 0.205041
Si Si8 0.165891 0.325529 0.219617
O O1 0.194542 0.769387 0.316678
O O2 0.529031 0.906816 0.257551
O O3 0.158951 0.535967 0.536755
O O4 0.318232 0.975652 0.409111
O O5 0.347743 0.916623 0.628605
O O6 0.350373 0.626312 0.821798
O O7 0.580239 0.713844 0.576570
O O8 0.968520 0.066045 0.322058
O O9 0.702083 0.775958 0.347652
O O10 0.368074 0.306907 0.172659
O O11 0.663884 0.731106 0.003103
O O12 0.755335 0.479414 0.939926
O O13 0.081063 0.818285 0.169204
O O14 0.222387 0.148859 0.895078
O O15 0.962725 0.127593 0.098141
O O16 0.875540 0.551078 0.713390
#
# Coordination Sequence:
#
# PCOD9019035 Si02
#       8
#     2   2   2   2   2   2   2   2
#     4  10  23  45  67 100 127 174 222 266 328 384
#     4  10  23  43  69  97 131 170 220 271 323 392
#     4  10  21  44  67  97 130 172 221 265 327 385
#     4  11  26  43  66  99 134 170 218 273 329 383
#     4  11  25  46  65  99 135 173 216 269 331 385
#     4  11  25  44  71  94 134 173 220 269 324 395
#     4  10  23  44  65  97 132 171 221 266 327 387
#     4  11  24  43  65  99 130 175 218 267 329 385
#
# _framework density 26.029872999999998
#
# number of rings (size 3 to 8) (size 9 to 14) (size 15 to 20)
#    0.000    1.500    2.500    0.750    7.000    4.500 
#    6.750    0.000    0.000    0.000    0.000    0.000 
#    0.000    0.000    0.000    0.000    0.000    0.000 
#
# Total GULP energy -89163.976468 kJ/mol
# GULP energy per Si atom -5572.748529 kJ/mol
# Density = 2.597063 g / cm^3
# Si number density = 26.029873 Si / 1000 Ang^3
#
#
#
# Elastic Constant Matrix: (Units=GPa)
#
#
# Indices 1 2 3 4 5 6 
#
# 1 69.3401 34.7105 43.4810 13.3642 0.4450 17.4914
# 2 34.7105 84.2503 30.5829 23.3558 0.5420 25.4030
# 3 43.4810 30.5829 150.2818 30.8348 -5.3077 1.8613
# 4 13.3642 23.3558 30.8348 51.0889 2.8863 -0.0693
# 5 0.4450 0.5420 -5.3077 2.8863 32.6256 2.0271
# 6 17.4914 25.4030 1.8613 -0.0693 2.0271 33.2867
#
#
#
# Elastic Compliance Matrix: (Units=1/GPa)
#
#
# Indices 1 2 3 4 5 6 
#
# 1 0.022134 -0.004783 -0.005274 -0.000398 -0.000570 -0.007652
# 2 -0.004783 0.020136 -0.000994 -0.007430 0.001026 -0.012876
# 3 -0.005274 -0.000994 0.009189 -0.003806 0.001740 0.002902
# 4 -0.000398 -0.007430 -0.003806 0.025558 -0.003145 0.006337
# 5 -0.000570 0.001026 0.001740 -0.003145 0.031358 -0.002497
# 6 -0.007652 -0.012876 0.002902 0.006337 -0.002497 0.043892
#
#
# Mechanical properties :
#
#
# Convention : Reuss Voigt Hill
#
# Bulk Modulus (GPa) = 34.06381 57.93566 45.99974
# Shear Modulus (GPa) = 27.15095 36.40676 31.77885
#
# Velocity S-wave (km/s) = 3.23316 3.74391 3.49787
# Velocity P-wave (km/s) = 5.20121 6.40272 5.83299
#
# Compressibility (1/GPa) = 0.02935667
#
# Stress axis : x y z
#
# Youngs Moduli (GPa) = 45.17932 49.66161 108.82731
#
# Poissons Ratio (x) = 0.23755 0.57399
# Poissons Ratio (y) = 0.21611 0.10813
# Poissons Ratio (z) = 0.23829 0.04935
#
# Static dielectric constant tensor:
#      x y z
#    x 2.098290 -0.061160 0.078320 
#    y -0.061160 2.122010 -0.012830 
#    z 0.078320 -0.012830 2.091060 
# 
# From -- ./inp_files/494468.got.cif
#   From: 2010.05.17/outbox.cif.g08.bks.cpg/sg2_248_cif.got.tgz:494468.got - 2010.06.03 11:33:40.
