data_PCOD9019980
_publ_section_title
;
Structure prediction by ZEFSAII (Michael W. Deem and Ramdas Pophale) SiO2 
 PCOD9019980
Probable space group: P -1
;
_chemical_formula_sum "Si O2"
_cell_formula_units_Z 14
_cell_length_a 8.939683
_cell_length_b 11.647628
_cell_length_c 9.352440
_cell_angle_alpha 68.464993
_cell_angle_beta 68.856576
_cell_angle_gamma 117.897456
_cell_volume 609.972927
_symmetry_space_group_name_H-M "P -1"
_symmetry_group_IT_number 2
_symmetry_cell_setting 'triclinic'
loop_
_space_group_symop_operation_xyz
x,y,z
-x,-y,-z
loop_
_atom_site_type_symbol
_atom_site_label
_atom_site_fract_x
_atom_site_fract_y
_atom_site_fract_z
Si Si1 0.812592 0.686975 0.421456
Si Si2 0.306573 0.982388 0.007559
Si Si3 0.753757 0.669434 0.784132
Si Si4 0.546599 0.060921 0.618942
Si Si5 0.585183 0.362743 0.457276
Si Si6 0.195614 0.517294 0.973395
Si Si7 0.612334 0.845058 0.841248
O O1 0.796041 0.665917 0.606677
O O2 0.698090 0.509196 0.467802
O O3 0.674481 0.737326 0.404857
O O4 0.061487 0.823096 0.216576
O O5 0.367599 0.140142 0.000277
O O6 0.332708 0.973764 0.834554
O O7 0.500000 0.000000 0.000000
O O8 0.771872 0.823064 0.740006
O O9 0.500000 0.500000 0.000000
O O10 0.894948 0.652460 0.840158
O O11 0.664330 0.005146 0.676970
O O12 0.500000 0.000000 0.500000
O O13 0.648030 0.252576 0.502710
O O14 0.667263 0.443846 0.233603
O O15 0.364933 0.679350 0.947020
O O16 0.000000 0.500000 0.000000
#
# Coordination Sequence:
#
# PCOD9019980 Si02
#       7
#     2   2   2   2   2   2   2
#     4  11  24  47  69 108 142 193 243 293 361 429
#     4  10  26  44  68 100 146 188 240 294 353 434
#     4  10  21  45  75 101 140 188 238 293 352 432
#     4  11  22  44  69 102 146 183 233 299 357 425
#     4  11  25  42  72 104 147 186 241 300 360 423
#     4  11  24  42  71 108 140 185 241 300 353 424
#     4  10  22  46  68 100 145 185 238 285 361 424
#
# _framework density 22.951839
#
# number of rings (size 3 to 8) (size 9 to 14) (size 15 to 20)
#    0.000    1.429    4.286    0.000    8.000    3.429 
#    2.571    3.571    0.000    0.000    0.000    0.000 
#    0.000    0.000    0.000    0.000    0.000    0.000 
#
# Total GULP energy -78177.033611 kJ/mol
# GULP energy per Si atom -5584.073829 kJ/mol
# Density = 2.289960 g / cm^3
# Si number density = 22.951839 Si / 1000 Ang^3
#
#
#
# Elastic Constant Matrix: (Units=GPa)
#
#
# Indices 1 2 3 4 5 6 
#
# 1 143.6779 56.0938 44.4170 -7.5536 5.7304 -20.4966
# 2 56.0938 127.8565 58.3027 34.1954 7.2006 -24.7105
# 3 44.4170 58.3027 132.5731 36.4624 -11.0058 -0.5721
# 4 -7.5536 34.1954 36.4624 40.6813 -4.0528 2.1149
# 5 5.7304 7.2006 -11.0058 -4.0528 35.3293 -15.6715
# 6 -20.4966 -24.7105 -0.5721 2.1149 -15.6715 35.6721
#
#
#
# Elastic Compliance Matrix: (Units=1/GPa)
#
#
# Indices 1 2 3 4 5 6 
#
# 1 0.011161 -0.005309 -0.004193 0.010191 0.000062 0.002091
# 2 -0.005309 0.016292 -0.001623 -0.013746 -0.000670 0.008730
# 3 -0.004193 -0.001623 0.012815 -0.010512 0.003226 -0.001288
# 4 0.010191 -0.013746 -0.010512 0.047835 0.000500 -0.006452
# 5 0.000062 -0.000670 0.003226 0.000500 0.036409 0.015589
# 6 0.002091 0.008730 -0.001288 -0.006452 0.015589 0.042492
#
#
# Mechanical properties :
#
#
# Convention : Reuss Voigt Hill
#
# Bulk Modulus (GPa) = 55.50457 80.19272 67.84864
# Shear Modulus (GPa) = 25.60676 38.68947 32.14812
#
# Velocity S-wave (km/s) = 3.34379 4.11016 3.74662
# Velocity P-wave (km/s) = 6.25648 7.58551 6.95282
#
# Compressibility (1/GPa) = 0.01801654
#
# Stress axis : x y z
#
# Youngs Moduli (GPa) = 89.60053 61.37903 78.03312
#
# Poissons Ratio (x) = 0.32589 0.32719
# Poissons Ratio (y) = 0.47573 0.12667
# Poissons Ratio (z) = 0.37569 0.09964
#
# Static dielectric constant tensor:
#      x y z
#    x 1.928120 -0.017850 0.001180 
#    y -0.017850 1.897940 -0.005420 
#    z 0.001180 -0.005420 1.945700 
# 
# From -- ./inp_files/185834.got.cif
#   From: 2010.05.17/outbox.cif.g08.bks.cpg/sg2_93_cif.got.tgz:185834.got - 2010.06.03 11:33:40.
