data_PCOD9019494
_publ_section_title
;
Structure prediction by ZEFSAII (Michael W. Deem and Ramdas Pophale) SiO2 
 PCOD9019494
Probable space group: P -1
;
_chemical_formula_sum "Si O2"
_cell_formula_units_Z 16
_cell_length_a 13.792221
_cell_length_b 9.354167
_cell_length_c 13.935119
_cell_angle_alpha 87.423481
_cell_angle_beta 147.642542
_cell_angle_gamma 113.260633
_cell_volume 715.649500
_symmetry_space_group_name_H-M "P -1"
_symmetry_group_IT_number 2
_symmetry_cell_setting 'triclinic'
loop_
_space_group_symop_operation_xyz
x,y,z
-x,-y,-z
loop_
_atom_site_type_symbol
_atom_site_label
_atom_site_fract_x
_atom_site_fract_y
_atom_site_fract_z
Si Si1 0.022182 0.372504 0.094028
Si Si2 0.339682 0.020815 0.930030
Si Si3 0.439164 0.075143 0.236971
Si Si4 0.723333 0.590775 0.993689
Si Si5 0.202441 0.220263 0.133889
Si Si6 0.153729 0.348930 0.525313
Si Si7 0.087562 0.568760 0.339270
Si Si8 0.253422 0.279893 0.800197
O O1 0.762251 0.149490 0.893484
O O2 0.000000 0.500000 0.000000
O O3 0.210706 0.345025 0.220620
O O4 0.105681 0.480341 0.262623
O O5 0.325846 0.156455 0.850873
O O6 0.431834 0.082898 0.114672
O O7 0.056574 0.828770 0.709360
O O8 0.500000 0.000000 0.000000
O O9 0.389818 0.205667 0.242021
O O10 0.715410 0.199250 0.499860
O O11 0.854834 0.703156 0.003327
O O12 0.432255 0.445582 0.740107
O O13 0.822042 0.750483 0.152087
O O14 0.816204 0.487402 0.110049
O O15 0.000000 0.000000 0.000000
O O16 0.132934 0.503203 0.475993
O O17 0.093040 0.268389 0.585417
O O18 0.500000 0.500000 0.000000
#
# Coordination Sequence:
#
# PCOD9019494 Si02
#       8
#     2   2   2   2   2   2   2   2
#     4  11  24  45  72 111 146 187 253 301 360 442
#     4  12  26  45  74 109 147 191 249 299 362 446
#     4  11  24  47  71 108 148 192 244 300 372 434
#     4  11  23  46  71 103 146 193 242 298 369 434
#     4  10  21  44  72  98 147 187 238 300 358 431
#     4  11  25  45  71 104 148 190 240 301 366 431
#     4  12  25  45  76 106 148 192 242 308 363 434
#     4  10  23  44  68 100 143 185 244 291 362 437
#
# _framework density 22.357313000000001
#
# number of rings (size 3 to 8) (size 9 to 14) (size 15 to 20)
#    0.000    1.000    5.000    1.125    5.250    1.500 
#    2.250    0.000    0.000    0.000    0.000    0.000 
#    0.000    0.000    0.000    0.000    0.000    0.000 
#
# Total GULP energy -89079.611898 kJ/mol
# GULP energy per Si atom -5567.475744 kJ/mol
# Density = 2.230643 g / cm^3
# Si number density = 22.357313 Si / 1000 Ang^3
#
#
#
# Elastic Constant Matrix: (Units=GPa)
#
#
# Indices 1 2 3 4 5 6 
#
# 1 77.6071 30.6665 38.5799 -10.2661 2.3773 -13.8142
# 2 30.6665 114.5182 52.6596 2.2742 7.1715 2.3360
# 3 38.5799 52.6596 129.1061 3.5928 -1.5843 -5.0280
# 4 -10.2661 2.2742 3.5928 35.4869 -7.3370 4.0259
# 5 2.3773 7.1715 -1.5843 -7.3370 21.6876 1.3193
# 6 -13.8142 2.3360 -5.0280 4.0259 1.3193 39.0828
#
#
#
# Elastic Compliance Matrix: (Units=1/GPa)
#
#
# Indices 1 2 3 4 5 6 
#
# 1 0.017733 -0.003165 -0.003938 0.005166 0.000234 0.005410
# 2 -0.003165 0.011732 -0.003916 -0.001948 -0.004357 -0.001976
# 3 -0.003938 -0.003916 0.010600 -0.001594 0.001943 0.000304
# 4 0.005166 -0.001948 -0.001594 0.032473 0.011068 -0.001981
# 5 0.000234 -0.004357 0.001943 0.011068 0.051550 -0.002287
# 6 0.005410 -0.001976 0.000304 -0.001981 -0.002287 0.027938
#
#
# Mechanical properties :
#
#
# Convention : Reuss Voigt Hill
#
# Bulk Modulus (GPa) = 55.47359 62.78259 59.12809
# Shear Modulus (GPa) = 27.76644 32.53981 30.15313
#
# Velocity S-wave (km/s) = 3.52794 3.81917 3.67644
# Velocity P-wave (km/s) = 6.43904 6.89858 6.67277
#
# Compressibility (1/GPa) = 0.01802660
#
# Stress axis : x y z
#
# Youngs Moduli (GPa) = 56.39104 85.23451 94.34338
#
# Poissons Ratio (x) = 0.26980 0.37154
# Poissons Ratio (y) = 0.17850 0.36942
# Poissons Ratio (z) = 0.22208 0.33375
#
# Static dielectric constant tensor:
#      x y z
#    x 1.995950 -0.017810 0.037860 
#    y -0.017810 1.934470 -0.033470 
#    z 0.037860 -0.033470 1.855470 
# 
# From -- ./inp_files/529856.got.cif
#   From: 2010.05.17/outbox.cif.g08.bks.cpg/sg2_265_cif.got.tgz:529856.got - 2010.06.03 11:33:40.
