data_PCOD9019886
_publ_section_title
;
Structure prediction by ZEFSAII (Michael W. Deem and Ramdas Pophale) SiO2 
 PCOD9019886
Probable space group: P -1
;
_chemical_formula_sum "Si O2"
_cell_formula_units_Z 15
_cell_length_a 10.158675
_cell_length_b 5.120700
_cell_length_c 11.826127
_cell_angle_alpha 73.855101
_cell_angle_beta 83.126485
_cell_angle_gamma 71.243702
_cell_volume 559.236191
_symmetry_space_group_name_H-M "P -1"
_symmetry_group_IT_number 2
_symmetry_cell_setting 'triclinic'
loop_
_space_group_symop_operation_xyz
x,y,z
-x,-y,-z
loop_
_atom_site_type_symbol
_atom_site_label
_atom_site_fract_x
_atom_site_fract_y
_atom_site_fract_z
Si Si1 0.809131 0.357976 0.544747
Si Si2 0.425702 0.825098 0.949563
Si Si3 0.811032 0.800479 0.728672
Si Si4 0.500000 0.500000 0.500000
Si Si5 0.218085 0.021157 0.598403
Si Si6 0.141307 0.132890 0.036463
Si Si7 0.041737 0.237999 0.806133
Si Si8 0.493817 0.941414 0.676368
O O1 0.643729 0.442110 0.565548
O O2 0.834126 0.666641 0.493692
O O3 0.855582 0.081551 0.656971
O O4 0.838964 0.198115 0.438854
O O5 0.440605 0.889001 0.809711
O O6 0.500000 0.500000 0.000000
O O7 0.267326 0.892759 0.995327
O O8 0.500000 0.000000 0.000000
O O9 0.661475 0.828737 0.683775
O O10 0.930556 0.507137 0.727376
O O11 0.794589 0.776459 0.868504
O O12 0.547669 0.727502 0.386232
O O13 0.159563 0.089520 0.721671
O O14 0.390118 0.866326 0.599641
O O15 0.029075 0.992873 0.113525
O O16 0.090623 0.340990 0.908974
#
# Coordination Sequence:
#
# PCOD9019886 Si02
#       8
#     2   2   2   1   2   2   2   2
#     4  10  25  44  73 107 144 186 239 295 362 424
#     4  12  25  45  74 112 144 184 245 303 362 428
#     4  11  24  45  72 103 142 189 235 305 355 430
#     4   8  20  42  68 104 142 180 230 288 362 414
#     4  11  25  48  72 107 143 191 238 296 357 430
#     4  11  25  47  69 105 141 196 238 295 362 432
#     4  11  26  46  70 101 145 193 239 296 359 430
#     4  10  21  45  71 109 140 190 235 305 354 433
#
# _framework density 26.822299000000001
#
# number of rings (size 3 to 8) (size 9 to 14) (size 15 to 20)
#    0.000    1.333    2.667    1.200    3.733    8.000 
#    4.800    0.000    0.000    0.000    0.000    0.000 
#    0.000    0.000    0.000    0.000    0.000    0.000 
#
# Total GULP energy -83738.203243 kJ/mol
# GULP energy per Si atom -5582.546883 kJ/mol
# Density = 2.676125 g / cm^3
# Si number density = 26.822299 Si / 1000 Ang^3
#
#
#
# Elastic Constant Matrix: (Units=GPa)
#
#
# Indices 1 2 3 4 5 6 
#
# 1 81.3062 51.7835 36.4507 -12.6210 6.4548 -19.5987
# 2 51.7835 140.5526 42.0007 -26.9357 9.0407 -2.4809
# 3 36.4507 42.0007 176.6274 -6.7944 9.1587 -7.5355
# 4 -12.6210 -26.9357 -6.7944 44.1771 -4.4722 7.5826
# 5 6.4548 9.0407 9.1587 -4.4722 54.7423 0.9500
# 6 -19.5987 -2.4809 -7.5355 7.5826 0.9500 52.0472
#
#
#
# Elastic Compliance Matrix: (Units=1/GPa)
#
#
# Indices 1 2 3 4 5 6 
#
# 1 0.018774 -0.006092 -0.002095 0.000118 -0.000960 0.006476
# 2 -0.006092 0.010645 -0.001176 0.004989 -0.000389 -0.002677
# 3 -0.002095 -0.001176 0.006399 -0.000426 -0.000667 0.000156
# 4 0.000118 0.004989 -0.000426 0.026421 0.001455 -0.003655
# 5 -0.000960 -0.000389 -0.000667 0.001455 0.018693 -0.001030
# 6 0.006476 -0.002677 0.000156 -0.003655 -0.001030 0.022098
#
#
# Mechanical properties :
#
#
# Convention : Reuss Voigt Hill
#
# Bulk Modulus (GPa) = 58.51224 73.21733 65.86478
# Shear Modulus (GPa) = 39.23015 48.07674 43.65345
#
# Velocity S-wave (km/s) = 3.82854 4.23829 4.03861
# Velocity P-wave (km/s) = 6.43473 7.16291 6.80856
#
# Compressibility (1/GPa) = 0.01709044
#
# Stress axis : x y z
#
# Youngs Moduli (GPa) = 53.26487 93.94457 156.28637
#
# Poissons Ratio (x) = 0.57232 0.32744
# Poissons Ratio (y) = 0.32450 0.18381
# Poissons Ratio (z) = 0.11160 0.11049
#
# Static dielectric constant tensor:
#      x y z
#    x 2.199450 -0.100740 0.104360 
#    y -0.100740 2.608340 0.183860 
#    z 0.104360 0.183860 2.162410 
# 
# From -- ./inp_files/362842.got.cif
#   From: 2010.05.17/outbox.cif.g08.bks.cpg/sg2_182_cif.got.tgz:362842.got - 2010.06.03 11:33:40.
