data_PCOD9019282
_publ_section_title
;
Structure prediction by ZEFSAII (Michael W. Deem and Ramdas Pophale) SiO2 
 PCOD9019282
Probable space group: P -1
;
_chemical_formula_sum "Si O2"
_cell_formula_units_Z 16
_cell_length_a 9.226640
_cell_length_b 14.447091
_cell_length_c 12.231132
_cell_angle_alpha 80.504896
_cell_angle_beta 112.136608
_cell_angle_gamma 149.834593
_cell_volume 712.139048
_symmetry_space_group_name_H-M "P -1"
_symmetry_group_IT_number 2
_symmetry_cell_setting 'triclinic'
loop_
_space_group_symop_operation_xyz
x,y,z
-x,-y,-z
loop_
_atom_site_type_symbol
_atom_site_label
_atom_site_fract_x
_atom_site_fract_y
_atom_site_fract_z
Si Si1 0.300652 0.698965 0.482115
Si Si2 0.330222 0.169667 0.631013
Si Si3 0.787791 0.703888 0.819695
Si Si4 0.808119 0.323735 0.851968
Si Si5 0.080579 0.018477 0.259890
Si Si6 0.047526 0.330104 0.745119
Si Si7 0.169422 0.945718 0.105223
Si Si8 0.860053 0.300562 0.114504
O O1 0.396948 0.676419 0.416168
O O2 0.607407 0.865176 0.617532
O O3 0.000000 0.500000 0.500000
O O4 0.179852 0.734183 0.392053
O O5 0.467372 0.143917 0.724329
O O6 0.000000 0.000000 0.500000
O O7 0.226301 0.168013 0.713117
O O8 0.859655 0.838114 0.749598
O O9 0.397408 0.488670 0.764604
O O10 0.948890 0.695916 0.814992
O O11 0.945779 0.801328 0.966382
O O12 0.089678 0.425238 0.839909
O O13 0.909027 0.486019 0.856194
O O14 0.754039 0.247475 0.967104
O O15 0.054775 0.976382 0.134564
O O16 0.873802 0.154403 0.792662
O O17 0.541294 0.145439 0.128878
#
# Coordination Sequence:
#
# PCOD9019282 Si02
#       8
#     2   2   2   2   2   2   2   2
#     4  10  21  44  70  92 127 176 218 265 329 384
#     4   9  21  39  69  96 120 169 219 266 313 381
#     4  12  24  42  66  99 134 174 213 272 324 392
#     4  10  22  43  68  92 134 178 213 263 329 394
#     4  11  24  42  70  94 134 171 221 263 327 387
#     4  11  24  42  69  92 134 172 217 271 328 385
#     4  12  26  41  64 102 134 171 215 271 328 392
#     4  11  25  40  67  97 134 174 219 262 329 389
#
# _framework density 22.467521999999999
#
# number of rings (size 3 to 8) (size 9 to 14) (size 15 to 20)
#    0.000    1.250    2.500    2.625    7.000    1.500 
#    0.000    0.000    0.000    8.250    0.000    0.000 
#    0.000    0.000    0.000    0.000    0.000    0.000 
#
# Total GULP energy -89239.041869 kJ/mol
# GULP energy per Si atom -5577.440117 kJ/mol
# Density = 2.241639 g / cm^3
# Si number density = 22.467522 Si / 1000 Ang^3
#
#
#
# Elastic Constant Matrix: (Units=GPa)
#
#
# Indices 1 2 3 4 5 6 
#
# 1 106.4726 37.0266 13.5873 -0.6290 -1.5706 13.3378
# 2 37.0266 91.3541 28.5778 -12.0636 16.7785 19.9574
# 3 13.5873 28.5778 79.9610 -13.6336 11.5439 6.9191
# 4 -0.6290 -12.0636 -13.6336 22.1960 1.4151 5.7965
# 5 -1.5706 16.7785 11.5439 1.4151 39.6351 -11.2057
# 6 13.3378 19.9574 6.9191 5.7965 -11.2057 46.7003
#
#
#
# Elastic Compliance Matrix: (Units=1/GPa)
#
#
# Indices 1 2 3 4 5 6 
#
# 1 0.011412 -0.005502 -0.001146 -0.003729 0.003401 0.000541
# 2 -0.005502 0.020096 -0.001145 0.013833 -0.012130 -0.011474
# 3 -0.001146 -0.001145 0.016172 0.010784 -0.005880 -0.004329
# 4 -0.003729 0.013833 0.010784 0.064990 -0.016700 -0.018518
# 5 0.003401 -0.012130 -0.005880 -0.016700 0.037367 0.016122
# 6 0.000541 -0.011474 -0.004329 -0.018518 0.016122 0.032971
#
#
# Mechanical properties :
#
#
# Convention : Reuss Voigt Hill
#
# Bulk Modulus (GPa) = 31.15887 48.46344 39.81116
# Shear Modulus (GPa) = 23.89004 34.94601 29.41802
#
# Velocity S-wave (km/s) = 3.26439 3.94814 3.62243
# Velocity P-wave (km/s) = 5.30159 6.51160 5.93750
#
# Compressibility (1/GPa) = 0.03209359
#
# Stress axis : x y z
#
# Youngs Moduli (GPa) = 87.62551 49.76188 61.83434
#
# Poissons Ratio (x) = 0.27380 0.07089
# Poissons Ratio (y) = 0.48213 0.07078
# Poissons Ratio (z) = 0.10046 0.05696
#
# Static dielectric constant tensor:
#      x y z
#    x 1.950200 -0.036500 -0.038860 
#    y -0.036500 1.876510 0.064840 
#    z -0.038860 0.064840 1.913650 
# 
# From -- ./inp_files/189760.got.cif
#   From: 2010.05.17/outbox.cif.g08.bks.cpg/sg2_95_cif.got.tgz:189760.got - 2010.06.03 11:33:40.
