data_PCOD9019510
_publ_section_title
;
Structure prediction by ZEFSAII (Michael W. Deem and Ramdas Pophale) SiO2 
 PCOD9019510
Probable space group: P -1
;
_chemical_formula_sum "Si O2"
_cell_formula_units_Z 14
_cell_length_a 6.159788
_cell_length_b 21.882042
_cell_length_c 5.406137
_cell_angle_alpha 120.270043
_cell_angle_beta 96.839137
_cell_angle_gamma 78.548673
_cell_volume 616.653479
_symmetry_space_group_name_H-M "P -1"
_symmetry_group_IT_number 2
_symmetry_cell_setting 'triclinic'
loop_
_space_group_symop_operation_xyz
x,y,z
-x,-y,-z
loop_
_atom_site_type_symbol
_atom_site_label
_atom_site_fract_x
_atom_site_fract_y
_atom_site_fract_z
Si Si1 0.695473 0.340226 0.689157
Si Si2 0.629894 0.704569 0.769350
Si Si3 0.061066 0.219938 0.693216
Si Si4 0.410064 0.090033 0.411305
Si Si5 0.267068 0.834137 0.115754
Si Si6 0.431691 0.584596 0.666719
Si Si7 0.778200 0.043825 0.951801
O O1 0.459331 0.309447 0.549884
O O2 0.711970 0.386760 0.537839
O O3 0.907049 0.278495 0.626604
O O4 0.674338 0.387166 0.030274
O O5 0.639210 0.627249 0.740447
O O6 0.825380 0.741876 0.984351
O O7 0.403965 0.756114 0.931179
O O8 0.247317 0.163548 0.470081
O O9 0.897177 0.172686 0.701099
O O10 0.550035 0.115919 0.704448
O O11 0.582824 0.067839 0.170064
O O12 0.300507 0.022620 0.342529
O O13 0.147343 0.882683 0.984413
O O14 0.500000 0.500000 0.500000
O O15 0.000000 0.000000 0.000000
#
# Coordination Sequence:
#
# PCOD9019510 Si02
#       7
#     2   2   2   2   2   2   2
#     4  10  22  45  67 106 140 186 235 289 351 421
#     4   9  24  40  68 101 140 180 236 289 355 419
#     4  11  22  46  70 102 135 189 233 301 346 429
#     4  10  25  42  64  94 134 175 236 289 365 404
#     4  11  23  44  64  93 132 180 230 288 356 422
#     4  10  21  44  73 101 149 189 227 291 357 420
#     4  11  25  42  63  96 132 181 226 296 355 431
#
# _framework density 22.703185999999999
#
# number of rings (size 3 to 8) (size 9 to 14) (size 15 to 20)
#    0.857    0.857    1.429    1.714    4.000    6.857 
#   10.286    1.429    0.000    0.000    0.000    0.000 
#    0.000    0.000    0.000    0.000    0.000    0.000 
#
# Total GULP energy -77982.599108 kJ/mol
# GULP energy per Si atom -5570.185651 kJ/mol
# Density = 2.265151 g / cm^3
# Si number density = 22.703186 Si / 1000 Ang^3
#
#
#
# Elastic Constant Matrix: (Units=GPa)
#
#
# Indices 1 2 3 4 5 6 
#
# 1 59.1274 43.8114 28.9963 3.9215 11.3430 -20.2299
# 2 43.8114 162.9343 42.6142 13.3440 -0.8715 -17.0226
# 3 28.9963 42.6142 94.2491 1.9009 3.2089 -10.0150
# 4 3.9215 13.3440 1.9009 40.5761 2.2829 5.3349
# 5 11.3430 -0.8715 3.2089 2.2829 30.8459 -1.5870
# 6 -20.2299 -17.0226 -10.0150 5.3349 -1.5870 22.8070
#
#
#
# Elastic Compliance Matrix: (Units=1/GPa)
#
#
# Indices 1 2 3 4 5 6 
#
# 1 0.033539 -0.004899 -0.005113 -0.003967 -0.010409 0.024051
# 2 -0.004899 0.008427 -0.002149 -0.002575 0.002545 0.001780
# 3 -0.005113 -0.002149 0.013074 0.000635 0.000386 -0.000520
# 4 -0.003967 -0.002575 0.000635 0.027454 -0.001312 -0.011675
# 5 -0.010409 0.002545 0.000386 -0.001312 0.036152 -0.004341
# 6 0.024051 0.001780 -0.000520 -0.011675 -0.004341 0.068709
#
#
# Mechanical properties :
#
#
# Convention : Reuss Voigt Hill
#
# Bulk Modulus (GPa) = 32.55427 60.79495 46.67461
# Shear Modulus (GPa) = 22.53094 32.23839 27.38466
#
# Velocity S-wave (km/s) = 3.15368 3.77237 3.47681
# Velocity P-wave (km/s) = 5.25653 6.76836 6.05978
#
# Compressibility (1/GPa) = 0.03071794
#
# Stress axis : x y z
#
# Youngs Moduli (GPa) = 29.81595 118.66424 76.48984
#
# Poissons Ratio (x) = 0.58133 0.39112
# Poissons Ratio (y) = 0.14607 0.16435
# Poissons Ratio (z) = 0.15246 0.25497
#
# Static dielectric constant tensor:
#      x y z
#    x 1.873280 -0.070010 0.096820 
#    y -0.070010 1.954240 0.033790 
#    z 0.096820 0.033790 1.707700 
# 
# From -- ./inp_files/11682.got.cif
#   From: 2010.05.17/outbox.cif.g08.bks.cpg/sg2_6_cif.got.tgz:11682.got - 2010.06.03 11:33:40.
