data_PCOD9019086
_publ_section_title
;
Structure prediction by ZEFSAII (Michael W. Deem and Ramdas Pophale) SiO2 
 PCOD9019086
Probable space group: P -1
;
_chemical_formula_sum "Si O2"
_cell_formula_units_Z 16
_cell_length_a 9.127895
_cell_length_b 11.607323
_cell_length_c 14.814915
_cell_angle_alpha 127.135707
_cell_angle_beta 102.966329
_cell_angle_gamma 43.240030
_cell_volume 787.732551
_symmetry_space_group_name_H-M "P -1"
_symmetry_group_IT_number 2
_symmetry_cell_setting 'triclinic'
loop_
_space_group_symop_operation_xyz
x,y,z
-x,-y,-z
loop_
_atom_site_type_symbol
_atom_site_label
_atom_site_fract_x
_atom_site_fract_y
_atom_site_fract_z
Si Si1 0.793484 0.496844 0.665965
Si Si2 0.465731 0.327813 0.770334
Si Si3 0.827211 0.957997 0.779347
Si Si4 0.916581 0.172367 0.991615
Si Si5 0.258841 0.253408 0.579426
Si Si6 0.266772 0.142458 0.092128
Si Si7 0.731712 0.235714 0.595418
Si Si8 0.720127 0.545198 0.469898
O O1 0.785539 0.656237 0.788323
O O2 0.696908 0.433729 0.677095
O O3 0.696738 0.571827 0.586493
O O4 0.068529 0.275490 0.586304
O O5 0.328024 0.567942 0.901465
O O6 0.277815 0.374046 0.708092
O O7 0.661591 0.234317 0.683487
O O8 0.598078 0.130978 0.767202
O O9 0.752622 0.933377 0.851325
O O10 0.060626 0.715035 0.654477
O O11 0.890212 0.080807 0.862612
O O12 0.100095 0.169531 0.016430
O O13 0.000000 0.000000 0.000000
O O14 0.223832 0.344169 0.518545
O O15 0.500000 0.000000 0.500000
O O16 0.500000 0.000000 0.000000
O O17 0.529666 0.320254 0.541894
O O18 0.000000 0.000000 0.500000
#
# Coordination Sequence:
#
# PCOD9019086 Si02
#       8
#     2   2   2   2   2   2   2   2
#     4  12  23  40  66  95 135 162 217 274 318 388
#     4  11  23  42  65  96 128 171 226 257 324 391
#     4  11  23  43  72  95 127 170 225 268 310 406
#     4  10  21  44  68  89 125 177 222 259 313 392
#     4  11  21  37  64  93 130 165 208 273 320 386
#     4  11  25  42  64  99 126 171 215 268 336 371
#     4  11  24  42  61  97 137 172 210 269 329 386
#     4  11  23  42  66  98 124 174 223 254 329 390
#
# _framework density 20.311463
#
# number of rings (size 3 to 8) (size 9 to 14) (size 15 to 20)
#    0.000    1.000    2.500    6.375    7.000    0.000 
#    0.000    0.625    0.000    0.000    0.000    0.000 
#    0.000    0.000    0.000    0.000    0.000    0.000 
#
# Total GULP energy -89232.438966 kJ/mol
# GULP energy per Si atom -5577.027435 kJ/mol
# Density = 2.026523 g / cm^3
# Si number density = 20.311463 Si / 1000 Ang^3
#
#
#
# Elastic Constant Matrix: (Units=GPa)
#
#
# Indices 1 2 3 4 5 6 
#
# 1 104.6803 10.0622 35.1938 -1.5225 0.3651 -9.6274
# 2 10.0622 81.4829 23.3316 12.3675 -7.4307 -9.6701
# 3 35.1938 23.3316 78.4223 22.5402 7.4208 -1.0051
# 4 -1.5225 12.3675 22.5402 32.7329 -2.8810 -1.9871
# 5 0.3651 -7.4307 7.4208 -2.8810 30.1110 7.9771
# 6 -9.6274 -9.6701 -1.0051 -1.9871 7.9771 32.6932
#
#
#
# Elastic Compliance Matrix: (Units=1/GPa)
#
#
# Indices 1 2 3 4 5 6 
#
# 1 0.012442 0.000238 -0.007451 0.005955 0.001379 0.003531
# 2 0.000238 0.014438 -0.004081 -0.002129 0.003506 0.003230
# 3 -0.007451 -0.004081 0.022261 -0.014891 -0.007343 -0.001830
# 4 0.005955 -0.002129 -0.014891 0.042575 0.006718 0.001615
# 5 0.001379 0.003506 -0.007343 0.006718 0.038574 -0.007786
# 6 0.003531 0.003230 -0.001830 0.001615 -0.007786 0.034524
#
#
# Mechanical properties :
#
#
# Convention : Reuss Voigt Hill
#
# Bulk Modulus (GPa) = 37.66102 44.64009 41.15056
# Shear Modulus (GPa) = 25.47741 32.17396 28.82569
#
# Velocity S-wave (km/s) = 3.54550 3.98430 3.77129
# Velocity P-wave (km/s) = 5.94498 6.57204 6.26636
#
# Compressibility (1/GPa) = 0.02655265
#
# Stress axis : x y z
#
# Youngs Moduli (GPa) = 80.37521 69.26238 44.92214
#
# Poissons Ratio (x) = -0.01648 0.33472
# Poissons Ratio (y) = -0.01913 0.18331
# Poissons Ratio (z) = 0.59889 0.28263
#
# Static dielectric constant tensor:
#      x y z
#    x 1.726420 -0.041060 0.028820 
#    y -0.041060 1.753570 -0.001540 
#    z 0.028820 -0.001540 1.822020 
# 
# From -- ./inp_files/189290.got.cif
#   From: 2010.05.17/outbox.cif.g08.bks.cpg/sg2_95_cif.got.tgz:189290.got - 2010.06.03 11:33:40.
