data_PCOD9019144
_publ_section_title
;
Structure prediction by ZEFSAII (Michael W. Deem and Ramdas Pophale) SiO2 
 PCOD9019144
Probable space group: P -1
;
_chemical_formula_sum "Si O2"
_cell_formula_units_Z 15
_cell_length_a 24.012525
_cell_length_b 7.755844
_cell_length_c 5.965542
_cell_angle_alpha 66.265477
_cell_angle_beta 105.522282
_cell_angle_gamma 142.347231
_cell_volume 618.687926
_symmetry_space_group_name_H-M "P -1"
_symmetry_group_IT_number 2
_symmetry_cell_setting 'triclinic'
loop_
_space_group_symop_operation_xyz
x,y,z
-x,-y,-z
loop_
_atom_site_type_symbol
_atom_site_label
_atom_site_fract_x
_atom_site_fract_y
_atom_site_fract_z
Si Si1 0.972826 0.712028 0.935035
Si Si2 0.327617 0.216498 0.969288
Si Si3 0.159481 0.754466 0.351046
Si Si4 0.671212 0.191875 0.987229
Si Si5 0.520937 0.373274 0.741390
Si Si6 0.850715 0.639910 0.157757
Si Si7 0.000000 0.500000 0.500000
Si Si8 0.604016 0.303626 0.530698
O O1 0.925028 0.502140 0.777016
O O2 0.905324 0.703376 0.962169
O O3 0.072725 0.041504 0.805250
O O4 0.985513 0.608850 0.215018
O O5 0.425120 0.430730 0.082003
O O6 0.247389 0.027327 0.161912
O O7 0.309652 0.982465 0.929394
O O8 0.339934 0.433822 0.723682
O O9 0.173665 0.599141 0.586749
O O10 0.113643 0.795020 0.435998
O O11 0.654943 0.246961 0.700776
O O12 0.756687 0.493126 0.052731
O O13 0.575120 0.967265 0.128915
O O14 0.500000 0.500000 0.500000
O O15 0.587945 0.400432 0.673363
O O16 0.500000 0.000000 0.500000
#
# Coordination Sequence:
#
# PCOD9019144 Si02
#       8
#     2   2   2   2   2   2   1   2
#     4  10  21  44  68  98 136 181 231 293 354 419
#     4  12  26  46  72 106 139 192 238 293 358 433
#     4  11  23  44  71  98 141 183 239 286 365 420
#     4  12  24  47  71 105 145 187 244 290 358 428
#     4  12  24  45  73  98 149 187 227 300 357 414
#     4  10  23  42  68  99 134 181 238 289 352 422
#     4  10  24  42  70  98 140 178 232 296 360 414
#     4  12  27  47  72 105 148 190 239 296 356 427
#
# _framework density 24.244855999999999
#
# number of rings (size 3 to 8) (size 9 to 14) (size 15 to 20)
#    0.000    0.800    4.000    3.200    0.000    2.133 
#    2.400    0.000    0.000    0.000    0.000    0.000 
#    0.000    0.000    0.000    0.000    0.000    0.000 
#
# Total GULP energy -83757.085815 kJ/mol
# GULP energy per Si atom -5583.805721 kJ/mol
# Density = 2.418967 g / cm^3
# Si number density = 24.244856 Si / 1000 Ang^3
#
#
#
# Elastic Constant Matrix: (Units=GPa)
#
#
# Indices 1 2 3 4 5 6 
#
# 1 46.9984 26.0061 10.6341 -16.3222 -3.8094 15.1512
# 2 26.0061 144.1695 47.8189 -13.1092 7.3734 32.0472
# 3 10.6341 47.8189 126.2185 -31.5017 29.4945 21.9398
# 4 -16.3222 -13.1092 -31.5017 39.8671 17.7440 -8.8258
# 5 -3.8094 7.3734 29.4945 17.7440 42.2184 -3.1823
# 6 15.1512 32.0472 21.9398 -8.8258 -3.1823 41.7062
#
#
#
# Elastic Compliance Matrix: (Units=1/GPa)
#
#
# Indices 1 2 3 4 5 6 
#
# 1 0.031060 -0.003834 0.009036 0.022267 -0.012905 -0.009364
# 2 -0.003834 0.009472 -0.003415 -0.002686 0.001170 -0.004568
# 3 0.009036 -0.003415 0.027484 0.037354 -0.034229 -0.009824
# 4 0.022267 -0.002686 0.037354 0.087486 -0.061279 -0.011838
# 5 -0.012905 0.001170 -0.034229 -0.061279 0.073071 0.014403
# 6 -0.009364 -0.004568 -0.009824 -0.011838 0.014403 0.034651
#
#
# Mechanical properties :
#
#
# Convention : Reuss Voigt Hill
#
# Bulk Modulus (GPa) = 13.96826 54.03386 34.00106
# Shear Modulus (GPa) = 17.63587 40.28683 28.96135
#
# Velocity S-wave (km/s) = 2.69997 4.08077 3.45996
# Velocity P-wave (km/s) = 3.93620 6.67374 5.47870
#
# Compressibility (1/GPa) = 0.07159086
#
# Stress axis : x y z
#
# Youngs Moduli (GPa) = 32.19579 105.57458 36.38444
#
# Poissons Ratio (x) = 0.40475 -0.32878
# Poissons Ratio (y) = 0.12343 0.12426
# Poissons Ratio (z) = -0.29093 0.36057
#
# Static dielectric constant tensor:
#      x y z
#    x 2.163980 -0.047490 -0.028850 
#    y -0.047490 1.964190 0.037700 
#    z -0.028850 0.037700 1.942260 
# 
# From -- ./inp_files/35577.got.cif
#   From: 2010.05.17/outbox.cif.g08.bks.cpg/sg2_18_cif.got.tgz:35577.got - 2010.06.03 11:33:40.
