data_PCOD9019412
_publ_section_title
;
Structure prediction by ZEFSAII (Michael W. Deem and Ramdas Pophale) SiO2 
 PCOD9019412
Probable space group: P -1
;
_chemical_formula_sum "Si O2"
_cell_formula_units_Z 16
_cell_length_a 5.890905
_cell_length_b 9.016534
_cell_length_c 16.306465
_cell_angle_alpha 68.130539
_cell_angle_beta 75.902975
_cell_angle_gamma 62.363047
_cell_volume 709.442894
_symmetry_space_group_name_H-M "P -1"
_symmetry_group_IT_number 2
_symmetry_cell_setting 'triclinic'
loop_
_space_group_symop_operation_xyz
x,y,z
-x,-y,-z
loop_
_atom_site_type_symbol
_atom_site_label
_atom_site_fract_x
_atom_site_fract_y
_atom_site_fract_z
Si Si1 0.604954 0.582129 0.046227
Si Si2 0.731296 0.982820 0.547177
Si Si3 0.082194 0.248167 0.120321
Si Si4 0.490511 0.443690 0.373331
Si Si5 0.344849 0.325555 0.568277
Si Si6 0.983542 0.692293 0.706378
Si Si7 0.026070 0.665070 0.269262
Si Si8 0.118743 0.905750 0.094523
O O1 0.380894 0.735253 0.084614
O O2 0.796359 0.409094 0.113259
O O3 0.500000 0.500000 0.000000
O O4 0.761635 0.676931 0.967224
O O5 0.810196 0.801121 0.624766
O O6 0.500000 0.000000 0.500000
O O7 0.597576 0.147198 0.585080
O O8 0.000000 0.000000 0.500000
O O9 0.152373 0.226837 0.213649
O O10 0.124720 0.062021 0.117230
O O11 0.320806 0.384073 0.463155
O O12 0.618045 0.529219 0.409433
O O13 0.737899 0.302829 0.333678
O O14 0.318006 0.580397 0.293523
O O15 0.129035 0.286571 0.641722
O O16 0.015952 0.492476 0.739409
O O17 0.960936 0.821595 0.178985
O O18 0.000000 0.000000 0.000000
#
# Coordination Sequence:
#
# PCOD9019412 Si02
#       8
#     2   2   2   2   2   2   2   2
#     4  11  23  48  74 102 144 189 241 314 386 455
#     4  12  27  46  72 107 154 202 253 317 387 462
#     4  11  26  45  75 106 143 193 250 311 384 459
#     4  10  21  44  71  98 145 188 244 307 379 447
#     4  10  23  41  70 103 139 193 246 305 377 452
#     4  11  25  44  71 107 145 195 249 315 384 458
#     4  11  25  44  69 102 144 193 255 311 376 460
#     4  12  26  47  73 105 148 196 253 314 387 458
#
# _framework density 22.552907000000001
#
# number of rings (size 3 to 8) (size 9 to 14) (size 15 to 20)
#    0.000    1.000    2.500    3.000    5.250    1.000 
#    4.500    0.000    0.000    0.000    0.000    0.000 
#    0.000    0.000    0.000    0.000    0.000    0.000 
#
# Total GULP energy -89277.781610 kJ/mol
# GULP energy per Si atom -5579.861351 kJ/mol
# Density = 2.250158 g / cm^3
# Si number density = 22.552907 Si / 1000 Ang^3
#
#
#
# Elastic Constant Matrix: (Units=GPa)
#
#
# Indices 1 2 3 4 5 6 
#
# 1 46.2401 16.6874 37.2358 -7.3222 9.4419 -6.0184
# 2 16.6874 135.8446 38.6674 -0.6536 -14.0208 5.7764
# 3 37.2358 38.6674 139.9018 -12.5825 -3.4209 8.5456
# 4 -7.3222 -0.6536 -12.5825 35.0232 2.9643 -2.5942
# 5 9.4419 -14.0208 -3.4209 2.9643 22.6642 1.2170
# 6 -6.0184 5.7764 8.5456 -2.5942 1.2170 42.2057
#
#
#
# Elastic Compliance Matrix: (Units=1/GPa)
#
#
# Indices 1 2 3 4 5 6 
#
# 1 0.037014 -0.004469 -0.009048 0.006822 -0.020912 0.008744
# 2 -0.004469 0.009121 -0.001201 -0.001994 0.007690 -0.001987
# 3 -0.009048 -0.001201 0.010305 0.001156 0.004606 -0.003274
# 4 0.006822 -0.001994 0.001156 0.031282 -0.008163 0.003170
# 5 -0.020912 0.007690 0.004606 -0.008163 0.059741 -0.007191
# 6 0.008744 -0.001987 -0.003274 0.003170 -0.007191 0.026277
#
#
# Mechanical properties :
#
#
# Convention : Reuss Voigt Hill
#
# Bulk Modulus (GPa) = 37.03354 56.35196 46.69275
# Shear Modulus (GPa) = 23.56521 35.27169 29.41845
#
# Velocity S-wave (km/s) = 3.23598 3.95897 3.61559
# Velocity P-wave (km/s) = 5.51529 6.77782 6.17888
#
# Compressibility (1/GPa) = 0.02700255
#
# Stress axis : x y z
#
# Youngs Moduli (GPa) = 27.01708 109.63853 97.04261
#
# Poissons Ratio (x) = 0.48993 0.87807
# Poissons Ratio (y) = 0.12073 0.11659
# Poissons Ratio (z) = 0.24446 0.13173
#
# Static dielectric constant tensor:
#      x y z
#    x 2.046300 -0.705170 0.295600 
#    y -0.705170 5.698360 -1.958540 
#    z 0.295600 -1.958540 2.839470 
# 
# From -- ./inp_files/547878.got.cif
#   From: 2010.05.17/outbox.cif.g08.bks.cpg/sg2_274_cif.got.tgz:547878.got - 2010.06.03 11:33:40.
