data_PCOD9019100
_publ_section_title
;
Structure prediction by ZEFSAII (Michael W. Deem and Ramdas Pophale) SiO2 
 PCOD9019100
Probable space group: P -1
;
_chemical_formula_sum "Si O2"
_cell_formula_units_Z 16
_cell_length_a 5.174165
_cell_length_b 12.002901
_cell_length_c 14.777016
_cell_angle_alpha 96.314739
_cell_angle_beta 127.956796
_cell_angle_gamma 99.717837
_cell_volume 685.698238
_symmetry_space_group_name_H-M "P -1"
_symmetry_group_IT_number 2
_symmetry_cell_setting 'triclinic'
loop_
_space_group_symop_operation_xyz
x,y,z
-x,-y,-z
loop_
_atom_site_type_symbol
_atom_site_label
_atom_site_fract_x
_atom_site_fract_y
_atom_site_fract_z
Si Si1 0.205561 0.060613 0.461410
Si Si2 0.696866 0.691590 0.723155
Si Si3 0.561057 0.663699 0.481031
Si Si4 0.590972 0.342459 0.067926
Si Si5 0.401272 0.566278 0.104466
Si Si6 0.244076 0.101668 0.002652
Si Si7 0.954541 0.057123 0.207542
Si Si8 0.224892 0.451824 0.651796
O O1 0.364918 0.201005 0.520862
O O2 0.980686 0.045542 0.319344
O O3 0.500000 0.000000 0.500000
O O4 0.000000 0.000000 0.500000
O O5 0.690086 0.667043 0.612151
O O6 0.381917 0.593113 0.691615
O O7 0.037624 0.670464 0.834905
O O8 0.728919 0.830284 0.747156
O O9 0.747297 0.599652 0.446122
O O10 0.155237 0.595759 0.394152
O O11 0.588784 0.469935 0.109235
O O12 0.296479 0.238265 0.043144
O O13 0.512962 0.333521 0.943275
O O14 0.522131 0.596502 0.234818
O O15 0.000000 0.500000 0.000000
O O16 0.620562 0.090653 0.104250
O O17 0.095473 0.063533 0.867148
O O18 0.000000 0.000000 0.000000
#
# Coordination Sequence:
#
# PCOD9019100 Si02
#       8
#     2   2   2   2   2   2   2   2
#     4  11  25  47  71  96 139 184 222 275 344 406
#     4  10  21  44  68  92 136 171 219 278 343 399
#     4  11  26  44  67 106 131 173 230 278 330 401
#     4  10  23  42  64  95 131 178 221 278 338 406
#     4  11  24  42  63  92 135 178 219 268 345 408
#     4  10  22  40  68  98 128 169 236 286 335 393
#     4   9  23  43  63  99 130 175 226 281 343 401
#     4  12  24  43  69  99 135 175 222 277 335 399
#
# _framework density 23.333881999999999
#
# number of rings (size 3 to 8) (size 9 to 14) (size 15 to 20)
#    0.000    1.500    1.250    2.250    5.250    4.000 
#    4.500    0.000    0.000    0.000    0.000    0.000 
#    0.000    0.000    0.000    0.000    0.000    0.000 
#
# Total GULP energy -89480.634695 kJ/mol
# GULP energy per Si atom -5592.539668 kJ/mol
# Density = 2.328077 g / cm^3
# Si number density = 23.333882 Si / 1000 Ang^3
#
#
#
# Elastic Constant Matrix: (Units=GPa)
#
#
# Indices 1 2 3 4 5 6 
#
# 1 82.2051 40.6642 21.6476 6.6253 8.2672 23.8759
# 2 40.6642 146.1534 49.2831 11.0418 8.2975 37.6823
# 3 21.6476 49.2831 134.9333 -9.6553 -5.5630 14.1047
# 4 6.6253 11.0418 -9.6553 38.8422 6.2116 -3.1629
# 5 8.2672 8.2975 -5.5630 6.2116 25.0063 -4.3996
# 6 23.8759 37.6823 14.1047 -3.1629 -4.3996 42.1175
#
#
#
# Elastic Compliance Matrix: (Units=1/GPa)
#
#
# Indices 1 2 3 4 5 6 
#
# 1 0.016572 -0.001270 -0.001749 -0.002587 -0.006304 -0.008526
# 2 -0.001270 0.011205 -0.003420 -0.003797 -0.004688 -0.008935
# 3 -0.001749 -0.003420 0.009136 0.003151 0.003238 0.001566
# 4 -0.002587 -0.003797 0.003151 0.029053 -0.003410 0.005634
# 5 -0.006304 -0.004688 0.003238 -0.003410 0.047195 0.011358
# 6 -0.008526 -0.008935 0.001566 0.005634 0.011358 0.037655
#
#
# Mechanical properties :
#
#
# Convention : Reuss Voigt Hill
#
# Bulk Modulus (GPa) = 41.60337 65.16462 53.38400
# Shear Modulus (GPa) = 29.11963 37.97298 33.54630
#
# Velocity S-wave (km/s) = 3.53647 4.03845 3.79577
# Velocity P-wave (km/s) = 5.87740 7.05217 6.49141
#
# Compressibility (1/GPa) = 0.02403651
#
# Stress axis : x y z
#
# Youngs Moduli (GPa) = 60.34311 89.24340 109.45777
#
# Poissons Ratio (x) = 0.11331 0.19141
# Poissons Ratio (y) = 0.07662 0.37433
# Poissons Ratio (z) = 0.10552 0.30520
#
# Static dielectric constant tensor:
#      x y z
#    x 1.920500 0.022730 -0.043080 
#    y 0.022730 1.934960 0.011970 
#    z -0.043080 0.011970 1.923980 
# 
# From -- ./inp_files/482856.got.cif
#   From: 2010.05.17/outbox.cif.g08.bks.cpg/sg2_242_cif.got.tgz:482856.got - 2010.06.03 11:33:40.
