data_PCOD9019332
_publ_section_title
;
Structure prediction by ZEFSAII (Michael W. Deem and Ramdas Pophale) SiO2 
 PCOD9019332
Probable space group: P -1
;
_chemical_formula_sum "Si O2"
_cell_formula_units_Z 14
_cell_length_a 8.380594
_cell_length_b 11.274691
_cell_length_c 8.991867
_cell_angle_alpha 58.640877
_cell_angle_beta 54.237051
_cell_angle_gamma 55.803813
_cell_volume 546.421241
_symmetry_space_group_name_H-M "P -1"
_symmetry_group_IT_number 2
_symmetry_cell_setting 'triclinic'
loop_
_space_group_symop_operation_xyz
x,y,z
-x,-y,-z
loop_
_atom_site_type_symbol
_atom_site_label
_atom_site_fract_x
_atom_site_fract_y
_atom_site_fract_z
Si Si1 0.041088 0.760614 0.137471
Si Si2 0.784461 0.095917 0.644300
Si Si3 0.500901 0.679887 0.556424
Si Si4 0.875955 0.383566 0.511066
Si Si5 0.688397 0.037220 0.059504
Si Si6 0.649588 0.710212 0.787389
Si Si7 0.811429 0.452517 0.074567
O O1 0.083337 0.635960 0.321117
O O2 0.191500 0.853395 0.022182
O O3 0.085950 0.681957 0.007181
O O4 0.805682 0.883750 0.182778
O O5 0.593809 0.169209 0.584723
O O6 0.805229 0.245858 0.602749
O O7 0.730908 0.019096 0.870641
O O8 0.000000 0.000000 0.500000
O O9 0.710057 0.549901 0.464517
O O10 0.545620 0.709460 0.684199
O O11 0.320134 0.607342 0.702046
O O12 0.100969 0.340684 0.339293
O O13 0.451813 0.130838 0.180138
O O14 0.636219 0.587168 0.991449
O O15 0.000000 0.500000 0.000000
#
# Coordination Sequence:
#
# PCOD9019332 Si02
#       7
#     2   2   2   2   2   2   2
#     4  10  21  44  70  99 138 182 234 287 350 416
#     4  11  25  46  71 102 140 184 236 291 355 416
#     4  12  24  46  72 101 144 184 230 291 357 412
#     4  11  25  45  69 103 141 184 237 289 346 419
#     4  10  23  44  73  98 136 189 233 284 349 416
#     4  12  25  44  70 107 138 185 240 285 349 420
#     4  12  24  42  71 106 141 180 234 296 352 421
#
# _framework density 25.621258000000001
#
# number of rings (size 3 to 8) (size 9 to 14) (size 15 to 20)
#    0.000    0.857    2.857    4.714    4.000    1.714 
#    0.000    1.429    0.000    0.000    0.000    0.000 
#    0.000    0.000    0.000    0.000    0.000    0.000 
#
# Total GULP energy -78490.946925 kJ/mol
# GULP energy per Si atom -5606.496209 kJ/mol
# Density = 2.556294 g / cm^3
# Si number density = 25.621258 Si / 1000 Ang^3
#
#
#
# Elastic Constant Matrix: (Units=GPa)
#
#
# Indices 1 2 3 4 5 6 
#
# 1 128.0293 41.0233 37.3397 9.0557 6.5397 1.1839
# 2 41.0233 170.3610 18.3560 22.7631 9.9108 -31.7003
# 3 37.3397 18.3560 51.8555 16.2678 10.9392 -9.9752
# 4 9.0557 22.7631 16.2678 51.7387 -7.5029 -1.1608
# 5 6.5397 9.9108 10.9392 -7.5029 46.1045 3.4996
# 6 1.1839 -31.7003 -9.9752 -1.1608 3.4996 47.3377
#
#
#
# Elastic Compliance Matrix: (Units=1/GPa)
#
#
# Indices 1 2 3 4 5 6 
#
# 1 0.011119 -0.002914 -0.008895 0.002307 0.001853 -0.004184
# 2 -0.002914 0.008199 0.002321 -0.004130 -0.003041 0.006176
# 3 -0.008895 0.002321 0.031851 -0.010613 -0.009198 0.008908
# 4 0.002307 -0.004130 -0.010613 0.025058 0.007536 -0.005002
# 5 0.001853 -0.003041 -0.009198 0.007536 0.025926 -0.005753
# 6 -0.004184 0.006176 0.008908 -0.005002 -0.005753 0.027545
#
#
# Mechanical properties :
#
#
# Convention : Reuss Voigt Hill
#
# Bulk Modulus (GPa) = 31.06169 60.40933 45.73551
# Shear Modulus (GPa) = 31.36629 45.93797 38.65213
#
# Velocity S-wave (km/s) = 3.50269 4.23893 3.88828
# Velocity P-wave (km/s) = 5.33931 6.89834 6.16828
#
# Compressibility (1/GPa) = 0.03219399
#
# Stress axis : x y z
#
# Youngs Moduli (GPa) = 89.93289 121.95986 31.39614
#
# Poissons Ratio (x) = 0.35537 0.27926
# Poissons Ratio (y) = 0.26205 -0.07286
# Poissons Ratio (z) = 0.79994 -0.28304
#
# Static dielectric constant tensor:
#      x y z
#    x 2.085970 0.006960 -0.023970 
#    y 0.006960 1.963100 -0.029720 
#    z -0.023970 -0.029720 2.061620 
# 
# From -- ./inp_files/156658.got.cif
#   From: 2010.05.17/outbox.cif.g08.bks.cpg/sg2_79_cif.got.tgz:156658.got - 2010.06.03 11:33:40.
