data_PCOD9019353
_publ_section_title
;
Structure prediction by ZEFSAII (Michael W. Deem and Ramdas Pophale) SiO2 
 PCOD9019353
Probable space group: P -1
;
_chemical_formula_sum "Si O2"
_cell_formula_units_Z 12
_cell_length_a 5.276003
_cell_length_b 7.799222
_cell_length_c 14.160848
_cell_angle_alpha 61.031650
_cell_angle_beta 88.775837
_cell_angle_gamma 107.698456
_cell_volume 475.627959
_symmetry_space_group_name_H-M "P -1"
_symmetry_group_IT_number 2
_symmetry_cell_setting 'triclinic'
loop_
_space_group_symop_operation_xyz
x,y,z
-x,-y,-z
loop_
_atom_site_type_symbol
_atom_site_label
_atom_site_fract_x
_atom_site_fract_y
_atom_site_fract_z
Si Si1 0.654234 0.410685 0.391423
Si Si2 0.698619 0.840423 0.367327
Si Si3 0.859820 0.175373 0.964300
Si Si4 0.900865 0.714966 0.690769
Si Si5 0.619607 0.035373 0.829931
Si Si6 0.213652 0.350641 0.080291
O O1 0.762909 0.650642 0.366118
O O2 0.518959 0.266598 0.520787
O O3 0.398202 0.361116 0.334283
O O4 0.890760 0.348550 0.359256
O O5 0.542967 0.923057 0.266673
O O6 0.945835 0.031981 0.360532
O O7 0.807902 0.223732 0.843964
O O8 0.595621 0.086420 0.055822
O O9 0.040767 0.343731 0.990525
O O10 0.000000 0.000000 0.000000
O O11 0.864230 0.614349 0.822633
O O12 0.776959 0.883254 0.844180
O O13 0.500000 0.500000 0.000000
#
# Coordination Sequence:
#
# PCOD9019353 Si02
#       6
#     2   2   2   2   2   2
#     4  11  29  49  83 118 152 208 263 321 389 476
#     4  11  25  52  79 114 157 204 259 324 395 458
#     4   9  20  41  66 100 135 193 250 301 376 454
#     4  12  26  52  78 116 157 205 260 325 392 459
#     4  10  21  44  71 102 147 200 251 313 389 455
#     4  11  25  45  70 107 153 202 255 317 388 462
#
# _framework density 25.229803
#
# number of rings (size 3 to 8) (size 9 to 14) (size 15 to 20)
#    0.000    1.333    1.667    2.000    0.000   11.333 
#    9.000    0.000    0.000    0.000    0.000    0.000 
#    0.000    0.000    0.000    0.000    0.000    0.000 
#
# Total GULP energy -67118.495395 kJ/mol
# GULP energy per Si atom -5593.207950 kJ/mol
# Density = 2.517238 g / cm^3
# Si number density = 25.229803 Si / 1000 Ang^3
#
#
#
# Elastic Constant Matrix: (Units=GPa)
#
#
# Indices 1 2 3 4 5 6 
#
# 1 52.3494 26.1842 -5.4546 15.1809 -12.1261 -13.4469
# 2 26.1842 182.5629 9.6874 4.2062 -12.4783 -13.8763
# 3 -5.4546 9.6874 97.1387 20.2357 -14.0306 -5.8683
# 4 15.1809 4.2062 20.2357 41.3992 0.1225 -1.7892
# 5 -12.1261 -12.4783 -14.0306 0.1225 44.2084 12.2994
# 6 -13.4469 -13.8763 -5.8683 -1.7892 12.2994 42.5078
#
#
#
# Elastic Compliance Matrix: (Units=1/GPa)
#
#
# Indices 1 2 3 4 5 6 
#
# 1 0.028155 -0.003112 0.005917 -0.012656 0.007050 0.006135
# 2 -0.003112 0.006033 -0.000886 0.000995 0.000341 0.000806
# 3 0.005917 -0.000886 0.013341 -0.008548 0.005196 0.001561
# 4 -0.012656 0.000995 -0.008548 0.032807 -0.005467 -0.001896
# 5 0.007050 0.000341 0.005196 -0.005467 0.027762 -0.005204
# 6 0.006135 0.000806 0.001561 -0.001896 -0.005204 0.027370
#
#
# Mechanical properties :
#
#
# Convention : Reuss Voigt Hill
#
# Bulk Modulus (GPa) = 19.46845 43.65390 31.56117
# Shear Modulus (GPa) = 33.61293 45.73199 39.67246
#
# Velocity S-wave (km/s) = 3.65399 4.26210 3.96971
# Velocity P-wave (km/s) = 5.05325 6.44676 5.79207
#
# Compressibility (1/GPa) = 0.05136515
#
# Stress axis : x y z
#
# Youngs Moduli (GPa) = 35.51826 165.76685 74.95820
#
# Poissons Ratio (x) = 0.51591 -0.44350
# Poissons Ratio (y) = 0.11054 0.06639
# Poissons Ratio (z) = -0.21015 0.14683
#
# Static dielectric constant tensor:
#      x y z
#    x 1.958560 -0.056020 0.008900 
#    y -0.056020 2.046860 -0.065280 
#    z 0.008900 -0.065280 1.949210 
# 
# From -- ./inp_files/479621.got.cif
#   From: 2010.05.17/outbox.cif.g08.bks.cpg/sg2_240_cif.got.tgz:479621.got - 2010.06.03 11:33:40.
