data_PCOD9019952
_publ_section_title
;
Structure prediction by ZEFSAII (Michael W. Deem and Ramdas Pophale) SiO2 
 PCOD9019952
Probable space group: P -1
;
_chemical_formula_sum "Si O2"
_cell_formula_units_Z 14
_cell_length_a 15.706131
_cell_length_b 8.671017
_cell_length_c 7.636699
_cell_angle_alpha 54.413172
_cell_angle_beta 54.673003
_cell_angle_gamma 47.803233
_cell_volume 595.522685
_symmetry_space_group_name_H-M "P -1"
_symmetry_group_IT_number 2
_symmetry_cell_setting 'triclinic'
loop_
_space_group_symop_operation_xyz
x,y,z
-x,-y,-z
loop_
_atom_site_type_symbol
_atom_site_label
_atom_site_fract_x
_atom_site_fract_y
_atom_site_fract_z
Si Si1 0.143568 0.318310 0.939542
Si Si2 0.183485 0.683542 0.762638
Si Si3 0.168537 0.877759 0.306335
Si Si4 0.553329 0.450516 0.773373
Si Si5 0.185464 0.241399 0.528477
Si Si6 0.603767 0.203465 0.540129
Si Si7 0.940396 0.257987 0.771286
O O1 0.213106 0.437018 0.852102
O O2 0.182242 0.249408 0.738267
O O3 0.000000 0.500000 0.000000
O O4 0.167349 0.105512 0.160173
O O5 0.118610 0.822999 0.574311
O O6 0.298976 0.710341 0.644816
O O7 0.093552 0.763653 0.978258
O O8 0.304427 0.671802 0.280936
O O9 0.105743 0.862597 0.218931
O O10 0.546197 0.281437 0.751309
O O11 0.491962 0.672137 0.583264
O O12 0.500000 0.500000 0.000000
O O13 0.140812 0.484204 0.352207
O O14 0.313068 0.054436 0.425008
O O15 0.078560 0.195321 0.630266
#
# Coordination Sequence:
#
# PCOD9019952 Si02
#       7
#     2   2   2   2   2   2   2
#     4  12  25  43  66 106 143 181 226 275 334 416
#     4  11  24  43  67 103 137 179 228 268 341 405
#     4  11  26  45  73  97 138 183 223 287 341 398
#     4  10  21  45  73  96 127 178 232 282 346 395
#     4  11  24  43  67 104 144 183 227 276 338 409
#     4  10  24  43  70  98 136 176 229 287 334 401
#     4  11  24  43  67 102 147 181 224 273 338 414
#
# _framework density 23.508761
#
# number of rings (size 3 to 8) (size 9 to 14) (size 15 to 20)
#    0.000    1.143    2.857    2.571    6.000    1.714 
#    0.000    1.429    9.429    0.000    0.000    0.000 
#    0.000    0.000    0.000    0.000    0.000    0.000 
#
# Total GULP energy -78371.529124 kJ/mol
# GULP energy per Si atom -5597.966366 kJ/mol
# Density = 2.345525 g / cm^3
# Si number density = 23.508761 Si / 1000 Ang^3
#
#
#
# Elastic Constant Matrix: (Units=GPa)
#
#
# Indices 1 2 3 4 5 6 
#
# 1 78.3659 28.5462 22.5089 -3.7267 20.1971 5.4465
# 2 28.5462 152.5290 52.0538 12.0512 19.7724 -11.7911
# 3 22.5089 52.0538 140.5333 4.8497 31.0120 14.2008
# 4 -3.7267 12.0512 4.8497 53.1560 20.5158 5.2867
# 5 20.1971 19.7724 31.0120 20.5158 39.2919 -3.2029
# 6 5.4465 -11.7911 14.2008 5.2867 -3.2029 41.2872
#
#
#
# Elastic Compliance Matrix: (Units=1/GPa)
#
#
# Indices 1 2 3 4 5 6 
#
# 1 0.017556 -0.003153 0.001539 0.007377 -0.012968 -0.005696
# 2 -0.003153 0.008694 -0.003531 -0.003124 0.002044 0.004672
# 3 0.001539 -0.003531 0.011020 0.004660 -0.010669 -0.006426
# 4 0.007377 -0.003124 0.004660 0.028864 -0.021690 -0.008847
# 5 -0.012968 0.002044 -0.010669 -0.021690 0.051874 0.012766
# 6 -0.005696 0.004672 -0.006426 -0.008847 0.012766 0.030640
#
#
# Mechanical properties :
#
#
# Convention : Reuss Voigt Hill
#
# Bulk Modulus (GPa) = 37.06379 64.18289 50.62334
# Shear Modulus (GPa) = 29.77406 44.63496 37.20451
#
# Velocity S-wave (km/s) = 3.56267 4.36208 3.98248
# Velocity P-wave (km/s) = 5.72046 7.26163 6.53662
#
# Compressibility (1/GPa) = 0.02698051
#
# Stress axis : x y z
#
# Youngs Moduli (GPa) = 56.95979 115.02075 90.74482
#
# Poissons Ratio (x) = 0.36265 -0.13963
# Poissons Ratio (y) = 0.17959 0.32039
# Poissons Ratio (z) = -0.08765 0.40610
#
# Static dielectric constant tensor:
#      x y z
#    x 1.881180 -0.002920 0.002750 
#    y -0.002920 1.978110 0.024420 
#    z 0.002750 0.024420 1.910370 
# 
# From -- ./inp_files/327049.got.cif
#   From: 2010.05.17/outbox.cif.g08.bks.cpg/sg2_164_cif.got.tgz:327049.got - 2010.06.03 11:33:40.
