data_PCOD9019113
_publ_section_title
;
Structure prediction by ZEFSAII (Michael W. Deem and Ramdas Pophale) SiO2 
 PCOD9019113
Probable space group: P -1
;
_chemical_formula_sum "Si O2"
_cell_formula_units_Z 16
_cell_length_a 13.249128
_cell_length_b 11.182230
_cell_length_c 6.247043
_cell_angle_alpha 58.702981
_cell_angle_beta 64.066074
_cell_angle_gamma 78.155140
_cell_volume 710.922733
_symmetry_space_group_name_H-M "P -1"
_symmetry_group_IT_number 2
_symmetry_cell_setting 'triclinic'
loop_
_space_group_symop_operation_xyz
x,y,z
-x,-y,-z
loop_
_atom_site_type_symbol
_atom_site_label
_atom_site_fract_x
_atom_site_fract_y
_atom_site_fract_z
Si Si1 0.609623 0.130879 0.528273
Si Si2 0.658432 0.430464 0.340127
Si Si3 0.399576 0.136691 0.494955
Si Si4 0.885989 0.577488 0.017308
Si Si5 0.037919 0.154409 0.565955
Si Si6 0.505885 0.384155 0.913550
Si Si7 0.178038 0.960401 0.329802
Si Si8 0.829451 0.786479 0.222142
O O1 0.630454 0.297248 0.340041
O O2 0.472540 0.121724 0.659386
O O3 0.630869 0.016101 0.430107
O O4 0.701650 0.091770 0.658099
O O5 0.787159 0.469524 0.153851
O O6 0.617258 0.393226 0.654375
O O7 0.590425 0.566223 0.206753
O O8 0.286620 0.222022 0.534835
O O9 0.477552 0.230050 0.174478
O O10 0.853817 0.645826 0.208728
O O11 0.903909 0.706731 0.718829
O O12 0.000000 0.500000 0.000000
O O13 0.104749 0.021243 0.537768
O O14 0.064026 0.165883 0.780305
O O15 0.909382 0.143515 0.616526
O O16 0.500000 0.500000 0.000000
O O17 0.194376 0.092207 0.037511
#
# Coordination Sequence:
#
# PCOD9019113 Si02
#       8
#     2   2   2   2   2   2   2   2
#     4  11  24  43  64 106 137 174 229 283 334 407
#     4  11  25  42  70  96 138 182 226 280 344 403
#     4  11  24  42  71 103 142 179 227 280 346 410
#     4  11  25  44  68 100 134 181 233 288 335 405
#     4  10  21  44  68  95 133 180 228 279 339 407
#     4  11  23  45  67  99 133 185 229 273 340 412
#     4  10  22  40  67  98 137 175 224 280 340 402
#     4  11  23  42  70 101 133 187 226 279 349 408
#
# _framework density 22.505963000000001
#
# number of rings (size 3 to 8) (size 9 to 14) (size 15 to 20)
#    0.000    1.250    2.500    2.625    3.500    3.500 
#    2.250    0.000    0.000    0.000    0.000    0.000 
#    0.000    0.000    0.000    0.000    0.000    0.000 
#
# Total GULP energy -89313.130910 kJ/mol
# GULP energy per Si atom -5582.070682 kJ/mol
# Density = 2.245474 g / cm^3
# Si number density = 22.505963 Si / 1000 Ang^3
#
#
#
# Elastic Constant Matrix: (Units=GPa)
#
#
# Indices 1 2 3 4 5 6 
#
# 1 159.8424 46.6335 28.7325 -8.7017 0.7011 13.4446
# 2 46.6335 106.2756 8.6949 -14.0768 0.4912 3.3094
# 3 28.7325 8.6949 52.2389 -13.8818 -2.7190 -7.0550
# 4 -8.7017 -14.0768 -13.8818 13.5627 3.3818 1.0717
# 5 0.7011 0.4912 -2.7190 3.3818 35.6330 -2.0441
# 6 13.4446 3.3094 -7.0550 1.0717 -2.0441 36.7785
#
#
#
# Elastic Compliance Matrix: (Units=1/GPa)
#
#
# Indices 1 2 3 4 5 6 
#
# 1 0.008416 -0.003598 -0.005504 -0.003571 -0.000411 -0.003727
# 2 -0.003598 0.012659 0.003865 0.015057 -0.001214 0.000411
# 3 -0.005504 0.003865 0.030789 0.031521 -0.000206 0.006640
# 4 -0.003571 0.015057 0.031521 0.121458 -0.009148 0.001949
# 5 -0.000411 -0.001214 -0.000206 -0.009148 0.029062 0.002102
# 6 -0.003727 0.000411 0.006640 0.001949 0.002102 0.029849
#
#
# Mechanical properties :
#
#
# Convention : Reuss Voigt Hill
#
# Bulk Modulus (GPa) = 24.15936 54.05319 39.10627
# Shear Modulus (GPa) = 19.49301 32.81458 26.15380
#
# Velocity S-wave (km/s) = 2.94620 3.82257 3.41263
# Velocity P-wave (km/s) = 4.72561 6.59940 5.73949
#
# Compressibility (1/GPa) = 0.04139182
#
# Stress axis : x y z
#
# Youngs Moduli (GPa) = 118.82093 78.99455 32.47928
#
# Poissons Ratio (x) = 0.28419 0.17876
# Poissons Ratio (y) = 0.42747 -0.12554
# Poissons Ratio (z) = 0.65397 -0.30534
#
# Static dielectric constant tensor:
#      x y z
#    x 1.858710 0.030690 -0.026750 
#    y 0.030690 1.841180 -0.019020 
#    z -0.026750 -0.019020 1.949610 
# 
# From -- ./inp_files/68478.got.cif
#   From: 2010.05.17/outbox.cif.g08.bks.cpg/sg2_35_cif.got.tgz:68478.got - 2010.06.03 11:33:40.
