data_PCOD9019538
_publ_section_title
;
Structure prediction by ZEFSAII (Michael W. Deem and Ramdas Pophale) SiO2 
 PCOD9019538
Probable space group: P -1
;
_chemical_formula_sum "Si O2"
_cell_formula_units_Z 16
_cell_length_a 12.854310
_cell_length_b 12.826552
_cell_length_c 12.976404
_cell_angle_alpha 43.349201
_cell_angle_beta 149.636514
_cell_angle_gamma 140.852206
_cell_volume 671.380259
_symmetry_space_group_name_H-M "P -1"
_symmetry_group_IT_number 2
_symmetry_cell_setting 'triclinic'
loop_
_space_group_symop_operation_xyz
x,y,z
-x,-y,-z
loop_
_atom_site_type_symbol
_atom_site_label
_atom_site_fract_x
_atom_site_fract_y
_atom_site_fract_z
Si Si1 0.436871 0.334802 0.429173
Si Si2 0.516869 0.835425 0.914312
Si Si3 0.004254 0.999533 0.269954
Si Si4 0.708727 0.124731 0.523891
Si Si5 0.043570 0.712891 0.640770
Si Si6 0.894325 0.564822 0.253026
Si Si7 0.473733 0.527373 0.815672
Si Si8 0.780887 0.483536 0.763381
O O1 0.533549 0.387648 0.359440
O O2 0.623167 0.323664 0.674191
O O3 0.380427 0.484370 0.316153
O O4 0.882653 0.285138 0.620593
O O5 0.553945 0.664655 0.075274
O O6 0.757978 0.983707 0.040845
O O7 0.413460 0.852154 0.702521
O O8 0.307994 0.808302 0.830572
O O9 0.126237 0.960370 0.305320
O O10 0.975795 0.848527 0.431990
O O11 0.196040 0.175246 0.344962
O O12 0.500000 0.000000 0.500000
O O13 0.047393 0.569660 0.665987
O O14 0.882680 0.625125 0.660432
O O15 0.713759 0.484366 0.251357
O O16 0.737275 0.625489 0.005741
O O17 0.000000 0.500000 0.000000
#
# Coordination Sequence:
#
# PCOD9019538 Si02
#       8
#     2   2   2   2   2   2   2   2
#     4  11  27  45  73 102 133 177 227 287 342 395
#     4  10  22  43  63  96 135 186 223 269 339 400
#     4  11  25  45  64  98 143 173 223 283 341 404
#     4  11  26  40  63 103 145 184 228 273 335 400
#     4  10  24  44  71  99 136 179 229 279 334 412
#     4  10  22  42  69 102 138 189 227 268 337 402
#     4  10  21  44  73  96 137 185 230 275 328 404
#     4  11  25  49  74 101 130 174 232 284 343 404
#
# _framework density 23.831502
#
# number of rings (size 3 to 8) (size 9 to 14) (size 15 to 20)
#    0.000    1.500    1.250    2.250    5.250   12.500 
#    0.000    1.250    0.000    0.000    0.000    0.000 
#    0.000    0.000    0.000    0.000    0.000    0.000 
#
# Total GULP energy -89374.297989 kJ/mol
# GULP energy per Si atom -5585.893624 kJ/mol
# Density = 2.377726 g / cm^3
# Si number density = 23.831502 Si / 1000 Ang^3
#
#
#
# Elastic Constant Matrix: (Units=GPa)
#
#
# Indices 1 2 3 4 5 6 
#
# 1 74.1876 30.2067 37.2776 6.0191 -8.7060 13.9243
# 2 30.2067 115.2772 72.0695 49.1545 -16.9587 6.2159
# 3 37.2776 72.0695 129.1467 48.6741 -16.8159 -10.6825
# 4 6.0191 49.1545 48.6741 45.9260 -11.0620 -0.3530
# 5 -8.7060 -16.9587 -16.8159 -11.0620 27.9765 15.0923
# 6 13.9243 6.2159 -10.6825 -0.3530 15.0923 36.4528
#
#
#
# Elastic Compliance Matrix: (Units=1/GPa)
#
#
# Indices 1 2 3 4 5 6 
#
# 1 0.023389 -0.002712 -0.009963 0.013721 0.014349 -0.017199
# 2 -0.002712 0.019517 -0.004376 -0.014509 0.005953 -0.006180
# 3 -0.009963 -0.004376 0.019241 -0.016159 -0.007713 0.013227
# 4 0.013721 -0.014509 -0.016159 0.056165 0.015095 -0.013208
# 5 0.014349 0.005953 -0.007713 0.015095 0.064116 -0.035156
# 6 -0.017199 -0.006180 0.013227 -0.013208 -0.035156 0.053360
#
#
# Mechanical properties :
#
#
# Convention : Reuss Voigt Hill
#
# Bulk Modulus (GPa) = 35.65802 66.41323 51.03563
# Shear Modulus (GPa) = 17.90580 34.00823 25.95702
#
# Velocity S-wave (km/s) = 2.74405 3.78170 3.30387
# Velocity P-wave (km/s) = 5.00348 6.85541 6.00131
#
# Compressibility (1/GPa) = 0.02804418
#
# Stress axis : x y z
#
# Youngs Moduli (GPa) = 42.75570 51.23698 51.97249
#
# Poissons Ratio (x) = 0.13896 0.51780
# Poissons Ratio (y) = 0.11596 0.22744
# Poissons Ratio (z) = 0.42598 0.22423
#
# Static dielectric constant tensor:
#      x y z
#    x 1.944440 -0.066730 -0.037430 
#    y -0.066730 1.981520 0.019490 
#    z -0.037430 0.019490 2.010730 
# 
# From -- ./inp_files/523598.got.cif
#   From: 2010.05.17/outbox.cif.g08.bks.cpg/sg2_262_cif.got.tgz:523598.got - 2010.06.03 11:33:40.
