data_PCOD9019162
_publ_section_title
;
Structure prediction by ZEFSAII (Michael W. Deem and Ramdas Pophale) SiO2 
 PCOD9019162
Probable space group: P -1
;
_chemical_formula_sum "Si O2"
_cell_formula_units_Z 16
_cell_length_a 14.012102
_cell_length_b 9.253536
_cell_length_c 7.936367
_cell_angle_alpha 132.990935
_cell_angle_beta 79.067063
_cell_angle_gamma 111.702763
_cell_volume 696.385365
_symmetry_space_group_name_H-M "P -1"
_symmetry_group_IT_number 2
_symmetry_cell_setting 'triclinic'
loop_
_space_group_symop_operation_xyz
x,y,z
-x,-y,-z
loop_
_atom_site_type_symbol
_atom_site_label
_atom_site_fract_x
_atom_site_fract_y
_atom_site_fract_z
Si Si1 0.745067 0.630869 0.170332
Si Si2 0.081761 0.553865 0.364085
Si Si3 0.946092 0.761948 0.393508
Si Si4 0.390597 0.535492 0.587872
Si Si5 0.454571 0.937731 0.706452
Si Si6 0.241249 0.988916 0.751339
Si Si7 0.185943 0.270877 0.247878
Si Si8 0.434924 0.658030 0.167595
O O1 0.854536 0.628445 0.195118
O O2 0.664184 0.561965 0.297191
O O3 0.763807 0.865087 0.287131
O O4 0.684099 0.480567 0.922201
O O5 0.126135 0.363194 0.201975
O O6 0.000000 0.500000 0.500000
O O7 0.025420 0.637048 0.301479
O O8 0.176661 0.752677 0.547637
O O9 0.886601 0.774819 0.598787
O O10 0.000000 0.000000 0.500000
O O11 0.500000 0.500000 0.500000
O O12 0.423067 0.786929 0.757217
O O13 0.299604 0.422885 0.392640
O O14 0.464359 0.780624 0.430719
O O15 0.358324 0.010660 0.755576
O O16 0.545880 0.155845 0.828368
O O17 0.200239 0.070119 0.995994
O O18 0.500000 0.500000 0.000000
#
# Coordination Sequence:
#
# PCOD9019162 Si02
#       8
#     2   2   2   2   2   2   2   2
#     4  11  24  41  67 100 141 173 224 290 338 397
#     4  10  22  43  72  91 132 173 229 275 339 405
#     4  10  21  44  69 101 136 170 219 294 345 392
#     4  11  24  43  64 100 143 176 220 287 340 398
#     4  11  25  42  70  96 135 187 230 277 337 411
#     4  12  23  43  71  97 130 182 233 271 337 420
#     4  10  24  44  70  97 133 177 228 277 332 418
#     4  11  23  43  70  99 132 182 240 275 333 411
#
# _framework density 22.975783
#
# number of rings (size 3 to 8) (size 9 to 14) (size 15 to 20)
#    0.000    1.250    3.750    1.500    3.500    2.500 
#    0.000    1.875    2.750    0.000    0.000    0.000 
#    0.000    0.000    0.000    0.000    0.000    0.000 
#
# Total GULP energy -89413.011460 kJ/mol
# GULP energy per Si atom -5588.313216 kJ/mol
# Density = 2.292349 g / cm^3
# Si number density = 22.975783 Si / 1000 Ang^3
#
#
#
# Elastic Constant Matrix: (Units=GPa)
#
#
# Indices 1 2 3 4 5 6 
#
# 1 116.3860 3.1454 17.2808 -6.2505 -8.4451 -8.9426
# 2 3.1454 104.6377 7.2111 -8.9748 0.4411 0.0810
# 3 17.2808 7.2111 74.3150 -5.5745 -12.7055 -5.3131
# 4 -6.2505 -8.9748 -5.5745 32.5033 3.5618 1.8787
# 5 -8.4451 0.4411 -12.7055 3.5618 32.8285 4.8059
# 6 -8.9426 0.0810 -5.3131 1.8787 4.8059 42.0190
#
#
#
# Elastic Compliance Matrix: (Units=1/GPa)
#
#
# Indices 1 2 3 4 5 6 
#
# 1 0.009123 -0.000061 -0.001687 0.001214 0.001341 0.001521
# 2 -0.000061 0.009850 -0.000884 0.002649 -0.000752 -0.000176
# 3 -0.001687 -0.000884 0.014973 0.001390 0.005092 0.000891
# 4 0.001214 0.002649 0.001390 0.032294 -0.002584 -0.000719
# 5 0.001341 -0.000752 0.005092 -0.002584 0.033475 -0.002782
# 6 0.001521 -0.000176 0.000891 -0.000719 -0.002782 0.024586
#
#
# Mechanical properties :
#
#
# Convention : Reuss Voigt Hill
#
# Bulk Modulus (GPa) = 34.86348 38.95704 36.91026
# Shear Modulus (GPa) = 35.93894 39.31692 37.62793
#
# Velocity S-wave (km/s) = 3.95930 4.14119 4.05127
# Velocity P-wave (km/s) = 6.00902 6.31336 6.16307
#
# Compressibility (1/GPa) = 0.02868331
#
# Stress axis : x y z
#
# Youngs Moduli (GPa) = 109.60714 101.52236 66.78819
#
# Poissons Ratio (x) = 0.00617 0.11265
# Poissons Ratio (y) = 0.00666 0.05905
# Poissons Ratio (z) = 0.18487 0.08975
#
# Static dielectric constant tensor:
#      x y z
#    x 1.835030 -0.038540 0.012920 
#    y -0.038540 1.911940 -0.049010 
#    z 0.012920 -0.049010 1.858790 
# 
# From -- ./inp_files/299836.got.cif
#   From: 2010.05.17/outbox.cif.g08.bks.cpg/sg2_150_cif.got.tgz:299836.got - 2010.06.03 11:33:40.
