data_PCOD9019584
_publ_section_title
;
Structure prediction by ZEFSAII (Michael W. Deem and Ramdas Pophale) SiO2 
 PCOD9019584
Probable space group: P -1
;
_chemical_formula_sum "Si O2"
_cell_formula_units_Z 16
_cell_length_a 7.043868
_cell_length_b 9.005596
_cell_length_c 12.315774
_cell_angle_alpha 50.842419
_cell_angle_beta 89.500254
_cell_angle_gamma 82.730534
_cell_volume 598.336474
_symmetry_space_group_name_H-M "P -1"
_symmetry_group_IT_number 2
_symmetry_cell_setting 'triclinic'
loop_
_space_group_symop_operation_xyz
x,y,z
-x,-y,-z
loop_
_atom_site_type_symbol
_atom_site_label
_atom_site_fract_x
_atom_site_fract_y
_atom_site_fract_z
Si Si1 0.185200 0.310512 0.449337
Si Si2 0.245562 0.576628 0.533426
Si Si3 0.379717 0.244152 0.844815
Si Si4 0.678684 0.062266 0.760981
Si Si5 0.615664 0.089607 0.299511
Si Si6 0.840277 0.453432 0.873660
Si Si7 0.113112 0.979175 0.879653
Si Si8 0.722740 0.494807 0.096617
O O1 0.222428 0.425604 0.506005
O O2 0.225587 0.432232 0.287511
O O3 0.955153 0.318654 0.461325
O O4 0.307377 0.095390 0.540045
O O5 0.356125 0.444968 0.685785
O O6 0.341395 0.741442 0.400029
O O7 0.550820 0.105206 0.850138
O O8 0.390891 0.313396 0.935622
O O9 0.187543 0.151494 0.864902
O O10 0.896859 0.011081 0.821639
O O11 0.594758 0.920292 0.743138
O O12 0.654476 0.301439 0.232729
O O13 0.756100 0.040140 0.218488
O O14 0.850184 0.223436 0.964337
O O15 0.053858 0.502014 0.875316
O O16 0.719788 0.495015 0.966208
#
# Coordination Sequence:
#
# PCOD9019584 Si02
#       8
#     2   2   2   2   2   2   2   2
#     4  11  20  40  75 112 137 185 239 309 361 422
#     4  11  20  39  70 113 137 176 238 311 365 403
#     4  11  22  43  73 108 148 179 244 308 355 432
#     4  11  22  41  76 108 143 183 244 308 362 415
#     4  10  22  43  76 105 145 187 245 300 352 443
#     4  10  23  43  75 103 144 198 241 287 368 442
#     4  10  21  44  75 110 136 189 249 298 361 428
#     4  10  23  46  68 103 148 198 239 288 360 446
#
# _framework density 26.740807
#
# number of rings (size 3 to 8) (size 9 to 14) (size 15 to 20)
#    0.000    1.500    5.000    1.125    0.000    1.000 
#    0.000    4.375   13.750    0.000    0.000    0.000 
#    0.000    0.000    0.000    0.000    0.000    0.000 
#
# Total GULP energy -89797.572684 kJ/mol
# GULP energy per Si atom -5612.348293 kJ/mol
# Density = 2.667994 g / cm^3
# Si number density = 26.740807 Si / 1000 Ang^3
#
#
#
# Elastic Constant Matrix: (Units=GPa)
#
#
# Indices 1 2 3 4 5 6 
#
# 1 131.3837 40.5816 24.7768 -6.1281 4.0457 16.4331
# 2 40.5816 153.8866 55.2721 -13.5731 -5.5510 12.6508
# 3 24.7768 55.2721 184.0885 -19.5678 2.8712 1.6288
# 4 -6.1281 -13.5731 -19.5678 56.9447 -3.0683 -7.3711
# 5 4.0457 -5.5510 2.8712 -3.0683 35.9098 -2.0287
# 6 16.4331 12.6508 1.6288 -7.3711 -2.0287 34.4702
#
#
#
# Elastic Compliance Matrix: (Units=1/GPa)
#
#
# Indices 1 2 3 4 5 6 
#
# 1 0.008789 -0.001884 -0.000589 -0.000252 -0.001460 -0.003611
# 2 -0.001884 0.008009 -0.002069 0.000866 0.001596 -0.001664
# 3 -0.000589 -0.002069 0.006315 0.001723 -0.000550 0.001078
# 4 -0.000252 0.000866 0.001723 0.018935 0.001861 0.003879
# 5 -0.001460 0.001596 -0.000550 0.001861 0.028587 0.002217
# 6 -0.003611 -0.001664 0.001078 0.003879 0.002217 0.032252
#
#
# Mechanical properties :
#
#
# Convention : Reuss Voigt Hill
#
# Bulk Modulus (GPa) = 71.28674 78.95774 75.12224
# Shear Modulus (GPa) = 42.86386 48.71348 45.78867
#
# Velocity S-wave (km/s) = 4.00801 4.27276 4.14250
# Velocity P-wave (km/s) = 6.93795 7.34392 7.14382
#
# Compressibility (1/GPa) = 0.01402785
#
# Stress axis : x y z
#
# Youngs Moduli (GPa) = 113.77583 124.85717 158.35325
#
# Poissons Ratio (x) = 0.23526 0.09331
# Poissons Ratio (y) = 0.21438 0.32767
# Poissons Ratio (z) = 0.06704 0.25836
#
# Static dielectric constant tensor:
#      x y z
#    x 2.146060 -0.018450 0.000420 
#    y -0.018450 2.065880 -0.010390 
#    z 0.000420 -0.010390 2.058670 
# 
# From -- ./inp_files/205906.got.cif
#   From: 2010.05.17/outbox.cif.g08.bks.cpg/sg2_103_cif.got.tgz:205906.got - 2010.06.03 11:33:40.
