data_PCOD9019357
_publ_section_title
;
Structure prediction by ZEFSAII (Michael W. Deem and Ramdas Pophale) SiO2 
 PCOD9019357
Probable space group: P -1
;
_chemical_formula_sum "Si O2"
_cell_formula_units_Z 16
_cell_length_a 12.152533
_cell_length_b 5.209591
_cell_length_c 16.303167
_cell_angle_alpha 123.583303
_cell_angle_beta 122.305934
_cell_angle_gamma 94.257811
_cell_volume 618.421109
_symmetry_space_group_name_H-M "P -1"
_symmetry_group_IT_number 2
_symmetry_cell_setting 'triclinic'
loop_
_space_group_symop_operation_xyz
x,y,z
-x,-y,-z
loop_
_atom_site_type_symbol
_atom_site_label
_atom_site_fract_x
_atom_site_fract_y
_atom_site_fract_z
Si Si1 0.899961 0.184033 0.009784
Si Si2 0.498164 0.253441 0.654838
Si Si3 0.685618 0.930251 0.733820
Si Si4 0.786887 0.462917 0.594982
Si Si5 0.336776 0.849098 0.843484
Si Si6 0.865061 0.576487 0.466914
Si Si7 0.395450 0.277084 0.076866
Si Si8 0.956984 0.607857 0.258526
O O1 0.973345 0.552329 0.158181
O O2 0.821957 0.201416 0.897418
O O3 0.759418 0.909554 0.965192
O O4 0.000000 0.000000 0.000000
O O5 0.563020 0.612659 0.689571
O O6 0.496804 0.348096 0.767269
O O7 0.613960 0.108441 0.681558
O O8 0.337930 0.944678 0.499879
O O9 0.743024 0.726178 0.664336
O O10 0.770627 0.436502 0.487247
O O11 0.961217 0.592889 0.706924
O O12 0.244372 0.644227 0.689973
O O13 0.501126 0.900305 0.905694
O O14 0.218245 0.570527 0.816191
O O15 0.357607 0.220286 0.954850
O O16 0.000000 0.500000 0.500000
O O17 0.949885 0.008093 0.590411
#
# Coordination Sequence:
#
# PCOD9019357 Si02
#       8
#     2   2   2   2   2   2   2   2
#     4  10  21  44  71 103 139 180 240 298 365 432
#     4  11  26  46  74 107 145 184 244 294 367 431
#     4  11  26  48  72 108 143 191 237 302 361 436
#     4  12  26  43  71 100 143 189 234 294 368 425
#     4  10  21  46  67  98 144 182 251 286 359 422
#     4  12  27  40  65 104 137 190 235 295 353 428
#     4   9  22  41  74  98 136 191 232 304 354 426
#     4  11  24  44  69  98 145 188 236 297 361 426
#
# _framework density 25.872336000000001
#
# number of rings (size 3 to 8) (size 9 to 14) (size 15 to 20)
#    0.000    1.250    2.500    1.875    8.750    1.000 
#    2.250    3.750    0.000    0.000    0.000    0.000 
#    0.000    0.000    0.000    0.000    0.000    0.000 
#
# Total GULP energy -89426.360026 kJ/mol
# GULP energy per Si atom -5589.147502 kJ/mol
# Density = 2.581345 g / cm^3
# Si number density = 25.872336 Si / 1000 Ang^3
#
#
#
# Elastic Constant Matrix: (Units=GPa)
#
#
# Indices 1 2 3 4 5 6 
#
# 1 154.5176 25.3133 74.3869 -13.2785 -18.1325 -17.1700
# 2 25.3133 44.1267 21.8000 -1.2072 3.5558 -5.7781
# 3 74.3869 21.8000 170.3296 -21.5766 -26.8968 6.0551
# 4 -13.2785 -1.2072 -21.5766 20.8699 -2.0519 -1.4186
# 5 -18.1325 3.5558 -26.8968 -2.0519 67.9108 -6.3379
# 6 -17.1700 -5.7781 6.0551 -1.4186 -6.3379 35.4197
#
#
#
# Elastic Compliance Matrix: (Units=1/GPa)
#
#
# Indices 1 2 3 4 5 6 
#
# 1 0.009677 -0.003338 -0.003262 0.003146 0.002047 0.005196
# 2 -0.003338 0.026580 -0.003063 -0.003917 -0.003383 0.002479
# 3 -0.003262 -0.003063 0.009170 0.007318 0.002877 -0.002841
# 4 0.003146 -0.003917 0.007318 0.058050 0.005980 0.003030
# 5 0.002047 -0.003383 0.002877 0.005980 0.017072 0.003243
# 6 0.005196 0.002479 -0.002841 0.003030 0.003243 0.032343
#
#
# Mechanical properties :
#
#
# Convention : Reuss Voigt Hill
#
# Bulk Modulus (GPa) = 38.31196 67.99716 53.15456
# Shear Modulus (GPa) = 27.63693 41.33834 34.48763
#
# Velocity S-wave (km/s) = 3.27188 4.00156 3.65498
# Velocity P-wave (km/s) = 5.39573 6.90571 6.19688
#
# Compressibility (1/GPa) = 0.02610151
#
# Stress axis : x y z
#
# Youngs Moduli (GPa) = 103.33934 37.62225 109.05407
#
# Poissons Ratio (x) = 0.12559 0.35572
# Poissons Ratio (y) = 0.34496 0.33399
# Poissons Ratio (z) = 0.33708 0.11522
#
# Static dielectric constant tensor:
#      x y z
#    x 2.003540 0.033540 0.018220 
#    y 0.033540 2.085220 0.014270 
#    z 0.018220 0.014270 2.209570 
# 
# From -- ./inp_files/72266.got.cif
#   From: 2010.05.17/outbox.cif.g08.bks.cpg/sg2_37_cif.got.tgz:72266.got - 2010.06.03 11:33:40.
