data_PCOD9019998
_publ_section_title
;
Structure prediction by ZEFSAII (Michael W. Deem and Ramdas Pophale) SiO2 
 PCOD9019998
Probable space group: P -1
;
_chemical_formula_sum "Si O2"
_cell_formula_units_Z 14
_cell_length_a 13.887476
_cell_length_b 8.583823
_cell_length_c 19.067466
_cell_angle_alpha 46.696193
_cell_angle_beta 20.304582
_cell_angle_gamma 55.188043
_cell_volume 549.924704
_symmetry_space_group_name_H-M "P -1"
_symmetry_group_IT_number 2
_symmetry_cell_setting 'triclinic'
loop_
_space_group_symop_operation_xyz
x,y,z
-x,-y,-z
loop_
_atom_site_type_symbol
_atom_site_label
_atom_site_fract_x
_atom_site_fract_y
_atom_site_fract_z
Si Si1 0.267796 0.445031 0.906193
Si Si2 0.831330 0.737035 0.693143
Si Si3 0.912310 0.223871 0.981018
Si Si4 0.642302 0.801485 0.944046
Si Si5 0.205630 0.013334 0.660173
Si Si6 0.799810 0.566069 0.404317
Si Si7 0.734787 0.871299 0.573323
O O1 0.485329 0.492883 0.677008
O O2 0.993930 0.771899 0.865263
O O3 0.146051 0.649091 0.948616
O O4 0.415367 0.375976 0.897938
O O5 0.585468 0.718403 0.927408
O O6 0.782090 0.707993 0.652214
O O7 0.020472 0.582300 0.637866
O O8 0.000000 0.000000 0.500000
O O9 0.149977 0.419975 0.717167
O O10 0.597511 0.138418 0.184869
O O11 0.000000 0.000000 0.000000
O O12 0.992617 0.908538 0.671976
O O13 0.500000 0.000000 0.000000
O O14 0.070119 0.170178 0.750439
O O15 0.253484 0.150935 0.511565
O O16 0.500000 0.000000 0.500000
#
# Coordination Sequence:
#
# PCOD9019998 Si02
#       7
#     2   2   2   2   2   2   2
#     4  11  25  51  78 114 161 209 268 332 405 475
#     4  10  22  44  74 119 155 201 265 321 402 483
#     4  12  27  52  78 118 162 212 274 332 398 484
#     4  10  21  45  77 115 161 205 258 329 401 481
#     4  11  26  51  76 114 157 215 275 328 394 478
#     4  12  26  48  83 114 159 210 265 332 411 472
#     4  10  23  46  74 109 165 198 264 332 390 475
#
# _framework density 25.458030000000001
#
# number of rings (size 3 to 8) (size 9 to 14) (size 15 to 20)
#    0.000    1.143    2.857    2.571    0.000    6.286 
#   10.286    2.143    0.000    0.000    0.000    0.000 
#    0.000    0.000    0.000    0.000    0.000    0.000 
#
# Total GULP energy -78191.221359 kJ/mol
# GULP energy per Si atom -5585.087240 kJ/mol
# Density = 2.540009 g / cm^3
# Si number density = 25.458030 Si / 1000 Ang^3
#
#
#
# Elastic Constant Matrix: (Units=GPa)
#
#
# Indices 1 2 3 4 5 6 
#
# 1 99.5990 21.4414 45.3393 -0.4887 18.6147 -24.4904
# 2 21.4414 185.7002 51.5889 11.7462 -2.6300 -12.0296
# 3 45.3393 51.5889 167.8926 -18.6366 29.8790 -3.7923
# 4 -0.4887 11.7462 -18.6366 49.9203 -0.1396 9.0163
# 5 18.6147 -2.6300 29.8790 -0.1396 47.6412 -15.0450
# 6 -24.4904 -12.0296 -3.7923 9.0163 -15.0450 44.1501
#
#
#
# Elastic Compliance Matrix: (Units=1/GPa)
#
#
# Indices 1 2 3 4 5 6 
#
# 1 0.013705 0.000120 -0.003760 -0.002683 -0.000578 0.007663
# 2 0.000120 0.006660 -0.002939 -0.003267 0.003227 0.003396
# 3 -0.003760 -0.002939 0.009436 0.005108 -0.006254 -0.005250
# 4 -0.002683 -0.003267 0.005108 0.024217 -0.004975 -0.008581
# 5 -0.000578 0.003227 -0.006254 -0.004975 0.028720 0.010824
# 6 0.007663 0.003396 -0.005250 -0.008581 0.010824 0.032816
#
#
# Mechanical properties :
#
#
# Convention : Reuss Voigt Hill
#
# Bulk Modulus (GPa) = 60.08368 76.65901 68.37134
# Shear Modulus (GPa) = 37.24099 50.66382 43.95240
#
# Velocity S-wave (km/s) = 3.82886 4.46588 4.15958
# Velocity P-wave (km/s) = 6.57261 7.53455 7.06996
#
# Compressibility (1/GPa) = 0.01664346
#
# Stress axis : x y z
#
# Youngs Moduli (GPa) = 72.96545 150.14960 105.97566
#
# Poissons Ratio (x) = -0.01802 0.39845
# Poissons Ratio (y) = -0.00876 0.31148
# Poissons Ratio (z) = 0.27434 0.44131
#
# Static dielectric constant tensor:
#      x y z
#    x 2.226590 0.048540 0.011850 
#    y 0.048540 1.975960 -0.052420 
#    z 0.011850 -0.052420 2.054490 
# 
# From -- ./inp_files/597676.got.cif
#   From: 2010.05.17/outbox.cif.g08.bks.cpg/sg2_299_cif.got.tgz:597676.got - 2010.06.03 11:33:40.
