data_PCOD9019561
_publ_section_title
;
Structure prediction by ZEFSAII (Michael W. Deem and Ramdas Pophale) SiO2 
 PCOD9019561
Probable space group: P -1
;
_chemical_formula_sum "Si O2"
_cell_formula_units_Z 12
_cell_length_a 14.321118
_cell_length_b 7.636824
_cell_length_c 12.365306
_cell_angle_alpha 99.407675
_cell_angle_beta 150.876184
_cell_angle_gamma 59.795941
_cell_volume 429.231757
_symmetry_space_group_name_H-M "P -1"
_symmetry_group_IT_number 2
_symmetry_cell_setting 'triclinic'
loop_
_space_group_symop_operation_xyz
x,y,z
-x,-y,-z
loop_
_atom_site_type_symbol
_atom_site_label
_atom_site_fract_x
_atom_site_fract_y
_atom_site_fract_z
Si Si1 0.888804 0.854867 0.202485
Si Si2 0.166947 0.898205 0.303476
Si Si3 0.750724 0.528088 0.744240
Si Si4 0.783452 0.381962 0.093291
Si Si5 0.699927 0.015021 0.255056
Si Si6 0.406869 0.303303 0.643243
O O1 0.091736 0.837307 0.329711
O O2 0.079536 0.545010 0.376157
O O3 0.838313 0.981280 0.277894
O O4 0.599879 0.013389 0.857903
O O5 0.497849 0.715715 0.595486
O O6 0.122044 0.762068 0.161767
O O7 0.976171 0.207228 0.162006
O O8 0.592243 0.677906 0.482834
O O9 0.000000 0.500000 0.000000
O O10 0.537479 0.697320 0.898345
O O11 0.581469 0.343853 0.880715
O O12 0.030868 0.222516 0.420027
O O13 0.500000 0.000000 0.000000
#
# Coordination Sequence:
#
# PCOD9019561 Si02
#       6
#     2   2   2   2   2   2
#     4  10  22  42  67  98 139 182 235 286 343 422
#     4   9  22  42  70 106 142 190 236 288 365 424
#     4  10  21  44  74 108 147 187 241 300 357 431
#     4  11  24  44  71 100 144 193 237 295 357 425
#     4  12  26  44  68 107 147 190 244 296 354 423
#     4  10  22  41  68 100 132 182 239 286 355 425
#
# _framework density 27.956924000000001
#
# number of rings (size 3 to 8) (size 9 to 14) (size 15 to 20)
#    0.000    1.667    0.000    4.500    0.000   14.667 
#    0.000   15.833    0.000    0.000    0.000    3.500 
#    0.000    0.000    0.000    0.000    0.000    0.000 
#
# Total GULP energy -67086.276116 kJ/mol
# GULP energy per Si atom -5590.523010 kJ/mol
# Density = 2.789329 g / cm^3
# Si number density = 27.956924 Si / 1000 Ang^3
#
#
#
# Elastic Constant Matrix: (Units=GPa)
#
#
# Indices 1 2 3 4 5 6 
#
# 1 155.3034 64.6220 77.8416 -17.8699 -12.5290 -29.5465
# 2 64.6220 199.6927 86.3658 -37.4662 2.2174 -24.9880
# 3 77.8416 86.3658 157.9928 -38.0520 -16.4833 -3.9733
# 4 -17.8699 -37.4662 -38.0520 75.0848 -0.8446 -0.7158
# 5 -12.5290 2.2174 -16.4833 -0.8446 73.5553 -11.6893
# 6 -29.5465 -24.9880 -3.9733 -0.7158 -11.6893 38.3004
#
#
#
# Elastic Compliance Matrix: (Units=1/GPa)
#
#
# Indices 1 2 3 4 5 6 
#
# 1 0.010617 -0.000476 -0.004528 0.000095 0.002089 0.008050
# 2 -0.000476 0.007483 -0.003317 0.001974 -0.000377 0.004093
# 3 -0.004528 -0.003317 0.011084 0.002859 0.001196 -0.004089
# 4 0.000095 0.001974 0.002859 0.015810 0.001145 0.002303
# 5 0.002089 -0.000377 0.001196 0.001145 0.015222 0.006156
# 6 0.008050 0.004093 -0.004089 0.002303 0.006156 0.036487
#
#
# Mechanical properties :
#
#
# Convention : Reuss Voigt Hill
#
# Bulk Modulus (GPa) = 79.72403 107.84973 93.78688
# Shear Modulus (GPa) = 42.54406 56.33206 49.43806
#
# Velocity S-wave (km/s) = 3.90522 4.49370 4.20976
# Velocity P-wave (km/s) = 6.99378 8.09848 7.56632
#
# Compressibility (1/GPa) = 0.01254327
#
# Stress axis : x y z
#
# Youngs Moduli (GPa) = 94.18629 133.63626 90.22098
#
# Poissons Ratio (x) = 0.06356 0.40850
# Poissons Ratio (y) = 0.04480 0.29927
# Poissons Ratio (z) = 0.42645 0.44328
#
# Static dielectric constant tensor:
#      x y z
#    x 2.350610 0.109570 0.026630 
#    y 0.109570 2.377080 -0.080830 
#    z 0.026630 -0.080830 2.300380 
# 
# From -- ./inp_files/133325.got.cif
#   From: 2010.05.17/outbox.cif.g08.bks.cpg/sg2_67_cif.got.tgz:133325.got - 2010.06.03 11:33:40.
