data_PCOD9019552
_publ_section_title
;
Structure prediction by ZEFSAII (Michael W. Deem and Ramdas Pophale) SiO2 
 PCOD9019552
Probable space group: P -1
;
_chemical_formula_sum "Si O2"
_cell_formula_units_Z 14
_cell_length_a 14.509914
_cell_length_b 8.681798
_cell_length_c 18.531016
_cell_angle_alpha 34.193831
_cell_angle_beta 153.210670
_cell_angle_gamma 144.831392
_cell_volume 561.726522
_symmetry_space_group_name_H-M "P -1"
_symmetry_group_IT_number 2
_symmetry_cell_setting 'triclinic'
loop_
_space_group_symop_operation_xyz
x,y,z
-x,-y,-z
loop_
_atom_site_type_symbol
_atom_site_label
_atom_site_fract_x
_atom_site_fract_y
_atom_site_fract_z
Si Si1 0.729955 0.759781 0.128207
Si Si2 0.155463 0.803036 0.190374
Si Si3 0.427853 0.305066 0.743164
Si Si4 0.768056 0.259713 0.421830
Si Si5 0.174643 0.749093 0.386320
Si Si6 0.197190 0.760147 0.885764
Si Si7 0.504355 0.936554 0.255563
O O1 0.634845 0.474546 0.221044
O O2 0.922012 0.716128 0.230344
O O3 0.826243 0.029086 0.146478
O O4 0.561458 0.836292 0.929268
O O5 0.242357 0.851535 0.313969
O O6 0.008273 0.475157 0.198859
O O7 0.337692 0.866277 0.232130
O O8 0.000000 0.000000 0.000000
O O9 0.255119 0.472688 0.562045
O O10 0.314458 0.981456 0.819255
O O11 0.498411 0.309271 0.707791
O O12 0.643619 0.400459 0.905267
O O13 0.726944 0.086164 0.534769
O O14 0.735266 0.055147 0.409467
O O15 0.000000 0.500000 0.500000
#
# Coordination Sequence:
#
# PCOD9019552 Si02
#       7
#     2   2   2   2   2   2   2
#     4  10  21  44  74 105 133 191 233 299 344 416
#     4  12  28  47  69 104 144 200 230 284 355 444
#     4  10  24  44  75 110 131 188 236 310 341 407
#     4  10  23  41  70 109 134 178 235 304 344 405
#     4  11  24  43  71 106 140 181 242 290 354 406
#     4  10  24  46  73 102 145 179 246 285 360 419
#     4  11  25  45  71 101 149 186 235 281 366 426
#
# _framework density 24.923158999999998
#
# number of rings (size 3 to 8) (size 9 to 14) (size 15 to 20)
#    0.000    1.429    2.857    0.429    6.000    6.286 
#    0.000    0.000    0.000    0.000    0.000    0.000 
#    0.000    0.000    0.000    0.000    0.000    0.000 
#
# Total GULP energy -78187.162669 kJ/mol
# GULP energy per Si atom -5584.797334 kJ/mol
# Density = 2.486643 g / cm^3
# Si number density = 24.923159 Si / 1000 Ang^3
#
#
#
# Elastic Constant Matrix: (Units=GPa)
#
#
# Indices 1 2 3 4 5 6 
#
# 1 160.1543 -6.6446 47.4649 -3.0286 -3.2376 -7.7100
# 2 -6.6446 28.1626 9.1316 -1.8568 2.2967 9.8320
# 3 47.4649 9.1316 113.9912 -1.3745 -14.5179 -10.5720
# 4 -3.0286 -1.8568 -1.3745 23.2307 -5.3213 7.9067
# 5 -3.2376 2.2967 -14.5179 -5.3213 57.0719 -0.9191
# 6 -7.7100 9.8320 -10.5720 7.9067 -0.9191 24.5837
#
#
#
# Elastic Compliance Matrix: (Units=1/GPa)
#
#
# Indices 1 2 3 4 5 6 
#
# 1 0.007379 0.003305 -0.003470 0.001216 -0.000498 -0.000910
# 2 0.003305 0.048968 -0.007956 0.011992 -0.003107 -0.025942
# 3 -0.003470 -0.007956 0.011972 -0.002448 0.003072 0.008144
# 4 0.001216 0.011992 -0.002448 0.052367 0.003489 -0.022180
# 5 -0.000498 -0.003107 0.003072 0.003489 0.018757 0.001986
# 6 -0.000910 -0.025942 0.008144 -0.022180 0.001986 0.061478
#
#
# Mechanical properties :
#
#
# Convention : Reuss Voigt Hill
#
# Bulk Modulus (GPa) = 19.20279 44.69021 31.94650
# Shear Modulus (GPa) = 21.31995 37.80102 29.56048
#
# Velocity S-wave (km/s) = 2.92794 3.89871 3.44767
# Velocity P-wave (km/s) = 4.37630 6.18359 5.35671
#
# Compressibility (1/GPa) = 0.05207576
#
# Stress axis : x y z
#
# Youngs Moduli (GPa) = 135.52507 20.42142 83.52874
#
# Poissons Ratio (x) = -0.06748 0.28987
# Poissons Ratio (y) = -0.44785 0.66453
# Poissons Ratio (z) = 0.47032 0.16247
#
# Static dielectric constant tensor:
#      x y z
#    x 2.045690 -0.021020 0.011470 
#    y -0.021020 2.021820 0.002660 
#    z 0.011470 0.002660 2.019550 
# 
# From -- ./inp_files/572828.got.cif
#   From: 2010.05.17/outbox.cif.g08.bks.cpg/sg2_287_cif.got.tgz:572828.got - 2010.06.03 11:33:40.
