data_PCOD9019266
_publ_section_title
;
Structure prediction by ZEFSAII (Michael W. Deem and Ramdas Pophale) SiO2 
 PCOD9019266
Probable space group: P -1
;
_chemical_formula_sum "Si O2"
_cell_formula_units_Z 15
_cell_length_a 22.291035
_cell_length_b 6.976592
_cell_length_c 4.995471
_cell_angle_alpha 133.719222
_cell_angle_beta 102.689579
_cell_angle_gamma 78.316942
_cell_volume 546.342484
_symmetry_space_group_name_H-M "P -1"
_symmetry_group_IT_number 2
_symmetry_cell_setting 'triclinic'
loop_
_space_group_symop_operation_xyz
x,y,z
-x,-y,-z
loop_
_atom_site_type_symbol
_atom_site_label
_atom_site_fract_x
_atom_site_fract_y
_atom_site_fract_z
Si Si1 0.802437 0.039008 0.135640
Si Si2 0.000000 0.000000 0.500000
Si Si3 0.099146 0.177965 0.589241
Si Si4 0.280068 0.432312 0.555782
Si Si5 0.622465 0.229037 0.166206
Si Si6 0.490613 0.248682 0.927334
Si Si7 0.643799 0.867146 0.301515
Si Si8 0.080889 0.726678 0.794075
O O1 0.757678 0.302421 0.317241
O O2 0.858255 0.123934 0.084516
O O3 0.835460 0.941460 0.350039
O O4 0.763054 0.798896 0.780117
O O5 0.034268 0.778097 0.558732
O O6 0.946142 0.777272 0.160999
O O7 0.098593 0.432469 0.644387
O O8 0.060197 0.916171 0.213312
O O9 0.348830 0.488937 0.570437
O O10 0.301034 0.354454 0.803866
O O11 0.657697 0.064891 0.272704
O O12 0.549294 0.239862 0.173200
O O13 0.633439 0.058057 0.738247
O O14 0.420202 0.256814 0.953010
O O15 0.500000 0.000000 0.500000
O O16 0.500000 0.500000 0.000000
#
# Coordination Sequence:
#
# PCOD9019266 Si02
#       8
#     2   1   2   2   2   2   2   2
#     4  11  26  45  66  99 134 185 236 290 342 427
#     4  10  24  42  72 108 144 172 236 276 348 414
#     4  11  24  44  70 102 139 184 227 284 348 410
#     4  12  24  47  66 101 136 186 242 298 360 422
#     4  11  25  47  72 106 142 187 240 304 375 444
#     4  10  21  44  70 103 141 183 232 300 374 453
#     4  11  25  47  72 106 142 187 240 304 375 444
#     4  11  24  44  70 102 139 184 227 284 348 410
#
# _framework density 27.455307000000001
#
# number of rings (size 3 to 8) (size 9 to 14) (size 15 to 20)
#    0.000    1.067    2.667    2.800    0.000    8.533 
#    4.800    2.667    0.000    0.000    0.000    0.000 
#    0.000    0.000    0.000    0.000    0.000    0.000 
#
# Total GULP energy -83773.420720 kJ/mol
# GULP energy per Si atom -5584.894715 kJ/mol
# Density = 2.739282 g / cm^3
# Si number density = 27.455307 Si / 1000 Ang^3
#
#
#
# Elastic Constant Matrix: (Units=GPa)
#
#
# Indices 1 2 3 4 5 6 
#
# 1 113.8664 51.1144 40.9632 -10.5632 27.5780 -13.3965
# 2 51.1144 287.8793 76.8791 -0.8808 24.7580 -17.2896
# 3 40.9632 76.8791 100.4587 4.5467 15.4624 -7.0618
# 4 -10.5632 -0.8808 4.5467 54.9937 2.0301 7.0759
# 5 27.5780 24.7580 15.4624 2.0301 52.3500 -7.0861
# 6 -13.3965 -17.2896 -7.0618 7.0759 -7.0861 53.4444
#
#
#
# Elastic Compliance Matrix: (Units=1/GPa)
#
#
# Indices 1 2 3 4 5 6 
#
# 1 0.011956 -0.000641 -0.003665 0.002598 -0.004835 0.001320
# 2 -0.000641 0.004509 -0.003017 0.000128 -0.000804 0.000776
# 3 -0.003665 -0.003017 0.013955 -0.001895 -0.000676 0.000111
# 4 0.002598 0.000128 -0.001895 0.019216 -0.001934 -0.002358
# 5 -0.004835 -0.000804 -0.000676 -0.001934 0.022531 0.001682
# 6 0.001320 0.000776 0.000111 -0.002358 0.001682 0.019843
#
#
# Mechanical properties :
#
#
# Convention : Reuss Voigt Hill
#
# Bulk Modulus (GPa) = 63.39590 93.34642 78.37116
# Shear Modulus (GPa) = 44.67646 54.37416 49.52531
#
# Velocity S-wave (km/s) = 4.03829 4.45506 4.25179
# Velocity P-wave (km/s) = 6.69958 7.78053 7.26020
#
# Compressibility (1/GPa) = 0.01577389
#
# Stress axis : x y z
#
# Youngs Moduli (GPa) = 83.64171 221.76275 71.65708
#
# Poissons Ratio (x) = 0.14214 0.26264
# Poissons Ratio (y) = 0.05361 0.21620
# Poissons Ratio (z) = 0.30656 0.66908
#
# Static dielectric constant tensor:
#      x y z
#    x 2.371080 -0.051930 -0.187240 
#    y -0.051930 2.094370 0.024210 
#    z -0.187240 0.024210 2.296840 
# 
# From -- ./inp_files/113927.got.cif
#   From: 2010.05.17/outbox.cif.g08.bks.cpg/sg2_57_cif.got.tgz:113927.got - 2010.06.03 11:33:40.
