data_PCOD9019808
_publ_section_title
;
Structure prediction by ZEFSAII (Michael W. Deem and Ramdas Pophale) SiO2 
 PCOD9019808
Probable space group: P -1
;
_chemical_formula_sum "Si O2"
_cell_formula_units_Z 16
_cell_length_a 12.063222
_cell_length_b 8.691171
_cell_length_c 7.801315
_cell_angle_alpha 127.472646
_cell_angle_beta 103.655173
_cell_angle_gamma 76.858067
_cell_volume 627.057323
_symmetry_space_group_name_H-M "P -1"
_symmetry_group_IT_number 2
_symmetry_cell_setting 'triclinic'
loop_
_space_group_symop_operation_xyz
x,y,z
-x,-y,-z
loop_
_atom_site_type_symbol
_atom_site_label
_atom_site_fract_x
_atom_site_fract_y
_atom_site_fract_z
Si Si1 0.382687 0.107638 0.101938
Si Si2 0.000131 0.901539 0.691689
Si Si3 0.811729 0.108219 0.958597
Si Si4 0.911873 0.691735 0.072410
Si Si5 0.538801 0.782667 0.422908
Si Si6 0.762793 0.551575 0.217883
Si Si7 0.387585 0.523407 0.350465
Si Si8 0.149687 0.525225 0.420542
O O1 0.401666 0.184885 0.351581
O O2 0.367274 0.310363 0.130222
O O3 0.282750 0.970222 0.003120
O O4 0.500000 0.000000 0.000000
O O5 0.040647 0.099134 0.760519
O O6 0.866921 0.961175 0.732440
O O7 0.047234 0.699965 0.479469
O O8 0.077842 0.865128 0.866578
O O9 0.768762 0.321999 0.016894
O O10 0.821700 0.670230 0.175311
O O11 0.870753 0.651825 0.834610
O O12 0.000000 0.500000 0.000000
O O13 0.634177 0.650187 0.263770
O O14 0.426681 0.671877 0.328280
O O15 0.500000 0.000000 0.500000
O O16 0.828025 0.542007 0.420991
O O17 0.500000 0.500000 0.500000
O O18 0.270274 0.599058 0.454877
#
# Coordination Sequence:
#
# PCOD9019808 Si02
#       8
#     2   2   2   2   2   2   2   2
#     4  11  23  40  74 101 135 195 243 297 369 449
#     4  10  24  45  73 107 153 191 252 310 360 459
#     4  10  22  45  71 107 142 193 251 299 370 444
#     4  12  27  48  71 115 150 192 256 309 374 448
#     4  11  26  43  67 107 145 188 238 311 379 432
#     4  11  24  49  72 102 156 188 247 320 357 457
#     4  10  21  45  69 101 142 188 251 294 371 451
#     4  11  25  47  78 105 147 212 240 308 386 438
#
# _framework density 25.516010000000001
#
# number of rings (size 3 to 8) (size 9 to 14) (size 15 to 20)
#    0.000    1.250    3.750    1.500    7.000    4.000 
#    0.000    1.875    0.000    0.000    0.000    0.000 
#    0.000    0.000    0.000    0.000    0.000    0.000 
#
# Total GULP energy -89511.848538 kJ/mol
# GULP energy per Si atom -5594.490534 kJ/mol
# Density = 2.545793 g / cm^3
# Si number density = 25.516010 Si / 1000 Ang^3
#
#
#
# Elastic Constant Matrix: (Units=GPa)
#
#
# Indices 1 2 3 4 5 6 
#
# 1 180.3478 64.0300 55.8822 23.6718 -41.2762 27.2178
# 2 64.0300 150.1490 41.3430 33.5964 -13.8791 23.1621
# 3 55.8822 41.3430 116.2338 15.0577 -22.5366 6.5686
# 4 23.6718 33.5964 15.0577 58.5224 -15.7945 5.5694
# 5 -41.2762 -13.8791 -22.5366 -15.7945 47.8075 -2.3234
# 6 27.2178 23.1621 6.5686 5.5694 -2.3234 50.7791
#
#
#
# Elastic Compliance Matrix: (Units=1/GPa)
#
#
# Indices 1 2 3 4 5 6 
#
# 1 0.008773 -0.002140 -0.002163 0.000110 0.005815 -0.003192
# 2 -0.002140 0.009254 -0.001886 -0.004144 -0.001538 -0.002446
# 3 -0.002163 -0.001886 0.010810 -0.000179 0.002659 0.000763
# 4 0.000110 -0.004144 -0.000179 0.021038 0.005748 -0.000190
# 5 0.005815 -0.001538 0.002659 0.005748 0.028542 -0.002084
# 6 -0.003192 -0.002446 0.000763 -0.000190 -0.002084 0.022347
#
#
# Mechanical properties :
#
#
# Convention : Reuss Voigt Hill
#
# Bulk Modulus (GPa) = 60.75745 85.47122 73.11434
# Shear Modulus (GPa) = 42.14843 50.45350 46.30097
#
# Velocity S-wave (km/s) = 4.06870 4.45154 4.26442
# Velocity P-wave (km/s) = 6.77758 7.74541 7.27760
#
# Compressibility (1/GPa) = 0.01645889
#
# Stress axis : x y z
#
# Youngs Moduli (GPa) = 113.98427 108.05648 92.51026
#
# Poissons Ratio (x) = 0.23127 0.20010
# Poissons Ratio (y) = 0.24396 0.17446
# Poissons Ratio (z) = 0.24655 0.20378
#
# Static dielectric constant tensor:
#      x y z
#    x 2.041690 0.044750 0.048080 
#    y 0.044750 1.924610 -0.133250 
#    z 0.048080 -0.133250 2.097510 
# 
# From -- ./inp_files/245943.got.cif
#   From: 2010.05.17/outbox.cif.g08.bks.cpg/sg2_123_cif.got.tgz:245943.got - 2010.06.03 11:33:40.
