data_PCOD9019103
_publ_section_title
;
Structure prediction by ZEFSAII (Michael W. Deem and Ramdas Pophale) SiO2 
 PCOD9019103
Probable space group: P -1
;
_chemical_formula_sum "Si O2"
_cell_formula_units_Z 14
_cell_length_a 5.926345
_cell_length_b 19.281223
_cell_length_c 9.254175
_cell_angle_alpha 43.292546
_cell_angle_beta 127.550644
_cell_angle_gamma 120.533189
_cell_volume 570.832071
_symmetry_space_group_name_H-M "P -1"
_symmetry_group_IT_number 2
_symmetry_cell_setting 'triclinic'
loop_
_space_group_symop_operation_xyz
x,y,z
-x,-y,-z
loop_
_atom_site_type_symbol
_atom_site_label
_atom_site_fract_x
_atom_site_fract_y
_atom_site_fract_z
Si Si1 0.889875 0.101881 0.873534
Si Si2 0.935072 0.958926 0.694632
Si Si3 0.979493 0.299255 0.086637
Si Si4 0.513679 0.402171 0.258217
Si Si5 0.646042 0.147084 0.417934
Si Si6 0.032228 0.306586 0.763886
Si Si7 0.593663 0.462261 0.744802
O O1 0.690246 0.143450 0.612821
O O2 0.082603 0.208902 0.831179
O O3 0.811010 0.064251 0.064033
O O4 0.000000 0.000000 0.000000
O O5 0.689739 0.864868 0.724368
O O6 0.776888 0.044982 0.577650
O O7 0.000000 0.000000 0.500000
O O8 0.812454 0.227569 0.251603
O O9 0.315417 0.311961 0.237651
O O10 0.906136 0.278133 0.920236
O O11 0.872027 0.407497 0.914731
O O12 0.810569 0.367616 0.490200
O O13 0.363149 0.441206 0.281862
O O14 0.500000 0.500000 0.000000
O O15 0.321815 0.379899 0.804369
O O16 0.500000 0.500000 0.500000
#
# Coordination Sequence:
#
# PCOD9019103 Si02
#       7
#     2   2   2   2   2   2   2
#     4  10  24  44  69 103 137 181 239 293 353 422
#     4  10  21  44  68  93 135 172 226 291 349 409
#     4  12  26  45  71 105 146 192 241 291 364 429
#     4  12  26  46  71 107 149 190 242 296 362 432
#     4  10  24  40  66  99 128 178 231 282 348 419
#     4  12  26  46  71 104 150 190 242 303 360 427
#     4  12  25  46  72 104 148 192 241 300 361 429
#
# _framework density 24.525600000000001
#
# number of rings (size 3 to 8) (size 9 to 14) (size 15 to 20)
#    0.000    0.857    2.857    3.429    4.000    4.000 
#    0.000    4.286    0.000    0.000    0.000    0.000 
#    0.000    0.000    0.000    0.000    0.000    0.000 
#
# Total GULP energy -78018.937383 kJ/mol
# GULP energy per Si atom -5572.781242 kJ/mol
# Density = 2.446978 g / cm^3
# Si number density = 24.525600 Si / 1000 Ang^3
#
#
#
# Elastic Constant Matrix: (Units=GPa)
#
#
# Indices 1 2 3 4 5 6 
#
# 1 53.9802 28.7294 52.6948 11.5415 2.2971 1.2536
# 2 28.7294 111.3882 54.2184 12.3093 9.0235 -16.1038
# 3 52.6948 54.2184 195.0228 42.2516 -22.8650 5.6922
# 4 11.5415 12.3093 42.2516 51.7149 -8.0080 0.1746
# 5 2.2971 9.0235 -22.8650 -8.0080 50.4998 -2.4307
# 6 1.2536 -16.1038 5.6922 0.1746 -2.4307 46.4324
#
#
#
# Elastic Compliance Matrix: (Units=1/GPa)
#
#
# Indices 1 2 3 4 5 6 
#
# 1 0.027237 -0.003636 -0.006673 -0.000334 -0.003730 -0.001372
# 2 -0.003636 0.012251 -0.002867 -0.000264 -0.003145 0.004535
# 3 -0.006673 -0.002867 0.009304 -0.004775 0.004188 -0.001718
# 4 -0.000334 -0.000264 -0.004775 0.023633 0.001672 0.000501
# 5 -0.003730 -0.003145 0.004188 0.001672 0.022680 -0.000323
# 6 -0.001372 0.004535 -0.001718 0.000501 -0.000323 0.023338
#
#
# Mechanical properties :
#
#
# Convention : Reuss Voigt Hill
#
# Bulk Modulus (GPa) = 44.56777 70.18626 57.37702
# Shear Modulus (GPa) = 32.83543 44.71268 38.77405
#
# Velocity S-wave (km/s) = 3.66296 4.27441 3.98045
# Velocity P-wave (km/s) = 6.00842 7.28289 6.67614
#
# Compressibility (1/GPa) = 0.02243774
#
# Stress axis : x y z
#
# Youngs Moduli (GPa) = 36.71483 81.62804 107.48579
#
# Poissons Ratio (x) = 0.29680 0.71730
# Poissons Ratio (y) = 0.13350 0.30819
# Poissons Ratio (z) = 0.24501 0.23405
#
# Static dielectric constant tensor:
#      x y z
#    x 2.026370 0.006170 -0.103310 
#    y 0.006170 2.061330 0.054290 
#    z -0.103310 0.054290 1.990110 
# 
# From -- ./inp_files/141075.got.cif
#   From: 2010.05.17/outbox.cif.g08.bks.cpg/sg2_71_cif.got.tgz:141075.got - 2010.06.03 11:33:40.
