data_PCOD9019504
_publ_section_title
;
Structure prediction by ZEFSAII (Michael W. Deem and Ramdas Pophale) SiO2 
 PCOD9019504
Probable space group: P -1
;
_chemical_formula_sum "Si O2"
_cell_formula_units_Z 16
_cell_length_a 5.305531
_cell_length_b 5.832358
_cell_length_c 24.408367
_cell_angle_alpha 125.023779
_cell_angle_beta 100.186746
_cell_angle_gamma 92.819069
_cell_volume 598.031781
_symmetry_space_group_name_H-M "P -1"
_symmetry_group_IT_number 2
_symmetry_cell_setting 'triclinic'
loop_
_space_group_symop_operation_xyz
x,y,z
-x,-y,-z
loop_
_atom_site_type_symbol
_atom_site_label
_atom_site_fract_x
_atom_site_fract_y
_atom_site_fract_z
Si Si1 0.853679 0.615718 0.459482
Si Si2 0.184342 0.927391 0.046886
Si Si3 0.466009 0.612794 0.298764
Si Si4 0.186271 0.527560 0.172102
Si Si5 0.793068 0.606780 0.078680
Si Si6 0.618363 0.008854 0.203312
Si Si7 0.101996 0.908765 0.669292
Si Si8 0.319485 0.606354 0.417397
O O1 0.582072 0.701322 0.474796
O O2 0.000000 0.500000 0.500000
O O3 0.091727 0.768482 0.451835
O O4 0.749619 0.347516 0.377959
O O5 0.014830 0.750782 0.064575
O O6 0.285449 0.237208 0.118950
O O7 0.341897 0.696874 0.994387
O O8 0.000000 0.000000 0.000000
O O9 0.213178 0.596153 0.246899
O O10 0.728164 0.835269 0.322833
O O11 0.378666 0.658017 0.362983
O O12 0.543892 0.312904 0.246617
O O13 0.387552 0.786004 0.190243
O O14 0.917660 0.518643 0.128420
O O15 0.659109 0.867308 0.127618
O O16 0.863340 0.029260 0.256607
O O17 0.810754 0.731012 0.624206
#
# Coordination Sequence:
#
# PCOD9019504 Si02
#       8
#     2   2   2   2   2   2   2   2
#     4  10  21  44  73 100 145 191 231 291 350 414
#     4   9  20  40  61  90 126 173 224 280 353 417
#     4  11  22  45  65 104 135 183 229 293 355 420
#     4  10  23  39  64  93 126 171 225 285 357 418
#     4  10  22  41  62  88 129 172 222 287 343 427
#     4  11  23  41  61  96 126 172 228 281 345 420
#     4   9  24  40  66  99 140 181 228 290 351 418
#     4  10  22  45  66 103 142 184 233 292 347 420
#
# _framework density 26.754428999999998
#
# number of rings (size 3 to 8) (size 9 to 14) (size 15 to 20)
#    0.750    1.250    1.250    1.125    3.500    4.500 
#    9.000   10.000    0.000    0.000    0.000    0.000 
#    0.000    0.000    0.000    0.000    0.000    0.000 
#
# Total GULP energy -89344.885636 kJ/mol
# GULP energy per Si atom -5584.055352 kJ/mol
# Density = 2.669354 g / cm^3
# Si number density = 26.754429 Si / 1000 Ang^3
#
#
#
# Elastic Constant Matrix: (Units=GPa)
#
#
# Indices 1 2 3 4 5 6 
#
# 1 123.3622 39.4101 47.7209 -4.9559 3.2112 6.8515
# 2 39.4101 84.5766 26.4003 8.4771 10.8156 14.4751
# 3 47.7209 26.4003 131.7281 -24.7601 6.7876 6.2183
# 4 -4.9559 8.4771 -24.7601 62.7463 0.5005 7.5888
# 5 3.2112 10.8156 6.7876 0.5005 43.8863 6.6478
# 6 6.8515 14.4751 6.2183 7.5888 6.6478 41.2943
#
#
#
# Elastic Compliance Matrix: (Units=1/GPa)
#
#
# Indices 1 2 3 4 5 6 
#
# 1 0.010567 -0.004092 -0.003006 0.000197 0.000700 -0.000015
# 2 -0.004092 0.015522 -0.001828 -0.002689 -0.002673 -0.003562
# 3 -0.003006 -0.001828 0.009890 0.004036 -0.000758 -0.000969
# 4 0.000197 -0.002689 0.004036 0.018282 0.000286 -0.003103
# 5 0.000700 -0.002673 -0.000758 0.000286 0.023958 -0.002975
# 6 -0.000015 -0.003562 -0.000969 -0.003103 -0.002975 0.026663
#
#
# Mechanical properties :
#
#
# Convention : Reuss Voigt Hill
#
# Bulk Modulus (GPa) = 55.16830 62.96994 59.06912
# Shear Modulus (GPa) = 38.82680 44.66109 41.74395
#
# Velocity S-wave (km/s) = 3.81363 4.09014 3.95430
# Velocity P-wave (km/s) = 6.32904 6.77444 6.55552
#
# Compressibility (1/GPa) = 0.01812635
#
# Stress axis : x y z
#
# Youngs Moduli (GPa) = 94.63418 64.42418 101.11058
#
# Poissons Ratio (x) = 0.26364 0.30396
# Poissons Ratio (y) = 0.38727 0.18483
# Poissons Ratio (z) = 0.28449 0.11777
#
# Static dielectric constant tensor:
#      x y z
#    x 2.177050 -0.140760 -0.011420 
#    y -0.140760 2.191560 -0.019920 
#    z -0.011420 -0.019920 2.125580 
# 
# From -- ./inp_files/603448.got.cif
#   From: 2010.05.17/outbox.cif.g08.bks.cpg/sg2_302_cif.got.tgz:603448.got - 2010.06.03 11:33:40.
