data_PCOD9019916
_publ_section_title
;
Structure prediction by ZEFSAII (Michael W. Deem and Ramdas Pophale) SiO2 
 PCOD9019916
Probable space group: P -1
;
_chemical_formula_sum "Si O2"
_cell_formula_units_Z 12
_cell_length_a 5.256915
_cell_length_b 13.800640
_cell_length_c 15.440369
_cell_angle_alpha 153.004371
_cell_angle_beta 61.203438
_cell_angle_gamma 113.308499
_cell_volume 444.008575
_symmetry_space_group_name_H-M "P -1"
_symmetry_group_IT_number 2
_symmetry_cell_setting 'triclinic'
loop_
_space_group_symop_operation_xyz
x,y,z
-x,-y,-z
loop_
_atom_site_type_symbol
_atom_site_label
_atom_site_fract_x
_atom_site_fract_y
_atom_site_fract_z
Si Si1 0.368099 0.220083 0.366058
Si Si2 0.199966 0.191186 0.638728
Si Si3 0.492620 0.677876 0.766597
Si Si4 0.233142 0.493578 0.103477
Si Si5 0.786359 0.093026 0.435485
Si Si6 0.835882 0.836789 0.000702
O O1 0.388926 0.439633 0.589551
O O2 0.345791 0.286188 0.321391
O O3 0.083610 0.101021 0.342858
O O4 0.663044 0.068370 0.209836
O O5 0.464223 0.138004 0.486273
O O6 0.063651 0.430298 0.837953
O O7 0.244551 0.125479 0.679763
O O8 0.000000 0.000000 0.500000
O O9 0.694983 0.717140 0.846838
O O10 0.186296 0.826436 0.931796
O O11 0.234284 0.694952 0.330344
O O12 0.234138 0.285576 0.996780
O O13 0.500000 0.500000 0.000000
#
# Coordination Sequence:
#
# PCOD9019916 Si02
#       6
#     2   2   2   2   2   2
#     4  11  25  50  83 114 156 211 257 330 396 457
#     4   9  21  42  67 101 144 193 249 309 382 458
#     4  11  28  52  79 117 159 208 267 325 387 473
#     4  11  24  43  67 104 153 199 254 322 385 461
#     4  10  21  45  72 106 151 199 258 316 388 465
#     4  12  27  51  77 117 160 208 264 324 392 470
#
# _framework density 27.026503999999999
#
# number of rings (size 3 to 8) (size 9 to 14) (size 15 to 20)
#    0.000    1.333    1.667    2.000    2.333    4.667 
#   21.000    0.000    0.000    0.000    0.000    0.000 
#    0.000    0.000    0.000    0.000    0.000    0.000 
#
# Total GULP energy -67237.864125 kJ/mol
# GULP energy per Si atom -5603.155344 kJ/mol
# Density = 2.696499 g / cm^3
# Si number density = 27.026504 Si / 1000 Ang^3
#
#
#
# Elastic Constant Matrix: (Units=GPa)
#
#
# Indices 1 2 3 4 5 6 
#
# 1 104.4109 32.0605 15.9280 -9.8567 -3.0118 -6.1967
# 2 32.0605 139.9718 9.8046 -6.7108 -15.5102 -12.2167
# 3 15.9280 9.8046 93.1790 7.7438 -4.8857 -10.4112
# 4 -9.8567 -6.7108 7.7438 55.0442 -3.0644 -5.4118
# 5 -3.0118 -15.5102 -4.8857 -3.0644 50.1834 7.6564
# 6 -6.1967 -12.2167 -10.4112 -5.4118 7.6564 47.2314
#
#
#
# Elastic Compliance Matrix: (Units=1/GPa)
#
#
# Indices 1 2 3 4 5 6 
#
# 1 0.010735 -0.002205 -0.001695 0.001952 -0.000193 0.000719
# 2 -0.002205 0.008081 -0.000267 0.000895 0.002166 0.001494
# 3 -0.001695 -0.000267 0.011438 -0.001725 0.000527 0.001947
# 4 0.001952 0.000895 -0.001725 0.019137 0.001070 0.002127
# 5 -0.000193 0.002166 0.000527 0.001070 0.021105 -0.002647
# 6 0.000719 0.001494 0.001947 0.002127 -0.002647 0.022755
#
#
# Mechanical properties :
#
#
# Convention : Reuss Voigt Hill
#
# Bulk Modulus (GPa) = 45.62102 50.34975 47.98539
# Shear Modulus (GPa) = 45.91657 49.14304 47.52980
#
# Velocity S-wave (km/s) = 4.12630 4.26881 4.19816
# Velocity P-wave (km/s) = 6.29433 6.55494 6.42595
#
# Compressibility (1/GPa) = 0.02191972
#
# Stress axis : x y z
#
# Youngs Moduli (GPa) = 93.15699 123.74087 87.42507
#
# Poissons Ratio (x) = 0.27285 0.14818
# Poissons Ratio (y) = 0.20541 0.02338
# Poissons Ratio (z) = 0.15789 0.03309
#
# Static dielectric constant tensor:
#      x y z
#    x 2.545810 -0.124840 0.010730 
#    y -0.124840 2.079680 -0.081830 
#    z 0.010730 -0.081830 2.198480 
# 
# From -- ./inp_files/388706.got.cif
#   From: 2010.05.17/outbox.cif.g08.bks.cpg/sg2_195_cif.got.tgz:388706.got - 2010.06.03 11:33:40.
