data_PCOD9019821
_publ_section_title
;
Structure prediction by ZEFSAII (Michael W. Deem and Ramdas Pophale) SiO2 
 PCOD9019821
Probable space group: P -1
;
_chemical_formula_sum "Si O2"
_cell_formula_units_Z 16
_cell_length_a 5.634819
_cell_length_b 15.227159
_cell_length_c 13.656115
_cell_angle_alpha 42.402033
_cell_angle_beta 65.473817
_cell_angle_gamma 87.291727
_cell_volume 651.482081
_symmetry_space_group_name_H-M "P -1"
_symmetry_group_IT_number 2
_symmetry_cell_setting 'triclinic'
loop_
_space_group_symop_operation_xyz
x,y,z
-x,-y,-z
loop_
_atom_site_type_symbol
_atom_site_label
_atom_site_fract_x
_atom_site_fract_y
_atom_site_fract_z
Si Si1 0.239314 0.110282 0.004757
Si Si2 0.911267 0.283167 0.206604
Si Si3 0.758914 0.192002 0.723298
Si Si4 0.299414 0.157120 0.467919
Si Si5 0.938435 0.514658 0.170351
Si Si6 0.248895 0.118429 0.230622
Si Si7 0.282434 0.428390 0.334103
Si Si8 0.641489 0.989310 0.230536
O O1 0.259272 0.143353 0.090100
O O2 0.202268 0.946414 0.129008
O O3 0.523900 0.212481 0.815228
O O4 0.928248 0.095978 0.037877
O O5 0.588156 0.162727 0.367392
O O6 0.918689 0.378640 0.220636
O O7 0.170017 0.234426 0.201690
O O8 0.936461 0.363104 0.033744
O O9 0.594820 0.123264 0.706560
O O10 0.045818 0.331918 0.534052
O O11 0.297998 0.312211 0.348518
O O12 0.292473 0.105558 0.623295
O O13 0.013150 0.034809 0.575547
O O14 0.611675 0.498202 0.261035
O O15 0.143998 0.521699 0.221423
O O16 0.526563 0.091017 0.222149
#
# Coordination Sequence:
#
# PCOD9019821 Si02
#       8
#     2   2   2   2   2   2   2   2
#     4   9  19  31  50  88 113 148 184 224 301 349
#     4  10  22  40  57  79 112 154 197 240 277 342
#     4  10  17  30  57  80 117 147 184 235 285 351
#     4  10  20  34  56  85 116 147 186 233 296 350
#     4  10  25  42  59  86 110 156 206 239 277 327
#     4  10  20  36  53  83 120 149 184 233 299 346
#     4  11  20  40  62  84 119 146 193 247 282 336
#     4  10  17  33  48  87 121 148 179 227 294 355
#
# _framework density 24.559386
#
# number of rings (size 3 to 8) (size 9 to 14) (size 15 to 20)
#    0.000    2.000    3.750    2.250    0.000    5.000 
#   13.500    0.000    0.000    1.500    0.000    0.000 
#    0.000    0.000    0.000    0.000    0.000    0.000 
#
# Total GULP energy -89389.223484 kJ/mol
# GULP energy per Si atom -5586.826468 kJ/mol
# Density = 2.450349 g / cm^3
# Si number density = 24.559386 Si / 1000 Ang^3
#
#
#
# Elastic Constant Matrix: (Units=GPa)
#
#
# Indices 1 2 3 4 5 6 
#
# 1 114.0681 14.9186 34.5452 11.8816 -11.3222 -26.3122
# 2 14.9186 36.7350 10.6519 16.9074 -10.7323 -6.6628
# 3 34.5452 10.6519 81.4549 35.5708 -24.7326 -19.2200
# 4 11.8816 16.9074 35.5708 26.9340 -13.4859 -0.6302
# 5 -11.3222 -10.7323 -24.7326 -13.4859 46.0751 12.6497
# 6 -26.3122 -6.6628 -19.2200 -0.6302 12.6497 37.4111
#
#
#
# Elastic Compliance Matrix: (Units=1/GPa)
#
#
# Indices 1 2 3 4 5 6 
#
# 1 0.011597 -0.004694 -0.005524 0.004633 -0.001218 0.004972
# 2 -0.004694 0.062527 0.037453 -0.085207 0.001693 0.025068
# 3 -0.005524 0.037453 0.062433 -0.101650 0.002235 0.032392
# 4 0.004633 -0.085207 -0.101650 0.226632 0.010606 -0.063908
# 5 -0.001218 0.001693 0.002235 0.010606 0.028540 -0.008879
# 6 0.004972 0.025068 0.032392 -0.063908 -0.008879 0.053259
#
#
# Mechanical properties :
#
#
# Convention : Reuss Voigt Hill
#
# Bulk Modulus (GPa) = 5.23491 39.16548 22.20020
# Shear Modulus (GPa) = 11.00850 33.56021 22.28435
#
# Velocity S-wave (km/s) = 2.11946 3.70062 3.01552
# Velocity P-wave (km/s) = 2.85056 5.85161 4.60255
#
# Compressibility (1/GPa) = 0.19102524
#
# Stress axis : x y z
#
# Youngs Moduli (GPa) = 86.22823 15.99322 16.01705
#
# Poissons Ratio (x) = 0.07508 0.08848
# Poissons Ratio (y) = 0.40478 -0.59988
# Poissons Ratio (z) = 0.47635 -0.59899
#
# Static dielectric constant tensor:
#      x y z
#    x 2.041430 -0.008970 -0.008980 
#    y -0.008970 1.969130 -0.001000 
#    z -0.008980 -0.001000 1.964830 
# 
# From -- ./inp_files/78222.got.cif
#   From: 2010.05.17/outbox.cif.g08.bks.cpg/sg2_40_cif.got.tgz:78222.got - 2010.06.03 11:33:40.
