data_PCOD9019015
_publ_section_title
;
Structure prediction by ZEFSAII (Michael W. Deem and Ramdas Pophale) SiO2 
 PCOD9019015
Probable space group: P -1
;
_chemical_formula_sum "Si O2"
_cell_formula_units_Z 16
_cell_length_a 11.315277
_cell_length_b 12.617585
_cell_length_c 9.441561
_cell_angle_alpha 136.211217
_cell_angle_beta 61.771927
_cell_angle_gamma 133.514013
_cell_volume 675.700036
_symmetry_space_group_name_H-M "P -1"
_symmetry_group_IT_number 2
_symmetry_cell_setting 'triclinic'
loop_
_space_group_symop_operation_xyz
x,y,z
-x,-y,-z
loop_
_atom_site_type_symbol
_atom_site_label
_atom_site_fract_x
_atom_site_fract_y
_atom_site_fract_z
Si Si1 0.017840 0.727521 0.600092
Si Si2 0.179850 0.044605 0.466835
Si Si3 0.277232 0.673999 0.516907
Si Si4 0.832641 0.871690 0.126475
Si Si5 0.889138 0.327269 0.799379
Si Si6 0.444099 0.363233 0.171147
Si Si7 0.705682 0.482248 0.910153
Si Si8 0.497258 0.700163 0.629348
O O1 0.189328 0.770763 0.605194
O O2 0.009848 0.679508 0.393639
O O3 0.874670 0.536888 0.566170
O O4 0.024264 0.915043 0.788621
O O5 0.222887 0.095010 0.657230
O O6 0.318025 0.197744 0.432729
O O7 0.179739 0.863027 0.264613
O O8 0.000000 0.000000 0.500000
O O9 0.369125 0.639321 0.307188
O O10 0.398340 0.768717 0.670888
O O11 0.703400 0.787266 0.989891
O O12 0.842623 0.697400 0.995705
O O13 0.768384 0.370799 0.842396
O O14 0.000000 0.500000 0.000000
O O15 0.410607 0.491346 0.410783
O O16 0.503844 0.289356 0.190944
O O17 0.583805 0.480262 0.087521
#
# Coordination Sequence:
#
# PCOD9019015 Si02
#       8
#     2   2   2   2   2   2   2   2
#     4   9  23  41  67 100 134 176 223 278 330 398
#     4  11  24  45  70  99 133 172 222 279 330 408
#     4  10  21  44  67  94 138 178 218 279 338 394
#     4  11  21  42  67  94 131 172 229 268 330 398
#     4  10  23  40  65  97 130 175 216 271 341 392
#     4  11  24  40  65 101 134 177 220 283 336 392
#     4  11  21  40  66  93 125 180 222 272 329 397
#     4  11  24  43  66  97 137 174 222 276 343 394
#
# _framework density 23.679145999999999
#
# number of rings (size 3 to 8) (size 9 to 14) (size 15 to 20)
#    0.000    1.500    2.500    1.875    1.750    4.500 
#    9.000    5.000    0.000    0.000    0.000    0.000 
#    0.000    0.000    0.000    0.000    0.000    0.000 
#
# Total GULP energy -89278.450919 kJ/mol
# GULP energy per Si atom -5579.903182 kJ/mol
# Density = 2.362525 g / cm^3
# Si number density = 23.679146 Si / 1000 Ang^3
#
#
#
# Elastic Constant Matrix: (Units=GPa)
#
#
# Indices 1 2 3 4 5 6 
#
# 1 109.6793 35.2687 32.7126 -4.4554 19.1054 -12.5371
# 2 35.2687 88.7231 36.2002 5.9043 5.5010 -10.9419
# 3 32.7126 36.2002 98.7160 -0.9701 17.4094 -1.3593
# 4 -4.4554 5.9043 -0.9701 42.0054 -13.1061 -0.7375
# 5 19.1054 5.5010 17.4094 -13.1061 43.8766 -2.2415
# 6 -12.5371 -10.9419 -1.3593 -0.7375 -2.2415 26.1715
#
#
#
# Elastic Compliance Matrix: (Units=1/GPa)
#
#
# Indices 1 2 3 4 5 6 
#
# 1 0.011861 -0.003205 -0.002068 0.000621 -0.003555 0.003947
# 2 -0.003205 0.015065 -0.004580 -0.002203 0.000898 0.004540
# 3 -0.002068 -0.004580 0.013169 -0.000583 -0.004057 -0.002585
# 4 0.000621 -0.002203 -0.000583 0.026764 0.008273 0.000809
# 5 -0.003555 0.000898 -0.004057 0.008273 0.028365 0.001124
# 6 0.003947 0.004540 -0.002585 0.000809 0.001124 0.041983
#
#
# Mechanical properties :
#
#
# Convention : Reuss Voigt Hill
#
# Bulk Modulus (GPa) = 49.04613 56.16460 52.60537
# Shear Modulus (GPa) = 30.54239 35.27316 32.90778
#
# Velocity S-wave (km/s) = 3.59534 3.86376 3.73196
# Velocity P-wave (km/s) = 6.16385 6.60873 6.39016
#
# Compressibility (1/GPa) = 0.02038897
#
# Stress axis : x y z
#
# Youngs Moduli (GPa) = 84.31327 66.38103 75.93746
#
# Poissons Ratio (x) = 0.21277 0.15700
# Poissons Ratio (y) = 0.27025 0.34777
# Poissons Ratio (z) = 0.17432 0.30400
#
# Static dielectric constant tensor:
#      x y z
#    x 1.323820 0.238890 -0.210180 
#    y 0.238890 1.879790 0.065810 
#    z -0.210180 0.065810 1.824310 
# 
# From -- ./inp_files/263443.got.cif
#   From: 2010.05.17/outbox.cif.g08.bks.cpg/sg2_132_cif.got.tgz:263443.got - 2010.06.03 11:33:40.
