data_PCOD9019206
_publ_section_title
;
Structure prediction by ZEFSAII (Michael W. Deem and Ramdas Pophale) SiO2 
 PCOD9019206
Probable space group: P -1
;
_chemical_formula_sum "Si O2"
_cell_formula_units_Z 16
_cell_length_a 6.879184
_cell_length_b 9.173960
_cell_length_c 16.426778
_cell_angle_alpha 112.885966
_cell_angle_beta 71.048202
_cell_angle_gamma 127.301337
_cell_volume 754.088718
_symmetry_space_group_name_H-M "P -1"
_symmetry_group_IT_number 2
_symmetry_cell_setting 'triclinic'
loop_
_space_group_symop_operation_xyz
x,y,z
-x,-y,-z
loop_
_atom_site_type_symbol
_atom_site_label
_atom_site_fract_x
_atom_site_fract_y
_atom_site_fract_z
Si Si1 0.059099 0.471352 0.813641
Si Si2 0.724104 0.776628 0.957149
Si Si3 0.758721 0.624205 0.090699
Si Si4 0.224029 0.896670 0.878863
Si Si5 0.487693 0.813761 0.230010
Si Si6 0.127449 0.383830 0.466441
Si Si7 0.677186 0.974590 0.412807
Si Si8 0.320309 0.383106 0.618379
O O1 0.037086 0.374506 0.882880
O O2 0.183884 0.695343 0.856020
O O3 0.222493 0.439162 0.721229
O O4 0.786055 0.361969 0.789896
O O5 0.466910 0.595115 0.927300
O O6 0.950234 0.845483 0.880424
O O7 0.801382 0.703563 0.010620
O O8 0.705917 0.950871 0.025260
O O9 0.665518 0.740339 0.174718
O O10 0.423066 0.014858 0.808026
O O11 0.530953 0.893118 0.331164
O O12 0.188275 0.383004 0.553380
O O13 0.386223 0.479319 0.405093
O O14 0.000000 0.500000 0.500000
O O15 0.933117 0.175011 0.414292
O O16 0.730051 0.823323 0.407074
O O17 0.500000 0.000000 0.500000
#
# Coordination Sequence:
#
# PCOD9019206 Si02
#       8
#     2   2   2   2   2   2   2   2
#     4  12  25  42  67  99 137 175 219 281 332 395
#     4   9  20  45  69  95 133 174 227 272 336 404
#     4  10  21  44  69  93 134 177 218 280 334 398
#     4  10  23  42  67  98 132 176 216 281 329 395
#     4  11  25  44  63 100 135 176 224 268 342 395
#     4  11  25  45  71 101 134 177 223 283 334 398
#     4  12  24  44  73  94 135 184 219 278 333 394
#     4  11  26  44  67 104 134 174 233 270 339 404
#
# _framework density 21.217663999999999
#
# number of rings (size 3 to 8) (size 9 to 14) (size 15 to 20)
#    0.000    1.250    3.750    1.125    1.750    3.000 
#    6.750    0.000    0.000    0.000    0.000    0.000 
#    0.000    0.000    0.000    0.000    0.000    0.000 
#
# Total GULP energy -89440.673311 kJ/mol
# GULP energy per Si atom -5590.042082 kJ/mol
# Density = 2.116937 g / cm^3
# Si number density = 21.217664 Si / 1000 Ang^3
#
#
#
# Elastic Constant Matrix: (Units=GPa)
#
#
# Indices 1 2 3 4 5 6 
#
# 1 53.9980 23.9759 10.4798 11.8830 2.3416 -21.7423
# 2 23.9759 119.7028 20.8319 27.9746 -4.3601 -5.6268
# 3 10.4798 20.8319 70.9241 11.4921 -9.0411 -15.6727
# 4 11.8830 27.9746 11.4921 32.6952 0.8390 -2.0813
# 5 2.3416 -4.3601 -9.0411 0.8390 29.5987 9.0251
# 6 -21.7423 -5.6268 -15.6727 -2.0813 9.0251 30.1647
#
#
#
# Elastic Compliance Matrix: (Units=1/GPa)
#
#
# Indices 1 2 3 4 5 6 
#
# 1 0.032735 -0.004453 0.002108 -0.006870 -0.010495 0.026525
# 2 -0.004453 0.011301 -0.001817 -0.007697 0.002713 -0.003389
# 3 0.002108 -0.001817 0.017424 -0.004804 0.002206 0.009242
# 4 -0.006870 -0.007697 -0.004804 0.041039 -0.001514 -0.005599
# 5 -0.010495 0.002713 0.002206 -0.001514 0.041338 -0.018385
# 6 0.026525 -0.003389 0.009242 -0.005599 -0.018385 0.061555
#
#
# Mechanical properties :
#
#
# Convention : Reuss Voigt Hill
#
# Bulk Modulus (GPa) = 18.82016 39.46668 29.14342
# Shear Modulus (GPa) = 21.60511 31.11421 26.35966
#
# Velocity S-wave (km/s) = 3.19448 3.83355 3.52852
# Velocity P-wave (km/s) = 4.74295 6.18353 5.51052
#
# Compressibility (1/GPa) = 0.05313450
#
# Stress axis : x y z
#
# Youngs Moduli (GPa) = 30.54851 88.49110 57.39316
#
# Poissons Ratio (x) = 0.39408 -0.12099
# Poissons Ratio (y) = 0.13604 0.10428
# Poissons Ratio (z) = -0.06440 0.16079
#
# Static dielectric constant tensor:
#      x y z
#    x 1.781350 0.025460 0.013570 
#    y 0.025460 1.821520 -0.011210 
#    z 0.013570 -0.011210 1.763010 
# 
# From -- ./inp_files/548289.got.cif
#   From: 2010.05.17/outbox.cif.g08.bks.cpg/sg2_275_cif.got.tgz:548289.got - 2010.06.03 11:33:40.
