data_PCOD9019540
_publ_section_title
;
Structure prediction by ZEFSAII (Michael W. Deem and Ramdas Pophale) SiO2 
 PCOD9019540
Probable space group: P -1
;
_chemical_formula_sum "Si O2"
_cell_formula_units_Z 14
_cell_length_a 10.938167
_cell_length_b 15.424749
_cell_length_c 12.408472
_cell_angle_alpha 152.806813
_cell_angle_beta 104.210404
_cell_angle_gamma 57.731557
_cell_volume 650.997460
_symmetry_space_group_name_H-M "P -1"
_symmetry_group_IT_number 2
_symmetry_cell_setting 'triclinic'
loop_
_space_group_symop_operation_xyz
x,y,z
-x,-y,-z
loop_
_atom_site_type_symbol
_atom_site_label
_atom_site_fract_x
_atom_site_fract_y
_atom_site_fract_z
Si Si1 0.014200 0.770457 0.786937
Si Si2 0.528121 0.559541 0.774402
Si Si3 0.356520 0.271698 0.203411
Si Si4 0.185905 0.076546 0.867392
Si Si5 0.074083 0.408392 0.035235
Si Si6 0.192247 0.124638 0.343757
Si Si7 0.534296 0.896798 0.272907
O O1 0.896712 0.768741 0.675278
O O2 0.219317 0.499965 0.512799
O O3 0.935598 0.841349 0.966206
O O4 0.000000 0.000000 0.000000
O O5 0.575246 0.637112 0.763168
O O6 0.643497 0.246351 0.452230
O O7 0.585476 0.621263 0.959747
O O8 0.311462 0.802522 0.008093
O O9 0.253046 0.219099 0.058393
O O10 0.500000 0.000000 0.000000
O O11 0.062437 0.225618 0.899167
O O12 0.961620 0.683356 0.386802
O O13 0.288561 0.190634 0.824735
O O14 0.000000 0.500000 0.000000
O O15 0.351439 0.101881 0.387735
O O16 0.500000 0.000000 0.500000
#
# Coordination Sequence:
#
# PCOD9019540 Si02
#       7
#     2   2   2   2   2   2   2
#     4  12  25  43  68 107 147 186 240 289 350 434
#     4  10  23  44  66 102 139 181 237 284 357 418
#     4  12  25  40  68  99 144 186 231 285 358 417
#     4  12  25  43  70 100 145 186 233 293 358 423
#     4  12  23  45  76 102 136 188 240 296 354 420
#     4  10  23  42  72  99 142 184 231 293 350 420
#     4  10  21  44  73  97 139 183 234 294 355 407
#
# _framework density 21.505459999999999
#
# number of rings (size 3 to 8) (size 9 to 14) (size 15 to 20)
#    0.857    0.000    5.714    1.286    4.000    1.143 
#    0.000    3.571    0.000    0.000    0.000    0.000 
#    0.000    0.000    0.000    0.000    0.000    0.000 
#
# Total GULP energy -77960.174041 kJ/mol
# GULP energy per Si atom -5568.583860 kJ/mol
# Density = 2.145651 g / cm^3
# Si number density = 21.505460 Si / 1000 Ang^3
#
#
#
# Elastic Constant Matrix: (Units=GPa)
#
#
# Indices 1 2 3 4 5 6 
#
# 1 57.5872 44.5554 29.3239 -7.2425 -21.4434 9.9500
# 2 44.5554 135.9375 61.6227 2.4936 -22.2029 11.7119
# 3 29.3239 61.6227 184.6990 11.7659 -38.2583 21.7866
# 4 -7.2425 2.4936 11.7659 40.9360 6.9401 -3.5693
# 5 -21.4434 -22.2029 -38.2583 6.9401 39.5786 -1.8055
# 6 9.9500 11.7119 21.7866 -3.5693 -1.8055 27.6671
#
#
#
# Elastic Compliance Matrix: (Units=1/GPa)
#
#
# Indices 1 2 3 4 5 6 
#
# 1 0.028259 -0.007298 0.000916 0.002676 0.011326 -0.006710
# 2 -0.007298 0.010872 -0.002322 -0.001334 0.000120 -0.000314
# 3 0.000916 -0.002322 0.008702 -0.004102 0.008042 -0.006204
# 4 0.002676 -0.001334 -0.004102 0.028020 -0.007906 0.005931
# 5 0.011326 0.000120 0.008042 -0.007906 0.040226 -0.008852
# 6 -0.006710 -0.000314 -0.006204 0.005931 -0.008852 0.043762
#
#
# Mechanical properties :
#
#
# Convention : Reuss Voigt Hill
#
# Bulk Modulus (GPa) = 32.86882 72.13640 52.50261
# Shear Modulus (GPa) = 26.68206 37.81779 32.24992
#
# Velocity S-wave (km/s) = 3.52619 4.19802 3.87669
# Velocity P-wave (km/s) = 5.64764 7.55738 6.67120
#
# Compressibility (1/GPa) = 0.03042397
#
# Stress axis : x y z
#
# Youngs Moduli (GPa) = 35.38728 91.97893 114.91126
#
# Poissons Ratio (x) = 0.67129 -0.10520
# Poissons Ratio (y) = 0.25827 0.26680
# Poissons Ratio (z) = -0.03240 0.21355
#
# Static dielectric constant tensor:
#      x y z
#    x 1.919260 -0.047280 -0.008570 
#    y -0.047280 1.807350 0.086170 
#    z -0.008570 0.086170 1.739180 
# 
# From -- ./inp_files/434366.got.cif
#   From: 2010.05.17/outbox.cif.g08.bks.cpg/sg2_218_cif.got.tgz:434366.got - 2010.06.03 11:33:40.
