data_PCOD9019797
_publ_section_title
;
Structure prediction by ZEFSAII (Michael W. Deem and Ramdas Pophale) SiO2 
 PCOD9019797
Probable space group: P -1
;
_chemical_formula_sum "Si O2"
_cell_formula_units_Z 13
_cell_length_a 11.110544
_cell_length_b 7.115937
_cell_length_c 10.820081
_cell_angle_alpha 90.329857
_cell_angle_beta 52.715995
_cell_angle_gamma 121.086869
_cell_volume 520.361919
_symmetry_space_group_name_H-M "P -1"
_symmetry_group_IT_number 2
_symmetry_cell_setting 'triclinic'
loop_
_space_group_symop_operation_xyz
x,y,z
-x,-y,-z
loop_
_atom_site_type_symbol
_atom_site_label
_atom_site_fract_x
_atom_site_fract_y
_atom_site_fract_z
Si Si1 0.101529 0.820499 0.339136
Si Si2 0.971961 0.220471 0.158932
Si Si3 0.469786 0.220201 0.803105
Si Si4 0.221076 0.301934 0.791963
Si Si5 0.500000 0.000000 0.000000
Si Si6 0.827005 0.681575 0.729638
Si Si7 0.266372 0.638419 0.586417
O O1 0.004018 0.740940 0.536062
O O2 0.930126 0.608596 0.355048
O O3 0.302645 0.865852 0.207639
O O4 0.153878 0.079489 0.282255
O O5 0.148227 0.379991 0.149308
O O6 0.804878 0.235074 0.297192
O O7 0.059291 0.294873 0.967501
O O8 0.883248 0.940173 0.226862
O O9 0.330937 0.265187 0.826367
O O10 0.623196 0.461129 0.792920
O O11 0.579398 0.212055 0.619015
O O12 0.380129 0.002871 0.955514
O O13 0.344193 0.544196 0.633929
#
# Coordination Sequence:
#
# PCOD9019797 Si02
#       7
#     2   2   2   2   1   2   2
#     4  10  22  40  72  98 138 173 233 281 339 400
#     4  11  23  41  73  97 139 181 230 276 346 398
#     4  11  26  44  70 101 142 175 233 282 346 394
#     4  11  25  45  67 105 138 182 225 285 332 418
#     4  12  24  40  62 106 134 170 226 294 320 406
#     4  10  21  45  68  99 131 189 221 281 341 407
#     4  11  23  47  72 101 135 189 223 280 340 420
#
# _framework density 24.982614000000002
#
# number of rings (size 3 to 8) (size 9 to 14) (size 15 to 20)
#    0.000    1.231    1.538    3.692    2.154    6.769 
#    5.538    0.000    0.000    0.000    0.000    0.000 
#    0.000    0.000    0.000    0.000    0.000    0.000 
#
# Total GULP energy -72605.494779 kJ/mol
# GULP energy per Si atom -5585.038060 kJ/mol
# Density = 2.492575 g / cm^3
# Si number density = 24.982614 Si / 1000 Ang^3
#
#
#
# Elastic Constant Matrix: (Units=GPa)
#
#
# Indices 1 2 3 4 5 6 
#
# 1 117.4829 23.0123 24.8998 9.6703 15.6512 -5.8375
# 2 23.0123 88.0900 38.3262 26.0593 8.6780 -2.6225
# 3 24.8998 38.3262 105.4139 20.2938 9.4029 -24.1611
# 4 9.6703 26.0593 20.2938 36.3177 -13.4429 1.8450
# 5 15.6512 8.6780 9.4029 -13.4429 45.0206 -15.4401
# 6 -5.8375 -2.6225 -24.1611 1.8450 -15.4401 32.5032
#
#
#
# Elastic Compliance Matrix: (Units=1/GPa)
#
#
# Indices 1 2 3 4 5 6 
#
# 1 0.009671 -0.000736 -0.001385 -0.002752 -0.004154 -0.001169
# 2 -0.000736 0.017813 -0.004237 -0.012854 -0.007781 -0.004811
# 3 -0.001385 -0.004237 0.014846 -0.005310 0.000355 0.010916
# 4 -0.002752 -0.012854 -0.005310 0.047449 0.019005 0.000856
# 5 -0.004154 -0.007781 0.000355 0.019005 0.035846 0.014839
# 6 -0.001169 -0.004811 0.010916 0.000856 0.014839 0.045283
#
#
# Mechanical properties :
#
#
# Convention : Reuss Voigt Hill
#
# Bulk Modulus (GPa) = 33.76428 53.71816 43.74122
# Shear Modulus (GPa) = 25.84041 37.75154 31.79597
#
# Velocity S-wave (km/s) = 3.21960 3.89152 3.57140
# Velocity P-wave (km/s) = 5.23121 6.46071 5.87819
#
# Compressibility (1/GPa) = 0.02961710
#
# Stress axis : x y z
#
# Youngs Moduli (GPa) = 103.39972 56.13723 67.35648
#
# Poissons Ratio (x) = 0.04130 0.09326
# Poissons Ratio (y) = 0.07607 0.28537
# Poissons Ratio (z) = 0.14316 0.23784
#
# Static dielectric constant tensor:
#      x y z
#    x 2.124130 -0.065900 0.018920 
#    y -0.065900 2.021530 -0.024090 
#    z 0.018920 -0.024090 1.940800 
# 
# From -- ./inp_files/409271.got.cif
#   From: 2010.05.17/outbox.cif.g08.bks.cpg/sg2_205_cif.got.tgz:409271.got - 2010.06.03 11:33:40.
