data_PCOD9019046
_publ_section_title
;
Structure prediction by ZEFSAII (Michael W. Deem and Ramdas Pophale) SiO2 
 PCOD9019046
Probable space group: P -1
;
_chemical_formula_sum "Si O2"
_cell_formula_units_Z 16
_cell_length_a 21.506539
_cell_length_b 9.058250
_cell_length_c 8.870952
_cell_angle_alpha 124.946052
_cell_angle_beta 57.488342
_cell_angle_gamma 150.685615
_cell_volume 690.432065
_symmetry_space_group_name_H-M "P -1"
_symmetry_group_IT_number 2
_symmetry_cell_setting 'triclinic'
loop_
_space_group_symop_operation_xyz
x,y,z
-x,-y,-z
loop_
_atom_site_type_symbol
_atom_site_label
_atom_site_fract_x
_atom_site_fract_y
_atom_site_fract_z
Si Si1 0.999334 0.951548 0.651818
Si Si2 0.636893 0.871965 0.529102
Si Si3 0.278342 0.426769 0.539373
Si Si4 0.493640 0.014753 0.195500
Si Si5 0.704414 0.145717 0.314645
Si Si6 0.069835 0.474181 0.977388
Si Si7 0.441339 0.565891 0.183786
Si Si8 0.110013 0.590563 0.347921
O O1 0.900525 0.614793 0.658101
O O2 0.135998 0.129292 0.612569
O O3 0.997524 0.143375 0.842742
O O4 0.000000 0.000000 0.500000
O O5 0.500000 0.500000 0.500000
O O6 0.600462 0.007339 0.671128
O O7 0.714207 0.015856 0.355081
O O8 0.746808 0.047509 0.606393
O O9 0.378770 0.675144 0.690157
O O10 0.268061 0.588813 0.546054
O O11 0.320239 0.354994 0.325613
O O12 0.441097 0.720122 0.150173
O O13 0.500000 0.000000 0.000000
O O14 0.790686 0.263006 0.129261
O O15 0.554457 0.849516 0.312111
O O16 0.084504 0.516376 0.161085
O O17 0.000000 0.500000 0.000000
O O18 0.500000 0.500000 0.000000
O O19 0.000000 0.500000 0.500000
#
# Coordination Sequence:
#
# PCOD9019046 Si02
#       8
#     2   2   2   2   2   2   2   2
#     4  11  25  46  79 110 148 201 247 310 381 447
#     4  12  27  46  75 106 151 197 249 313 382 444
#     4  10  21  46  71  99 147 192 240 298 365 444
#     4  11  25  43  69 105 148 191 242 306 369 445
#     4  10  21  44  67  98 143 191 242 299 364 434
#     4  11  25  49  76 110 151 196 255 313 373 457
#     4  11  23  40  67 103 141 193 238 291 364 443
#     4  12  28  49  75 113 153 198 255 313 378 454
#
# _framework density 23.173895000000002
#
# number of rings (size 3 to 8) (size 9 to 14) (size 15 to 20)
#    0.000    1.000    2.500    4.125    8.750    2.000 
#    0.000    0.000    0.000    0.000    0.000    0.000 
#    0.000    0.000    0.000    0.000    0.000    0.000 
#
# Total GULP energy -89267.200516 kJ/mol
# GULP energy per Si atom -5579.200032 kJ/mol
# Density = 2.312115 g / cm^3
# Si number density = 23.173895 Si / 1000 Ang^3
#
#
#
# Elastic Constant Matrix: (Units=GPa)
#
#
# Indices 1 2 3 4 5 6 
#
# 1 144.0063 53.5503 65.2111 -7.2327 6.2421 -12.3650
# 2 53.5503 113.1647 48.3490 -2.6888 5.7442 -5.8208
# 3 65.2111 48.3490 153.0214 -15.9120 10.5069 -18.0456
# 4 -7.2327 -2.6888 -15.9120 23.1933 0.1750 6.6543
# 5 6.2421 5.7442 10.5069 0.1750 56.5484 -7.4194
# 6 -12.3650 -5.8208 -18.0456 6.6543 -7.4194 44.4014
#
#
#
# Elastic Compliance Matrix: (Units=1/GPa)
#
#
# Indices 1 2 3 4 5 6 
#
# 1 0.009561 -0.003223 -0.002899 0.000332 -0.000059 0.001002
# 2 -0.003223 0.011339 -0.002338 -0.001222 -0.000390 -0.000243
# 3 -0.002899 -0.002338 0.009272 0.004678 -0.000944 0.001796
# 4 0.000332 -0.001222 0.004678 0.047914 -0.001668 -0.005626
# 5 -0.000059 -0.000390 -0.000944 -0.001668 0.018285 0.002854
# 6 0.001002 -0.000243 0.001796 -0.005626 0.002854 0.024819
#
#
# Mechanical properties :
#
#
# Convention : Reuss Voigt Hill
#
# Bulk Modulus (GPa) = 75.46529 82.71256 79.08893
# Shear Modulus (GPa) = 35.08070 41.03409 38.05739
#
# Velocity S-wave (km/s) = 3.89498 4.21254 4.05687
# Velocity P-wave (km/s) = 7.27072 7.70910 7.49312
#
# Compressibility (1/GPa) = 0.01325112
#
# Stress axis : x y z
#
# Youngs Moduli (GPa) = 104.59303 88.19050 107.84656
#
# Poissons Ratio (x) = 0.28425 0.31268
# Poissons Ratio (y) = 0.33712 0.25216
# Poissons Ratio (z) = 0.30325 0.20620
#
# Static dielectric constant tensor:
#      x y z
#    x 1.977310 -0.048290 0.082790 
#    y -0.048290 1.964810 -0.030830 
#    z 0.082790 -0.030830 1.955050 
# 
# From -- ./inp_files/343764.got.cif
#   From: 2010.05.17/outbox.cif.g08.bks.cpg/sg2_172_cif.got.tgz:343764.got - 2010.06.03 11:33:40.
