data_PCOD9019944
_publ_section_title
;
Structure prediction by ZEFSAII (Michael W. Deem and Ramdas Pophale) SiO2 
 PCOD9019944
Probable space group: P -1
;
_chemical_formula_sum "Si O2"
_cell_formula_units_Z 14
_cell_length_a 8.012932
_cell_length_b 7.562796
_cell_length_c 15.307893
_cell_angle_alpha 71.821368
_cell_angle_beta 41.607660
_cell_angle_gamma 58.320793
_cell_volume 518.838004
_symmetry_space_group_name_H-M "P -1"
_symmetry_group_IT_number 2
_symmetry_cell_setting 'triclinic'
loop_
_space_group_symop_operation_xyz
x,y,z
-x,-y,-z
loop_
_atom_site_type_symbol
_atom_site_label
_atom_site_fract_x
_atom_site_fract_y
_atom_site_fract_z
Si Si1 0.809718 0.889464 0.062310
Si Si2 0.377375 0.392594 0.371219
Si Si3 0.728193 0.528683 0.966260
Si Si4 0.964598 0.819665 0.818331
Si Si5 0.211588 0.758836 0.249205
Si Si6 0.297227 0.012117 0.374081
Si Si7 0.667999 0.777444 0.414845
O O1 0.503999 0.970604 0.215364
O O2 0.013107 0.658749 0.056414
O O3 0.791088 0.919708 0.960109
O O4 0.000000 0.000000 0.000000
O O5 0.241525 0.615322 0.342441
O O6 0.308857 0.397394 0.499550
O O7 0.715935 0.293698 0.253822
O O8 0.292619 0.226257 0.382491
O O9 0.861628 0.660009 0.846496
O O10 0.500000 0.500000 0.000000
O O11 0.521286 0.665278 0.103940
O O12 0.929470 0.990742 0.733685
O O13 0.985335 0.735504 0.277804
O O14 0.496074 0.817847 0.388838
O O15 0.000000 0.000000 0.500000
O O16 0.500000 0.000000 0.500000
#
# Coordination Sequence:
#
# PCOD9019944 Si02
#       7
#     2   2   2   2   2   2   2
#     4  12  23  49  80 111 163 198 257 328 379 471
#     4  11  24  48  75 112 152 209 259 311 387 468
#     4  12  27  46  73 115 149 198 257 321 395 461
#     4  12  25  48  77 113 152 203 259 318 388 466
#     4  12  23  46  79 109 151 204 260 313 394 455
#     4  11  24  48  79 115 161 205 256 324 390 454
#     4  10  21  45  73 105 154 201 251 314 371 463
#
# _framework density 26.983373
#
# number of rings (size 3 to 8) (size 9 to 14) (size 15 to 20)
#    0.000    0.571    5.714    3.000    0.000    2.286 
#   10.286    0.714    0.000    0.000    0.000    1.000 
#    0.000    0.000    0.000    0.000    0.000    0.000 
#
# Total GULP energy -78381.480375 kJ/mol
# GULP energy per Si atom -5598.677170 kJ/mol
# Density = 2.692196 g / cm^3
# Si number density = 26.983373 Si / 1000 Ang^3
#
#
#
# Elastic Constant Matrix: (Units=GPa)
#
#
# Indices 1 2 3 4 5 6 
#
# 1 111.2259 47.2760 55.9133 -10.8797 -38.1299 -15.5575
# 2 47.2760 176.7973 52.3712 -26.7519 -29.9462 -34.1157
# 3 55.9133 52.3712 208.8545 -2.5342 -40.9862 -3.4921
# 4 -10.8797 -26.7519 -2.5342 47.6592 6.1542 -7.1668
# 5 -38.1299 -29.9462 -40.9862 6.1542 47.7312 1.8098
# 6 -15.5575 -34.1157 -3.4921 -7.1668 1.8098 50.8306
#
#
#
# Elastic Compliance Matrix: (Units=1/GPa)
#
#
# Indices 1 2 3 4 5 6 
#
# 1 0.013873 -0.000691 -0.001738 0.002106 0.008747 0.003649
# 2 -0.000691 0.008681 -0.001254 0.005198 0.002914 0.006158
# 3 -0.001738 -0.001254 0.006191 -0.001397 0.003369 -0.001265
# 4 0.002106 0.005198 -0.001397 0.025429 0.000177 0.007616
# 5 0.008747 0.002914 0.003369 0.000177 0.032495 0.003732
# 6 0.003649 0.006158 -0.001265 0.007616 0.003732 0.025777
#
#
# Mechanical properties :
#
#
# Convention : Reuss Voigt Hill
#
# Bulk Modulus (GPa) = 46.77332 89.77762 68.27547
# Shear Modulus (GPa) = 39.38996 51.99866 45.69431
#
# Velocity S-wave (km/s) = 3.82486 4.39459 4.11959
# Velocity P-wave (km/s) = 6.07271 7.68724 6.92717
#
# Compressibility (1/GPa) = 0.02137971
#
# Stress axis : x y z
#
# Youngs Moduli (GPa) = 72.08413 115.19882 161.53225
#
# Poissons Ratio (x) = 0.07955 0.28069
# Poissons Ratio (y) = 0.04978 0.20255
# Poissons Ratio (z) = 0.12526 0.14445
#
# Static dielectric constant tensor:
#      x y z
#    x 2.205580 0.092680 0.072970 
#    y 0.092680 2.184350 0.000290 
#    z 0.072970 0.000290 2.109700 
# 
# From -- ./inp_files/587871.got.cif
#   From: 2010.05.17/outbox.cif.g08.bks.cpg/sg2_294_cif.got.tgz:587871.got - 2010.06.03 11:33:40.
