data_PCOD9019685
_publ_section_title
;
Structure prediction by ZEFSAII (Michael W. Deem and Ramdas Pophale) SiO2 
 PCOD9019685
Probable space group: P -1
;
_chemical_formula_sum "Si O2"
_cell_formula_units_Z 16
_cell_length_a 11.556564
_cell_length_b 8.901796
_cell_length_c 8.775717
_cell_angle_alpha 88.595978
_cell_angle_beta 86.099005
_cell_angle_gamma 60.316940
_cell_volume 782.466923
_symmetry_space_group_name_H-M "P -1"
_symmetry_group_IT_number 2
_symmetry_cell_setting 'triclinic'
loop_
_space_group_symop_operation_xyz
x,y,z
-x,-y,-z
loop_
_atom_site_type_symbol
_atom_site_label
_atom_site_fract_x
_atom_site_fract_y
_atom_site_fract_z
Si Si1 0.128419 0.803870 0.366502
Si Si2 0.620826 0.311606 0.469186
Si Si3 0.910975 0.816519 0.585627
Si Si4 0.617077 0.997054 0.587875
Si Si5 0.711557 0.453074 0.899725
Si Si6 0.638809 0.986873 0.943573
Si Si7 0.116692 0.357658 0.101792
Si Si8 0.399306 0.692307 0.870149
O O1 0.241388 0.709283 0.486923
O O2 0.196199 0.713711 0.205469
O O3 0.013271 0.767196 0.437553
O O4 0.093642 0.004543 0.360948
O O5 0.500000 0.500000 0.500000
O O6 0.636415 0.240882 0.298955
O O7 0.591845 0.189554 0.580094
O O8 0.767472 0.868742 0.523130
O O9 0.932542 0.692762 0.733900
O O10 0.500000 0.000000 0.500000
O O11 0.632321 0.958103 0.765270
O O12 0.783462 0.566455 0.879904
O O13 0.558282 0.558611 0.853319
O O14 0.686423 0.397823 0.069759
O O15 0.781907 0.826187 0.983636
O O16 0.628141 0.161753 0.006242
O O17 0.500000 0.000000 0.000000
O O18 0.000000 0.500000 0.000000
#
# Coordination Sequence:
#
# PCOD9019685 Si02
#       8
#     2   2   2   2   2   2   2   2
#     4  10  21  45  66  93 129 178 220 271 331 393
#     4  11  22  36  64  96 126 163 220 274 316 387
#     4   9  22  43  69  87 135 177 217 272 331 399
#     4  10  22  40  65  96 126 168 222 267 326 395
#     4  11  23  40  65  94 134 168 215 281 332 384
#     4  11  22  44  68  91 136 176 216 274 331 397
#     4  11  25  44  64  99 135 172 220 274 339 396
#     4  11  23  40  66  98 129 174 220 270 338 386
#
# _framework density 20.448146999999999
#
# number of rings (size 3 to 8) (size 9 to 14) (size 15 to 20)
#    0.000    1.500    2.500    3.000    5.250    0.500 
#    9.000    1.250    0.000    0.000    0.000    0.000 
#    0.000    0.000    0.000    0.000    0.000    0.000 
#
# Total GULP energy -89124.763194 kJ/mol
# GULP energy per Si atom -5570.297700 kJ/mol
# Density = 2.040161 g / cm^3
# Si number density = 20.448147 Si / 1000 Ang^3
#
#
#
# Elastic Constant Matrix: (Units=GPa)
#
#
# Indices 1 2 3 4 5 6 
#
# 1 126.6441 29.4027 47.0009 -12.3798 -24.1165 -8.4576
# 2 29.4027 71.9103 28.1753 -15.7050 -12.9046 -15.0163
# 3 47.0009 28.1753 51.7295 -6.2058 -10.7351 -10.6939
# 4 -12.3798 -15.7050 -6.2058 34.5551 -2.0633 1.3148
# 5 -24.1165 -12.9046 -10.7351 -2.0633 29.2019 -1.9552
# 6 -8.4576 -15.0163 -10.6939 1.3148 -1.9552 31.5561
#
#
#
# Elastic Compliance Matrix: (Units=1/GPa)
#
#
# Indices 1 2 3 4 5 6 
#
# 1 0.013556 0.001105 -0.010571 0.003911 0.008135 0.000918
# 2 0.001105 0.021985 -0.008410 0.009091 0.008719 0.008069
# 3 -0.010571 -0.008410 0.034434 -0.001587 0.000429 0.004927
# 4 0.003911 0.009091 -0.001587 0.034596 0.009374 0.003976
# 5 0.008135 0.008719 0.000429 0.009374 0.046235 0.008949
# 6 0.000918 0.008069 0.004927 0.003976 0.008949 0.037834
#
#
# Mechanical properties :
#
#
# Convention : Reuss Voigt Hill
#
# Bulk Modulus (GPa) = 29.22149 51.04907 40.13528
# Shear Modulus (GPa) = 21.20456 28.77626 24.99041
#
# Velocity S-wave (km/s) = 3.22373 3.75544 3.49970
# Velocity P-wave (km/s) = 5.30831 6.61995 6.00008
#
# Compressibility (1/GPa) = 0.03422139
#
# Stress axis : x y z
#
# Youngs Moduli (GPa) = 73.77056 45.48630 29.04099
#
# Poissons Ratio (x) = -0.05026 0.30700
# Poissons Ratio (y) = -0.08151 0.24424
# Poissons Ratio (z) = 0.77984 0.38255
#
# Static dielectric constant tensor:
#      x y z
#    x 1.797950 -0.030400 -0.003680 
#    y -0.030400 1.804170 0.010580 
#    z -0.003680 0.010580 1.835890 
# 
# From -- ./inp_files/239082.got.cif
#   From: 2010.05.17/outbox.cif.g08.bks.cpg/sg2_120_cif.got.tgz:239082.got - 2010.06.03 11:33:40.
