data_PCOD9019232
_publ_section_title
;
Structure prediction by ZEFSAII (Michael W. Deem and Ramdas Pophale) SiO2 
 PCOD9019232
Probable space group: P -1
;
_chemical_formula_sum "Si O2"
_cell_formula_units_Z 14
_cell_length_a 27.583792
_cell_length_b 9.636542
_cell_length_c 7.920442
_cell_angle_alpha 45.004138
_cell_angle_beta 36.493487
_cell_angle_gamma 26.475101
_cell_volume 557.578923
_symmetry_space_group_name_H-M "P -1"
_symmetry_group_IT_number 2
_symmetry_cell_setting 'triclinic'
loop_
_space_group_symop_operation_xyz
x,y,z
-x,-y,-z
loop_
_atom_site_type_symbol
_atom_site_label
_atom_site_fract_x
_atom_site_fract_y
_atom_site_fract_z
Si Si1 0.321466 0.725736 0.342698
Si Si2 0.559919 0.581165 0.349839
Si Si3 0.594219 0.806854 0.564283
Si Si4 0.239687 0.301037 0.054946
Si Si5 0.970428 0.340697 0.149948
Si Si6 0.981454 0.801812 0.230814
Si Si7 0.211470 0.604030 0.194787
O O1 0.373430 0.593557 0.502720
O O2 0.390057 0.457199 0.245187
O O3 0.326491 0.946600 0.106284
O O4 0.168751 0.964271 0.543991
O O5 0.500000 0.500000 0.500000
O O6 0.456774 0.948395 0.362601
O O7 0.672884 0.467444 0.017263
O O8 0.500000 0.000000 0.500000
O O9 0.727658 0.638362 0.256136
O O10 0.267909 0.382090 0.066950
O O11 0.086657 0.538725 0.300333
O O12 0.847483 0.451299 0.470715
O O13 0.092189 0.967629 0.163546
O O14 0.961910 0.389295 0.934476
O O15 0.000000 0.500000 0.000000
O O16 0.000000 0.000000 0.000000
#
# Coordination Sequence:
#
# PCOD9019232 Si02
#       7
#     2   2   2   2   2   2   2
#     4  11  23  44  72 104 139 180 240 297 349 414
#     4  11  24  48  73 100 149 193 234 290 354 424
#     4  10  21  44  69  98 140 176 241 292 339 412
#     4  12  23  43  75 104 136 189 238 287 363 421
#     4  11  24  43  72 101 145 185 227 296 365 413
#     4  12  21  45  70 102 143 181 228 300 353 418
#     4  11  23  45  69 105 144 184 237 293 352 422
#
# _framework density 25.108553000000001
#
# number of rings (size 3 to 8) (size 9 to 14) (size 15 to 20)
#    0.000    0.857    7.143    1.286    0.000    3.429 
#    2.571    2.143    0.000    0.000    0.000    0.000 
#    0.000    0.000    0.000    0.000    0.000    0.000 
#
# Total GULP energy -78287.805524 kJ/mol
# GULP energy per Si atom -5591.986109 kJ/mol
# Density = 2.505140 g / cm^3
# Si number density = 25.108553 Si / 1000 Ang^3
#
#
#
# Elastic Constant Matrix: (Units=GPa)
#
#
# Indices 1 2 3 4 5 6 
#
# 1 128.9768 36.5316 32.5116 -1.4138 -39.0831 22.7593
# 2 36.5316 131.7909 28.1188 -19.4448 -25.4824 30.8553
# 3 32.5116 28.1188 124.6275 6.7544 -43.6533 11.1764
# 4 -1.4138 -19.4448 6.7544 50.1580 -2.9771 -12.7947
# 5 -39.0831 -25.4824 -43.6533 -2.9771 39.4496 -2.3990
# 6 22.7593 30.8553 11.1764 -12.7947 -2.3990 49.1933
#
#
#
# Elastic Compliance Matrix: (Units=1/GPa)
#
#
# Indices 1 2 3 4 5 6 
#
# 1 0.012667 0.000172 0.002469 -0.000533 0.014991 -0.005937
# 2 0.000172 0.010678 0.000537 0.003057 0.007544 -0.005736
# 3 0.002469 0.000537 0.013993 -0.001617 0.017899 -0.004206
# 4 -0.000533 0.003057 -0.001617 0.022611 0.001646 0.004658
# 5 0.014991 0.007544 0.017899 0.001646 0.064264 -0.012172
# 6 -0.005937 -0.005736 -0.004206 0.004658 -0.012172 0.028246
#
#
# Mechanical properties :
#
#
# Convention : Reuss Voigt Hill
#
# Bulk Modulus (GPa) = 22.88659 64.41327 43.64993
# Shear Modulus (GPa) = 31.12026 46.97573 39.04799
#
# Velocity S-wave (km/s) = 3.52437 4.33009 3.94784
# Velocity P-wave (km/s) = 5.06917 7.12104 6.18084
#
# Compressibility (1/GPa) = 0.04369370
#
# Stress axis : x y z
#
# Youngs Moduli (GPa) = 78.94806 93.64886 71.46398
#
# Poissons Ratio (x) = -0.01609 -0.17644
# Poissons Ratio (y) = -0.01357 -0.03839
# Poissons Ratio (z) = -0.19492 -0.05030
#
# Static dielectric constant tensor:
#      x y z
#    x 2.059500 -0.077400 -0.089280 
#    y -0.077400 2.009180 -0.001620 
#    z -0.089280 -0.001620 2.164190 
# 
# From -- ./inp_files/356350.got.cif
#   From: 2010.05.17/outbox.cif.g08.bks.cpg/sg2_179_cif.got.tgz:356350.got - 2010.06.03 11:33:40.
