data_PCOD9019801
_publ_section_title
;
Structure prediction by ZEFSAII (Michael W. Deem and Ramdas Pophale) SiO2 
 PCOD9019801
Probable space group: P -1
;
_chemical_formula_sum "Si O2"
_cell_formula_units_Z 14
_cell_length_a 6.932549
_cell_length_b 8.992815
_cell_length_c 14.962144
_cell_angle_alpha 116.931871
_cell_angle_beta 71.422661
_cell_angle_gamma 63.005903
_cell_volume 556.821091
_symmetry_space_group_name_H-M "P -1"
_symmetry_group_IT_number 2
_symmetry_cell_setting 'triclinic'
loop_
_space_group_symop_operation_xyz
x,y,z
-x,-y,-z
loop_
_atom_site_type_symbol
_atom_site_label
_atom_site_fract_x
_atom_site_fract_y
_atom_site_fract_z
Si Si1 0.274550 0.202222 0.161782
Si Si2 0.198512 0.688664 0.474642
Si Si3 0.409715 0.476292 0.140626
Si Si4 0.683339 0.532161 0.242839
Si Si5 0.286003 0.861270 0.153097
Si Si6 0.312593 0.814725 0.674565
Si Si7 0.545012 0.004333 0.599967
O O1 0.293495 0.394226 0.199737
O O2 0.944227 0.363455 0.225939
O O3 0.322506 0.043864 0.195232
O O4 0.500000 0.000000 0.000000
O O5 0.374421 0.705755 0.386789
O O6 0.215924 0.749961 0.589099
O O7 0.421553 0.406962 0.369386
O O8 0.879103 0.837151 0.530341
O O9 0.683013 0.389905 0.130512
O O10 0.266259 0.740879 0.207084
O O11 0.461985 0.356024 0.006116
O O12 0.666637 0.727162 0.260737
O O13 0.989671 0.992550 0.179335
O O14 0.430551 0.908199 0.637426
O O15 0.500000 0.000000 0.500000
#
# Coordination Sequence:
#
# PCOD9019801 Si02
#       7
#     2   2   2   2   2   2   2
#     4  10  23  45  68  99 133 178 224 272 344 404
#     4  11  25  43  67  99 135 180 226 281 341 404
#     4  10  24  43  70  96 141 171 229 278 341 405
#     4  12  24  44  67 100 132 177 229 279 340 405
#     4  10  21  45  69 100 131 184 216 285 339 400
#     4  11  23  46  67  95 144 168 232 284 337 409
#     4  12  26  42  68 100 135 182 230 276 345 407
#
# _framework density 25.142728000000002
#
# number of rings (size 3 to 8) (size 9 to 14) (size 15 to 20)
#    0.000    1.143    2.857    2.571    4.000    2.286 
#    5.143   11.429    0.000    0.000    0.000    0.000 
#    0.000    0.000    0.000    0.000    0.000    0.000 
#
# Total GULP energy -78066.050493 kJ/mol
# GULP energy per Si atom -5576.146464 kJ/mol
# Density = 2.508550 g / cm^3
# Si number density = 25.142728 Si / 1000 Ang^3
#
#
#
# Elastic Constant Matrix: (Units=GPa)
#
#
# Indices 1 2 3 4 5 6 
#
# 1 112.9039 65.8921 17.6884 -0.0653 -0.4855 2.7248
# 2 65.8921 198.1151 10.4828 14.3515 0.4440 35.1943
# 3 17.6884 10.4828 52.4983 -6.6234 -11.9776 -3.9416
# 4 -0.0653 14.3515 -6.6234 24.5597 -4.0705 2.3558
# 5 -0.4855 0.4440 -11.9776 -4.0705 26.2393 -3.2258
# 6 2.7248 35.1943 -3.9416 2.3558 -3.2258 37.2431
#
#
#
# Elastic Compliance Matrix: (Units=1/GPa)
#
#
# Indices 1 2 3 4 5 6 
#
# 1 0.011784 -0.004389 -0.002778 0.001508 -0.000390 0.002862
# 2 -0.004389 0.008380 -0.002107 -0.005222 -0.002947 -0.007746
# 3 -0.002778 -0.002107 0.025155 0.009750 0.013646 0.005422
# 4 0.001508 -0.005222 0.009750 0.048101 0.012508 0.003897
# 5 -0.000390 -0.002947 0.013646 0.012508 0.047252 0.007559
# 6 0.002862 -0.007746 0.005422 0.003897 0.007559 0.034943
#
#
# Mechanical properties :
#
#
# Convention : Reuss Voigt Hill
#
# Bulk Modulus (GPa) = 37.35404 61.29375 49.32389
# Shear Modulus (GPa) = 24.61991 35.57201 30.09596
#
# Velocity S-wave (km/s) = 3.13262 3.76547 3.46353
# Velocity P-wave (km/s) = 5.28900 6.58303 5.97117
#
# Compressibility (1/GPa) = 0.02677087
#
# Stress axis : x y z
#
# Youngs Moduli (GPa) = 84.86112 119.33518 39.75274
#
# Poissons Ratio (x) = 0.52378 0.11042
# Poissons Ratio (y) = 0.37247 0.08377
# Poissons Ratio (z) = 0.23573 0.25147
#
# Static dielectric constant tensor:
#      x y z
#    x 1.990970 0.076190 0.066100 
#    y 0.076190 2.166720 0.067330 
#    z 0.066100 0.067330 2.111440 
# 
# From -- ./inp_files/106530.got.cif
#   From: 2010.05.17/outbox.cif.g08.bks.cpg/sg2_54_cif.got.tgz:106530.got - 2010.06.03 11:33:40.
