data_PCOD9019455
_publ_section_title
;
Structure prediction by ZEFSAII (Michael W. Deem and Ramdas Pophale) SiO2 
 PCOD9019455
Probable space group: P -1
;
_chemical_formula_sum "Si O2"
_cell_formula_units_Z 14
_cell_length_a 11.093077
_cell_length_b 9.635774
_cell_length_c 5.201432
_cell_angle_alpha 76.873631
_cell_angle_beta 78.264942
_cell_angle_gamma 93.341506
_cell_volume 526.946978
_symmetry_space_group_name_H-M "P -1"
_symmetry_group_IT_number 2
_symmetry_cell_setting 'triclinic'
loop_
_space_group_symop_operation_xyz
x,y,z
-x,-y,-z
loop_
_atom_site_type_symbol
_atom_site_label
_atom_site_fract_x
_atom_site_fract_y
_atom_site_fract_z
Si Si1 0.940999 0.605215 0.779572
Si Si2 0.748831 0.949258 0.576817
Si Si3 0.834582 0.330381 0.749868
Si Si4 0.673505 0.789507 0.187687
Si Si5 0.415376 0.509905 0.785865
Si Si6 0.039416 0.877743 0.848186
Si Si7 0.611796 0.207309 0.541410
O O1 0.828832 0.496733 0.762947
O O2 0.045509 0.649239 0.500035
O O3 0.931057 0.758833 0.849186
O O4 0.000000 0.500000 0.000000
O O5 0.739204 0.825951 0.416435
O O6 0.647878 0.055681 0.497556
O O7 0.716988 0.898906 0.897489
O O8 0.880161 0.042959 0.447508
O O9 0.712677 0.264267 0.686459
O O10 0.871011 0.220837 0.997237
O O11 0.682464 0.628170 0.155129
O O12 0.527339 0.802449 0.289871
O O13 0.500000 0.500000 0.500000
O O14 0.372203 0.667182 0.730523
O O15 0.500000 0.500000 0.000000
O O16 0.000000 0.000000 0.000000
#
# Coordination Sequence:
#
# PCOD9019455 Si02
#       7
#     2   2   2   2   2   2   2
#     4   9  20  44  70  99 139 175 252 313 362 433
#     4  12  25  46  71 109 144 195 246 291 366 451
#     4  10  21  44  72 105 138 183 255 305 372 439
#     4  11  25  46  69 109 153 187 235 299 366 446
#     4  10  23  45  69 101 145 193 240 295 358 425
#     4  11  25  46  69 100 146 196 245 313 375 433
#     4  11  23  45  77 107 144 197 237 304 364 448
#
# _framework density 26.568141000000001
#
# number of rings (size 3 to 8) (size 9 to 14) (size 15 to 20)
#    0.000    1.429    1.429    3.429    0.000    6.286 
#    7.714    0.000    0.000    0.000    0.000    0.000 
#    0.000    0.000    0.000    0.000    0.000    0.000 
#
# Total GULP energy -78540.687623 kJ/mol
# GULP energy per Si atom -5610.049116 kJ/mol
# Density = 2.650767 g / cm^3
# Si number density = 26.568141 Si / 1000 Ang^3
#
#
#
# Elastic Constant Matrix: (Units=GPa)
#
#
# Indices 1 2 3 4 5 6 
#
# 1 103.5975 38.4495 28.6261 -8.0766 -4.1439 20.2079
# 2 38.4495 184.5282 34.4020 14.0645 -9.9541 6.5173
# 3 28.6261 34.4020 111.1077 -6.7496 -10.1993 20.2384
# 4 -8.0766 14.0645 -6.7496 54.7589 11.2334 1.1239
# 5 -4.1439 -9.9541 -10.1993 11.2334 47.7568 2.9547
# 6 20.2079 6.5173 20.2384 1.1239 2.9547 61.4337
#
#
#
# Elastic Compliance Matrix: (Units=1/GPa)
#
#
# Indices 1 2 3 4 5 6 
#
# 1 0.011691 -0.002191 -0.001647 0.002171 -0.000112 -0.003105
# 2 -0.002191 0.006404 -0.001538 -0.002447 0.001359 0.000527
# 3 -0.001647 -0.001538 0.010660 0.001174 0.001717 -0.002911
# 4 0.002171 -0.002447 0.001174 0.020360 -0.004799 -0.000983
# 5 -0.000112 0.001359 0.001717 -0.004799 0.022813 -0.001682
# 6 -0.003105 0.000527 -0.002911 -0.000983 -0.001682 0.018301
#
#
# Mechanical properties :
#
#
# Convention : Reuss Voigt Hill
#
# Bulk Modulus (GPa) = 55.54531 66.90986 61.22758
# Shear Modulus (GPa) = 46.73701 52.64027 49.68864
#
# Velocity S-wave (km/s) = 4.19876 4.45604 4.32931
# Velocity P-wave (km/s) = 6.66770 7.19125 6.93441
#
# Compressibility (1/GPa) = 0.01800332
#
# Stress axis : x y z
#
# Youngs Moduli (GPa) = 85.53327 156.15891 93.80879
#
# Poissons Ratio (x) = 0.34214 0.15447
# Poissons Ratio (y) = 0.18740 0.14430
# Poissons Ratio (z) = 0.14084 0.24021
#
# Static dielectric constant tensor:
#      x y z
#    x 2.081260 -0.053290 0.000790 
#    y -0.053290 2.125670 0.022560 
#    z 0.000790 0.022560 1.998730 
# 
# From -- ./inp_files/60524.got.cif
#   From: 2010.05.17/outbox.cif.g08.bks.cpg/sg2_31_cif.got.tgz:60524.got - 2010.06.03 11:33:40.
