data_PCOD9019402
_publ_section_title
;
Structure prediction by ZEFSAII (Michael W. Deem and Ramdas Pophale) SiO2 
 PCOD9019402
Probable space group: P -1
;
_chemical_formula_sum "Si O2"
_cell_formula_units_Z 13
_cell_length_a 16.053725
_cell_length_b 17.370916
_cell_length_c 27.536859
_cell_angle_alpha 14.655499
_cell_angle_beta 16.606505
_cell_angle_gamma 23.284421
_cell_volume 551.365524
_symmetry_space_group_name_H-M "P -1"
_symmetry_group_IT_number 2
_symmetry_cell_setting 'triclinic'
loop_
_space_group_symop_operation_xyz
x,y,z
-x,-y,-z
loop_
_atom_site_type_symbol
_atom_site_label
_atom_site_fract_x
_atom_site_fract_y
_atom_site_fract_z
Si Si1 0.294241 0.640467 0.490132
Si Si2 0.000000 0.500000 0.500000
Si Si3 0.583819 0.730480 0.547552
Si Si4 0.471644 0.674663 0.054196
Si Si5 0.898061 0.226849 0.134363
Si Si6 0.653551 0.740580 0.804677
Si Si7 0.516335 0.335783 0.465070
O O1 0.500000 0.500000 0.500000
O O2 0.281919 0.445910 0.566170
O O3 0.983267 0.664162 0.674001
O O4 0.430497 0.981924 0.192326
O O5 0.336428 0.596163 0.280810
O O6 0.162047 0.540091 0.330441
O O7 0.283866 0.809638 0.691285
O O8 0.596252 0.787711 0.449151
O O9 0.852709 0.905320 0.325475
O O10 0.479217 0.710887 0.970067
O O11 0.709377 0.446383 0.074884
O O12 0.224274 0.388133 0.858258
O O13 0.657554 0.072137 0.575941
O O14 0.500000 0.500000 0.000000
#
# Coordination Sequence:
#
# PCOD9019402 Si02
#       7
#     2   1   2   2   2   2   2
#     4  12  25  45  73 107 143 195 235 298 369 433
#     4  10  24  42  72 102 140 184 234 306 346 434
#     4  10  23  43  69 106 141 193 238 295 361 430
#     4  11  22  46  70  99 145 184 241 286 372 424
#     4  10  21  44  71  97 146 194 233 296 360 423
#     4  12  27  44  70 107 143 188 240 305 360 434
#     4  12  24  44  72 105 142 187 246 296 362 436
#
# _framework density 23.577824
#
# number of rings (size 3 to 8) (size 9 to 14) (size 15 to 20)
#    0.000    0.923    3.077    3.692    2.154    1.846 
#    0.000    5.385    0.000    0.000    0.000    0.000 
#    0.000    0.000    0.000    0.000    0.000    0.000 
#
# Total GULP energy -72561.509207 kJ/mol
# GULP energy per Si atom -5581.654554 kJ/mol
# Density = 2.352416 g / cm^3
# Si number density = 23.577824 Si / 1000 Ang^3
#
#
#
# Elastic Constant Matrix: (Units=GPa)
#
#
# Indices 1 2 3 4 5 6 
#
# 1 130.6359 55.4606 21.0260 12.0110 34.2299 20.7935
# 2 55.4606 117.7119 38.1443 9.9600 16.8368 13.7934
# 3 21.0260 38.1443 96.9011 8.2378 11.4188 7.6303
# 4 12.0110 9.9600 8.2378 42.2914 5.4226 9.6021
# 5 34.2299 16.8368 11.4188 5.4226 32.4178 6.0639
# 6 20.7935 13.7934 7.6303 9.6021 6.0639 45.4227
#
#
#
# Elastic Compliance Matrix: (Units=1/GPa)
#
#
# Indices 1 2 3 4 5 6 
#
# 1 0.012720 -0.004191 0.000450 -0.000643 -0.010733 -0.003057
# 2 -0.004191 0.011822 -0.003597 -0.000667 -0.000167 -0.000904
# 3 0.000450 -0.003597 0.012084 -0.001181 -0.002563 -0.000552
# 4 -0.000643 -0.000667 -0.001181 0.025475 -0.001993 -0.004424
# 5 -0.010733 -0.000167 -0.002563 -0.001993 0.043502 0.000009
# 6 -0.003057 -0.000904 -0.000552 -0.004424 0.000009 0.024716
#
#
# Mechanical properties :
#
#
# Convention : Reuss Voigt Hill
#
# Bulk Modulus (GPa) = 45.55825 63.83451 54.69638
# Shear Modulus (GPa) = 32.82782 39.40092 36.11437
#
# Velocity S-wave (km/s) = 3.73543 4.09234 3.91795
# Velocity P-wave (km/s) = 6.16190 7.03295 6.61179
#
# Compressibility (1/GPa) = 0.02194992
#
# Stress axis : x y z
#
# Youngs Moduli (GPa) = 78.61786 84.59094 82.75572
#
# Poissons Ratio (x) = 0.35452 -0.03723
# Poissons Ratio (y) = 0.32948 0.29764
# Poissons Ratio (z) = -0.03537 0.30424
#
# Static dielectric constant tensor:
#      x y z
#    x 1.971580 -0.237400 0.081170 
#    y -0.237400 2.701240 -0.256650 
#    z 0.081170 -0.256650 2.017260 
# 
# From -- ./inp_files/430866.got.cif
#   From: 2010.05.17/outbox.cif.g08.bks.cpg/sg2_216_cif.got.tgz:430866.got - 2010.06.03 11:33:40.
