data_PCOD9019255
_publ_section_title
;
Structure prediction by ZEFSAII (Michael W. Deem and Ramdas Pophale) SiO2 
 PCOD9019255
Probable space group: P -1
;
_chemical_formula_sum "Si O2"
_cell_formula_units_Z 16
_cell_length_a 13.456903
_cell_length_b 10.629922
_cell_length_c 11.850834
_cell_angle_alpha 112.867771
_cell_angle_beta 147.284606
_cell_angle_gamma 52.040313
_cell_volume 688.521522
_symmetry_space_group_name_H-M "P -1"
_symmetry_group_IT_number 2
_symmetry_cell_setting 'triclinic'
loop_
_space_group_symop_operation_xyz
x,y,z
-x,-y,-z
loop_
_atom_site_type_symbol
_atom_site_label
_atom_site_fract_x
_atom_site_fract_y
_atom_site_fract_z
Si Si1 0.259332 0.733291 0.313225
Si Si2 0.780028 0.937123 0.847957
Si Si3 0.615302 0.801604 0.049587
Si Si4 0.709725 0.741009 0.528003
Si Si5 0.342564 0.531041 0.536495
Si Si6 0.540852 0.835976 0.743272
Si Si7 0.354580 0.662283 0.839261
Si Si8 0.120667 0.216781 0.514503
O O1 0.217382 0.662542 0.361216
O O2 0.398070 0.589970 0.302211
O O3 0.438755 0.768028 0.538843
O O4 0.025886 0.889091 0.094514
O O5 0.776763 0.846751 0.700118
O O6 0.720150 0.852765 0.858124
O O7 0.563082 0.129633 0.705159
O O8 0.631985 0.742844 0.917022
O O9 0.463131 0.764227 0.964171
O O10 0.841750 0.726084 0.309862
O O11 0.500000 0.000000 0.000000
O O12 0.749590 0.581656 0.571867
O O13 0.843355 0.694090 0.522127
O O14 0.336536 0.610479 0.677381
O O15 0.324885 0.023513 0.627433
O O16 0.109465 0.766266 0.696810
O O17 0.500000 0.500000 0.000000
#
# Coordination Sequence:
#
# PCOD9019255 Si02
#       8
#     2   2   2   2   2   2   2   2
#     4  11  24  44  68 101 135 180 219 290 339 401
#     4  10  23  42  72  97 132 177 226 286 337 392
#     4  10  23  44  71  98 131 174 231 283 329 401
#     4  10  22  46  66 102 135 176 232 278 336 417
#     4  11  25  44  66 101 144 175 231 273 344 421
#     4  10  21  44  70 102 127 163 235 282 338 401
#     4  12  27  45  67 101 142 187 225 274 343 417
#     4  10  25  44  70  97 136 179 224 283 335 398
#
# _framework density 23.238199000000002
#
# number of rings (size 3 to 8) (size 9 to 14) (size 15 to 20)
#    0.000    1.500    2.500    0.750    3.500    9.000 
#    0.000    0.000    0.000    0.000    0.000    0.000 
#    0.000    0.000    0.000    0.000    0.000    0.000 
#
# Total GULP energy -89504.992586 kJ/mol
# GULP energy per Si atom -5594.062037 kJ/mol
# Density = 2.318531 g / cm^3
# Si number density = 23.238199 Si / 1000 Ang^3
#
#
#
# Elastic Constant Matrix: (Units=GPa)
#
#
# Indices 1 2 3 4 5 6 
#
# 1 103.0791 19.4830 14.2199 -9.7148 -11.7285 16.0936
# 2 19.4830 53.9944 2.9649 9.2413 2.5090 13.5734
# 3 14.2199 2.9649 53.4151 -5.8848 13.1662 -1.1507
# 4 -9.7148 9.2413 -5.8848 21.3650 5.0671 3.4915
# 5 -11.7285 2.5090 13.1662 5.0671 17.9031 5.0222
# 6 16.0936 13.5734 -1.1507 3.4915 5.0222 39.4878
#
#
#
# Elastic Compliance Matrix: (Units=1/GPa)
#
#
# Indices 1 2 3 4 5 6 
#
# 1 0.015110 -0.004650 -0.007734 0.003869 0.017195 -0.007314
# 2 -0.004650 0.023593 -0.001313 -0.011690 -0.000637 -0.005138
# 3 -0.007734 -0.001313 0.030409 0.011955 -0.032762 0.007599
# 4 0.003869 -0.011690 0.011955 0.062171 -0.022250 0.000123
# 5 0.017195 -0.000637 -0.032762 -0.022250 0.102892 -0.018863
# 6 -0.007314 -0.005138 0.007599 0.000123 -0.018863 0.032681
#
#
# Mechanical properties :
#
#
# Convention : Reuss Voigt Hill
#
# Bulk Modulus (GPa) = 23.97102 31.53601 27.75351
# Shear Modulus (GPa) = 16.22548 27.33924 21.78236
#
# Velocity S-wave (km/s) = 2.64526 3.43370 3.06494
# Velocity P-wave (km/s) = 4.43482 5.41486 4.94916
#
# Compressibility (1/GPa) = 0.04171704
#
# Stress axis : x y z
#
# Youngs Moduli (GPa) = 66.18043 42.38629 32.88461
#
# Poissons Ratio (x) = 0.19710 0.25433
# Poissons Ratio (y) = 0.30774 0.04319
# Poissons Ratio (z) = 0.51185 0.05567
#
# Static dielectric constant tensor:
#      x y z
#    x 1.879440 -0.020370 -0.041370 
#    y -0.020370 1.802740 -0.033110 
#    z -0.041370 -0.033110 1.830120 
# 
# From -- ./inp_files/428615.got.cif
#   From: 2010.05.17/outbox.cif.g08.bks.cpg/sg2_215_cif.got.tgz:428615.got - 2010.06.03 11:33:40.
