data_PCOD9019058
_publ_section_title
;
Structure prediction by ZEFSAII (Michael W. Deem and Ramdas Pophale) SiO2 
 PCOD9019058
Probable space group: P -1
;
_chemical_formula_sum "Si O2"
_cell_formula_units_Z 16
_cell_length_a 18.360252
_cell_length_b 7.125680
_cell_length_c 5.580965
_cell_angle_alpha 83.235264
_cell_angle_beta 70.151414
_cell_angle_gamma 66.318517
_cell_volume 628.799315
_symmetry_space_group_name_H-M "P -1"
_symmetry_group_IT_number 2
_symmetry_cell_setting 'triclinic'
loop_
_space_group_symop_operation_xyz
x,y,z
-x,-y,-z
loop_
_atom_site_type_symbol
_atom_site_label
_atom_site_fract_x
_atom_site_fract_y
_atom_site_fract_z
Si Si1 0.191921 0.613534 0.509102
Si Si2 0.571381 0.616084 0.260769
Si Si3 0.602413 0.998227 0.620300
Si Si4 0.083508 0.015162 0.798860
Si Si5 0.681819 0.881237 0.046964
Si Si6 0.385180 0.466783 0.269617
Si Si7 0.960470 0.345857 0.660052
Si Si8 0.852919 0.668709 0.074419
O O1 0.285167 0.579196 0.337828
O O2 0.119145 0.664706 0.384795
O O3 0.194900 0.403242 0.655436
O O4 0.158219 0.801815 0.703462
O O5 0.488560 0.822816 0.324183
O O6 0.647135 0.698390 0.134934
O O7 0.585454 0.488125 0.509618
O O8 0.575837 0.497760 0.026245
O O9 0.652357 0.995432 0.318460
O O10 0.592807 0.778614 0.688177
O O11 0.645710 0.007285 0.825410
O O12 0.111059 0.170588 0.894470
O O13 0.041341 0.135581 0.587650
O O14 0.000000 0.000000 0.000000
O O15 0.782389 0.777866 0.939192
O O16 0.000000 0.500000 0.500000
O O17 0.923299 0.455938 0.937743
#
# Coordination Sequence:
#
# PCOD9019058 Si02
#       8
#     2   2   2   2   2   2   2   2
#     4  12  24  42  65  94 135 172 222 283 339 409
#     4  10  17  30  54  92 129 164 222 274 320 397
#     4  10  17  30  54  93 128 165 221 275 318 401
#     4  12  26  45  67  98 129 176 227 280 350 411
#     4  10  19  31  54  87 129 167 215 267 338 388
#     4  10  19  31  53  86 129 169 212 270 333 389
#     4  12  24  43  71  92 127 176 223 284 347 406
#     4  12  24  43  66  93 137 172 219 290 336 401
#
# _framework density 25.445322999999998
#
# number of rings (size 3 to 8) (size 9 to 14) (size 15 to 20)
#    0.000    1.000    5.000    6.750    0.000    0.000 
#    0.000    0.000    0.000    0.000    0.000    9.625 
#    0.000    0.000    0.000    0.000    0.000    0.000 
#
# Total GULP energy -89534.668238 kJ/mol
# GULP energy per Si atom -5595.916765 kJ/mol
# Density = 2.538741 g / cm^3
# Si number density = 25.445323 Si / 1000 Ang^3
#
#
#
# Elastic Constant Matrix: (Units=GPa)
#
#
# Indices 1 2 3 4 5 6 
#
# 1 118.5364 50.9724 24.3052 9.0815 22.0457 -18.1645
# 2 50.9724 85.0622 23.6923 17.5408 5.7323 -9.0197
# 3 24.3052 23.6923 150.9099 3.6329 16.2215 -9.2310
# 4 9.0815 17.5408 3.6329 36.8976 -10.2235 5.2851
# 5 22.0457 5.7323 16.2215 -10.2235 36.6451 -1.7507
# 6 -18.1645 -9.0197 -9.2310 5.2851 -1.7507 42.6498
#
#
#
# Elastic Compliance Matrix: (Units=1/GPa)
#
#
# Indices 1 2 3 4 5 6 
#
# 1 0.013615 -0.006533 0.000021 -0.003055 -0.007816 0.004479
# 2 -0.006533 0.017651 -0.001460 -0.006860 -0.000027 0.001483
# 3 0.000021 -0.001460 0.007310 -0.001121 -0.003271 0.001287
# 4 -0.003055 -0.006860 -0.001121 0.035836 0.013075 -0.006899
# 5 -0.007816 -0.000027 -0.003271 0.013075 0.036893 -0.004149
# 6 0.004479 0.001483 0.001287 -0.006899 -0.004149 0.026631
#
#
# Mechanical properties :
#
#
# Convention : Reuss Voigt Hill
#
# Bulk Modulus (GPa) = 44.18666 61.38312 52.78489
# Shear Modulus (GPa) = 30.97392 40.27440 35.62416
#
# Velocity S-wave (km/s) = 3.49273 3.98274 3.74575
# Velocity P-wave (km/s) = 5.80246 6.73242 6.28467
#
# Compressibility (1/GPa) = 0.02263126
#
# Stress axis : x y z
#
# Youngs Moduli (GPa) = 73.44589 56.65318 136.80425
#
# Poissons Ratio (x) = 0.37011 -0.00281
# Poissons Ratio (y) = 0.47982 0.19976
# Poissons Ratio (z) = -0.00151 0.08272
#
# Static dielectric constant tensor:
#      x y z
#    x 2.087870 -0.177210 -0.039950 
#    y -0.177210 2.056890 0.104380 
#    z -0.039950 0.104380 2.233670 
# 
# From -- ./inp_files/117030.got.cif
#   From: 2010.05.17/outbox.cif.g08.bks.cpg/sg2_59_cif.got.tgz:117030.got - 2010.06.03 11:33:40.
