data_PCOD9019346
_publ_section_title
;
Structure prediction by ZEFSAII (Michael W. Deem and Ramdas Pophale) SiO2 
 PCOD9019346
Probable space group: P -1
;
_chemical_formula_sum "Si O2"
_cell_formula_units_Z 14
_cell_length_a 13.566437
_cell_length_b 19.178106
_cell_length_c 9.811218
_cell_angle_alpha 149.184455
_cell_angle_beta 134.974238
_cell_angle_gamma 28.164525
_cell_volume 603.700175
_symmetry_space_group_name_H-M "P -1"
_symmetry_group_IT_number 2
_symmetry_cell_setting 'triclinic'
loop_
_space_group_symop_operation_xyz
x,y,z
-x,-y,-z
loop_
_atom_site_type_symbol
_atom_site_label
_atom_site_fract_x
_atom_site_fract_y
_atom_site_fract_z
Si Si1 0.653728 0.981831 0.709991
Si Si2 0.025957 0.203272 0.638729
Si Si3 0.717209 0.357554 0.837218
Si Si4 0.534412 0.000880 0.192449
Si Si5 0.287562 0.799632 0.033370
Si Si6 0.392937 0.379201 0.600344
Si Si7 0.131844 0.618756 0.494192
O O1 0.579979 0.018575 0.853082
O O2 0.895359 0.755307 0.540946
O O3 0.500000 0.000000 0.500000
O O4 0.651867 0.137859 0.919445
O O5 0.900715 0.243359 0.715446
O O6 0.873240 0.388602 0.687383
O O7 0.219583 0.159102 0.795474
O O8 0.139038 0.994555 0.318913
O O9 0.506821 0.588120 0.959957
O O10 0.627194 0.271983 0.626228
O O11 0.751008 0.403469 0.093952
O O12 0.415987 0.234625 0.479469
O O13 0.500000 0.000000 0.000000
O O14 0.175918 0.746431 0.780212
O O15 0.292986 0.426304 0.433003
#
# Coordination Sequence:
#
# PCOD9019346 Si02
#       7
#     2   2   2   2   2   2   2
#     4  11  20  41  67  90 138 177 211 275 330 390
#     4  11  22  43  67 100 128 175 230 267 330 397
#     4  10  22  42  73  95 136 170 217 289 333 383
#     4  12  27  43  61  99 139 180 224 265 335 411
#     4  10  21  44  71 101 131 172 228 278 331 393
#     4  10  23  46  63  99 137 170 220 277 340 393
#     4  10  23  41  73 100 126 177 228 275 337 389
#
# _framework density 23.19032
#
# number of rings (size 3 to 8) (size 9 to 14) (size 15 to 20)
#    0.000    1.429    4.286    1.714    2.000    6.857 
#    2.571    1.429    0.000    0.000    0.000    0.000 
#    0.000    0.000    0.000    0.000    0.000    0.000 
#
# Total GULP energy -78291.472150 kJ/mol
# GULP energy per Si atom -5592.248011 kJ/mol
# Density = 2.313754 g / cm^3
# Si number density = 23.190320 Si / 1000 Ang^3
#
#
#
# Elastic Constant Matrix: (Units=GPa)
#
#
# Indices 1 2 3 4 5 6 
#
# 1 186.6822 32.8975 33.1651 0.3371 -27.9460 -3.4377
# 2 32.8975 85.9786 21.6128 -16.9797 -1.4351 10.9925
# 3 33.1651 21.6128 54.1518 -19.6619 -16.1087 -8.9663
# 4 0.3371 -16.9797 -19.6619 35.6868 3.6705 -2.2653
# 5 -27.9460 -1.4351 -16.1087 3.6705 27.8933 -4.6600
# 6 -3.4377 10.9925 -8.9663 -2.2653 -4.6600 40.6500
#
#
#
# Elastic Compliance Matrix: (Units=1/GPa)
#
#
# Indices 1 2 3 4 5 6 
#
# 1 0.007293 -0.002940 -0.002328 -0.003326 0.006492 0.001457
# 2 -0.002940 0.015913 -0.006172 0.004544 -0.007376 -0.006506
# 3 -0.002328 -0.006172 0.035239 0.015451 0.017695 0.012134
# 4 -0.003326 0.004544 0.015451 0.038850 0.001418 0.004225
# 5 0.006492 -0.007376 0.017695 0.001418 0.054135 0.012732
# 6 0.001457 -0.006506 0.012134 0.004225 0.012732 0.030854
#
#
# Mechanical properties :
#
#
# Convention : Reuss Voigt Hill
#
# Bulk Modulus (GPa) = 28.11789 55.79594 41.95691
# Shear Modulus (GPa) = 23.03937 36.78848 29.91393
#
# Velocity S-wave (km/s) = 3.15539 3.98725 3.59546
# Velocity P-wave (km/s) = 5.04247 6.73126 5.94711
#
# Compressibility (1/GPa) = 0.03556455
#
# Stress axis : x y z
#
# Youngs Moduli (GPa) = 137.11559 62.84058 28.37792
#
# Poissons Ratio (x) = 0.18475 0.06607
# Poissons Ratio (y) = 0.40312 0.17515
# Poissons Ratio (z) = 0.31925 0.38785
#
# Static dielectric constant tensor:
#      x y z
#    x 1.909420 0.078600 0.058680 
#    y 0.078600 1.903340 0.007940 
#    z 0.058680 0.007940 1.967570 
# 
# From -- ./inp_files/280160.got.cif
#   From: 2010.05.17/outbox.cif.g08.bks.cpg/sg2_141_cif.got.tgz:280160.got - 2010.06.03 11:33:40.
