data_PCOD9019547
_publ_section_title
;
Structure prediction by ZEFSAII (Michael W. Deem and Ramdas Pophale) SiO2 
 PCOD9019547
Probable space group: P -1
;
_chemical_formula_sum "Si O2"
_cell_formula_units_Z 14
_cell_length_a 13.029356
_cell_length_b 9.069221
_cell_length_c 9.411603
_cell_angle_alpha 69.860585
_cell_angle_beta 37.911234
_cell_angle_gamma 66.183466
_cell_volume 624.493172
_symmetry_space_group_name_H-M "P -1"
_symmetry_group_IT_number 2
_symmetry_cell_setting 'triclinic'
loop_
_space_group_symop_operation_xyz
x,y,z
-x,-y,-z
loop_
_atom_site_type_symbol
_atom_site_label
_atom_site_fract_x
_atom_site_fract_y
_atom_site_fract_z
Si Si1 0.450428 0.992339 0.724927
Si Si2 0.005053 0.672778 0.500151
Si Si3 0.808604 0.948528 0.440414
Si Si4 0.172755 0.234575 0.816612
Si Si5 0.615752 0.350671 0.012036
Si Si6 0.423556 0.479608 0.438801
Si Si7 0.907391 0.266135 0.305230
O O1 0.608154 0.035399 0.620595
O O2 0.442987 0.817786 0.851577
O O3 0.500000 0.000000 0.500000
O O4 0.267913 0.115826 0.877516
O O5 0.000607 0.691723 0.667818
O O6 0.000000 0.500000 0.500000
O O7 0.853945 0.804264 0.550233
O O8 0.190946 0.694834 0.238748
O O9 0.851981 0.865325 0.264895
O O10 0.910548 0.079932 0.332820
O O11 0.300832 0.351477 0.607363
O O12 0.991898 0.320973 0.053103
O O13 0.585664 0.421773 0.179343
O O14 0.500000 0.500000 0.000000
O O15 0.500000 0.500000 0.500000
O O16 0.290352 0.643019 0.488369
#
# Coordination Sequence:
#
# PCOD9019547 Si02
#       7
#     2   2   2   2   2   2   2
#     4  10  21  44  74 102 136 180 236 286 348 415
#     4  12  27  46  69  99 146 188 231 286 356 422
#     4  11  23  44  72  99 138 182 233 289 348 416
#     4  11  24  46  72 101 140 182 232 295 346 413
#     4  12  24  47  72 100 143 188 231 288 354 415
#     4  12  26  43  71 105 139 181 241 288 349 416
#     4  12  26  44  66 107 141 179 236 288 351 417
#
# _framework density 22.41818
#
# number of rings (size 3 to 8) (size 9 to 14) (size 15 to 20)
#    0.000    0.571    4.286    4.714    6.000    0.000 
#    0.000    1.429    0.000    0.000    0.000    0.000 
#    0.000    0.000    0.000    0.000    0.000    0.000 
#
# Total GULP energy -78180.029549 kJ/mol
# GULP energy per Si atom -5584.287825 kJ/mol
# Density = 2.236715 g / cm^3
# Si number density = 22.418180 Si / 1000 Ang^3
#
#
#
# Elastic Constant Matrix: (Units=GPa)
#
#
# Indices 1 2 3 4 5 6 
#
# 1 108.3681 27.2997 -12.0855 0.6065 12.4418 13.4942
# 2 27.2997 110.5354 -3.8261 -21.0134 11.0251 19.4864
# 3 -12.0855 -3.8261 52.3044 2.8549 6.3406 21.3485
# 4 0.6065 -21.0134 2.8549 39.0592 3.4177 3.2784
# 5 12.4418 11.0251 6.3406 3.4177 29.4489 9.0664
# 6 13.4942 19.4864 21.3485 3.2784 9.0664 46.8599
#
#
#
# Elastic Compliance Matrix: (Units=1/GPa)
#
#
# Indices 1 2 3 4 5 6 
#
# 1 0.011049 -0.001688 0.004447 -0.000763 -0.003758 -0.003725
# 2 -0.001688 0.012316 0.002906 0.007238 -0.003586 -0.005772
# 3 0.004447 0.002906 0.026459 0.001113 -0.004563 -0.013738
# 4 -0.000763 0.007238 0.001113 0.030219 -0.004751 -0.004492
# 5 -0.003758 -0.003586 -0.004563 -0.004751 0.039223 -0.002604
# 6 -0.003725 -0.005772 -0.013738 -0.004492 -0.002604 0.031890
#
#
# Mechanical properties :
#
#
# Convention : Reuss Voigt Hill
#
# Bulk Modulus (GPa) = 16.35255 32.66488 24.50872
# Shear Modulus (GPa) = 31.20908 40.39493 35.80200
#
# Velocity S-wave (km/s) = 3.73518 4.24946 4.00059
# Velocity P-wave (km/s) = 5.09041 6.21929 5.68295
#
# Compressibility (1/GPa) = 0.06115254
#
# Stress axis : x y z
#
# Youngs Moduli (GPa) = 90.50865 81.19793 37.79462
#
# Poissons Ratio (x) = 0.13710 -0.16807
# Poissons Ratio (y) = 0.15282 -0.10984
# Poissons Ratio (z) = -0.40249 -0.23598
#
# Static dielectric constant tensor:
#      x y z
#    x 1.890660 -0.004760 -0.037700 
#    y -0.004760 1.870250 -0.006170 
#    z -0.037700 -0.006170 1.880080 
# 
# From -- ./inp_files/189116.got.cif
#   From: 2010.05.17/outbox.cif.g08.bks.cpg/sg2_95_cif.got.tgz:189116.got - 2010.06.03 11:33:40.
