data_PCOD9019648
_publ_section_title
;
Structure prediction by ZEFSAII (Michael W. Deem and Ramdas Pophale) SiO2 
 PCOD9019648
Probable space group: P -1
;
_chemical_formula_sum "Si O2"
_cell_formula_units_Z 14
_cell_length_a 5.047380
_cell_length_b 11.681711
_cell_length_c 14.690746
_cell_angle_alpha 128.487395
_cell_angle_beta 105.025752
_cell_angle_gamma 53.626989
_cell_volume 537.564432
_symmetry_space_group_name_H-M "P -1"
_symmetry_group_IT_number 2
_symmetry_cell_setting 'triclinic'
loop_
_space_group_symop_operation_xyz
x,y,z
-x,-y,-z
loop_
_atom_site_type_symbol
_atom_site_label
_atom_site_fract_x
_atom_site_fract_y
_atom_site_fract_z
Si Si1 0.128742 0.893431 0.847558
Si Si2 0.106676 0.352239 0.532563
Si Si3 0.934933 0.268764 0.015237
Si Si4 0.726213 0.557706 0.777654
Si Si5 0.403026 0.146875 0.292206
Si Si6 0.159212 0.593997 0.108854
Si Si7 0.170484 0.861801 0.525780
O O1 0.323010 0.695567 0.811186
O O2 0.408465 0.846089 0.773535
O O3 0.786047 0.940057 0.797186
O O4 0.040426 0.079908 0.971497
O O5 0.119102 0.332038 0.412250
O O6 0.472832 0.308500 0.562547
O O7 0.863587 0.491210 0.655968
O O8 0.052645 0.195104 0.476208
O O9 0.961550 0.248371 0.896058
O O10 0.557219 0.444274 0.072219
O O11 0.167633 0.319912 0.106422
O O12 0.903110 0.388597 0.779591
O O13 0.688496 0.064069 0.352848
O O14 0.000000 0.500000 0.000000
O O15 0.000000 0.000000 0.500000
#
# Coordination Sequence:
#
# PCOD9019648 Si02
#       7
#     2   2   2   2   2   2   2
#     4  12  26  44  74 100 145 180 238 280 344 415
#     4  10  23  43  65 100 142 171 238 279 342 410
#     4  10  24  47  67 102 135 185 230 293 343 419
#     4  11  26  43  70 105 132 191 226 290 345 413
#     4  10  24  45  63 106 135 187 223 287 344 405
#     4   9  22  46  66  97 137 174 238 281 360 392
#     4  10  21  45  64  98 138 185 231 278 338 411
#
# _framework density 26.043391
#
# number of rings (size 3 to 8) (size 9 to 14) (size 15 to 20)
#    0.857    0.857    1.429    0.857    8.000    2.857 
#   10.286    0.000    0.000    0.000    0.000    0.000 
#    0.000    0.000    0.000    0.000    0.000    0.000 
#
# Total GULP energy -78042.981631 kJ/mol
# GULP energy per Si atom -5574.498688 kJ/mol
# Density = 2.598412 g / cm^3
# Si number density = 26.043391 Si / 1000 Ang^3
#
#
#
# Elastic Constant Matrix: (Units=GPa)
#
#
# Indices 1 2 3 4 5 6 
#
# 1 78.1076 -16.6734 4.5554 -5.3824 -6.1694 6.5252
# 2 -16.6734 77.0927 12.7198 -18.0174 -1.8720 6.8585
# 3 4.5554 12.7198 69.1303 -16.1765 -3.0418 -6.2761
# 4 -5.3824 -18.0174 -16.1765 20.2950 0.9573 -6.9422
# 5 -6.1694 -1.8720 -3.0418 0.9573 48.5745 -3.0508
# 6 6.5252 6.8585 -6.2761 -6.9422 -3.0508 25.7577
#
#
#
# Elastic Compliance Matrix: (Units=1/GPa)
#
#
# Indices 1 2 3 4 5 6 
#
# 1 0.014843 0.005263 -0.000517 0.007024 0.001717 -0.003191
# 2 0.005263 0.018254 0.000263 0.017303 0.000962 -0.001352
# 3 -0.000517 0.000263 0.020032 0.019546 0.001466 0.010383
# 4 0.007024 0.017303 0.019546 0.089782 0.002450 0.022864
# 5 0.001717 0.000962 0.001466 0.002450 0.021063 0.002821
# 6 -0.003191 -0.001352 0.010383 0.022864 0.002821 0.049018
#
#
# Mechanical properties :
#
#
# Convention : Reuss Voigt Hill
#
# Bulk Modulus (GPa) = 15.83647 25.05936 20.44791
# Shear Modulus (GPa) = 22.31925 33.84070 28.07997
#
# Velocity S-wave (km/s) = 2.93064 3.60863 3.28716
# Velocity P-wave (km/s) = 4.18874 5.19672 4.71972
#
# Compressibility (1/GPa) = 0.06314538
#
# Stress axis : x y z
#
# Youngs Moduli (GPa) = 67.37387 54.78361 49.92009
#
# Poissons Ratio (x) = -0.28830 0.02580
# Poissons Ratio (y) = -0.35456 -0.01313
# Poissons Ratio (z) = 0.03483 -0.01441
#
# Static dielectric constant tensor:
#      x y z
#    x 2.060100 -0.029080 -0.037740 
#    y -0.029080 1.431030 0.365980 
#    z -0.037740 0.365980 1.953550 
# 
# From -- ./inp_files/483386.got.cif
#   From: 2010.05.17/outbox.cif.g08.bks.cpg/sg2_242_cif.got.tgz:483386.got - 2010.06.03 11:33:40.
