data_PCOD9019233
_publ_section_title
;
Structure prediction by ZEFSAII (Michael W. Deem and Ramdas Pophale) SiO2 
 PCOD9019233
Probable space group: P -1
;
_chemical_formula_sum "Si O2"
_cell_formula_units_Z 12
_cell_length_a 11.644854
_cell_length_b 16.745341
_cell_length_c 14.421602
_cell_angle_alpha 28.485196
_cell_angle_beta 150.648330
_cell_angle_gamma 158.115806
_cell_volume 474.437179
_symmetry_space_group_name_H-M "P -1"
_symmetry_group_IT_number 2
_symmetry_cell_setting 'triclinic'
loop_
_space_group_symop_operation_xyz
x,y,z
-x,-y,-z
loop_
_atom_site_type_symbol
_atom_site_label
_atom_site_fract_x
_atom_site_fract_y
_atom_site_fract_z
Si Si1 0.885912 0.079885 0.414134
Si Si2 0.286943 0.489185 0.031986
Si Si3 0.084151 0.358610 0.745774
Si Si4 0.268514 0.921344 0.034124
Si Si5 0.340047 0.572151 0.189382
Si Si6 0.468370 0.949715 0.637611
O O1 0.710379 0.998510 0.475860
O O2 0.203424 0.351355 0.376763
O O3 0.000000 0.000000 0.500000
O O4 0.593337 0.012381 0.215859
O O5 0.543294 0.501800 0.146204
O O6 0.430244 0.550466 0.173771
O O7 0.916557 0.239956 0.021301
O O8 0.299263 0.687716 0.805315
O O9 0.000000 0.500000 0.500000
O O10 0.836503 0.116946 0.762511
O O11 0.986906 0.269894 0.873174
O O12 0.373198 0.165257 0.843963
O O13 0.000000 0.500000 0.000000
O O14 0.500000 0.000000 0.500000
#
# Coordination Sequence:
#
# PCOD9019233 Si02
#       6
#     2   2   2   2   2   2
#     4  10  23  47  72 106 152 187 237 307 363 429
#     4  12  23  44  75 102 140 194 243 299 369 432
#     4  11  24  44  66 105 150 183 239 311 363 426
#     4  10  23  43  71 104 140 190 245 289 370 434
#     4  10  21  44  69  98 143 185 243 294 359 434
#     4  11  24  46  73 108 144 190 249 298 360 440
#
# _framework density 25.293127999999999
#
# number of rings (size 3 to 8) (size 9 to 14) (size 15 to 20)
#    0.000    1.333    5.000    2.000    4.667    2.667 
#    0.000    2.500    0.000    0.000    0.000    0.000 
#    0.000    0.000    0.000    0.000    0.000    0.000 
#
# Total GULP energy -66933.462736 kJ/mol
# GULP energy per Si atom -5577.788561 kJ/mol
# Density = 2.523556 g / cm^3
# Si number density = 25.293128 Si / 1000 Ang^3
#
#
#
# Elastic Constant Matrix: (Units=GPa)
#
#
# Indices 1 2 3 4 5 6 
#
# 1 144.8386 34.5558 54.9109 -10.0402 -14.4617 19.6194
# 2 34.5558 191.6065 44.3030 -20.1429 9.0033 -27.0003
# 3 54.9109 44.3030 64.2136 -4.0787 2.3258 12.6960
# 4 -10.0402 -20.1429 -4.0787 43.9691 4.6943 -4.9011
# 5 -14.4617 9.0033 2.3258 4.6943 36.1694 -1.8802
# 6 19.6194 -27.0003 12.6960 -4.9011 -1.8802 44.6772
#
#
#
# Elastic Compliance Matrix: (Units=1/GPa)
#
#
# Indices 1 2 3 4 5 6 
#
# 1 0.011302 -0.000443 -0.009023 0.000743 0.004989 -0.002375
# 2 -0.000443 0.008415 -0.006576 0.004196 -0.002002 0.007525
# 3 -0.009023 -0.006576 0.029543 -0.002901 -0.003956 -0.008891
# 4 0.000743 0.004196 -0.002901 0.025583 -0.003585 0.005690
# 5 0.004989 -0.002002 -0.003956 -0.003585 0.030789 -0.001375
# 6 -0.002375 0.007525 -0.008891 0.005690 -0.001375 0.031066
#
#
# Mechanical properties :
#
#
# Convention : Reuss Voigt Hill
#
# Bulk Modulus (GPa) = 58.21925 74.24423 66.23174
# Shear Modulus (GPa) = 28.65210 42.75574 35.70392
#
# Velocity S-wave (km/s) = 3.36936 4.11592 3.76121
# Velocity P-wave (km/s) = 6.18099 7.21145 6.71601
#
# Compressibility (1/GPa) = 0.01717645
#
# Stress axis : x y z
#
# Youngs Moduli (GPa) = 88.47839 118.83679 33.84952
#
# Poissons Ratio (x) = 0.05265 0.30542
# Poissons Ratio (y) = 0.03920 0.22258
# Poissons Ratio (z) = 0.79834 0.78141
#
# Static dielectric constant tensor:
#      x y z
#    x 2.200000 0.004230 -0.077070 
#    y 0.004230 1.963570 -0.095200 
#    z -0.077070 -0.095200 2.179130 
# 
# From -- ./inp_files/198019.got.cif
#   From: 2010.05.17/outbox.cif.g08.bks.cpg/sg2_100_cif.got.tgz:198019.got - 2010.06.03 11:33:40.
