data_PCOD9019159
_publ_section_title
;
Structure prediction by ZEFSAII (Michael W. Deem and Ramdas Pophale) SiO2 
 PCOD9019159
Probable space group: P -1
;
_chemical_formula_sum "Si O2"
_cell_formula_units_Z 12
_cell_length_a 17.738999
_cell_length_b 6.621523
_cell_length_c 11.685928
_cell_angle_alpha 99.961191
_cell_angle_beta 37.529385
_cell_angle_gamma 126.331599
_cell_volume 536.386088
_symmetry_space_group_name_H-M "P -1"
_symmetry_group_IT_number 2
_symmetry_cell_setting 'triclinic'
loop_
_space_group_symop_operation_xyz
x,y,z
-x,-y,-z
loop_
_atom_site_type_symbol
_atom_site_label
_atom_site_fract_x
_atom_site_fract_y
_atom_site_fract_z
Si Si1 0.519127 0.280737 0.961247
Si Si2 0.109869 0.707566 0.501483
Si Si3 0.603345 0.518359 0.226656
Si Si4 0.317954 0.775168 0.441730
Si Si5 0.621552 0.355625 0.419453
Si Si6 0.869599 0.760559 0.738263
O O1 0.556522 0.219821 0.788959
O O2 0.695089 0.443314 0.846374
O O3 0.500000 0.500000 0.000000
O O4 0.325361 0.990701 0.229742
O O5 0.128687 0.595311 0.580597
O O6 0.000000 0.500000 0.500000
O O7 0.005353 0.790609 0.655099
O O8 0.496368 0.392708 0.614768
O O9 0.443638 0.141080 0.350124
O O10 0.705422 0.547968 0.218487
O O11 0.750614 0.745243 0.969180
O O12 0.265095 0.586146 0.601854
O O13 0.500000 0.000000 0.500000
O O14 0.000000 0.000000 0.500000
#
# Coordination Sequence:
#
# PCOD9019159 Si02
#       6
#     2   2   2   2   2   2
#     4  12  23  41  64  97 142 188 228 281 348 412
#     4  12  24  39  62 100 145 183 225 280 346 414
#     4  10  21  44  69 100 139 180 233 290 343 412
#     4  11  22  39  68  98 137 183 232 281 346 413
#     4   9  21  41  73 100 127 186 237 286 351 406
#     4  12  24  40  65 104 141 184 227 279 350 421
#
# _framework density 22.371945
#
# number of rings (size 3 to 8) (size 9 to 14) (size 15 to 20)
#    0.000    1.000    5.000    2.500    0.000    0.000 
#    0.000    0.833    0.000   14.000    0.000    0.000 
#    0.000    0.000    0.000    0.000    0.000    0.000 
#
# Total GULP energy -66875.533020 kJ/mol
# GULP energy per Si atom -5572.961085 kJ/mol
# Density = 2.232103 g / cm^3
# Si number density = 22.371945 Si / 1000 Ang^3
#
#
#
# Elastic Constant Matrix: (Units=GPa)
#
#
# Indices 1 2 3 4 5 6 
#
# 1 198.7497 37.5623 25.0454 0.2859 1.7247 15.4658
# 2 37.5623 90.0524 31.4477 23.0967 -2.9605 -16.7254
# 3 25.0454 31.4477 83.7713 0.8765 -0.9949 8.9870
# 4 0.2859 23.0967 0.8765 34.4136 6.5272 -7.6136
# 5 1.7247 -2.9605 -0.9949 6.5272 36.7913 6.2437
# 6 15.4658 -16.7254 8.9870 -7.6136 6.2437 45.9835
#
#
#
# Elastic Compliance Matrix: (Units=1/GPa)
#
#
# Indices 1 2 3 4 5 6 
#
# 1 0.005915 -0.003349 -0.000228 0.001645 -0.000362 -0.002842
# 2 -0.003349 0.019298 -0.006872 -0.011591 0.002350 0.007251
# 3 -0.000228 -0.006872 0.015076 0.003126 0.000137 -0.004870
# 4 0.001645 -0.011591 0.003126 0.038768 -0.008168 0.002148
# 5 -0.000362 0.002350 0.000137 -0.008168 0.029589 -0.004420
# 6 -0.002842 0.007251 -0.004870 0.002148 -0.004420 0.027248
#
#
# Mechanical properties :
#
#
# Convention : Reuss Voigt Hill
#
# Bulk Modulus (GPa) = 51.56787 62.29824 56.93305
# Shear Modulus (GPa) = 30.62667 42.00555 36.31611
#
# Velocity S-wave (km/s) = 3.70398 4.33783 4.03338
# Velocity P-wave (km/s) = 6.43373 7.27984 6.86982
#
# Compressibility (1/GPa) = 0.01939192
#
# Stress axis : x y z
#
# Youngs Moduli (GPa) = 169.06080 51.81876 66.32850
#
# Poissons Ratio (x) = 0.17355 0.01511
# Poissons Ratio (y) = 0.56621 0.45580
# Poissons Ratio (z) = 0.03852 0.35609
#
# Static dielectric constant tensor:
#      x y z
#    x 1.935980 -0.070830 0.044360 
#    y -0.070830 1.945520 0.037970 
#    z 0.044360 0.037970 1.794310 
# 
# From -- ./inp_files/468702.got.cif
#   From: 2010.05.17/outbox.cif.g08.bks.cpg/sg2_235_cif.got.tgz:468702.got - 2010.06.03 11:33:40.
