data_PCOD9019023
_publ_section_title
;
Structure prediction by ZEFSAII (Michael W. Deem and Ramdas Pophale) SiO2 
 PCOD9019023
Probable space group: P -1
;
_chemical_formula_sum "Si O2"
_cell_formula_units_Z 16
_cell_length_a 9.792254
_cell_length_b 11.890439
_cell_length_c 30.259039
_cell_angle_alpha 26.707129
_cell_angle_beta 151.530172
_cell_angle_gamma 134.828480
_cell_volume 699.790300
_symmetry_space_group_name_H-M "P -1"
_symmetry_group_IT_number 2
_symmetry_cell_setting 'triclinic'
loop_
_space_group_symop_operation_xyz
x,y,z
-x,-y,-z
loop_
_atom_site_type_symbol
_atom_site_label
_atom_site_fract_x
_atom_site_fract_y
_atom_site_fract_z
Si Si1 0.580589 0.469292 0.585623
Si Si2 0.727993 0.686993 0.175019
Si Si3 0.320763 0.074520 0.315196
Si Si4 0.594764 0.399332 0.012585
Si Si5 0.635949 0.654083 0.851341
Si Si6 0.196207 0.240763 0.616734
Si Si7 0.314626 0.600008 0.648863
Si Si8 0.348892 0.970577 0.101985
O O1 0.500000 0.500000 0.500000
O O2 0.406134 0.305515 0.617511
O O3 0.946121 0.332902 0.744198
O O4 0.455370 0.758968 0.472643
O O5 0.548216 0.522432 0.157822
O O6 0.816074 0.521590 0.304697
O O7 0.500000 0.000000 0.000000
O O8 0.422047 0.095647 0.285419
O O9 0.474948 0.247449 0.325861
O O10 0.954147 0.201636 0.176312
O O11 0.389637 0.226078 0.000037
O O12 0.500000 0.500000 0.000000
O O13 0.565209 0.652734 0.883373
O O14 0.000000 0.500000 0.000000
O O15 0.436366 0.050020 0.786835
O O16 0.000000 0.500000 0.500000
O O17 0.932133 0.201038 0.525237
O O18 0.506893 0.319067 0.778458
O O19 0.000000 0.000000 0.000000
#
# Coordination Sequence:
#
# PCOD9019023 Si02
#       8
#     2   2   2   2   2   2   2   2
#     4  12  26  44  71 103 139 186 232 288 358 416
#     4  11  24  41  69 101 134 179 236 287 352 416
#     4  10  23  45  69 100 141 180 234 289 348 424
#     4  11  23  43  68 103 140 185 233 290 352 413
#     4   9  22  41  69  99 141 179 226 285 353 406
#     4  10  23  45  66  97 135 184 229 283 348 409
#     4  10  21  44  67  95 138 180 228 289 348 412
#     4  11  24  41  69  98 141 183 238 285 343 415
#
# _framework density 22.863993000000001
#
# number of rings (size 3 to 8) (size 9 to 14) (size 15 to 20)
#    0.000    1.500    1.250    3.000    7.000    3.000 
#    2.250    3.125    0.000    0.000    0.000    0.000 
#    0.000    0.000    0.000    0.000    0.000    0.000 
#
# Total GULP energy -89316.505944 kJ/mol
# GULP energy per Si atom -5582.281621 kJ/mol
# Density = 2.281195 g / cm^3
# Si number density = 22.863993 Si / 1000 Ang^3
#
#
#
# Elastic Constant Matrix: (Units=GPa)
#
#
# Indices 1 2 3 4 5 6 
#
# 1 125.3656 32.7139 27.1933 14.7528 9.9484 0.6068
# 2 32.7139 102.0831 42.2866 5.4369 20.5760 10.5700
# 3 27.1933 42.2866 84.3650 12.0575 14.7486 4.2893
# 4 14.7528 5.4369 12.0575 41.1693 4.8021 6.7092
# 5 9.9484 20.5760 14.7486 4.8021 36.3806 6.9085
# 6 0.6068 10.5700 4.2893 6.7092 6.9085 36.5191
#
#
#
# Elastic Compliance Matrix: (Units=1/GPa)
#
#
# Indices 1 2 3 4 5 6 
#
# 1 0.009231 -0.002240 -0.001429 -0.002736 -0.000559 0.001271
# 2 -0.002240 0.013959 -0.005535 0.001579 -0.004725 -0.002749
# 3 -0.001429 -0.005535 0.015981 -0.003263 -0.002690 0.000857
# 4 -0.002736 0.001579 -0.003263 0.026957 -0.001488 -0.004699
# 5 -0.000559 -0.004725 -0.002690 -0.001488 0.032389 -0.004161
# 6 0.001271 -0.002749 0.000857 -0.004699 -0.004161 0.029707
#
#
# Mechanical properties :
#
#
# Convention : Reuss Voigt Hill
#
# Bulk Modulus (GPa) = 48.15835 57.35570 52.75702
# Shear Modulus (GPa) = 32.56188 36.78846 34.67517
#
# Velocity S-wave (km/s) = 3.77789 4.01560 3.89856
# Velocity P-wave (km/s) = 6.33551 6.82936 6.58706
#
# Compressibility (1/GPa) = 0.02076483
#
# Stress axis : x y z
#
# Youngs Moduli (GPa) = 108.32897 71.63620 62.57383
#
# Poissons Ratio (x) = 0.16044 0.08941
# Poissons Ratio (y) = 0.24262 0.34634
# Poissons Ratio (z) = 0.15479 0.39650
#
# Static dielectric constant tensor:
#      x y z
#    x 1.713860 -0.083550 0.210410 
#    y -0.083550 1.787620 0.056250 
#    z 0.210410 0.056250 1.580060 
# 
# From -- ./inp_files/622498.got.cif
#   From: 2010.05.17/outbox.cif.g08.bks.cpg/sg2_312_cif.got.tgz:622498.got - 2010.06.03 11:33:40.
