data_PCOD9019340
_publ_section_title
;
Structure prediction by ZEFSAII (Michael W. Deem and Ramdas Pophale) SiO2 
 PCOD9019340
Probable space group: P -1
;
_chemical_formula_sum "Si O2"
_cell_formula_units_Z 15
_cell_length_a 6.917018
_cell_length_b 19.884757
_cell_length_c 6.247000
_cell_angle_alpha 86.845725
_cell_angle_beta 111.465167
_cell_angle_gamma 120.732492
_cell_volume 677.918144
_symmetry_space_group_name_H-M "P -1"
_symmetry_group_IT_number 2
_symmetry_cell_setting 'triclinic'
loop_
_space_group_symop_operation_xyz
x,y,z
-x,-y,-z
loop_
_atom_site_type_symbol
_atom_site_label
_atom_site_fract_x
_atom_site_fract_y
_atom_site_fract_z
Si Si1 0.615637 0.322494 0.604237
Si Si2 0.500000 0.500000 0.000000
Si Si3 0.935683 0.040160 0.278106
Si Si4 0.235999 0.509730 0.479185
Si Si5 0.066312 0.375285 0.088441
Si Si6 0.312754 0.110851 0.033877
Si Si7 0.176340 0.745601 0.631617
Si Si8 0.105187 0.182335 0.601252
O O1 0.599008 0.398971 0.539465
O O2 0.728107 0.303165 0.448707
O O3 0.359762 0.246068 0.580485
O O4 0.814349 0.347183 0.868283
O O5 0.634148 0.512636 0.285693
O O6 0.285937 0.407983 0.003275
O O7 0.158332 0.079044 0.194015
O O8 0.933489 0.111915 0.377587
O O9 0.000000 0.000000 0.500000
O O10 0.711299 0.965604 0.080084
O O11 0.142224 0.453544 0.245464
O O12 0.000000 0.500000 0.500000
O O13 0.008850 0.307113 0.245832
O O14 0.585550 0.180075 0.180513
O O15 0.178630 0.145195 0.829935
O O16 0.042145 0.775001 0.414127
#
# Coordination Sequence:
#
# PCOD9019340 Si02
#       8
#     2   1   2   2   2   2   2   2
#     4  12  25  46  69 100 142 182 232 296 345 413
#     4  12  26  44  74  98 130 178 238 288 346 426
#     4   9  20  42  72 102 138 181 221 282 342 407
#     4  12  25  46  68  96 133 179 231 291 349 407
#     4  12  25  47  68  99 137 182 235 291 345 413
#     4  10  21  44  71 100 141 177 228 284 338 412
#     4  12  25  44  69 105 138 184 237 282 348 415
#     4  11  24  43  70  99 140 181 226 285 347 406
#
# _framework density 22.126563999999998
#
# number of rings (size 3 to 8) (size 9 to 14) (size 15 to 20)
#    0.000    0.800    5.333    1.600    0.000    2.667 
#    4.800    6.000    0.000    0.000    0.000    0.000 
#    0.000    0.000    0.000    0.000    0.000    0.000 
#
# Total GULP energy -83599.560380 kJ/mol
# GULP energy per Si atom -5573.304025 kJ/mol
# Density = 2.207620 g / cm^3
# Si number density = 22.126564 Si / 1000 Ang^3
#
#
#
# Elastic Constant Matrix: (Units=GPa)
#
#
# Indices 1 2 3 4 5 6 
#
# 1 44.7101 30.2363 18.6507 2.4272 9.8441 7.3864
# 2 30.2363 150.3355 49.7764 0.7990 -0.8875 17.8900
# 3 18.6507 49.7764 102.9141 3.4387 9.6126 -0.2146
# 4 2.4272 0.7990 3.4387 47.5357 7.0800 -5.6021
# 5 9.8441 -0.8875 9.6126 7.0800 21.3258 -1.2865
# 6 7.3864 17.8900 -0.2146 -5.6021 -1.2865 22.9094
#
#
#
# Elastic Compliance Matrix: (Units=1/GPa)
#
#
# Indices 1 2 3 4 5 6 
#
# 1 0.030604 -0.004756 -0.001966 -0.000103 -0.013825 -0.006974
# 2 -0.004756 0.009784 -0.004269 -0.001005 0.004490 -0.006141
# 3 -0.001966 -0.004269 0.012585 0.000447 -0.004855 0.003922
# 4 -0.000103 -0.001005 0.000447 0.022837 -0.007416 0.005991
# 5 -0.013825 0.004490 -0.004855 -0.007416 0.058253 0.002363
# 6 -0.006974 -0.006141 0.003922 0.005991 0.002363 0.052329
#
#
# Mechanical properties :
#
#
# Convention : Reuss Voigt Hill
#
# Bulk Modulus (GPa) = 32.26647 55.03185 43.64916
# Shear Modulus (GPa) = 22.86196 31.64061 27.25128
#
# Velocity S-wave (km/s) = 3.21789 3.78561 3.51324
# Velocity P-wave (km/s) = 5.33111 6.63575 6.01888
#
# Compressibility (1/GPa) = 0.03099192
#
# Stress axis : x y z
#
# Youngs Moduli (GPa) = 32.67532 102.20306 79.46164
#
# Poissons Ratio (x) = 0.48603 0.15621
# Poissons Ratio (y) = 0.15539 0.33924
# Poissons Ratio (z) = 0.06424 0.43633
#
# Static dielectric constant tensor:
#      x y z
#    x 1.806750 -0.020560 -0.018000 
#    y -0.020560 1.817670 0.019460 
#    z -0.018000 0.019460 1.800980 
# 
# From -- ./inp_files/52980.got.cif
#   From: 2010.05.17/outbox.cif.g08.bks.cpg/sg2_27_cif.got.tgz:52980.got - 2010.06.03 11:33:40.
