data_PCOD9019445
_publ_section_title
;
Structure prediction by ZEFSAII (Michael W. Deem and Ramdas Pophale) SiO2 
 PCOD9019445
Probable space group: P -1
;
_chemical_formula_sum "Si O2"
_cell_formula_units_Z 15
_cell_length_a 5.602498
_cell_length_b 12.350304
_cell_length_c 20.191306
_cell_angle_alpha 24.220503
_cell_angle_beta 89.319629
_cell_angle_gamma 88.081144
_cell_volume 572.239472
_symmetry_space_group_name_H-M "P -1"
_symmetry_group_IT_number 2
_symmetry_cell_setting 'triclinic'
loop_
_space_group_symop_operation_xyz
x,y,z
-x,-y,-z
loop_
_atom_site_type_symbol
_atom_site_label
_atom_site_fract_x
_atom_site_fract_y
_atom_site_fract_z
Si Si1 0.548836 0.973128 0.764480
Si Si2 0.409834 0.723106 0.127256
Si Si3 0.824176 0.766706 0.542428
Si Si4 0.784736 0.294553 0.311251
Si Si5 0.500000 0.500000 0.000000
Si Si6 0.953567 0.627397 0.011611
Si Si7 0.175990 0.056605 0.833947
Si Si8 0.914365 0.384192 0.494793
O O1 0.465896 0.802571 0.798476
O O2 0.387748 0.064668 0.775165
O O3 0.693484 0.209840 0.606229
O O4 0.679093 0.680158 0.953624
O O5 0.306738 0.508540 0.296299
O O6 0.601102 0.542634 0.186527
O O7 0.216211 0.840721 0.010566
O O8 0.500000 0.000000 0.000000
O O9 0.064682 0.745522 0.599141
O O10 0.895179 0.784621 0.455153
O O11 0.693507 0.019590 0.437330
O O12 0.947996 0.403304 0.191317
O O13 0.799737 0.420425 0.001673
O O14 0.959501 0.936068 0.862854
O O15 0.141798 0.351466 0.695144
O O16 0.000000 0.500000 0.500000
#
# Coordination Sequence:
#
# PCOD9019445 Si02
#       8
#     2   2   2   2   1   2   2   2
#     4  10  23  45  66 104 145 192 243 307 368 442
#     4  12  26  45  79 112 147 193 251 317 373 449
#     4  11  28  48  75 107 148 207 243 317 377 442
#     4  11  24  52  73 109 151 190 258 307 379 452
#     4   8  20  42  66 104 134 186 250 286 374 440
#     4  10  21  44  72 102 143 190 244 305 371 444
#     4  12  24  43  76 101 144 197 243 315 375 439
#     4  12  26  47  71 106 154 196 255 307 377 447
#
# _framework density 26.212800000000001
#
# number of rings (size 3 to 8) (size 9 to 14) (size 15 to 20)
#    0.800    0.267    4.000    1.600    3.733    3.733 
#   12.000    0.000    0.000    0.000    0.000    0.000 
#    0.000    0.000    0.000    0.000    0.000    0.000 
#
# Total GULP energy -83566.798972 kJ/mol
# GULP energy per Si atom -5571.119931 kJ/mol
# Density = 2.615314 g / cm^3
# Si number density = 26.212800 Si / 1000 Ang^3
#
#
#
# Elastic Constant Matrix: (Units=GPa)
#
#
# Indices 1 2 3 4 5 6 
#
# 1 72.2991 46.6338 23.7431 -10.6774 -21.2945 10.1450
# 2 46.6338 107.2027 35.9185 -35.4897 -8.3288 -3.9224
# 3 23.7431 35.9185 105.0470 -40.7386 -15.1810 3.8036
# 4 -10.6774 -35.4897 -40.7386 56.3392 4.2936 -1.4267
# 5 -21.2945 -8.3288 -15.1810 4.2936 60.5987 -4.8569
# 6 10.1450 -3.9224 3.8036 -1.4267 -4.8569 28.3497
#
#
#
# Elastic Compliance Matrix: (Units=1/GPa)
#
#
# Indices 1 2 3 4 5 6 
#
# 1 0.024131 -0.011192 -0.002308 -0.004831 0.005977 -0.009093
# 2 -0.011192 0.017370 -0.000509 0.008755 -0.001763 0.006615
# 3 -0.002308 -0.000509 0.014115 0.009290 0.001970 -0.000333
# 4 -0.004831 0.008755 0.009290 0.029145 0.000021 0.003164
# 5 0.005977 -0.001763 0.001970 0.000021 0.018899 0.000592
# 6 -0.009093 0.006615 -0.000333 0.003164 0.000592 0.039748
#
#
# Mechanical properties :
#
#
# Convention : Reuss Voigt Hill
#
# Bulk Modulus (GPa) = 36.23327 55.23774 45.73550
# Shear Modulus (GPa) = 27.68161 40.94108 34.31135
#
# Velocity S-wave (km/s) = 3.25319 3.95634 3.62187
# Velocity P-wave (km/s) = 5.28808 6.47987 5.91407
#
# Compressibility (1/GPa) = 0.02759895
#
# Stress axis : x y z
#
# Youngs Moduli (GPa) = 41.44068 57.56896 70.84840
#
# Poissons Ratio (x) = 0.64429 0.16353
# Poissons Ratio (y) = 0.46378 0.03605
# Poissons Ratio (z) = 0.09565 0.02929
#
# Static dielectric constant tensor:
#      x y z
#    x 2.759260 -0.023680 0.160820 
#    y -0.023680 2.313790 -0.091350 
#    z 0.160820 -0.091350 2.102020 
# 
# From -- ./inp_files/604691.got.cif
#   From: 2010.05.17/outbox.cif.g08.bks.cpg/sg2_303_cif.got.tgz:604691.got - 2010.06.03 11:33:40.
