data_PCOD9019817
_publ_section_title
;
Structure prediction by ZEFSAII (Michael W. Deem and Ramdas Pophale) SiO2 
 PCOD9019817
Probable space group: P -1
;
_chemical_formula_sum "Si O2"
_cell_formula_units_Z 14
_cell_length_a 29.734994
_cell_length_b 12.375373
_cell_length_c 14.071847
_cell_angle_alpha 26.074279
_cell_angle_beta 19.627720
_cell_angle_gamma 18.457667
_cell_volume 550.140083
_symmetry_space_group_name_H-M "P -1"
_symmetry_group_IT_number 2
_symmetry_cell_setting 'triclinic'
loop_
_space_group_symop_operation_xyz
x,y,z
-x,-y,-z
loop_
_atom_site_type_symbol
_atom_site_label
_atom_site_fract_x
_atom_site_fract_y
_atom_site_fract_z
Si Si1 0.133911 0.290979 0.485395
Si Si2 0.544753 0.499139 0.523726
Si Si3 0.820285 0.395256 0.558750
Si Si4 0.192736 0.691206 0.152782
Si Si5 0.188083 0.506097 0.717082
Si Si6 0.782793 0.658735 0.006244
Si Si7 0.541531 0.425753 0.865348
O O1 0.207266 0.471442 0.215602
O O2 0.000000 0.500000 0.500000
O O3 0.303237 0.897923 0.439259
O O4 0.991049 0.351155 0.797942
O O5 0.500000 0.500000 0.500000
O O6 0.641674 0.629996 0.265916
O O7 0.357246 0.674943 0.816060
O O8 0.826131 0.487951 0.580195
O O9 0.791831 0.573920 0.373916
O O10 0.657559 0.410997 0.898067
O O11 0.000000 0.000000 0.500000
O O12 0.999187 0.091060 0.222285
O O13 0.191599 0.321911 0.945350
O O14 0.367035 0.435312 0.449323
O O15 0.692874 0.025969 0.858535
O O16 0.500000 0.500000 0.000000
#
# Coordination Sequence:
#
# PCOD9019817 Si02
#       7
#     2   2   2   2   2   2   2
#     4  12  26  45  73 100 139 194 246 288 351 422
#     4  12  27  44  67 109 145 181 248 302 347 407
#     4   9  21  38  67 100 135 178 221 282 351 419
#     4  11  22  43  72  99 145 184 227 297 357 407
#     4  10  21  45  69 105 139 181 233 280 350 441
#     4  12  25  44  75 102 140 187 232 293 351 417
#     4  10  22  42  72  98 141 180 234 273 358 428
#
# _framework density 25.448063999999999
#
# number of rings (size 3 to 8) (size 9 to 14) (size 15 to 20)
#    0.000    1.143    1.429    4.286    4.000    2.286 
#    0.000    0.714    0.000    0.000    0.000    0.000 
#    0.000    0.000    0.000    0.000    0.000    0.000 
#
# Total GULP energy -78006.632286 kJ/mol
# GULP energy per Si atom -5571.902306 kJ/mol
# Density = 2.539014 g / cm^3
# Si number density = 25.448064 Si / 1000 Ang^3
#
#
#
# Elastic Constant Matrix: (Units=GPa)
#
#
# Indices 1 2 3 4 5 6 
#
# 1 120.7196 -1.5493 -1.3649 -17.9779 34.4635 -20.4509
# 2 -1.5493 52.3138 -4.1483 11.6349 -2.9395 -4.5571
# 3 -1.3649 -4.1483 104.0293 9.2654 -5.1012 -8.5882
# 4 -17.9779 11.6349 9.2654 29.4621 7.8548 -10.2049
# 5 34.4635 -2.9395 -5.1012 7.8548 35.7014 -3.9664
# 6 -20.4509 -4.5571 -8.5882 -10.2049 -3.9664 27.5929
#
#
#
# Elastic Compliance Matrix: (Units=1/GPa)
#
#
# Indices 1 2 3 4 5 6 
#
# 1 0.029893 -0.008175 -0.002970 0.042527 -0.035928 0.030445
# 2 -0.008175 0.024108 0.002896 -0.021702 0.014271 -0.007151
# 3 -0.002970 0.002896 0.010690 -0.008195 0.006379 -0.000509
# 4 0.042527 -0.021702 -0.008195 0.106800 -0.061278 0.056075
# 5 -0.035928 0.014271 0.006379 -0.061278 0.074456 -0.034246
# 6 0.030445 -0.007151 -0.000509 0.056075 -0.034246 0.073282
#
#
# Mechanical properties :
#
#
# Convention : Reuss Voigt Hill
#
# Bulk Modulus (GPa) = 20.74950 29.21532 24.98241
# Shear Modulus (GPa) = 14.21299 37.49293 25.85296
#
# Velocity S-wave (km/s) = 2.36584 3.84254 3.19079
# Velocity P-wave (km/s) = 3.95403 5.58499 4.83872
#
# Compressibility (1/GPa) = 0.04819393
#
# Stress axis : x y z
#
# Youngs Moduli (GPa) = 33.45278 41.47921 93.54661
#
# Poissons Ratio (x) = 0.33910 0.27782
# Poissons Ratio (y) = 0.27348 -0.27095
# Poissons Ratio (z) = 0.09935 -0.12014
#
# Static dielectric constant tensor:
#      x y z
#    x 1.839510 0.002810 0.519610 
#    y 0.002810 1.906950 -0.045720 
#    z 0.519610 -0.045720 1.489750 
# 
# From -- ./inp_files/394948.got.cif
#   From: 2010.05.17/outbox.cif.g08.bks.cpg/sg2_198_cif.got.tgz:394948.got - 2010.06.03 11:33:40.
