data_PCOD9019048
_publ_section_title
;
Structure prediction by ZEFSAII (Michael W. Deem and Ramdas Pophale) SiO2 
 PCOD9019048
Probable space group: P -1
;
_chemical_formula_sum "Si O2"
_cell_formula_units_Z 14
_cell_length_a 11.769589
_cell_length_b 7.196852
_cell_length_c 10.799756
_cell_angle_alpha 122.801761
_cell_angle_beta 129.332012
_cell_angle_gamma 79.671464
_cell_volume 575.500907
_symmetry_space_group_name_H-M "P -1"
_symmetry_group_IT_number 2
_symmetry_cell_setting 'triclinic'
loop_
_space_group_symop_operation_xyz
x,y,z
-x,-y,-z
loop_
_atom_site_type_symbol
_atom_site_label
_atom_site_fract_x
_atom_site_fract_y
_atom_site_fract_z
Si Si1 0.633934 0.196270 0.825521
Si Si2 0.751011 0.651402 0.186502
Si Si3 0.667675 0.099063 0.206663
Si Si4 0.224627 0.391084 0.520991
Si Si5 0.327374 0.943753 0.461898
Si Si6 0.896296 0.127339 0.145602
Si Si7 0.996941 0.706579 0.162416
O O1 0.479431 0.002362 0.668747
O O2 0.650188 0.211009 0.694505
O O3 0.625480 0.430103 0.970608
O O4 0.783528 0.135328 0.958863
O O5 0.791633 0.617490 0.343443
O O6 0.888089 0.657747 0.187996
O O7 0.704771 0.887540 0.228119
O O8 0.686437 0.354559 0.364461
O O9 0.795299 0.144229 0.202348
O O10 0.500000 0.000000 0.000000
O O11 0.307997 0.187514 0.482686
O O12 0.944352 0.683338 0.678730
O O13 0.167101 0.822721 0.365635
O O14 0.941431 0.890232 0.106604
O O15 0.000000 0.500000 0.000000
#
# Coordination Sequence:
#
# PCOD9019048 Si02
#       7
#     2   2   2   2   2   2   2
#     4  11  22  45  68  96 134 182 219 280 337 400
#     4  11  24  42  75  94 139 180 220 279 337 389
#     4  11  24  40  67 105 136 172 227 273 334 400
#     4  11  24  47  66 100 138 179 223 275 334 404
#     4  10  24  41  70  95 135 180 224 270 348 392
#     4  10  24  43  66  96 137 175 226 275 331 399
#     4  10  21  44  67  99 131 176 230 273 326 405
#
# _framework density 24.326632
#
# number of rings (size 3 to 8) (size 9 to 14) (size 15 to 20)
#    0.000    1.429    2.857    1.286    2.000    8.571 
#    0.000    0.714    0.000    0.000    0.000    0.000 
#    0.000    0.000    0.000    0.000    0.000    0.000 
#
# Total GULP energy -78398.725505 kJ/mol
# GULP energy per Si atom -5599.908965 kJ/mol
# Density = 2.427126 g / cm^3
# Si number density = 24.326632 Si / 1000 Ang^3
#
#
#
# Elastic Constant Matrix: (Units=GPa)
#
#
# Indices 1 2 3 4 5 6 
#
# 1 70.1103 19.6077 29.4263 -3.8570 0.6063 -8.7632
# 2 19.6077 135.7766 66.3363 3.1349 12.4668 -2.2979
# 3 29.4263 66.3363 170.3354 -10.9431 19.4684 -7.7152
# 4 -3.8570 3.1349 -10.9431 39.8040 -8.9974 -1.6559
# 5 0.6063 12.4668 19.4684 -8.9974 48.4400 3.7728
# 6 -8.7632 -2.2979 -7.7152 -1.6559 3.7728 29.9068
#
#
#
# Elastic Compliance Matrix: (Units=1/GPa)
#
#
# Indices 1 2 3 4 5 6 
#
# 1 0.016095 -0.001360 -0.002081 0.001476 0.000945 0.004037
# 2 -0.001360 0.009406 -0.003431 -0.002150 -0.001385 -0.000505
# 3 -0.002081 -0.003431 0.007994 0.001861 -0.002079 0.001554
# 4 0.001476 -0.002150 0.001861 0.027075 0.004687 0.001655
# 5 0.000945 -0.001385 -0.002079 0.004687 0.022928 -0.002999
# 6 0.004037 -0.000505 0.001554 0.001655 -0.002999 0.035452
#
#
# Mechanical properties :
#
#
# Convention : Reuss Voigt Hill
#
# Bulk Modulus (GPa) = 50.63100 67.44031 59.03565
# Shear Modulus (GPa) = 35.89939 41.02031 38.45985
#
# Velocity S-wave (km/s) = 3.84568 4.11083 3.98046
# Velocity P-wave (km/s) = 6.37002 7.09330 6.74137
#
# Compressibility (1/GPa) = 0.01975075
#
# Stress axis : x y z
#
# Youngs Moduli (GPa) = 62.13224 106.31636 125.09371
#
# Poissons Ratio (x) = 0.14459 0.26033
# Poissons Ratio (y) = 0.08450 0.42918
# Poissons Ratio (z) = 0.12930 0.36476
#
# Static dielectric constant tensor:
#      x y z
#    x 1.974020 0.030080 -0.016300 
#    y 0.030080 1.948880 0.008280 
#    z -0.016300 0.008280 1.943770 
# 
# From -- ./inp_files/529176.got.cif
#   From: 2010.05.17/outbox.cif.g08.bks.cpg/sg2_265_cif.got.tgz:529176.got - 2010.06.03 11:33:40.
