data_PCOD9019016
_publ_section_title
;
Structure prediction by ZEFSAII (Michael W. Deem and Ramdas Pophale) SiO2 
 PCOD9019016
Probable space group: P -1
;
_chemical_formula_sum "Si O2"
_cell_formula_units_Z 13
_cell_length_a 10.106628
_cell_length_b 8.454022
_cell_length_c 10.430506
_cell_angle_alpha 41.547622
_cell_angle_beta 122.298920
_cell_angle_gamma 123.063015
_cell_volume 482.465684
_symmetry_space_group_name_H-M "P -1"
_symmetry_group_IT_number 2
_symmetry_cell_setting 'triclinic'
loop_
_space_group_symop_operation_xyz
x,y,z
-x,-y,-z
loop_
_atom_site_type_symbol
_atom_site_label
_atom_site_fract_x
_atom_site_fract_y
_atom_site_fract_z
Si Si1 0.272655 0.462251 0.802885
Si Si2 0.590216 0.733690 0.492249
Si Si3 0.101237 0.242338 0.515917
Si Si4 0.596680 0.405939 0.925655
Si Si5 0.000000 0.000000 0.000000
Si Si6 0.103023 0.758285 0.837380
Si Si7 0.269606 0.785193 0.381664
O O1 0.401998 0.340967 0.869486
O O2 0.097589 0.277390 0.830373
O O3 0.276283 0.718892 0.575002
O O4 0.338862 0.525753 0.940652
O O5 0.500000 0.500000 0.500000
O O6 0.755582 0.837297 0.440504
O O7 0.636594 0.636640 0.710395
O O8 0.451440 0.870549 0.365861
O O9 0.183715 0.506277 0.456305
O O10 0.966772 0.264852 0.330255
O O11 0.052500 0.995521 0.727685
O O12 0.709185 0.233176 0.041844
O O13 0.830394 0.034124 0.829483
O O14 0.000000 0.500000 0.000000
#
# Coordination Sequence:
#
# PCOD9019016 Si02
#       7
#     2   2   2   2   1   2   2
#     4  10  24  44  64  98 135 181 222 286 328 401
#     4   9  19  41  66  96 136 172 217 281 340 403
#     4  10  22  40  63 100 138 170 214 283 335 395
#     4  10  21  44  67  94 141 173 226 271 346 407
#     4  12  24  42  70  96 130 188 230 276 334 400
#     4  11  22  38  66 102 134 175 220 275 339 404
#     4  10  23  43  65  97 136 173 229 276 336 400
#
# _framework density 26.944922999999999
#
# number of rings (size 3 to 8) (size 9 to 14) (size 15 to 20)
#    0.000    1.846    1.538    1.385    2.154    2.462 
#    2.769    4.615    0.000    0.000    0.000    0.000 
#    0.000    0.000    0.000    0.000    0.000    0.000 
#
# Total GULP energy -72515.171673 kJ/mol
# GULP energy per Si atom -5578.090129 kJ/mol
# Density = 2.688360 g / cm^3
# Si number density = 26.944923 Si / 1000 Ang^3
#
#
#
# Elastic Constant Matrix: (Units=GPa)
#
#
# Indices 1 2 3 4 5 6 
#
# 1 110.9898 4.1645 55.4804 5.7997 31.0404 23.1579
# 2 4.1645 84.9540 1.4312 3.4552 -2.9279 5.3657
# 3 55.4804 1.4312 158.1539 9.2392 51.2922 -6.9778
# 4 5.7997 3.4552 9.2392 42.4706 12.2283 -1.1589
# 5 31.0404 -2.9279 51.2922 12.2283 38.1883 10.1711
# 6 23.1579 5.3657 -6.9778 -1.1589 10.1711 36.4142
#
#
#
# Elastic Compliance Matrix: (Units=1/GPa)
#
#
# Indices 1 2 3 4 5 6 
#
# 1 0.013830 -0.000164 -0.004149 -0.000261 -0.003293 -0.008655
# 2 -0.000164 0.012285 -0.001689 -0.002131 0.004954 -0.003481
# 3 -0.004149 -0.001689 0.014995 0.003897 -0.021298 0.011833
# 4 -0.000261 -0.002131 0.003897 0.027623 -0.015764 0.006509
# 5 -0.003293 0.004954 -0.021298 -0.015764 0.068877 -0.022457
# 6 -0.008655 -0.003481 0.011833 0.006509 -0.022457 0.042226
#
#
# Mechanical properties :
#
#
# Convention : Reuss Voigt Hill
#
# Bulk Modulus (GPa) = 34.35729 52.91668 43.63698
# Shear Modulus (GPa) = 24.80855 42.94939 33.87897
#
# Velocity S-wave (km/s) = 3.03762 3.99679 3.54975
# Velocity P-wave (km/s) = 5.00814 6.40160 5.74726
#
# Compressibility (1/GPa) = 0.02910591
#
# Stress axis : x y z
#
# Youngs Moduli (GPa) = 72.30529 81.40125 66.68778
#
# Poissons Ratio (x) = 0.01338 0.27667
# Poissons Ratio (y) = 0.01188 0.11265
# Poissons Ratio (z) = 0.29997 0.13750
#
# Static dielectric constant tensor:
#      x y z
#    x 2.190750 0.105150 -0.130790 
#    y 0.105150 1.749940 0.056030 
#    z -0.130790 0.056030 2.097710 
# 
# From -- ./inp_files/422651.got.cif
#   From: 2010.05.17/outbox.cif.g08.bks.cpg/sg2_212_cif.got.tgz:422651.got - 2010.06.03 11:33:40.
