data_PCOD9019852
_publ_section_title
;
Structure prediction by ZEFSAII (Michael W. Deem and Ramdas Pophale) SiO2 
 PCOD9019852
Probable space group: P -1
;
_chemical_formula_sum "Si O2"
_cell_formula_units_Z 16
_cell_length_a 6.977020
_cell_length_b 9.791108
_cell_length_c 11.555481
_cell_angle_alpha 116.536780
_cell_angle_beta 81.084504
_cell_angle_gamma 89.595657
_cell_volume 695.086075
_symmetry_space_group_name_H-M "P -1"
_symmetry_group_IT_number 2
_symmetry_cell_setting 'triclinic'
loop_
_space_group_symop_operation_xyz
x,y,z
-x,-y,-z
loop_
_atom_site_type_symbol
_atom_site_label
_atom_site_fract_x
_atom_site_fract_y
_atom_site_fract_z
Si Si1 0.088086 0.141044 0.481088
Si Si2 0.327246 0.647715 0.682825
Si Si3 0.468163 0.344731 0.105516
Si Si4 0.222411 0.659576 0.288266
Si Si5 0.538108 0.708523 0.448467
Si Si6 0.875904 0.354712 0.962174
Si Si7 0.999673 0.126000 0.218548
Si Si8 0.190618 0.124952 0.965420
O O1 0.951918 0.293196 0.589536
O O2 0.078891 0.116040 0.335561
O O3 0.304504 0.170478 0.509400
O O4 0.000000 0.000000 0.500000
O O5 0.454029 0.713690 0.798982
O O6 0.404873 0.700150 0.571893
O O7 0.358996 0.465123 0.628581
O O8 0.101219 0.704746 0.730870
O O9 0.300941 0.481668 0.196246
O O10 0.660666 0.399677 0.048473
O O11 0.378681 0.218620 0.986657
O O12 0.405933 0.732185 0.356078
O O13 0.151905 0.713073 0.188517
O O14 0.002724 0.234273 0.983278
O O15 0.000000 0.500000 0.000000
O O16 0.823249 0.019029 0.170925
O O17 0.153565 0.082537 0.086582
#
# Coordination Sequence:
#
# PCOD9019852 Si02
#       8
#     2   2   2   2   2   2   2   2
#     4  12  27  47  70 102 141 183 223 284 350 413
#     4  10  21  45  70 104 132 176 231 283 343 402
#     4  11  24  43  70 103 133 181 228 282 344 400
#     4  11  25  41  69 102 134 179 225 277 344 399
#     4  10  24  44  72 101 138 175 228 286 341 412
#     4  12  25  43  68 103 140 177 230 285 335 411
#     4  11  24  47  68 102 140 180 232 281 344 407
#     4  11  25  45  71  98 141 186 226 284 339 408
#
# _framework density 23.018730000000001
#
# number of rings (size 3 to 8) (size 9 to 14) (size 15 to 20)
#    0.000    1.000    3.750    1.875    5.250    2.500 
#    4.500    0.000    0.000    0.000    0.000    0.000 
#    0.000    0.000    0.000    0.000    0.000    0.000 
#
# Total GULP energy -89474.794092 kJ/mol
# GULP energy per Si atom -5592.174631 kJ/mol
# Density = 2.296634 g / cm^3
# Si number density = 23.018730 Si / 1000 Ang^3
#
#
#
# Elastic Constant Matrix: (Units=GPa)
#
#
# Indices 1 2 3 4 5 6 
#
# 1 93.2928 37.5585 46.4446 -1.9138 31.0214 24.2154
# 2 37.5585 59.5619 22.9078 -4.5890 9.5436 15.7290
# 3 46.4446 22.9078 128.6436 -11.5196 38.7037 12.4606
# 4 -1.9138 -4.5890 -11.5196 27.5326 -13.0738 5.5070
# 5 31.0214 9.5436 38.7037 -13.0738 43.5750 4.4545
# 6 24.2154 15.7290 12.4606 5.5070 4.4545 34.4259
#
#
#
# Elastic Compliance Matrix: (Units=1/GPa)
#
#
# Indices 1 2 3 4 5 6 
#
# 1 0.021343 -0.009047 -0.002191 -0.005099 -0.012008 -0.007717
# 2 -0.009047 0.024286 -0.001382 0.006315 0.004843 -0.005869
# 3 -0.002191 -0.001382 0.011353 0.000846 -0.007860 -0.001055
# 4 -0.005099 0.006315 0.000846 0.047101 0.016576 -0.009284
# 5 -0.012008 0.004843 -0.007860 0.016576 0.042294 0.000954
# 6 -0.007717 -0.005869 -0.001055 -0.009284 0.000954 0.038901
#
#
# Mechanical properties :
#
#
# Convention : Reuss Voigt Hill
#
# Bulk Modulus (GPa) = 31.50291 55.03557 43.26924
# Shear Modulus (GPa) = 22.61442 32.74587 27.68015
#
# Velocity S-wave (km/s) = 3.13778 3.77580 3.47148
# Velocity P-wave (km/s) = 5.18103 6.55513 5.90817
#
# Compressibility (1/GPa) = 0.03174310
#
# Stress axis : x y z
#
# Youngs Moduli (GPa) = 46.85353 41.17644 88.08104
#
# Poissons Ratio (x) = 0.37252 0.19299
# Poissons Ratio (y) = 0.42388 0.12169
# Poissons Ratio (z) = 0.10266 0.05689
#
# Static dielectric constant tensor:
#      x y z
#    x 1.855460 -0.021480 -0.036680 
#    y -0.021480 1.906880 0.042060 
#    z -0.036680 0.042060 1.885490 
# 
# From -- ./inp_files/365214.got.cif
#   From: 2010.05.17/outbox.cif.g08.bks.cpg/sg2_183_cif.got.tgz:365214.got - 2010.06.03 11:33:40.
