data_PCOD9019437
_publ_section_title
;
Structure prediction by ZEFSAII (Michael W. Deem and Ramdas Pophale) SiO2 
 PCOD9019437
Probable space group: P -1
;
_chemical_formula_sum "Si O2"
_cell_formula_units_Z 16
_cell_length_a 13.578744
_cell_length_b 5.364193
_cell_length_c 11.619536
_cell_angle_alpha 82.640049
_cell_angle_beta 55.475288
_cell_angle_gamma 80.705277
_cell_volume 687.445603
_symmetry_space_group_name_H-M "P -1"
_symmetry_group_IT_number 2
_symmetry_cell_setting 'triclinic'
loop_
_space_group_symop_operation_xyz
x,y,z
-x,-y,-z
loop_
_atom_site_type_symbol
_atom_site_label
_atom_site_fract_x
_atom_site_fract_y
_atom_site_fract_z
Si Si1 0.110720 0.286952 0.419808
Si Si2 0.532576 0.162424 0.577091
Si Si3 0.343166 0.594376 0.715778
Si Si4 0.767261 0.322876 0.808561
Si Si5 0.939784 0.251140 0.092782
Si Si6 0.590077 0.086999 0.793708
Si Si7 0.554230 0.360832 0.118762
Si Si8 0.994946 0.991037 0.310791
O O1 0.218496 0.441902 0.299490
O O2 0.000000 0.500000 0.500000
O O3 0.113789 0.126952 0.545233
O O4 0.059515 0.134645 0.358747
O O5 0.405314 0.305650 0.698012
O O6 0.619629 0.338822 0.442237
O O7 0.604109 0.061043 0.648206
O O8 0.500000 0.000000 0.500000
O O9 0.203678 0.671783 0.827910
O O10 0.413270 0.716524 0.766702
O O11 0.711019 0.106550 0.783812
O O12 0.898074 0.227797 0.779323
O O13 0.675975 0.389597 0.968247
O O14 0.960518 0.171490 0.216874
O O15 0.000000 0.500000 0.000000
O O16 0.000000 0.000000 0.000000
O O17 0.522478 0.367601 0.843574
O O18 0.512626 0.856776 0.884840
#
# Coordination Sequence:
#
# PCOD9019437 Si02
#       8
#     2   2   2   2   2   2   2   2
#     4   9  22  43  70  97 136 186 238 297 357 416
#     4  10  21  44  72 101 142 190 243 302 364 426
#     4  10  24  44  70 105 141 193 240 303 364 435
#     4  11  24  41  72 100 142 190 233 301 369 430
#     4  12  30  49  75 112 150 199 250 301 373 447
#     4  11  25  42  67 106 141 183 240 292 368 439
#     4  11  24  42  68 101 145 180 234 297 364 439
#     4  10  24  46  70 102 144 185 251 296 360 436
#
# _framework density 23.274569
#
# number of rings (size 3 to 8) (size 9 to 14) (size 15 to 20)
#    0.000    1.500    1.250    1.500   10.500    4.000 
#    0.000    1.250    0.000    0.000    0.000    0.000 
#    0.000    0.000    0.000    0.000    0.000    0.000 
#
# Total GULP energy -89325.149135 kJ/mol
# GULP energy per Si atom -5582.821821 kJ/mol
# Density = 2.322159 g / cm^3
# Si number density = 23.274569 Si / 1000 Ang^3
#
#
#
# Elastic Constant Matrix: (Units=GPa)
#
#
# Indices 1 2 3 4 5 6 
#
# 1 91.4682 30.0655 44.8690 3.2491 -6.9768 -16.6130
# 2 30.0655 118.3581 47.4367 -3.8643 -17.4027 3.6498
# 3 44.8690 47.4367 122.3884 -14.3068 2.8483 -6.4321
# 4 3.2491 -3.8643 -14.3068 51.5839 -10.6259 2.9222
# 5 -6.9768 -17.4027 2.8483 -10.6259 47.3560 -1.3099
# 6 -16.6130 3.6498 -6.4321 2.9222 -1.3099 29.8035
#
#
#
# Elastic Compliance Matrix: (Units=1/GPa)
#
#
# Indices 1 2 3 4 5 6 
#
# 1 0.015739 -0.002197 -0.004827 -0.002671 0.001433 0.008325
# 2 -0.002197 0.011239 -0.003705 0.000998 0.004161 -0.003315
# 3 -0.004827 -0.003705 0.011755 0.002850 -0.002142 -0.000073
# 4 -0.002671 0.000998 0.002850 0.021521 0.004550 -0.002906
# 5 0.001433 0.004161 -0.002142 0.004550 0.024019 0.000436
# 6 0.008325 -0.003315 -0.000073 -0.002906 0.000436 0.038888
#
#
# Mechanical properties :
#
#
# Convention : Reuss Voigt Hill
#
# Bulk Modulus (GPa) = 57.88449 64.10635 60.99542
# Shear Modulus (GPa) = 33.24989 39.73825 36.49407
#
# Velocity S-wave (km/s) = 3.78377 4.13651 3.96407
# Velocity P-wave (km/s) = 6.63427 7.10054 6.87136
#
# Compressibility (1/GPa) = 0.01727578
#
# Stress axis : x y z
#
# Youngs Moduli (GPa) = 63.53749 88.97899 85.06749
#
# Poissons Ratio (x) = 0.19547 0.41059
# Poissons Ratio (y) = 0.13958 0.31518
# Poissons Ratio (z) = 0.30667 0.32967
#
# Static dielectric constant tensor:
#      x y z
#    x 1.902610 -0.053010 -0.016550 
#    y -0.053010 1.992990 0.005660 
#    z -0.016550 0.005660 1.942310 
# 
# From -- ./inp_files/441159.got.cif
#   From: 2010.05.17/outbox.cif.g08.bks.cpg/sg2_221_cif.got.tgz:441159.got - 2010.06.03 11:33:40.
