data_PCOD9019819
_publ_section_title
;
Structure prediction by ZEFSAII (Michael W. Deem and Ramdas Pophale) SiO2 
 PCOD9019819
Probable space group: P -1
;
_chemical_formula_sum "Si O2"
_cell_formula_units_Z 14
_cell_length_a 7.627512
_cell_length_b 5.018010
_cell_length_c 17.595095
_cell_angle_alpha 102.311156
_cell_angle_beta 62.273086
_cell_angle_gamma 120.206068
_cell_volume 514.990100
_symmetry_space_group_name_H-M "P -1"
_symmetry_group_IT_number 2
_symmetry_cell_setting 'triclinic'
loop_
_space_group_symop_operation_xyz
x,y,z
-x,-y,-z
loop_
_atom_site_type_symbol
_atom_site_label
_atom_site_fract_x
_atom_site_fract_y
_atom_site_fract_z
Si Si1 0.628159 0.439172 0.303022
Si Si2 0.803710 0.163287 0.587435
Si Si3 0.729610 0.905693 0.093151
Si Si4 0.731094 0.796915 0.446267
Si Si5 0.273539 0.690156 0.011041
Si Si6 0.366447 0.535815 0.242189
Si Si7 0.977108 0.698324 0.822501
O O1 0.710192 0.747325 0.356851
O O2 0.561104 0.479896 0.234577
O O3 0.825449 0.347316 0.258757
O O4 0.396833 0.162734 0.363922
O O5 0.766399 0.111831 0.500548
O O6 0.752484 0.406099 0.657502
O O7 0.046528 0.215461 0.568702
O O8 0.682914 0.591837 0.042069
O O9 0.501678 0.834193 0.179687
O O10 0.917160 0.008944 0.126439
O O11 0.814054 0.191955 0.036005
O O12 0.500000 0.500000 0.500000
O O13 0.146745 0.579587 0.109631
O O14 0.500000 0.000000 0.000000
O O15 0.185883 0.292065 0.208158
#
# Coordination Sequence:
#
# PCOD9019819 Si02
#       7
#     2   2   2   2   2   2   2
#     4  11  24  45  70 110 148 203 254 314 390 460
#     4  10  21  45  69 108 152 191 253 319 378 463
#     4  12  27  52  76 115 156 211 266 326 399 470
#     4   9  20  42  76 102 150 197 245 319 381 465
#     4  12  27  52  79 113 158 208 268 331 394 468
#     4  12  26  44  76 110 152 198 261 318 388 464
#     4  12  26  49  77 109 158 204 261 327 390 464
#
# _framework density 27.184992000000001
#
# number of rings (size 3 to 8) (size 9 to 14) (size 15 to 20)
#    0.000    0.857    4.286    2.143    0.000    2.857 
#    2.571    6.429    0.000    0.000    0.000    0.000 
#    0.000    0.000    0.000    0.000    0.000    0.000 
#
# Total GULP energy -78414.916599 kJ/mol
# GULP energy per Si atom -5601.065471 kJ/mol
# Density = 2.712312 g / cm^3
# Si number density = 27.184992 Si / 1000 Ang^3
#
#
#
# Elastic Constant Matrix: (Units=GPa)
#
#
# Indices 1 2 3 4 5 6 
#
# 1 133.6110 42.4023 45.4321 12.1177 25.7665 36.8572
# 2 42.4023 126.5597 55.1662 10.6755 18.6341 12.5085
# 3 45.4321 55.1662 111.5863 -0.4472 -9.1374 6.6556
# 4 12.1177 10.6755 -0.4472 52.2760 16.9903 3.4012
# 5 25.7665 18.6341 -9.1374 16.9903 52.3141 6.9682
# 6 36.8572 12.5085 6.6556 3.4012 6.9682 51.6211
#
#
#
# Elastic Compliance Matrix: (Units=1/GPa)
#
#
# Indices 1 2 3 4 5 6 
#
# 1 0.012456 -0.000437 -0.004885 -0.000513 -0.005686 -0.007357
# 2 -0.000437 0.011380 -0.005753 -0.000755 -0.004458 -0.001052
# 3 -0.004885 -0.005753 0.014208 0.000142 0.006604 0.002149
# 4 -0.000513 -0.000755 0.000142 0.021495 -0.006432 -0.000017
# 5 -0.005686 -0.004458 0.006604 -0.006432 0.026597 0.001122
# 6 -0.007357 -0.001052 0.002149 -0.000017 0.001122 0.024452
#
#
# Mechanical properties :
#
#
# Convention : Reuss Voigt Hill
#
# Bulk Modulus (GPa) = 62.91373 73.08425 67.99899
# Shear Modulus (GPa) = 36.22240 46.49267 41.35754
#
# Velocity S-wave (km/s) = 3.65422 4.13998 3.90466
# Velocity P-wave (km/s) = 6.40293 7.05656 6.73767
#
# Compressibility (1/GPa) = 0.01589478
#
# Stress axis : x y z
#
# Youngs Moduli (GPa) = 80.27957 87.87672 70.38276
#
# Poissons Ratio (x) = 0.03836 0.34380
# Poissons Ratio (y) = 0.03505 0.40494
# Poissons Ratio (z) = 0.39214 0.50559
#
# Static dielectric constant tensor:
#      x y z
#    x 2.162030 -0.004440 0.005090 
#    y -0.004440 2.087490 0.015650 
#    z 0.005090 0.015650 2.204370 
# 
# From -- ./inp_files/580997.got.cif
#   From: 2010.05.17/outbox.cif.g08.bks.cpg/sg2_291_cif.got.tgz:580997.got - 2010.06.03 11:33:40.
