data_PCOD9019259
_publ_section_title
;
Structure prediction by ZEFSAII (Michael W. Deem and Ramdas Pophale) SiO2 
 PCOD9019259
Probable space group: P -1
;
_chemical_formula_sum "Si O2"
_cell_formula_units_Z 13
_cell_length_a 9.902280
_cell_length_b 8.897885
_cell_length_c 7.710296
_cell_angle_alpha 76.272026
_cell_angle_beta 85.137489
_cell_angle_gamma 126.500601
_cell_volume 507.807254
_symmetry_space_group_name_H-M "P -1"
_symmetry_group_IT_number 2
_symmetry_cell_setting 'triclinic'
loop_
_space_group_symop_operation_xyz
x,y,z
-x,-y,-z
loop_
_atom_site_type_symbol
_atom_site_label
_atom_site_fract_x
_atom_site_fract_y
_atom_site_fract_z
Si Si1 0.665020 0.819012 0.323530
Si Si2 0.582881 0.578451 0.758364
Si Si3 0.094323 0.574658 0.785846
Si Si4 0.445186 0.770976 0.873653
Si Si5 0.367888 0.814250 0.259369
Si Si6 0.000000 0.500000 0.500000
Si Si7 0.986275 0.838564 0.669959
O O1 0.628962 0.712771 0.541502
O O2 0.568587 0.644554 0.237849
O O3 0.552493 0.892859 0.298935
O O4 0.870723 0.013103 0.238661
O O5 0.499694 0.635376 0.887997
O O6 0.778795 0.665856 0.771717
O O7 0.294181 0.690223 0.772666
O O8 0.996018 0.392917 0.712515
O O9 0.051879 0.707569 0.646601
O O10 0.000000 0.500000 0.000000
O O11 0.621846 0.996221 0.765765
O O12 0.374448 0.773182 0.067947
O O13 0.211759 0.620995 0.427586
O O14 0.000000 0.000000 0.500000
#
# Coordination Sequence:
#
# PCOD9019259 Si02
#       7
#     2   2   2   2   2   1   2
#     4  10  21  44  70 102 145 198 257 304 384 473
#     4  10  23  42  70 105 145 195 251 320 384 450
#     4  12  25  48  74 115 154 199 259 329 385 462
#     4  11  25  46  72 108 155 196 257 325 389 459
#     4  11  24  45  72 106 147 202 259 318 390 468
#     4  12  26  40  80 108 148 200 264 314 392 454
#     4  10  23  44  76 106 153 203 256 318 388 473
#
# _framework density 25.600265
#
# number of rings (size 3 to 8) (size 9 to 14) (size 15 to 20)
#    0.000    1.231    3.077    1.846    4.308    4.308 
#    0.000    0.769    0.000    0.000    0.000    0.000 
#    0.000    0.000    0.000    0.000    0.000    0.000 
#
# Total GULP energy -72423.012368 kJ/mol
# GULP energy per Si atom -5571.000951 kJ/mol
# Density = 2.554200 g / cm^3
# Si number density = 25.600265 Si / 1000 Ang^3
#
#
#
# Elastic Constant Matrix: (Units=GPa)
#
#
# Indices 1 2 3 4 5 6 
#
# 1 150.1170 68.1749 18.5395 7.4494 6.2674 31.4161
# 2 68.1749 148.4745 5.6602 -6.2094 -1.5992 26.1762
# 3 18.5395 5.6602 76.3432 7.9359 3.3945 30.0127
# 4 7.4494 -6.2094 7.9359 28.6530 5.1801 16.1248
# 5 6.2674 -1.5992 3.3945 5.1801 38.3702 0.4546
# 6 31.4161 26.1762 30.0127 16.1248 0.4546 64.3431
#
#
#
# Elastic Compliance Matrix: (Units=1/GPa)
#
#
# Indices 1 2 3 4 5 6 
#
# 1 0.009085 -0.003855 -0.000893 -0.001555 -0.001331 -0.002052
# 2 -0.003855 0.009297 0.001169 0.004671 0.000326 -0.003618
# 3 -0.000893 0.001169 0.016278 0.000570 -0.001230 -0.007767
# 4 -0.001555 0.004671 0.000570 0.044132 -0.005413 -0.012429
# 5 -0.001331 0.000326 -0.001230 -0.005413 0.027106 0.002256
# 6 -0.002052 -0.003618 -0.007767 -0.012429 0.002256 0.024737
#
#
# Mechanical properties :
#
#
# Convention : Reuss Voigt Hill
#
# Bulk Modulus (GPa) = 36.36015 62.18709 49.27362
# Shear Modulus (GPa) = 34.02322 45.11060 39.56691
#
# Velocity S-wave (km/s) = 3.64953 4.20231 3.93563
# Velocity P-wave (km/s) = 5.65620 6.92027 6.31992
#
# Compressibility (1/GPa) = 0.02750263
#
# Stress axis : x y z
#
# Youngs Moduli (GPa) = 110.07662 107.55686 61.43410
#
# Poissons Ratio (x) = 0.41462 0.05485
# Poissons Ratio (y) = 0.42434 -0.07184
# Poissons Ratio (z) = 0.09828 -0.12577
#
# Static dielectric constant tensor:
#      x y z
#    x 2.042340 -0.056230 -0.029650 
#    y -0.056230 1.718210 -0.230820 
#    z -0.029650 -0.230820 2.021990 
# 
# From -- ./inp_files/152942.got.cif
#   From: 2010.05.17/outbox.cif.g08.bks.cpg/sg2_77_cif.got.tgz:152942.got - 2010.06.03 11:33:40.
