data_PCOD9019114
_publ_section_title
;
Structure prediction by ZEFSAII (Michael W. Deem and Ramdas Pophale) SiO2 
 PCOD9019114
Probable space group: P -1
;
_chemical_formula_sum "Si O2"
_cell_formula_units_Z 14
_cell_length_a 14.292852
_cell_length_b 10.921217
_cell_length_c 7.804744
_cell_angle_alpha 50.553874
_cell_angle_beta 81.043362
_cell_angle_gamma 43.006646
_cell_volume 519.732064
_symmetry_space_group_name_H-M "P -1"
_symmetry_group_IT_number 2
_symmetry_cell_setting 'triclinic'
loop_
_space_group_symop_operation_xyz
x,y,z
-x,-y,-z
loop_
_atom_site_type_symbol
_atom_site_label
_atom_site_fract_x
_atom_site_fract_y
_atom_site_fract_z
Si Si1 0.975595 0.776892 0.957985
Si Si2 0.160548 0.258696 0.539173
Si Si3 0.511017 0.275227 0.885162
Si Si4 0.077692 0.027223 0.814251
Si Si5 0.330971 0.033648 0.213797
Si Si6 0.830765 0.393972 0.264932
Si Si7 0.560673 0.526212 0.804197
O O1 0.120883 0.442498 0.245249
O O2 0.032698 0.794179 0.759563
O O3 0.955795 0.891992 0.046023
O O4 0.807909 0.908369 0.844848
O O5 0.144074 0.097887 0.640973
O O6 0.000000 0.500000 0.500000
O O7 0.338147 0.025322 0.791540
O O8 0.329138 0.495942 0.820611
O O9 0.552779 0.403795 0.764741
O O10 0.520694 0.189758 0.770169
O O11 0.426899 0.850813 0.521990
O O12 0.245269 0.687239 0.053600
O O13 0.243904 0.323690 0.959661
O O14 0.910221 0.236924 0.564570
O O15 0.500000 0.500000 0.000000
#
# Coordination Sequence:
#
# PCOD9019114 Si02
#       7
#     2   2   2   2   2   2   2
#     4  11  21  39  71  98 136 183 231 275 336 416
#     4   9  16  36  64  93 125 174 222 269 321 402
#     4  11  24  44  68 102 144 172 224 300 344 391
#     4  10  21  44  68  95 137 188 230 275 340 417
#     4  12  22  43  74 101 131 184 236 276 343 418
#     4  12  26  41  72 111 137 169 233 296 347 395
#     4  11  25  45  72  98 135 188 239 274 334 429
#
# _framework density 26.936955000000001
#
# number of rings (size 3 to 8) (size 9 to 14) (size 15 to 20)
#    0.000    1.143    5.714    3.000    4.000    0.571 
#    2.571    3.571    0.000    0.000    0.000    0.000 
#    0.000    0.000    0.000    0.000    0.000    0.000 
#
# Total GULP energy -78460.849560 kJ/mol
# GULP energy per Si atom -5604.346397 kJ/mol
# Density = 2.687565 g / cm^3
# Si number density = 26.936955 Si / 1000 Ang^3
#
#
#
# Elastic Constant Matrix: (Units=GPa)
#
#
# Indices 1 2 3 4 5 6 
#
# 1 72.7967 30.6274 40.5319 -7.6657 10.7295 -9.0428
# 2 30.6274 111.5332 42.6095 -2.5468 0.4473 -7.9100
# 3 40.5319 42.6095 218.0589 -3.6620 -1.9693 -11.3551
# 4 -7.6657 -2.5468 -3.6620 51.5517 -10.8120 -3.0959
# 5 10.7295 0.4473 -1.9693 -10.8120 49.8713 -10.2042
# 6 -9.0428 -7.9100 -11.3551 -3.0959 -10.2042 39.8843
#
#
#
# Elastic Compliance Matrix: (Units=1/GPa)
#
#
# Indices 1 2 3 4 5 6 
#
# 1 0.017515 -0.003694 -0.002434 0.001719 -0.003071 0.001893
# 2 -0.003694 0.010559 -0.001307 0.000138 0.000909 0.001128
# 3 -0.002434 -0.001307 0.005358 0.000222 0.000997 0.000987
# 4 0.001719 0.000138 0.000222 0.020895 0.004852 0.003344
# 5 -0.003071 0.000909 0.000997 0.004852 0.023031 0.006037
# 6 0.001893 0.001128 0.000987 0.003344 0.006037 0.027810
#
#
# Mechanical properties :
#
#
# Convention : Reuss Voigt Hill
#
# Bulk Modulus (GPa) = 53.87559 69.99183 61.93371
# Shear Modulus (GPa) = 39.61150 47.50282 43.55716
#
# Velocity S-wave (km/s) = 3.83890 4.20394 4.02556
# Velocity P-wave (km/s) = 6.30029 7.04302 6.68198
#
# Compressibility (1/GPa) = 0.01856128
#
# Stress axis : x y z
#
# Youngs Moduli (GPa) = 57.09353 94.70335 186.63827
#
# Poissons Ratio (x) = 0.34983 0.45430
# Poissons Ratio (y) = 0.21090 0.24402
# Poissons Ratio (z) = 0.13897 0.12382
#
# Static dielectric constant tensor:
#      x y z
#    x 2.196000 0.019640 -0.030480 
#    y 0.019640 2.144560 0.052070 
#    z -0.030480 0.052070 2.095330 
# 
# From -- ./inp_files/465271.got.cif
#   From: 2010.05.17/outbox.cif.g08.bks.cpg/sg2_233_cif.got.tgz:465271.got - 2010.06.03 11:33:40.
