data_PCOD9019456
_publ_section_title
;
Structure prediction by ZEFSAII (Michael W. Deem and Ramdas Pophale) SiO2 
 PCOD9019456
Probable space group: P -1
;
_chemical_formula_sum "Si O2"
_cell_formula_units_Z 14
_cell_length_a 18.892181
_cell_length_b 5.674760
_cell_length_c 5.503563
_cell_angle_alpha 81.372313
_cell_angle_beta 86.701537
_cell_angle_gamma 66.071645
_cell_volume 533.211713
_symmetry_space_group_name_H-M "P -1"
_symmetry_group_IT_number 2
_symmetry_cell_setting 'triclinic'
loop_
_space_group_symop_operation_xyz
x,y,z
-x,-y,-z
loop_
_atom_site_type_symbol
_atom_site_label
_atom_site_fract_x
_atom_site_fract_y
_atom_site_fract_z
Si Si1 0.684710 0.011761 0.050243
Si Si2 0.380506 0.662206 0.575403
Si Si3 0.912941 0.714938 0.010657
Si Si4 0.472102 0.816053 0.187958
Si Si5 0.047343 0.180132 0.515470
Si Si6 0.791304 0.460205 0.155934
Si Si7 0.244547 0.730001 0.318652
O O1 0.690570 0.165497 0.264241
O O2 0.709444 0.713578 0.150198
O O3 0.595981 0.179992 0.976916
O O4 0.739810 0.020860 0.818391
O O5 0.420841 0.852274 0.438445
O O6 0.450329 0.425915 0.718280
O O7 0.336866 0.562505 0.394414
O O8 0.899532 0.850524 0.728364
O O9 0.914178 0.889800 0.214297
O O10 0.857630 0.572183 0.111624
O O11 0.000000 0.500000 0.000000
O O12 0.500000 0.000000 0.000000
O O13 0.000000 0.500000 0.500000
O O14 0.000000 0.000000 0.500000
O O15 0.799670 0.311557 0.432745
O O16 0.786176 0.349122 0.908784
#
# Coordination Sequence:
#
# PCOD9019456 Si02
#       7
#     2   2   2   2   2   2   2
#     4  11  25  44  68 102 141 178 244 291 353 432
#     4  10  22  44  64 103 137 176 240 289 347 420
#     4  10  23  47  69 106 140 183 242 297 360 440
#     4  10  22  39  67  98 136 184 229 289 356 416
#     4  10  21  44  72 105 146 185 234 297 366 436
#     4  12  26  46  73 100 142 188 237 285 371 422
#     4  11  25  46  69 100 141 186 232 295 349 427
#
# _framework density 26.255987000000001
#
# number of rings (size 3 to 8) (size 9 to 14) (size 15 to 20)
#    0.000    1.429    1.429    2.571    4.000    0.571 
#   15.429    0.000    0.000    0.000    0.000    0.000 
#    0.000    0.000    0.000    0.000    0.000    0.000 
#
# Total GULP energy -78059.193654 kJ/mol
# GULP energy per Si atom -5575.656690 kJ/mol
# Density = 2.619623 g / cm^3
# Si number density = 26.255987 Si / 1000 Ang^3
#
#
#
# Elastic Constant Matrix: (Units=GPa)
#
#
# Indices 1 2 3 4 5 6 
#
# 1 132.0220 33.7795 71.3343 -0.1316 -20.7262 26.1429
# 2 33.7795 77.7321 76.9812 -6.3356 3.3634 15.0481
# 3 71.3343 76.9812 265.4673 -15.9912 -24.8553 17.6953
# 4 -0.1316 -6.3356 -15.9912 51.4777 8.9209 -5.7354
# 5 -20.7262 3.3634 -24.8553 8.9209 55.3655 -16.5625
# 6 26.1429 15.0481 17.6953 -5.7354 -16.5625 41.5257
#
#
#
# Elastic Compliance Matrix: (Units=1/GPa)
#
#
# Indices 1 2 3 4 5 6 
#
# 1 0.010251 -0.002112 -0.001751 -0.001631 0.002153 -0.004308
# 2 -0.002112 0.021009 -0.005652 0.001278 -0.006718 -0.006378
# 3 -0.001751 -0.005652 0.006073 0.000901 0.002810 0.001808
# 4 -0.001631 0.001278 0.000901 0.020590 -0.003062 0.001802
# 5 0.002153 -0.006718 0.002810 -0.003062 0.023696 0.008910
# 6 -0.004308 -0.006378 0.001808 0.001802 0.008910 0.032137
#
#
# Mechanical properties :
#
#
# Convention : Reuss Voigt Hill
#
# Bulk Modulus (GPa) = 54.63641 93.26792 73.95217
# Shear Modulus (GPa) = 36.00004 49.21555 42.60779
#
# Velocity S-wave (km/s) = 3.70688 4.33419 4.03275
# Velocity P-wave (km/s) = 6.25904 7.78759 7.06478
#
# Compressibility (1/GPa) = 0.01830281
#
# Stress axis : x y z
#
# Youngs Moduli (GPa) = 97.55322 47.59804 164.65461
#
# Poissons Ratio (x) = 0.10054 0.28839
# Poissons Ratio (y) = 0.20605 0.93057
# Poissons Ratio (z) = 0.17086 0.26901
#
# Static dielectric constant tensor:
#      x y z
#    x 2.125040 -0.077750 0.056160 
#    y -0.077750 2.195430 -0.006370 
#    z 0.056160 -0.006370 2.219320 
# 
# From -- ./inp_files/11323.got.cif
#   From: 2010.05.17/outbox.cif.g08.bks.cpg/sg2_6_cif.got.tgz:11323.got - 2010.06.03 11:33:40.
