data_PCOD9019461
_publ_section_title
;
Structure prediction by ZEFSAII (Michael W. Deem and Ramdas Pophale) SiO2 
 PCOD9019461
Probable space group: P -1
;
_chemical_formula_sum "Si O2"
_cell_formula_units_Z 14
_cell_length_a 5.250555
_cell_length_b 19.675681
_cell_length_c 5.300200
_cell_angle_alpha 91.495056
_cell_angle_beta 84.364081
_cell_angle_gamma 108.679484
_cell_volume 516.196157
_symmetry_space_group_name_H-M "P -1"
_symmetry_group_IT_number 2
_symmetry_cell_setting 'triclinic'
loop_
_space_group_symop_operation_xyz
x,y,z
-x,-y,-z
loop_
_atom_site_type_symbol
_atom_site_label
_atom_site_fract_x
_atom_site_fract_y
_atom_site_fract_z
Si Si1 0.692470 0.949600 0.496766
Si Si2 0.621937 0.454491 0.669039
Si Si3 0.542081 0.084453 0.985643
Si Si4 0.991732 0.592687 0.763383
Si Si5 0.064772 0.203999 0.981241
Si Si6 0.044056 0.724865 0.515146
Si Si7 0.426701 0.683392 0.125689
O O1 0.612832 0.903192 0.246489
O O2 0.500000 0.000000 0.500000
O O3 0.606545 0.901928 0.748750
O O4 0.000000 0.000000 0.500000
O O5 0.500000 0.500000 0.500000
O O6 0.824634 0.429206 0.467037
O O7 0.456347 0.381192 0.818651
O O8 0.784984 0.516315 0.855720
O O9 0.860898 0.124441 0.947509
O O10 0.500000 0.000000 0.000000
O O11 0.866402 0.646935 0.632822
O O12 0.176021 0.640191 0.968487
O O13 0.052438 0.242653 0.717744
O O14 0.377291 0.245622 0.017325
O O15 0.923897 0.224738 0.243051
O O16 0.315027 0.712551 0.385144
#
# Coordination Sequence:
#
# PCOD9019461 Si02
#       7
#     2   2   2   2   2   2   2
#     4  10  21  44  72 106 147 186 236 300 372 444
#     4  10  22  39  68 100 139 188 239 295 365 423
#     4  10  23  47  70 109 143 184 240 309 362 450
#     4  10  22  42  64 104 140 183 243 302 350 424
#     4  12  26  46  74 102 144 192 244 284 381 432
#     4  11  25  46  67 104 141 186 241 294 349 438
#     4  11  25  44  72  99 149 187 241 303 358 427
#
# _framework density 27.121475
#
# number of rings (size 3 to 8) (size 9 to 14) (size 15 to 20)
#    0.000    1.429    1.429    2.571    6.000    0.571 
#   15.429    0.000    0.000    0.000    0.000    0.000 
#    0.000    0.000    0.000    0.000    0.000    0.000 
#
# Total GULP energy -78276.747501 kJ/mol
# GULP energy per Si atom -5591.196250 kJ/mol
# Density = 2.705975 g / cm^3
# Si number density = 27.121475 Si / 1000 Ang^3
#
#
#
# Elastic Constant Matrix: (Units=GPa)
#
#
# Indices 1 2 3 4 5 6 
#
# 1 70.9633 27.4828 25.0184 7.1602 5.8235 35.2306
# 2 27.4828 184.5063 39.4768 5.4076 -3.0572 58.8720
# 3 25.0184 39.4768 178.8767 -4.7776 15.4074 15.7670
# 4 7.1602 5.4076 -4.7776 34.0251 6.2316 1.9677
# 5 5.8235 -3.0572 15.4074 6.2316 40.5398 -6.2877
# 6 35.2306 58.8720 15.7670 1.9677 -6.2877 45.7778
#
#
#
# Elastic Compliance Matrix: (Units=1/GPa)
#
#
# Indices 1 2 3 4 5 6 
#
# 1 0.027708 0.005324 -0.002120 -0.004156 -0.006501 -0.028156
# 2 0.005324 0.010443 -0.001415 -0.001642 -0.001859 -0.017225
# 3 -0.002120 -0.001415 0.006384 0.001958 -0.002400 0.000838
# 4 -0.004156 -0.001642 0.001958 0.031510 -0.004706 0.002635
# 5 -0.006501 -0.001859 -0.002400 -0.004706 0.029021 0.012409
# 6 -0.028156 -0.017225 0.000838 0.002635 0.012409 0.066968
#
#
# Mechanical properties :
#
#
# Convention : Reuss Voigt Hill
#
# Bulk Modulus (GPa) = 20.78351 68.70023 44.74187
# Shear Modulus (GPa) = 27.10129 46.89310 36.99719
#
# Velocity S-wave (km/s) = 3.16453 4.16264 3.69742
# Velocity P-wave (km/s) = 4.58608 6.96340 5.89581
#
# Compressibility (1/GPa) = 0.04811506
#
# Stress axis : x y z
#
# Youngs Moduli (GPa) = 36.09040 95.75781 156.63506
#
# Poissons Ratio (x) = -0.50984 0.33201
# Poissons Ratio (y) = -0.19216 0.22161
# Poissons Ratio (z) = 0.07650 0.13548
#
# Static dielectric constant tensor:
#      x y z
#    x 2.088520 0.070840 0.053850 
#    y 0.070840 2.099180 0.028230 
#    z 0.053850 0.028230 2.264030 
# 
# From -- ./inp_files/12452.got.cif
#   From: 2010.05.17/outbox.cif.g08.bks.cpg/sg2_7_cif.got.tgz:12452.got - 2010.06.03 11:33:40.
