data_PCOD9019345
_publ_section_title
;
Structure prediction by ZEFSAII (Michael W. Deem and Ramdas Pophale) SiO2 
 PCOD9019345
Probable space group: P -1
;
_chemical_formula_sum "Si O2"
_cell_formula_units_Z 14
_cell_length_a 6.408697
_cell_length_b 19.412443
_cell_length_c 5.600454
_cell_angle_alpha 113.986150
_cell_angle_beta 81.437249
_cell_angle_gamma 69.694903
_cell_volume 561.795758
_symmetry_space_group_name_H-M "P -1"
_symmetry_group_IT_number 2
_symmetry_cell_setting 'triclinic'
loop_
_space_group_symop_operation_xyz
x,y,z
-x,-y,-z
loop_
_atom_site_type_symbol
_atom_site_label
_atom_site_fract_x
_atom_site_fract_y
_atom_site_fract_z
Si Si1 0.756614 0.184375 0.127550
Si Si2 0.362063 0.337791 0.251553
Si Si3 0.107967 0.235323 0.298626
Si Si4 0.277526 0.949908 0.342776
Si Si5 0.563167 0.081482 0.222061
Si Si6 0.231464 0.489489 0.798449
Si Si7 0.672883 0.365377 0.862695
O O1 0.550082 0.277911 0.332319
O O2 0.755221 0.120719 0.239703
O O3 0.999468 0.189078 0.079968
O O4 0.682052 0.145185 0.860175
O O5 0.184402 0.296534 0.222539
O O6 0.242557 0.435287 0.486303
O O7 0.527069 0.328431 0.987383
O O8 0.318954 0.161933 0.306221
O O9 0.902481 0.295085 0.596537
O O10 0.411165 0.950336 0.559887
O O11 0.353447 0.976126 0.114051
O O12 0.000000 0.000000 0.500000
O O13 0.476416 0.430283 0.808138
O O14 0.239199 0.578661 0.906890
O O15 0.000000 0.500000 0.000000
#
# Coordination Sequence:
#
# PCOD9019345 Si02
#       7
#     2   2   2   2   2   2   2
#     4   9  23  39  66  97 137 177 229 284 347 415
#     4  11  23  41  64  95 130 178 233 278 360 406
#     4  11  22  44  66 103 133 178 240 287 343 419
#     4  10  21  44  71 100 146 186 222 288 355 414
#     4   9  23  41  68 103 137 181 236 284 344 418
#     4  11  23  43  59  94 132 176 230 288 343 425
#     4  11  25  40  66  89 135 178 227 290 349 408
#
# _framework density 24.920090999999999
#
# number of rings (size 3 to 8) (size 9 to 14) (size 15 to 20)
#    0.857    0.857    2.857    0.857    2.000    2.857 
#    0.000    1.429    0.000    0.000    0.000    0.000 
#    0.000    0.000    0.000    0.000    0.000    0.000 
#
# Total GULP energy -78168.986997 kJ/mol
# GULP energy per Si atom -5583.499071 kJ/mol
# Density = 2.486337 g / cm^3
# Si number density = 24.920091 Si / 1000 Ang^3
#
#
#
# Elastic Constant Matrix: (Units=GPa)
#
#
# Indices 1 2 3 4 5 6 
#
# 1 126.1654 29.2663 56.8610 -10.8097 -1.9479 3.8365
# 2 29.2663 65.2977 54.2710 -12.9236 -0.0238 -11.5230
# 3 56.8610 54.2710 134.7042 -2.8253 -23.4844 7.5323
# 4 -10.8097 -12.9236 -2.8253 37.6140 -0.2197 -15.7609
# 5 -1.9479 -0.0238 -23.4844 -0.2197 52.0848 5.0115
# 6 3.8365 -11.5230 7.5323 -15.7609 5.0115 39.4862
#
#
#
# Elastic Compliance Matrix: (Units=1/GPa)
#
#
# Indices 1 2 3 4 5 6 
#
# 1 0.010223 0.000395 -0.004834 0.003388 -0.001941 0.001642
# 2 0.000395 0.040641 -0.019470 0.023601 -0.011184 0.026376
# 3 -0.004834 -0.019470 0.019661 -0.013012 0.010106 -0.015439
# 4 0.003388 0.023601 -0.013012 0.046679 -0.008297 0.028725
# 5 -0.001941 -0.011184 0.010106 -0.008297 0.024745 -0.011455
# 6 0.001642 0.026376 -0.015439 0.028725 -0.011455 0.048727
#
#
# Mechanical properties :
#
#
# Convention : Reuss Voigt Hill
#
# Bulk Modulus (GPa) = 44.03893 67.44045 55.73969
# Shear Modulus (GPa) = 20.31986 38.22159 29.27073
#
# Velocity S-wave (km/s) = 2.85862 3.92058 3.43094
# Velocity P-wave (km/s) = 5.34846 6.90044 6.17341
#
# Compressibility (1/GPa) = 0.02270718
#
# Stress axis : x y z
#
# Youngs Moduli (GPa) = 97.81581 24.60544 50.86289
#
# Poissons Ratio (x) = -0.00972 0.24585
# Poissons Ratio (y) = -0.03863 0.99032
# Poissons Ratio (z) = 0.47281 0.47908
#
# Static dielectric constant tensor:
#      x y z
#    x 2.023420 0.059860 0.061230 
#    y 0.059860 2.052980 0.043500 
#    z 0.061230 0.043500 2.098770 
# 
# From -- ./inp_files/11535.got.cif
#   From: 2010.05.17/outbox.cif.g08.bks.cpg/sg2_6_cif.got.tgz:11535.got - 2010.06.03 11:33:40.
