data_PCOD9019183
_publ_section_title
;
Structure prediction by ZEFSAII (Michael W. Deem and Ramdas Pophale) SiO2 
 PCOD9019183
Probable space group: P -1
;
_chemical_formula_sum "Si O2"
_cell_formula_units_Z 15
_cell_length_a 11.156321
_cell_length_b 10.635753
_cell_length_c 5.216905
_cell_angle_alpha 102.427721
_cell_angle_beta 117.143618
_cell_angle_gamma 68.064938
_cell_volume 510.212350
_symmetry_space_group_name_H-M "P -1"
_symmetry_group_IT_number 2
_symmetry_cell_setting 'triclinic'
loop_
_space_group_symop_operation_xyz
x,y,z
-x,-y,-z
loop_
_atom_site_type_symbol
_atom_site_label
_atom_site_fract_x
_atom_site_fract_y
_atom_site_fract_z
Si Si1 0.841199 0.277663 0.190167
Si Si2 0.253778 0.502302 0.177883
Si Si3 0.905589 0.694581 0.296732
Si Si4 0.000000 0.000000 0.500000
Si Si5 0.700281 0.090258 0.516526
Si Si6 0.334356 0.279330 0.533136
Si Si7 0.704661 0.931917 0.963153
Si Si8 0.536262 0.321189 0.152910
O O1 0.928431 0.121401 0.258296
O O2 0.682237 0.313401 0.155051
O O3 0.934176 0.351216 0.479668
O O4 0.826898 0.345733 0.924497
O O5 0.303425 0.431768 0.467987
O O6 0.406318 0.453218 0.157787
O O7 0.150546 0.415654 0.946646
O O8 0.807138 0.730204 0.469192
O O9 0.865384 0.836495 0.157981
O O10 0.859169 0.068251 0.570203
O O11 0.599424 0.242293 0.441329
O O12 0.697946 0.033027 0.769847
O O13 0.649391 0.004237 0.208235
O O14 0.359952 0.176155 0.274714
O O15 0.454204 0.248897 0.850486
#
# Coordination Sequence:
#
# PCOD9019183 Si02
#       8
#     2   2   2   1   2   2   2   2
#     4  11  21  44  72 100 143 188 234 301 357 431
#     4  10  23  42  70  99 138 189 242 291 357 423
#     4  10  21  44  69 103 142 180 249 291 359 417
#     4  10  22  44  66 106 144 184 234 290 368 424
#     4  11  24  41  69 105 145 192 236 297 356 425
#     4  10  22  43  66 102 142 187 239 298 348 432
#     4  11  21  42  70 104 141 189 238 298 353 417
#     4  10  25  43  63 101 144 185 241 285 365 425
#
# _framework density 29.399522000000001
#
# number of rings (size 3 to 8) (size 9 to 14) (size 15 to 20)
#    0.000    1.600    2.667    0.800    1.867    2.667 
#    0.000    6.667    0.000    0.000    0.000    0.000 
#    0.000    0.000    0.000    0.000    0.000    0.000 
#
# Total GULP energy -83890.074620 kJ/mol
# GULP energy per Si atom -5592.671641 kJ/mol
# Density = 2.933261 g / cm^3
# Si number density = 29.399522 Si / 1000 Ang^3
#
#
#
# Elastic Constant Matrix: (Units=GPa)
#
#
# Indices 1 2 3 4 5 6 
#
# 1 144.1300 25.2670 53.0701 -18.3984 27.0846 -13.5326
# 2 25.2670 149.7895 82.1649 -45.5871 5.7848 -18.7961
# 3 53.0701 82.1649 197.9554 -32.1489 3.5876 15.1448
# 4 -18.3984 -45.5871 -32.1489 94.9411 15.2211 1.5583
# 5 27.0846 5.7848 3.5876 15.2211 62.2039 -8.5135
# 6 -13.5326 -18.7961 15.1448 1.5583 -8.5135 30.6004
#
#
#
# Elastic Compliance Matrix: (Units=1/GPa)
#
#
# Indices 1 2 3 4 5 6 
#
# 1 0.009320 0.001652 -0.003215 0.002021 -0.003757 0.005579
# 2 0.001652 0.012070 -0.005532 0.004257 -0.001148 0.010346
# 3 -0.003215 -0.005532 0.008882 -0.000151 0.000186 -0.009156
# 4 0.002021 0.004257 -0.000151 0.013589 -0.004363 0.001677
# 5 -0.003757 -0.001148 0.000186 -0.004363 0.019305 0.003134
# 6 0.005579 0.010346 -0.009156 0.001677 0.003134 0.046820
#
#
# Mechanical properties :
#
#
# Convention : Reuss Voigt Hill
#
# Bulk Modulus (GPa) = 62.18035 90.31988 76.25012
# Shear Modulus (GPa) = 38.59887 59.64060 49.11974
#
# Velocity S-wave (km/s) = 3.62734 4.50891 4.09194
# Velocity P-wave (km/s) = 6.22411 7.60890 6.95107
#
# Compressibility (1/GPa) = 0.01608225
#
# Stress axis : x y z
#
# Youngs Moduli (GPa) = 107.29337 82.84966 112.58390
#
# Poissons Ratio (x) = -0.13683 0.36191
# Poissons Ratio (y) = -0.17720 0.62282
# Poissons Ratio (z) = 0.34490 0.45833
#
# Static dielectric constant tensor:
#      x y z
#    x 1.527100 -0.630250 -0.648370 
#    y -0.630250 1.681680 -0.530910 
#    z -0.648370 -0.530910 1.688460 
# 
# From -- ./inp_files/66505.got.cif
#   From: 2010.05.17/outbox.cif.g08.bks.cpg/sg2_34_cif.got.tgz:66505.got - 2010.06.03 11:33:40.
