data_PCOD9019951
_publ_section_title
;
Structure prediction by ZEFSAII (Michael W. Deem and Ramdas Pophale) SiO2 
 PCOD9019951
Probable space group: P -1
;
_chemical_formula_sum "Si O2"
_cell_formula_units_Z 16
_cell_length_a 7.554064
_cell_length_b 16.590279
_cell_length_c 13.153862
_cell_angle_alpha 32.740302
_cell_angle_beta 87.346296
_cell_angle_gamma 65.335191
_cell_volume 635.712588
_symmetry_space_group_name_H-M "P -1"
_symmetry_group_IT_number 2
_symmetry_cell_setting 'triclinic'
loop_
_space_group_symop_operation_xyz
x,y,z
-x,-y,-z
loop_
_atom_site_type_symbol
_atom_site_label
_atom_site_fract_x
_atom_site_fract_y
_atom_site_fract_z
Si Si1 0.743364 0.316706 0.254235
Si Si2 0.160663 0.627936 0.180952
Si Si3 0.675575 0.776124 0.438796
Si Si4 0.527628 0.045594 0.337196
Si Si5 0.508448 0.628540 0.106252
Si Si6 0.805390 0.048691 0.831330
Si Si7 0.084635 0.122268 0.266793
Si Si8 0.294843 0.936120 0.957333
O O1 0.710154 0.425891 0.243915
O O2 0.970897 0.223257 0.272918
O O3 0.780244 0.116911 0.479895
O O4 0.500000 0.500000 0.000000
O O5 0.145208 0.466319 0.327982
O O6 0.435411 0.530458 0.289425
O O7 0.130527 0.749218 0.949609
O O8 0.973568 0.798243 0.087895
O O9 0.405153 0.860740 0.340986
O O10 0.698124 0.891130 0.233231
O O11 0.698921 0.842128 0.476859
O O12 0.253028 0.159716 0.185830
O O13 0.500000 0.000000 0.500000
O O14 0.577865 0.189532 0.168531
O O15 0.500395 0.753957 0.067117
O O16 0.022402 0.040943 0.815009
O O17 0.687178 0.132987 0.855698
#
# Coordination Sequence:
#
# PCOD9019951 Si02
#       8
#     2   2   2   2   2   2   2   2
#     4  11  22  39  68  88 121 172 223 265 323 393
#     4  11  23  41  67  96 126 174 228 257 331 409
#     4  11  23  44  69  95 137 179 214 275 333 392
#     4  11  24  41  61  95 135 168 219 276 320 389
#     4  10  22  41  62  92 134 165 209 280 317 386
#     4  10  21  45  73  95 136 174 212 284 335 383
#     4  11  24  40  63  93 124 174 222 268 324 391
#     4   9  22  44  70 104 134 162 231 275 325 407
#
# _framework density 25.168606
#
# number of rings (size 3 to 8) (size 9 to 14) (size 15 to 20)
#    0.000    1.500    2.500    1.875    3.500    1.000 
#    2.250    5.625    0.000    0.000    0.000    0.000 
#    0.000    0.000    0.000    0.000    0.000    0.000 
#
# Total GULP energy -89148.447642 kJ/mol
# GULP energy per Si atom -5571.777978 kJ/mol
# Density = 2.511132 g / cm^3
# Si number density = 25.168606 Si / 1000 Ang^3
#
#
#
# Elastic Constant Matrix: (Units=GPa)
#
#
# Indices 1 2 3 4 5 6 
#
# 1 -6181.1365 1835.8569 863.2871 -361.6617-2586.9790-1726.4973
# 2 1835.8569 -385.2369 -228.0988 86.6765 755.0450 496.8667
# 3 863.2871 -228.0988 -27.0724 24.0244 318.0677 236.5788
# 4 -361.6617 86.6765 24.0244 22.1051 -140.0382 -101.1718
# 5 -2586.9790 755.0450 318.0677 -140.0382-1019.1485 -709.3220
# 6 -1726.4973 496.8667 236.5788 -101.1718 -709.3220 -444.0007
#
#
#
# Elastic Compliance Matrix: (Units=1/GPa)
#
#
# Indices 1 2 3 4 5 6 
#
# 1 0.004088 0.001180 -0.002429 -0.000478 -0.006922 -0.004703
# 2 0.001180 0.007113 -0.001575 0.002634 -0.000682 0.003021
# 3 -0.002429 -0.001575 0.018458 0.007559 0.011373 -0.002374
# 4 -0.000478 0.002634 0.007559 0.028986 0.000094 0.002080
# 5 -0.006922 -0.000682 0.011373 0.000094 0.024884 -0.007562
# 6 -0.004703 0.003021 -0.002374 0.002080 -0.007562 0.029757
#
#
# Mechanical properties :
#
#
# Convention : Reuss Voigt Hill
#
# Bulk Modulus (GPa) = 41.64966 -183.48395 -70.91714
# Shear Modulus (GPa) = 39.38936 -892.50822 -426.55943
#
# Velocity S-wave (km/s) = 3.96032 -18.85157 -13.03260
# Velocity P-wave (km/s) = 6.12343 23.38594 15.95941
#
# Compressibility (1/GPa) = 0.02400980
#
# Stress axis : x y z
#
# Youngs Moduli (GPa) = 244.61627 140.59457 54.17687
#
# Poissons Ratio (x) = -0.16590 0.13161
# Poissons Ratio (y) = -0.28864 0.08534
# Poissons Ratio (z) = 0.59424 0.22146
#
# Static dielectric constant tensor:
#      x y z
#    x 1.065820 0.315200 -0.093370 
#    y 0.315200 1.906350 0.078880 
#    z -0.093370 0.078880 2.044430 
# 
# From -- ./inp_files/507246.got.cif
#   From: 2010.05.17/outbox.cif.g08.bks.cpg/sg2_254_cif.got.tgz:507246.got - 2010.06.03 11:33:40.
