data_PCOD9019199
_publ_section_title
;
Structure prediction by ZEFSAII (Michael W. Deem and Ramdas Pophale) SiO2 
 PCOD9019199
Probable space group: P -1
;
_chemical_formula_sum "Si O2"
_cell_formula_units_Z 12
_cell_length_a 9.703994
_cell_length_b 11.418633
_cell_length_c 18.398350
_cell_angle_alpha 152.802676
_cell_angle_beta 37.655208
_cell_angle_gamma 146.886320
_cell_volume 500.043437
_symmetry_space_group_name_H-M "P -1"
_symmetry_group_IT_number 2
_symmetry_cell_setting 'triclinic'
loop_
_space_group_symop_operation_xyz
x,y,z
-x,-y,-z
loop_
_atom_site_type_symbol
_atom_site_label
_atom_site_fract_x
_atom_site_fract_y
_atom_site_fract_z
Si Si1 0.637100 0.545798 0.703794
Si Si2 0.803583 0.224450 0.350125
Si Si3 0.315359 0.682179 0.201931
Si Si4 0.509669 0.792152 0.753578
Si Si5 0.487524 0.353036 0.043218
Si Si6 0.872742 0.702872 0.465389
O O1 0.658720 0.282142 0.510143
O O2 0.553466 0.708104 0.768875
O O3 0.930244 0.752378 0.722014
O O4 0.458459 0.465445 0.804965
O O5 0.865197 0.489995 0.415935
O O6 0.607332 0.932088 0.230631
O O7 0.293920 0.580078 0.071644
O O8 0.144504 0.822710 0.379317
O O9 0.283219 0.418167 0.121503
O O10 0.771848 0.900991 0.656733
O O11 0.319932 0.500833 0.628776
O O12 0.409387 0.025750 0.919532
#
# Coordination Sequence:
#
# PCOD9019199 Si02
#       6
#     2   2   2   2   2   2
#     4  10  22  42  67  94 131 166 208 268 322 366
#     4  10  21  44  69  92 123 175 219 252 307 390
#     4  11  24  40  70  95 124 172 218 257 306 388
#     4  10  22  42  67  94 131 166 208 268 322 366
#     4  11  23  41  62 101 130 163 212 266 321 368
#     4  10  21  44  69  92 123 175 219 252 307 390
#
# _framework density 23.997914999999999
#
# number of rings (size 3 to 8) (size 9 to 14) (size 15 to 20)
#    0.000    1.667    3.333    0.500    0.000    5.333 
#    0.000    1.667    0.000    0.000    0.000    0.000 
#    0.000    0.000    0.000    0.000    0.000    0.000 
#
# Total GULP energy -67041.593788 kJ/mol
# GULP energy per Si atom -5586.799482 kJ/mol
# Density = 2.394330 g / cm^3
# Si number density = 23.997915 Si / 1000 Ang^3
#
#
#
# Elastic Constant Matrix: (Units=GPa)
#
#
# Indices 1 2 3 4 5 6 
#
# 1 124.7382 21.4790 12.1333 -5.4413 7.9734 -28.1491
# 2 21.4790 15.7417 11.8597 1.3279 7.1262 -7.3350
# 3 12.1333 11.8597 102.4500 -13.2375 7.4668 -21.5002
# 4 -5.4413 1.3279 -13.2375 24.4287 -18.6626 3.4309
# 5 7.9734 7.1262 7.4668 -18.6626 44.5077 -8.7523
# 6 -28.1491 -7.3350 -21.5002 3.4309 -8.7523 35.5392
#
#
#
# Elastic Compliance Matrix: (Units=1/GPa)
#
#
# Indices 1 2 3 4 5 6 
#
# 1 0.013086 -0.019535 0.003306 0.008872 0.005695 0.008879
# 2 -0.019535 0.117621 -0.015367 -0.042457 -0.031368 -0.004120
# 3 0.003306 -0.015367 0.014113 0.013123 0.006646 0.008355
# 4 0.008872 -0.042457 0.013123 0.080489 0.038304 0.007867
# 5 0.005695 -0.031368 0.006646 0.038304 0.043185 0.008995
# 6 0.008879 -0.004120 0.008355 0.007867 0.008995 0.040831
#
#
# Mechanical properties :
#
#
# Convention : Reuss Voigt Hill
#
# Bulk Modulus (GPa) = 12.25076 37.09711 24.67393
# Shear Modulus (GPa) = 12.50862 34.05896 23.28379
#
# Velocity S-wave (km/s) = 2.28554 3.77138 3.11825
# Velocity P-wave (km/s) = 3.47576 5.86996 4.82376
#
# Compressibility (1/GPa) = 0.08162758
#
# Stress axis : x y z
#
# Youngs Moduli (GPa) = 76.41934 8.50191 70.85773
#
# Poissons Ratio (x) = 0.16609 -0.23428
# Poissons Ratio (y) = 1.49288 1.08885
# Poissons Ratio (z) = -0.25267 0.13065
#
# Static dielectric constant tensor:
#      x y z
#    x 1.921440 -0.019940 -0.032280 
#    y -0.019940 1.963240 -0.063450 
#    z -0.032280 -0.063450 1.930140 
# 
# From -- ./inp_files/58531.got.cif
#   From: 2010.05.17/outbox.cif.g08.bks.cpg/sg2_30_cif.got.tgz:58531.got - 2010.06.03 11:33:40.
