data_PCOD9019831
_publ_section_title
;
Structure prediction by ZEFSAII (Michael W. Deem and Ramdas Pophale) SiO2 
 PCOD9019831
Probable space group: P -1
;
_chemical_formula_sum "Si O2"
_cell_formula_units_Z 14
_cell_length_a 18.235496
_cell_length_b 11.278084
_cell_length_c 7.823716
_cell_angle_alpha 51.284333
_cell_angle_beta 68.937318
_cell_angle_gamma 29.890903
_cell_volume 552.155983
_symmetry_space_group_name_H-M "P -1"
_symmetry_group_IT_number 2
_symmetry_cell_setting 'triclinic'
loop_
_space_group_symop_operation_xyz
x,y,z
-x,-y,-z
loop_
_atom_site_type_symbol
_atom_site_label
_atom_site_fract_x
_atom_site_fract_y
_atom_site_fract_z
Si Si1 0.167716 0.533441 0.156850
Si Si2 0.636333 0.806017 0.358290
Si Si3 0.192870 0.964087 0.905512
Si Si4 0.322395 0.554450 0.866731
Si Si5 0.772101 0.879800 0.717040
Si Si6 0.393375 0.482623 0.484653
Si Si7 0.888644 0.604330 0.238435
O O1 0.312456 0.291618 0.397711
O O2 0.198354 0.340916 0.179197
O O3 0.181577 0.667517 0.923094
O O4 0.990740 0.799359 0.153306
O O5 0.591694 0.720169 0.396069
O O6 0.805077 0.584175 0.334532
O O7 0.496199 0.168344 0.102048
O O8 0.278462 0.754731 0.194193
O O9 0.302580 0.716538 0.880900
O O10 0.171465 0.181959 0.751424
O O11 0.322920 0.607355 0.623336
O O12 0.912580 0.737237 0.630690
O O13 0.577049 0.241297 0.538918
O O14 0.823327 0.792913 0.949970
#
# Coordination Sequence:
#
# PCOD9019831 Si02
#       7
#     2   2   2   2   2   2   2
#     4  11  23  44  72 102 142 180 235 293 338 408
#     4  12  23  44  74 105 131 185 244 283 336 414
#     4  11  27  46  64 105 152 178 223 291 358 413
#     4  12  23  43  71 106 136 181 233 293 337 414
#     4  10  21  45  69  98 135 184 232 283 332 422
#     4  12  24  45  77 102 135 186 237 285 346 408
#     4  10  24  46  69 101 143 180 230 288 350 412
#
# _framework density 25.355155
#
# number of rings (size 3 to 8) (size 9 to 14) (size 15 to 20)
#    0.000    0.857    4.286    3.000    0.000    4.000 
#   10.286    0.000    0.000    0.000    0.000    0.000 
#    0.000    0.000    0.000    0.000    0.000    0.000 
#
# Total GULP energy -78556.132238 kJ/mol
# GULP energy per Si atom -5611.152303 kJ/mol
# Density = 2.529745 g / cm^3
# Si number density = 25.355155 Si / 1000 Ang^3
#
#
#
# Elastic Constant Matrix: (Units=GPa)
#
#
# Indices 1 2 3 4 5 6 
#
# 1 126.4375 66.7824 23.5770 -7.7497 4.7880 1.9798
# 2 66.7824 101.8446 26.6268 3.1186 3.4486 25.8358
# 3 23.5770 26.6268 128.0799 -1.3746 21.6246 16.9879
# 4 -7.7497 3.1186 -1.3746 39.1141 -2.9941 7.0656
# 5 4.7880 3.4486 21.6246 -2.9941 36.5907 6.0805
# 6 1.9798 25.8358 16.9879 7.0656 6.0805 64.4590
#
#
#
# Elastic Compliance Matrix: (Units=1/GPa)
#
#
# Indices 1 2 3 4 5 6 
#
# 1 0.013090 -0.009275 -0.000769 0.002656 -0.000714 0.003294
# 2 -0.009275 0.017916 -0.001399 -0.002060 0.001250 -0.006419
# 3 -0.000769 -0.001399 0.009272 0.000156 -0.005001 -0.001405
# 4 0.002656 -0.002060 0.000156 0.026889 0.002365 -0.002468
# 5 -0.000714 0.001250 -0.005001 0.002365 0.030841 -0.002330
# 6 0.003294 -0.006419 -0.001405 -0.002468 -0.002330 0.018846
#
#
# Mechanical properties :
#
#
# Convention : Reuss Voigt Hill
#
# Bulk Modulus (GPa) = 57.49945 65.59274 61.54609
# Shear Modulus (GPa) = 34.35543 43.99115 39.17329
#
# Velocity S-wave (km/s) = 3.68498 4.16985 3.93489
# Velocity P-wave (km/s) = 6.39002 7.00780 6.70603
#
# Compressibility (1/GPa) = 0.01739147
#
# Stress axis : x y z
#
# Youngs Moduli (GPa) = 76.39609 55.81691 107.84678
#
# Poissons Ratio (x) = 0.51770 0.08296
# Poissons Ratio (y) = 0.70858 0.15087
# Poissons Ratio (z) = 0.05877 0.07808
#
# Static dielectric constant tensor:
#      x y z
#    x 1.943790 -0.017890 -0.010000 
#    y -0.017890 2.003840 0.022860 
#    z -0.010000 0.022860 1.976720 
# 
# From -- ./inp_files/266997.got.cif
#   From: 2010.05.17/outbox.cif.g08.bks.cpg/sg2_134_cif.got.tgz:266997.got - 2010.06.03 11:33:40.
