data_PCOD9019105
_publ_section_title
;
Structure prediction by ZEFSAII (Michael W. Deem and Ramdas Pophale) SiO2 
 PCOD9019105
Probable space group: P -1
;
_chemical_formula_sum "Si O2"
_cell_formula_units_Z 16
_cell_length_a 12.825774
_cell_length_b 9.340662
_cell_length_c 15.271927
_cell_angle_alpha 150.871430
_cell_angle_beta 65.595225
_cell_angle_gamma 103.810103
_cell_volume 779.582057
_symmetry_space_group_name_H-M "P -1"
_symmetry_group_IT_number 2
_symmetry_cell_setting 'triclinic'
loop_
_space_group_symop_operation_xyz
x,y,z
-x,-y,-z
loop_
_atom_site_type_symbol
_atom_site_label
_atom_site_fract_x
_atom_site_fract_y
_atom_site_fract_z
Si Si1 0.280427 0.158600 0.984594
Si Si2 0.047645 0.144784 0.142383
Si Si3 0.700281 0.262696 0.799257
Si Si4 0.428057 0.339615 0.185311
Si Si5 0.681361 0.144455 0.371929
Si Si6 0.049250 0.141008 0.811775
Si Si7 0.045359 0.132295 0.467025
Si Si8 0.482961 0.288155 0.770719
O O1 0.318445 0.895695 0.756244
O O2 0.186523 0.086094 0.044127
O O3 0.237540 0.473806 0.112406
O O4 0.368024 0.268469 0.077928
O O5 0.989237 0.505966 0.344453
O O6 0.017267 0.987924 0.156274
O O7 0.000000 0.000000 0.000000
O O8 0.615120 0.174048 0.707817
O O9 0.810802 0.995933 0.652121
O O10 0.602718 0.434264 0.995370
O O11 0.350759 0.523797 0.391645
O O12 0.505192 0.562791 0.246443
O O13 0.500000 0.000000 0.000000
O O14 0.812127 0.961655 0.263809
O O15 0.585435 0.969406 0.341029
O O16 0.022033 0.985263 0.650131
O O17 0.000000 0.500000 0.000000
O O18 0.000000 0.000000 0.500000
#
# Coordination Sequence:
#
# PCOD9019105 Si02
#       8
#     2   2   2   2   2   2   2   2
#     4  10  21  44  68  93 142 180 222 296 344 415
#     4  12  24  45  64 101 141 181 232 287 353 417
#     4   9  19  40  70  98 130 182 230 281 352 415
#     4  11  25  42  65  98 135 178 233 290 348 411
#     4  11  23  44  69  98 135 181 237 286 349 417
#     4  12  26  44  71 104 140 186 236 290 354 432
#     4  12  24  42  72 104 140 182 233 289 361 421
#     4   9  20  41  67  94 133 178 231 283 337 414
#
# _framework density 20.523817999999999
#
# number of rings (size 3 to 8) (size 9 to 14) (size 15 to 20)
#    0.000    1.250    2.500    4.500    1.750    3.500 
#    2.250    0.000    0.000    0.000    0.000    0.000 
#    0.000    0.000    0.000    0.000    0.000    0.000 
#
# Total GULP energy -89148.606266 kJ/mol
# GULP energy per Si atom -5571.787892 kJ/mol
# Density = 2.047710 g / cm^3
# Si number density = 20.523818 Si / 1000 Ang^3
#
#
#
# Elastic Constant Matrix: (Units=GPa)
#
#
# Indices 1 2 3 4 5 6 
#
# 1 95.8830 37.5765 45.0852 -7.8944 10.2070 10.1466
# 2 37.5765 93.7426 34.5078 -7.8555 19.7222 -16.8451
# 3 45.0852 34.5078 147.5958 3.0739 19.5593 -28.1532
# 4 -7.8944 -7.8555 3.0739 21.7917 0.0347 8.4251
# 5 10.2070 19.7222 19.5593 0.0347 23.5466 -3.9952
# 6 10.1466 -16.8451 -28.1532 8.4251 -3.9952 13.1793
#
#
#
# Elastic Compliance Matrix: (Units=1/GPa)
#
#
# Indices 1 2 3 4 5 6 
#
# 1 -0.010038 0.009442 0.015548 -0.029745 -0.004436 0.070681
# 2 0.009442 0.007578 -0.011718 0.023160 -0.007475 -0.039685
# 3 0.015548 -0.011718 -0.006234 0.023918 -0.001274 -0.055941
# 4 -0.029745 0.023160 0.023918 0.001540 -0.009450 0.099746
# 5 -0.004436 -0.007475 -0.001274 -0.009450 0.054025 0.013559
# 6 0.070681 -0.039685 -0.055941 0.099746 0.013559 -0.208417
#
#
# Mechanical properties :
#
#
# Convention : Reuss Voigt Hill
#
# Bulk Modulus (GPa) = 56.02032 63.50672 59.76352
# Shear Modulus (GPa) = -27.45122 26.37363 -0.53879
#
# Velocity S-wave (km/s) = -3.66119 3.58861 -0.51292
# Velocity P-wave (km/s) = 3.07930 6.94125 5.36950
#
# Compressibility (1/GPa) = 0.01785066
#
# Stress axis : x y z
#
# Youngs Moduli (GPa) = -99.61913 131.95776 -160.40163
#
# Poissons Ratio (x) = -1.24594 2.49395
# Poissons Ratio (y) = 0.94060 -1.87951
# Poissons Ratio (z) = 1.54889 1.54622
#
# Static dielectric constant tensor:
#      x y z
#    x 1.452180 0.035320 -0.082940 
#    y 0.035320 1.808200 -0.016640 
#    z -0.082940 -0.016640 1.747800 
# 
# From -- ./inp_files/516453.got.cif
#   From: 2010.05.17/outbox.cif.g08.bks.cpg/sg2_259_cif.got.tgz:516453.got - 2010.06.03 11:33:40.
