data_PCOD9019649
_publ_section_title
;
Structure prediction by ZEFSAII (Michael W. Deem and Ramdas Pophale) SiO2 
 PCOD9019649
Probable space group: P -1
;
_chemical_formula_sum "Si O2"
_cell_formula_units_Z 16
_cell_length_a 14.490942
_cell_length_b 11.828888
_cell_length_c 15.797878
_cell_angle_alpha 47.023816
_cell_angle_beta 153.534745
_cell_angle_gamma 115.006742
_cell_volume 722.293639
_symmetry_space_group_name_H-M "P -1"
_symmetry_group_IT_number 2
_symmetry_cell_setting 'triclinic'
loop_
_space_group_symop_operation_xyz
x,y,z
-x,-y,-z
loop_
_atom_site_type_symbol
_atom_site_label
_atom_site_fract_x
_atom_site_fract_y
_atom_site_fract_z
Si Si1 0.619549 0.322082 0.398964
Si Si2 0.136547 0.676948 0.139607
Si Si3 0.619206 0.986385 0.496499
Si Si4 0.427360 0.987251 0.744781
Si Si5 0.574020 0.414788 0.743917
Si Si6 0.263896 0.407908 0.715189
Si Si7 0.186961 0.012194 0.048533
Si Si8 0.396858 0.193453 0.767483
O O1 0.437536 0.461854 0.251472
O O2 0.651531 0.450490 0.294489
O O3 0.900249 0.181317 0.740715
O O4 0.561566 0.182741 0.381069
O O5 0.292425 0.515694 0.418938
O O6 0.253915 0.597700 0.183848
O O7 0.836857 0.805891 0.818450
O O8 0.205176 0.824522 0.142429
O O9 0.707308 0.966847 0.480201
O O10 0.368915 0.990490 0.283506
O O11 0.295330 0.158303 0.615772
O O12 0.514950 0.789160 0.959082
O O13 0.693850 0.953095 0.952741
O O14 0.617713 0.222385 0.910878
O O15 0.233308 0.356016 0.620095
O O16 0.000000 0.500000 0.500000
O O17 0.500000 0.000000 0.000000
#
# Coordination Sequence:
#
# PCOD9019649 Si02
#       8
#     2   2   2   2   2   2   2   2
#     4  10  20  35  56  82 114 143 182 232 274 328
#     4  10  20  38  60  76 113 147 180 237 265 324
#     4   9  20  35  56  80 110 148 183 220 279 327
#     4   9  17  34  51  80 108 138 189 213 266 334
#     4  10  20  36  56  87 107 141 191 224 279 321
#     4  10  17  30  56  84 105 147 181 227 279 315
#     4   9  18  36  56  76 110 145 182 218 273 329
#     4   9  18  32  58  78 108 143 180 223 266 330
#
# _framework density 22.151655999999999
#
# number of rings (size 3 to 8) (size 9 to 14) (size 15 to 20)
#    0.750    1.750    2.500    0.000    0.000    2.500 
#    0.000   13.125    0.000    7.500    0.000    0.000 
#    0.000    0.000    0.000    0.000    0.000    0.000 
#
# Total GULP energy -89249.134608 kJ/mol
# GULP energy per Si atom -5578.070913 kJ/mol
# Density = 2.210124 g / cm^3
# Si number density = 22.151656 Si / 1000 Ang^3
#
#
#
# Elastic Constant Matrix: (Units=GPa)
#
#
# Indices 1 2 3 4 5 6 
#
# 1 89.0074 11.7694 -11.3662 1.2583 -8.6133 -23.1964
# 2 11.7694 75.8341 15.2193 4.8255 7.9427 -10.3389
# 3 -11.3662 15.2193 44.7236 3.6171 -5.0992 5.8779
# 4 1.2583 4.8255 3.6171 27.8306 0.9864 -5.0051
# 5 -8.6133 7.9427 -5.0992 0.9864 18.6039 -3.1136
# 6 -23.1964 -10.3389 5.8779 -5.0051 -3.1136 38.1888
#
#
#
# Elastic Compliance Matrix: (Units=1/GPa)
#
#
# Indices 1 2 3 4 5 6 
#
# 1 0.015839 -0.003601 0.005407 0.000374 0.011810 0.008826
# 2 -0.003601 0.016917 -0.008167 -0.000852 -0.010636 0.002671
# 3 0.005407 -0.008167 0.028702 -0.003526 0.013593 -0.002698
# 4 0.000374 -0.000852 -0.003526 0.037534 -0.001527 0.005334
# 5 0.011810 -0.010636 0.013593 -0.001527 0.068842 0.007615
# 6 0.008826 0.002671 -0.002698 0.005334 0.007615 0.034005
#
#
# Mechanical properties :
#
#
# Convention : Reuss Voigt Hill
#
# Bulk Modulus (GPa) = 20.51800 26.75668 23.63734
# Shear Modulus (GPa) = 21.66320 29.85416 25.75868
#
# Velocity S-wave (km/s) = 3.13061 3.67511 3.41373
# Velocity P-wave (km/s) = 4.72761 5.48759 5.12171
#
# Compressibility (1/GPa) = 0.04873770
#
# Stress axis : x y z
#
# Youngs Moduli (GPa) = 63.13389 59.11271 34.84025
#
# Poissons Ratio (x) = 0.21286 -0.18839
# Poissons Ratio (y) = 0.22734 0.28453
# Poissons Ratio (z) = -0.34137 0.48276
#
# Static dielectric constant tensor:
#      x y z
#    x 1.886670 -0.025740 -0.025640 
#    y -0.025740 1.800180 -0.001230 
#    z -0.025640 -0.001230 1.857470 
# 
# From -- ./inp_files/532425.got.cif
#   From: 2010.05.17/outbox.cif.g08.bks.cpg/sg2_267_cif.got.tgz:532425.got - 2010.06.03 11:33:40.
