data_PCOD9019002
_publ_section_title
;
Structure prediction by ZEFSAII (Michael W. Deem and Ramdas Pophale) SiO2 
 PCOD9019002
Probable space group: P -1
;
_chemical_formula_sum "Si O2"
_cell_formula_units_Z 16
_cell_length_a 5.301589
_cell_length_b 10.683266
_cell_length_c 11.648583
_cell_angle_alpha 91.308863
_cell_angle_beta 98.448235
_cell_angle_gamma 69.602257
_cell_volume 611.389844
_symmetry_space_group_name_H-M "P -1"
_symmetry_group_IT_number 2
_symmetry_cell_setting 'triclinic'
loop_
_space_group_symop_operation_xyz
x,y,z
-x,-y,-z
loop_
_atom_site_type_symbol
_atom_site_label
_atom_site_fract_x
_atom_site_fract_y
_atom_site_fract_z
Si Si1 0.311398 0.914483 0.002660
Si Si2 0.617500 0.697654 0.200220
Si Si3 0.901306 0.642088 0.649883
Si Si4 0.968743 0.064356 0.627703
Si Si5 0.446383 0.055653 0.365616
Si Si6 0.806379 0.429521 0.891314
Si Si7 0.940423 0.352514 0.598019
Si Si8 0.685783 0.330723 0.128882
O O1 0.442337 0.824758 0.119765
O O2 0.308202 0.816648 0.896318
O O3 0.500000 0.000000 0.000000
O O4 0.000000 0.000000 0.000000
O O5 0.752373 0.700845 0.331350
O O6 0.407435 0.620254 0.192565
O O7 0.891607 0.626705 0.139807
O O8 0.654117 0.783929 0.641294
O O9 0.824935 0.506432 0.640114
O O10 0.046687 0.638331 0.537083
O O11 0.121170 0.647222 0.759474
O O12 0.849841 0.225239 0.616882
O O13 0.279932 0.013991 0.687391
O O14 0.000000 0.000000 0.500000
O O15 0.793517 0.996981 0.686465
O O16 0.500000 0.000000 0.500000
O O17 0.636915 0.586055 0.879627
O O18 0.788404 0.378963 0.018304
#
# Coordination Sequence:
#
# PCOD9019002 Si02
#       8
#     2   2   2   2   2   2   2   2
#     4  11  25  46  72 112 145 189 250 307 368 449
#     4  11  24  47  75 107 145 193 238 309 379 432
#     4  11  23  47  72 117 149 201 253 317 369 448
#     4  10  21  44  67  93 137 198 243 286 364 437
#     4  10  21  44  67  94 138 191 250 287 368 439
#     4  10  23  47  76 104 137 186 251 298 385 428
#     4  11  24  44  75 110 159 193 257 309 374 450
#     4  10  23  45  78 103 149 188 248 312 375 443
#
# _framework density 26.169882999999999
#
# number of rings (size 3 to 8) (size 9 to 14) (size 15 to 20)
#    0.000    1.500    3.750    1.500    0.000    8.500 
#    2.250    3.125    0.000    0.000    0.000    0.000 
#    0.000    0.000    0.000    0.000    0.000    0.000 
#
# Total GULP energy -89576.694762 kJ/mol
# GULP energy per Si atom -5598.543423 kJ/mol
# Density = 2.611032 g / cm^3
# Si number density = 26.169883 Si / 1000 Ang^3
#
#
#
# Elastic Constant Matrix: (Units=GPa)
#
#
# Indices 1 2 3 4 5 6 
#
# 1 184.1848 89.6290 24.8323 15.7283 7.7349 -10.6528
# 2 89.6290 239.8666 36.4409 6.2707 5.4305 0.1379
# 3 24.8323 36.4409 160.7217 10.8310 12.3700 -4.9831
# 4 15.7283 6.2707 10.8310 47.6240 1.0845 8.4152
# 5 7.7349 5.4305 12.3700 1.0845 26.6190 9.6277
# 6 -10.6528 0.1379 -4.9831 8.4152 9.6277 42.0327
#
#
#
# Elastic Compliance Matrix: (Units=1/GPa)
#
#
# Indices 1 2 3 4 5 6 
#
# 1 0.007158 -0.002543 -0.000085 -0.002460 -0.002458 0.002868
# 2 -0.002543 0.005232 -0.000890 0.000514 0.000413 -0.000965
# 3 -0.000085 -0.000890 0.006892 -0.001687 -0.003640 0.001970
# 4 -0.002460 0.000514 -0.001687 0.023138 0.002644 -0.006063
# 5 -0.002458 0.000413 -0.003640 0.002644 0.044000 -0.011664
# 6 0.002868 -0.000965 0.001970 -0.006063 -0.011664 0.028640
#
#
# Mechanical properties :
#
#
# Convention : Reuss Voigt Hill
#
# Bulk Modulus (GPa) = 81.66561 98.50863 90.08712
# Shear Modulus (GPa) = 39.62678 52.17987 45.90333
#
# Velocity S-wave (km/s) = 3.89551 4.47014 4.19268
# Velocity P-wave (km/s) = 7.17684 8.02288 7.61162
#
# Compressibility (1/GPa) = 0.01224506
#
# Stress axis : x y z
#
# Youngs Moduli (GPa) = 139.71023 191.12319 145.10016
#
# Poissons Ratio (x) = 0.48608 0.01238
# Poissons Ratio (y) = 0.35532 0.12910
# Poissons Ratio (z) = 0.01192 0.17005
#
# Static dielectric constant tensor:
#      x y z
#    x 2.197620 0.008910 0.064950 
#    y 0.008910 2.159050 0.060930 
#    z 0.064950 0.060930 2.116380 
# 
# From -- ./inp_files/548183.got.cif
#   From: 2010.05.17/outbox.cif.g08.bks.cpg/sg2_275_cif.got.tgz:548183.got - 2010.06.03 11:33:40.
