data_PCOD9019960
_publ_section_title
;
Structure prediction by ZEFSAII (Michael W. Deem and Ramdas Pophale) SiO2 
 PCOD9019960
Probable space group: P -1
;
_chemical_formula_sum "Si O2"
_cell_formula_units_Z 10
_cell_length_a 9.248509
_cell_length_b 11.322724
_cell_length_c 5.170501
_cell_angle_alpha 85.182028
_cell_angle_beta 93.603504
_cell_angle_gamma 45.585561
_cell_volume 379.717735
_symmetry_space_group_name_H-M "P -1"
_symmetry_group_IT_number 2
_symmetry_cell_setting 'triclinic'
loop_
_space_group_symop_operation_xyz
x,y,z
-x,-y,-z
loop_
_atom_site_type_symbol
_atom_site_label
_atom_site_fract_x
_atom_site_fract_y
_atom_site_fract_z
Si Si1 0.744503 0.117636 0.449902
Si Si2 0.356962 0.571809 0.721753
Si Si3 0.598830 0.823822 0.419634
Si Si4 0.231097 0.027958 0.022734
Si Si5 0.009681 0.378121 0.200445
O O1 0.776639 0.231361 0.346036
O O2 0.501166 0.228779 0.429831
O O3 0.180609 0.955956 0.241270
O O4 0.818676 0.982400 0.267797
O O5 0.500000 0.500000 0.500000
O O6 0.208816 0.545033 0.741323
O O7 0.500000 0.500000 0.000000
O O8 0.837492 0.690639 0.526269
O O9 0.500000 0.000000 0.500000
O O10 0.480929 0.889064 0.119576
O O11 0.115864 0.212012 0.070904
O O12 0.000000 0.500000 0.000000
#
# Coordination Sequence:
#
# PCOD9019960 Si02
#       5
#     2   2   2   2   2
#     4  10  21  45  74 100 149 184 241 295 369 430
#     4  12  28  50  70 105 153 199 237 302 370 434
#     4   8  19  42  68 107 136 183 231 301 355 429
#     4   9  22  43  77 107 139 186 243 301 365 425
#     4  11  24  47  75 112 147 194 246 304 365 439
#
# _framework density 26.335349999999998
#
# number of rings (size 3 to 8) (size 9 to 14) (size 15 to 20)
#    1.200    0.800    0.000    2.400    0.000    6.400 
#    7.200    3.000    0.000    0.000    0.000    0.000 
#    0.000    0.000    0.000    0.000    0.000    0.000 
#
# Total GULP energy -55962.063116 kJ/mol
# GULP energy per Si atom -5596.206312 kJ/mol
# Density = 2.627541 g / cm^3
# Si number density = 26.335350 Si / 1000 Ang^3
#
#
#
# Elastic Constant Matrix: (Units=GPa)
#
#
# Indices 1 2 3 4 5 6 
#
# 1 216.8480 48.5109 71.9003 -21.1788 -14.3334 -30.2085
# 2 48.5109 94.1607 27.0529 -2.8164 -14.6890 -4.2172
# 3 71.9003 27.0529 150.1830 -2.5102 -13.7004 -15.2549
# 4 -21.1788 -2.8164 -2.5102 44.6699 8.0540 -8.0678
# 5 -14.3334 -14.6890 -13.7004 8.0540 41.4967 -18.5062
# 6 -30.2085 -4.2172 -15.2549 -8.0678 -18.5062 54.8815
#
#
#
# Elastic Compliance Matrix: (Units=1/GPa)
#
#
# Indices 1 2 3 4 5 6 
#
# 1 0.006921 -0.002316 -0.002225 0.003400 0.002051 0.004204
# 2 -0.002316 0.012642 -0.000761 -0.000927 0.003900 0.000664
# 3 -0.002225 -0.000761 0.008271 -0.000792 0.002645 0.001791
# 4 0.003400 -0.000927 -0.000792 0.025120 -0.002282 0.004503
# 5 0.002051 0.003900 0.002645 -0.002282 0.033332 0.013068
# 6 0.004204 0.000664 0.001791 0.004503 0.013068 0.026153
#
#
# Mechanical properties :
#
#
# Convention : Reuss Voigt Hill
#
# Bulk Modulus (GPa) = 58.03846 84.01334 71.02590
# Shear Modulus (GPa) = 38.82403 49.12480 43.97441
#
# Velocity S-wave (km/s) = 3.84372 4.32366 4.09074
# Velocity P-wave (km/s) = 6.46413 7.54294 7.02428
#
# Compressibility (1/GPa) = 0.01722995
#
# Stress axis : x y z
#
# Youngs Moduli (GPa) = 144.49203 79.09887 120.90584
#
# Poissons Ratio (x) = 0.18322 0.26903
# Poissons Ratio (y) = 0.33469 0.09197
# Poissons Ratio (z) = 0.32151 0.06017
#
# Static dielectric constant tensor:
#      x y z
#    x 2.147330 -0.058650 -0.007680 
#    y -0.058650 2.118920 0.030050 
#    z -0.007680 0.030050 1.979250 
# 
# From -- ./inp_files/16164.got.cif
#   From: 2010.05.17/outbox.cif.g08.bks.cpg/sg2_9_cif.got.tgz:16164.got - 2010.06.03 11:33:40.
