data_PCOD9019712
_publ_section_title
;
Structure prediction by ZEFSAII (Michael W. Deem and Ramdas Pophale) SiO2 
 PCOD9019712
Probable space group: P -1
;
_chemical_formula_sum "Si O2"
_cell_formula_units_Z 12
_cell_length_a 7.031825
_cell_length_b 13.106090
_cell_length_c 11.707373
_cell_angle_alpha 36.886350
_cell_angle_beta 44.629450
_cell_angle_gamma 62.683954
_cell_volume 439.119218
_symmetry_space_group_name_H-M "P -1"
_symmetry_group_IT_number 2
_symmetry_cell_setting 'triclinic'
loop_
_space_group_symop_operation_xyz
x,y,z
-x,-y,-z
loop_
_atom_site_type_symbol
_atom_site_label
_atom_site_fract_x
_atom_site_fract_y
_atom_site_fract_z
Si Si1 0.237684 0.055817 0.943409
Si Si2 0.328596 0.584827 0.647212
Si Si3 0.480722 0.150668 0.213060
Si Si4 0.434280 0.212580 0.443578
Si Si5 0.661188 0.810004 0.990361
Si Si6 0.785184 0.518402 0.785677
O O1 0.440406 0.248847 0.653153
O O2 0.135372 0.091532 0.083841
O O3 0.409538 0.907165 0.015510
O O4 0.000000 0.000000 0.000000
O O5 0.308188 0.643834 0.735036
O O6 0.407552 0.399046 0.774598
O O7 0.049270 0.562565 0.714327
O O8 0.419656 0.166591 0.357786
O O9 0.548038 0.964519 0.344580
O O10 0.250445 0.159052 0.208066
O O11 0.732080 0.326004 0.925301
O O12 0.202995 0.324630 0.449449
O O13 0.500000 0.500000 0.000000
#
# Coordination Sequence:
#
# PCOD9019712 Si02
#       6
#     2   2   2   2   2   2
#     4  11  28  50  72 103 142 189 244 303 359 418
#     4  12  25  44  76 105 142 192 238 293 361 427
#     4  10  21  45  67 103 143 190 227 296 352 423
#     4  10  22  43  69 102 147 185 237 283 359 430
#     4  11  25  47  72 108 141 186 247 297 354 431
#     4  10  24  44  69 106 146 190 231 288 356 431
#
# _framework density 27.327431000000001
#
# number of rings (size 3 to 8) (size 9 to 14) (size 15 to 20)
#    0.000    1.333    3.333    0.500    2.333    7.333 
#    0.000    4.167    0.000    0.000    0.000    0.000 
#    0.000    0.000    0.000    0.000    0.000    0.000 
#
# Total GULP energy -67060.353466 kJ/mol
# GULP energy per Si atom -5588.362789 kJ/mol
# Density = 2.726523 g / cm^3
# Si number density = 27.327431 Si / 1000 Ang^3
#
#
#
# Elastic Constant Matrix: (Units=GPa)
#
#
# Indices 1 2 3 4 5 6 
#
# 1 258.0265 63.7558 91.9266 -32.2097 -2.5034 20.6333
# 2 63.7558 87.9782 73.3693 -51.2526 -5.1043 16.6940
# 3 91.9266 73.3693 182.2178 -55.4131 12.5406 -23.1068
# 4 -32.2097 -51.2526 -55.4131 60.1154 -12.9209 4.1842
# 5 -2.5034 -5.1043 12.5406 -12.9209 49.7321 -20.8069
# 6 20.6333 16.6940 -23.1068 4.1842 -20.8069 52.6079
#
#
#
# Elastic Compliance Matrix: (Units=1/GPa)
#
#
# Indices 1 2 3 4 5 6 
#
# 1 0.005339 -0.001798 -0.002593 -0.001019 -0.000727 -0.002869
# 2 -0.001798 0.038731 -0.009099 0.026154 0.006692 -0.015015
# 3 -0.002593 -0.009099 0.012003 0.001295 0.000050 0.009093
# 4 -0.001019 0.026154 0.001295 0.042306 0.010573 -0.006514
# 5 -0.000727 0.006692 0.000050 0.010573 0.026818 0.007949
# 6 -0.002869 -0.015015 0.009093 -0.006514 0.007949 0.032555
#
#
# Mechanical properties :
#
#
# Convention : Reuss Voigt Hill
#
# Bulk Modulus (GPa) = 34.37246 109.59177 71.98212
# Shear Modulus (GPa) = 25.71618 52.43581 39.07599
#
# Velocity S-wave (km/s) = 3.07096 4.38516 3.78553
# Velocity P-wave (km/s) = 5.01794 8.11356 6.74572
#
# Compressibility (1/GPa) = 0.02909306
#
# Stress axis : x y z
#
# Youngs Moduli (GPa) = 187.30808 25.81909 83.30948
#
# Poissons Ratio (x) = 0.04642 0.21603
# Poissons Ratio (y) = 0.33676 0.75804
# Poissons Ratio (z) = 0.48572 0.23493
#
# Static dielectric constant tensor:
#      x y z
#    x 2.130790 0.056690 0.072090 
#    y 0.056690 2.321800 0.109870 
#    z 0.072090 0.109870 2.240090 
# 
# From -- ./inp_files/483773.got.cif
#   From: 2010.05.17/outbox.cif.g08.bks.cpg/sg2_242_cif.got.tgz:483773.got - 2010.06.03 11:33:40.
