data_PCOD9019295
_publ_section_title
;
Structure prediction by ZEFSAII (Michael W. Deem and Ramdas Pophale) SiO2 
 PCOD9019295
Probable space group: P -1
;
_chemical_formula_sum "Si O2"
_cell_formula_units_Z 16
_cell_length_a 13.566939
_cell_length_b 9.131922
_cell_length_c 8.671980
_cell_angle_alpha 44.333548
_cell_angle_beta 85.381190
_cell_angle_gamma 99.972045
_cell_volume 706.120241
_symmetry_space_group_name_H-M "P -1"
_symmetry_group_IT_number 2
_symmetry_cell_setting 'triclinic'
loop_
_space_group_symop_operation_xyz
x,y,z
-x,-y,-z
loop_
_atom_site_type_symbol
_atom_site_label
_atom_site_fract_x
_atom_site_fract_y
_atom_site_fract_z
Si Si1 0.912711 0.250083 0.511043
Si Si2 0.607793 0.541621 0.265375
Si Si3 0.399187 0.034237 0.912568
Si Si4 0.802707 0.573956 0.387132
Si Si5 0.835280 0.093246 0.955650
Si Si6 0.143210 0.481031 0.225180
Si Si7 0.572756 0.883512 0.494866
Si Si8 0.258813 0.206070 0.234331
O O1 0.872699 0.461988 0.364073
O O2 0.918978 0.197349 0.732535
O O3 0.023279 0.321701 0.359295
O O4 0.831200 0.024625 0.623846
O O5 0.578811 0.708017 0.256165
O O6 0.687060 0.457903 0.418755
O O7 0.506447 0.358120 0.353852
O O8 0.673127 0.681756 0.007716
O O9 0.390154 0.988192 0.766691
O O10 0.500000 0.000000 0.000000
O O11 0.281837 0.923148 0.076297
O O12 0.814353 0.537073 0.594085
O O13 0.829288 0.840091 0.169907
O O14 0.855748 0.263078 0.969226
O O15 0.209801 0.386980 0.171357
O O16 0.666094 0.856066 0.605215
O O17 0.500000 0.000000 0.500000
#
# Coordination Sequence:
#
# PCOD9019295 Si02
#       8
#     2   2   2   2   2   2   2   2
#     4  11  23  45  69  96 134 184 225 279 340 393
#     4  11  24  44  67  97 132 183 216 270 341 403
#     4  11  24  41  69  97 132 174 221 274 328 408
#     4  10  21  44  70  95 131 175 226 284 324 403
#     4  10  22  43  68 101 132 173 229 276 337 397
#     4  11  26  40  72  99 134 177 229 284 340 390
#     4  12  27  41  69 101 135 177 224 270 344 405
#     4  12  24  46  64  99 146 174 221 286 332 406
#
# _framework density 22.659029
#
# number of rings (size 3 to 8) (size 9 to 14) (size 15 to 20)
#    0.000    1.000    2.500    5.625    7.000    2.000 
#    2.250    0.625    0.000    0.000    0.000    0.000 
#    0.000    0.000    0.000    0.000    0.000    0.000 
#
# Total GULP energy -89441.501097 kJ/mol
# GULP energy per Si atom -5590.093819 kJ/mol
# Density = 2.260746 g / cm^3
# Si number density = 22.659029 Si / 1000 Ang^3
#
#
#
# Elastic Constant Matrix: (Units=GPa)
#
#
# Indices 1 2 3 4 5 6 
#
# 1 58.0211 21.6154 14.1135 3.9870 -1.2846 7.2141
# 2 21.6154 124.5844 12.3282 -9.2131 -6.5283 -9.2676
# 3 14.1135 12.3282 47.8018 -5.2965 -1.6271 -3.1205
# 4 3.9870 -9.2131 -5.2965 43.0264 1.8699 -6.8157
# 5 -1.2846 -6.5283 -1.6271 1.8699 33.5741 -4.3687
# 6 7.2141 -9.2676 -3.1205 -6.8157 -4.3687 48.7468
#
#
#
# Elastic Compliance Matrix: (Units=1/GPa)
#
#
# Indices 1 2 3 4 5 6 
#
# 1 0.020980 -0.003749 -0.006034 -0.004231 -0.000614 -0.004850
# 2 -0.003749 0.009247 -0.000745 0.002598 0.001837 0.002793
# 3 -0.006034 -0.000745 0.023522 0.003708 0.000930 0.002859
# 4 -0.004231 0.002598 0.003708 0.025432 -0.000257 0.004890
# 5 -0.000614 0.001837 0.000930 -0.000257 0.030595 0.003206
# 6 -0.004850 0.002793 0.002859 0.004890 0.003206 0.022917
#
#
# Mechanical properties :
#
#
# Convention : Reuss Voigt Hill
#
# Bulk Modulus (GPa) = 30.58709 36.28015 33.43362
# Shear Modulus (GPa) = 30.36802 37.22615 33.79708
#
# Velocity S-wave (km/s) = 3.66487 4.05765 3.86625
# Velocity P-wave (km/s) = 5.60683 6.16431 5.89217
#
# Compressibility (1/GPa) = 0.03269354
#
# Stress axis : x y z
#
# Youngs Moduli (GPa) = 47.66525 108.14286 42.51254
#
# Poissons Ratio (x) = 0.40541 0.25651
# Poissons Ratio (y) = 0.17869 0.03168
# Poissons Ratio (z) = 0.28760 0.08059
#
# Static dielectric constant tensor:
#      x y z
#    x 1.817580 -0.069780 0.031300 
#    y -0.069780 1.822890 -0.037340 
#    z 0.031300 -0.037340 1.899140 
# 
# From -- ./inp_files/242028.got.cif
#   From: 2010.05.17/outbox.cif.g08.bks.cpg/sg2_122_cif.got.tgz:242028.got - 2010.06.03 11:33:40.
