data_PCOD9019755
_publ_section_title
;
Structure prediction by ZEFSAII (Michael W. Deem and Ramdas Pophale) SiO2 
 PCOD9019755
Probable space group: P -1
;
_chemical_formula_sum "Si O2"
_cell_formula_units_Z 16
_cell_length_a 5.718568
_cell_length_b 8.963637
_cell_length_c 14.671053
_cell_angle_alpha 111.280870
_cell_angle_beta 86.068455
_cell_angle_gamma 95.821185
_cell_volume 696.724499
_symmetry_space_group_name_H-M "P -1"
_symmetry_group_IT_number 2
_symmetry_cell_setting 'triclinic'
loop_
_space_group_symop_operation_xyz
x,y,z
-x,-y,-z
loop_
_atom_site_type_symbol
_atom_site_label
_atom_site_fract_x
_atom_site_fract_y
_atom_site_fract_z
Si Si1 0.623021 0.982646 0.706049
Si Si2 0.854227 0.848030 0.296997
Si Si3 0.257209 0.386891 0.591897
Si Si4 0.995070 0.643737 0.767866
Si Si5 0.920458 0.421909 0.888778
Si Si6 0.326874 0.365563 0.392930
Si Si7 0.792463 0.059880 0.074653
Si Si8 0.419371 0.839668 0.082598
O O1 0.391098 0.076800 0.707776
O O2 0.660439 0.013229 0.820906
O O3 0.889306 0.046144 0.678203
O O4 0.552530 0.801208 0.635467
O O5 0.789982 0.768964 0.379773
O O6 0.917548 0.705083 0.192934
O O7 0.163507 0.367839 0.487253
O O8 0.523101 0.463286 0.583590
O O9 0.150720 0.523823 0.684118
O O10 0.792865 0.666043 0.707416
O O11 0.902021 0.560368 0.845315
O O12 0.139547 0.809372 0.823157
O O13 0.679041 0.318344 0.898674
O O14 0.000000 0.500000 0.000000
O O15 0.691077 0.892304 0.083459
O O16 0.650638 0.147143 0.018487
O O17 0.000000 0.000000 0.000000
#
# Coordination Sequence:
#
# PCOD9019755 Si02
#       8
#     2   2   2   2   2   2   2   2
#     4  11  25  46  73 106 144 190 237 300 358 430
#     4  10  26  46  73 105 147 186 243 298 359 429
#     4  10  25  47  68 102 141 183 240 300 367 430
#     4  11  23  43  69  98 141 183 241 294 355 424
#     4  10  21  45  68 101 141 189 237 287 356 425
#     4  11  25  44  74 100 137 189 239 300 366 430
#     4  11  23  39  63  98 139 180 235 285 348 421
#     4  10  23  39  63  96 136 181 226 284 343 416
#
# _framework density 22.964601999999999
#
# number of rings (size 3 to 8) (size 9 to 14) (size 15 to 20)
#    0.000    1.500    1.250    1.875   12.250    2.000 
#    0.000    3.125    0.000    0.000    0.000    0.000 
#    0.000    0.000    0.000    0.000    0.000    0.000 
#
# Total GULP energy -89148.112677 kJ/mol
# GULP energy per Si atom -5571.757042 kJ/mol
# Density = 2.291233 g / cm^3
# Si number density = 22.964602 Si / 1000 Ang^3
#
#
#
# Elastic Constant Matrix: (Units=GPa)
#
#
# Indices 1 2 3 4 5 6 
#
# 1 82.3126 57.1236 26.6075 -16.3820 1.8990 11.7389
# 2 57.1236 94.2453 27.0254 -8.6377 -16.5096 20.2394
# 3 26.6075 27.0254 130.2915 -32.9179 16.1633 12.1054
# 4 -16.3820 -8.6377 -32.9179 48.8289 -1.5420 -5.0397
# 5 1.8990 -16.5096 16.1633 -1.5420 38.8658 -4.9506
# 6 11.7389 20.2394 12.1054 -5.0397 -4.9506 40.2365
#
#
#
# Elastic Compliance Matrix: (Units=1/GPa)
#
#
# Indices 1 2 3 4 5 6 
#
# 1 0.024093 -0.015764 0.000693 0.005556 -0.007888 0.000417
# 2 -0.015764 0.024091 -0.003651 -0.003682 0.011683 -0.005444
# 3 0.000693 -0.003651 0.010835 0.006541 -0.006029 -0.001548
# 4 0.005556 -0.003682 0.006541 0.026111 -0.003377 0.001118
# 5 -0.007888 0.011683 -0.006029 -0.003377 0.033701 0.001962
# 6 0.000417 -0.005444 -0.001548 0.001118 0.001962 0.028317
#
#
# Mechanical properties :
#
#
# Convention : Reuss Voigt Hill
#
# Bulk Modulus (GPa) = 46.35171 58.70694 52.52932
# Shear Modulus (GPa) = 26.07107 38.65910 32.36509
#
# Velocity S-wave (km/s) = 3.37303 4.10740 3.75820
# Velocity P-wave (km/s) = 5.94959 6.93642 6.46187
#
# Compressibility (1/GPa) = 0.02157418
#
# Stress axis : x y z
#
# Youngs Moduli (GPa) = 41.50577 41.50961 92.29185
#
# Poissons Ratio (x) = 0.65437 -0.06397
# Poissons Ratio (y) = 0.65431 0.33699
# Poissons Ratio (z) = -0.02877 0.15157
#
# Static dielectric constant tensor:
#      x y z
#    x 1.960980 -0.010950 0.089170 
#    y -0.010950 1.957670 -0.094470 
#    z 0.089170 -0.094470 1.978730 
# 
# From -- ./inp_files/480323.got.cif
#   From: 2010.05.17/outbox.cif.g08.bks.cpg/sg2_241_cif.got.tgz:480323.got - 2010.06.03 11:33:40.
