data_PCOD9019813
_publ_section_title
;
Structure prediction by ZEFSAII (Michael W. Deem and Ramdas Pophale) SiO2 
 PCOD9019813
Probable space group: P -1
;
_chemical_formula_sum "Si O2"
_cell_formula_units_Z 11
_cell_length_a 14.226771
_cell_length_b 7.079064
_cell_length_c 10.552161
_cell_angle_alpha 118.343103
_cell_angle_beta 33.297167
_cell_angle_gamma 129.987698
_cell_volume 442.063619
_symmetry_space_group_name_H-M "P -1"
_symmetry_group_IT_number 2
_symmetry_cell_setting 'triclinic'
loop_
_space_group_symop_operation_xyz
x,y,z
-x,-y,-z
loop_
_atom_site_type_symbol
_atom_site_label
_atom_site_fract_x
_atom_site_fract_y
_atom_site_fract_z
Si Si1 0.734666 0.345326 0.113663
Si Si2 0.698661 0.554360 0.963276
Si Si3 0.081042 0.906646 0.492337
Si Si4 0.527384 0.145123 0.650407
Si Si5 0.500000 0.000000 0.000000
Si Si6 0.847676 0.613824 0.329414
O O1 0.738400 0.483128 0.281226
O O2 0.536402 0.070119 0.239399
O O3 0.753846 0.513313 0.029098
O O4 0.922752 0.308310 0.905718
O O5 0.891710 0.678174 0.697543
O O6 0.525508 0.279816 0.029375
O O7 0.616601 0.744147 0.132618
O O8 0.169569 0.144568 0.560860
O O9 0.256893 0.866608 0.237580
O O10 0.000000 0.000000 0.500000
O O11 0.742149 0.393722 0.482634
O O12 0.500000 0.000000 0.500000
#
# Coordination Sequence:
#
# PCOD9019813 Si02
#       6
#     2   2   2   2   1   2
#     4  10  23  43  72 105 142 177 236 296 358 430
#     4  12  26  47  71 107 141 187 242 294 354 432
#     4  12  27  49  72 101 147 191 244 300 348 429
#     4  10  22  43  69 104 140 180 229 287 358 423
#     4  12  28  48  70 106 138 198 246 282 362 424
#     4  10  21  45  69 103 140 187 226 295 367 409
#
# _framework density 24.883296999999999
#
# number of rings (size 3 to 8) (size 9 to 14) (size 15 to 20)
#    0.000    1.091    3.636    1.636    0.000    7.273 
#    0.000    0.000    0.000    0.000    0.000    0.000 
#    0.000    0.000    0.000    0.000    0.000    0.000 
#
# Total GULP energy -61386.382695 kJ/mol
# GULP energy per Si atom -5580.580245 kJ/mol
# Density = 2.482666 g / cm^3
# Si number density = 24.883297 Si / 1000 Ang^3
#
#
#
# Elastic Constant Matrix: (Units=GPa)
#
#
# Indices 1 2 3 4 5 6 
#
# 1 65.2920 24.7468 16.3020 -2.9925 5.1435 -10.8103
# 2 24.7468 154.8727 56.8669 -30.5377 3.2083 -2.1218
# 3 16.3020 56.8669 130.6416 -20.3150 2.2559 -0.2119
# 4 -2.9925 -30.5377 -20.3150 70.0728 -9.3141 4.9838
# 5 5.1435 3.2083 2.2559 -9.3141 19.8515 -8.7518
# 6 -10.8103 -2.1218 -0.2119 4.9838 -8.7518 40.7904
#
#
#
# Elastic Compliance Matrix: (Units=1/GPa)
#
#
# Indices 1 2 3 4 5 6 
#
# 1 0.017394 -0.002475 -0.001249 -0.001360 -0.002824 0.004035
# 2 -0.002475 0.008479 -0.002950 0.002866 0.000768 -0.000416
# 3 -0.001249 -0.002950 0.009312 0.001422 0.000155 -0.000577
# 4 -0.001360 0.002866 0.001422 0.016900 0.007352 -0.000692
# 5 -0.002824 0.000768 0.000155 0.007352 0.059316 0.011121
# 6 0.004035 -0.000416 -0.000577 -0.000692 0.011121 0.028031
#
#
# Mechanical properties :
#
#
# Convention : Reuss Voigt Hill
#
# Bulk Modulus (GPa) = 45.79611 60.73750 53.26681
# Shear Modulus (GPa) = 31.23805 43.00231 37.12018
#
# Velocity S-wave (km/s) = 3.54698 4.16162 3.86654
# Velocity P-wave (km/s) = 5.93457 6.89595 6.43324
#
# Compressibility (1/GPa) = 0.02183591
#
# Stress axis : x y z
#
# Youngs Moduli (GPa) = 57.49101 117.93557 107.38555
#
# Poissons Ratio (x) = 0.29190 0.13416
# Poissons Ratio (y) = 0.14229 0.31683
# Poissons Ratio (z) = 0.07183 0.34795
#
# Static dielectric constant tensor:
#      x y z
#    x 1.666390 0.074230 0.029980 
#    y 0.074230 1.922410 -0.060060 
#    z 0.029980 -0.060060 1.881000 
# 
# From -- ./inp_files/93293.got.cif
#   From: 2010.05.17/outbox.cif.g08.bks.cpg/sg2_47_cif.got.tgz:93293.got - 2010.06.03 11:33:40.
