data_PCOD9019446
_publ_section_title
;
Structure prediction by ZEFSAII (Michael W. Deem and Ramdas Pophale) SiO2 
 PCOD9019446
Probable space group: P -1
;
_chemical_formula_sum "Si O2"
_cell_formula_units_Z 14
_cell_length_a 9.627917
_cell_length_b 11.389504
_cell_length_c 12.228797
_cell_angle_alpha 53.402056
_cell_angle_beta 34.840492
_cell_angle_gamma 56.975585
_cell_volume 610.500154
_symmetry_space_group_name_H-M "P -1"
_symmetry_group_IT_number 2
_symmetry_cell_setting 'triclinic'
loop_
_space_group_symop_operation_xyz
x,y,z
-x,-y,-z
loop_
_atom_site_type_symbol
_atom_site_label
_atom_site_fract_x
_atom_site_fract_y
_atom_site_fract_z
Si Si1 0.433511 0.713655 0.413674
Si Si2 0.559800 0.765170 0.630987
Si Si3 0.057077 0.352820 0.116328
Si Si4 0.887028 0.994163 0.195775
Si Si5 0.274349 0.406306 0.182001
Si Si6 0.331842 0.074169 0.974541
Si Si7 0.727079 0.518172 0.501995
O O1 0.657267 0.618323 0.383965
O O2 0.369996 0.634414 0.385322
O O3 0.195863 0.701127 0.647676
O O4 0.502262 0.875825 0.259025
O O5 0.726799 0.863839 0.398178
O O6 0.657510 0.737511 0.706471
O O7 0.590044 0.606587 0.640631
O O8 0.290330 0.853453 0.756077
O O9 0.213493 0.375052 0.112606
O O10 0.193042 0.226638 0.023869
O O11 0.000000 0.500000 0.000000
O O12 0.122833 0.977902 0.129468
O O13 0.000000 0.000000 0.000000
O O14 0.017567 0.491136 0.345266
O O15 0.500000 0.500000 0.000000
O O16 0.500000 0.000000 0.000000
#
# Coordination Sequence:
#
# PCOD9019446 Si02
#       7
#     2   2   2   2   2   2   2
#     4  10  23  43  73 103 141 181 234 286 361 416
#     4  11  26  47  72 101 144 185 240 290 356 415
#     4  11  26  49  73 103 143 186 239 292 361 424
#     4  11  28  49  72  97 143 197 237 284 354 427
#     4  11  27  40  74 111 140 179 232 298 359 419
#     4  12  28  43  73 105 141 188 237 293 351 425
#     4  10  21  44  72 103 138 181 227 300 352 417
#
# _framework density 22.932016000000001
#
# number of rings (size 3 to 8) (size 9 to 14) (size 15 to 20)
#    0.000    1.143    0.000    4.714   16.000    1.714 
#    0.000    0.000    0.000    0.000    0.000    0.000 
#    0.000    0.000    0.000    0.000    0.000    0.000 
#
# Total GULP energy -78376.590237 kJ/mol
# GULP energy per Si atom -5598.327874 kJ/mol
# Density = 2.287982 g / cm^3
# Si number density = 22.932016 Si / 1000 Ang^3
#
#
#
# Elastic Constant Matrix: (Units=GPa)
#
#
# Indices 1 2 3 4 5 6 
#
# 1 126.7911 8.6142 27.6889 10.6081 -7.0123 -22.3113
# 2 8.6142 35.5828 19.2947 7.7811 -7.2971 -5.5244
# 3 27.6889 19.2947 129.8225 7.0287 -9.5724 -10.4641
# 4 10.6081 7.7811 7.0287 18.4531 -8.8690 8.3133
# 5 -7.0123 -7.2971 -9.5724 -8.8690 41.6857 7.1269
# 6 -22.3113 -5.5244 -10.4641 8.3133 7.1269 39.8498
#
#
#
# Elastic Compliance Matrix: (Units=1/GPa)
#
#
# Indices 1 2 3 4 5 6 
#
# 1 0.010305 0.001418 -0.001316 -0.010675 -0.001994 0.008204
# 2 0.001418 0.035081 -0.003867 -0.017721 0.000305 0.008284
# 3 -0.001316 -0.003867 0.008762 -0.001142 0.000675 0.001145
# 4 -0.010675 -0.017721 -0.001142 0.091901 0.019768 -0.031441
# 5 -0.001994 0.000305 0.000675 0.019768 0.029839 -0.010357
# 6 0.008204 0.008284 0.001145 -0.031441 -0.010357 0.039548
#
#
# Mechanical properties :
#
#
# Convention : Reuss Voigt Hill
#
# Bulk Modulus (GPa) = 21.45105 44.82131 33.13618
# Shear Modulus (GPa) = 20.96405 35.77096 28.36751
#
# Velocity S-wave (km/s) = 3.02683 3.95380 3.52095
# Velocity P-wave (km/s) = 4.64651 6.35855 5.56872
#
# Compressibility (1/GPa) = 0.04661777
#
# Stress axis : x y z
#
# Youngs Moduli (GPa) = 97.04421 28.50576 114.12693
#
# Poissons Ratio (x) = -0.04043 0.15024
# Poissons Ratio (y) = -0.13763 0.44129
# Poissons Ratio (z) = 0.12775 0.11022
#
# Static dielectric constant tensor:
#      x y z
#    x 1.865210 0.042940 0.013780 
#    y 0.042940 1.846990 0.009860 
#    z 0.013780 0.009860 1.859960 
# 
# From -- ./inp_files/391917.got.cif
#   From: 2010.05.17/outbox.cif.g08.bks.cpg/sg2_196_cif.got.tgz:391917.got - 2010.06.03 11:33:40.
