data_PCOD9019703
_publ_section_title
;
Structure prediction by ZEFSAII (Michael W. Deem and Ramdas Pophale) SiO2 
 PCOD9019703
Probable space group: P -1
;
_chemical_formula_sum "Si O2"
_cell_formula_units_Z 16
_cell_length_a 16.412374
_cell_length_b 9.119079
_cell_length_c 5.800540
_cell_angle_alpha 80.799284
_cell_angle_beta 62.369791
_cell_angle_gamma 60.357918
_cell_volume 665.756302
_symmetry_space_group_name_H-M "P -1"
_symmetry_group_IT_number 2
_symmetry_cell_setting 'triclinic'
loop_
_space_group_symop_operation_xyz
x,y,z
-x,-y,-z
loop_
_atom_site_type_symbol
_atom_site_label
_atom_site_fract_x
_atom_site_fract_y
_atom_site_fract_z
Si Si1 0.902403 0.444920 0.959007
Si Si2 0.554792 0.593256 0.779172
Si Si3 0.745672 0.413314 0.875574
Si Si4 0.878357 0.189358 0.379409
Si Si5 0.583105 0.066576 0.340281
Si Si6 0.341402 0.706605 0.603027
Si Si7 0.912432 0.846166 0.417615
Si Si8 0.824428 0.825152 0.042008
O O1 0.790101 0.493062 0.980775
O O2 0.996578 0.346341 0.682447
O O3 0.918312 0.299133 0.157304
O O4 0.886380 0.621241 0.027809
O O5 0.660860 0.551761 0.784466
O O6 0.473923 0.788193 0.812643
O O7 0.590539 0.486945 0.521856
O O8 0.500000 0.500000 0.000000
O O9 0.846811 0.275800 0.645037
O O10 0.695112 0.309532 0.089404
O O11 0.764279 0.222166 0.426780
O O12 0.949229 0.989488 0.329236
O O13 0.603452 0.176096 0.487553
O O14 0.500000 0.000000 0.500000
O O15 0.698072 0.915008 0.172171
O O16 0.848176 0.878777 0.250170
O O17 0.859663 0.866768 0.735840
#
# Coordination Sequence:
#
# PCOD9019703 Si02
#       8
#     2   2   2   2   2   2   2   2
#     4  11  27  46  77 111 144 198 247 305 368 450
#     4  11  24  41  73  97 137 196 244 295 371 439
#     4  10  23  42  75 103 145 183 254 300 363 433
#     4  10  23  43  77 105 147 185 250 311 358 435
#     4  12  27  44  70 108 142 191 246 305 369 438
#     4  10  21  45  66  99 144 189 236 302 370 432
#     4  12  27  51  80 108 151 201 246 307 380 442
#     4  12  30  51  73 108 162 196 242 307 381 449
#
# _framework density 24.032817999999999
#
# number of rings (size 3 to 8) (size 9 to 14) (size 15 to 20)
#    0.000    1.000    2.500    2.250   12.250    0.500 
#    0.000    1.875    0.000    0.000    0.000    0.000 
#    0.000    0.000    0.000    0.000    0.000    0.000 
#
# Total GULP energy -89364.408550 kJ/mol
# GULP energy per Si atom -5585.275534 kJ/mol
# Density = 2.397812 g / cm^3
# Si number density = 24.032818 Si / 1000 Ang^3
#
#
#
# Elastic Constant Matrix: (Units=GPa)
#
#
# Indices 1 2 3 4 5 6 
#
# 1 106.7186 24.2698 33.5041 -6.8020 8.4124 -9.4265
# 2 24.2698 132.7432 34.6676 0.8973 0.2549 -14.0514
# 3 33.5041 34.6676 112.2964 -7.7838 1.4002 1.2937
# 4 -6.8020 0.8973 -7.7838 29.7954 -2.0842 -8.5228
# 5 8.4124 0.2549 1.4002 -2.0842 27.2794 6.3082
# 6 -9.4265 -14.0514 1.2937 -8.5228 6.3082 43.2223
#
#
#
# Elastic Compliance Matrix: (Units=1/GPa)
#
#
# Indices 1 2 3 4 5 6 
#
# 1 0.011249 -0.000968 -0.002872 0.002516 -0.003880 0.003287
# 2 -0.000968 0.008626 -0.002427 -0.000382 -0.000296 0.002634
# 3 -0.002872 -0.002427 0.010645 0.001829 0.000848 -0.001497
# 4 0.002516 -0.000382 0.001829 0.036813 0.000189 0.007601
# 5 -0.003880 -0.000296 0.000848 0.000189 0.039372 -0.006677
# 6 0.003287 0.002634 -0.001497 0.007601 -0.006677 0.027227
#
#
# Mechanical properties :
#
#
# Convention : Reuss Voigt Hill
#
# Bulk Modulus (GPa) = 55.60430 59.62679 57.61555
# Shear Modulus (GPa) = 32.79484 37.34723 35.07103
#
# Velocity S-wave (km/s) = 3.69804 3.94637 3.82422
# Velocity P-wave (km/s) = 6.43592 6.75496 6.59737
#
# Compressibility (1/GPa) = 0.01798422
#
# Stress axis : x y z
#
# Youngs Moduli (GPa) = 88.89720 115.92573 93.94240
#
# Poissons Ratio (x) = 0.11223 0.26984
# Poissons Ratio (y) = 0.08606 0.22803
# Poissons Ratio (z) = 0.25535 0.28139
#
# Static dielectric constant tensor:
#      x y z
#    x 2.067980 -0.100970 -0.091490 
#    y -0.100970 2.169790 0.312280 
#    z -0.091490 0.312280 2.359070 
# 
# From -- ./inp_files/106663.got.cif
#   From: 2010.05.17/outbox.cif.g08.bks.cpg/sg2_54_cif.got.tgz:106663.got - 2010.06.03 11:33:40.
