data_PCOD9019322
_publ_section_title
;
Structure prediction by ZEFSAII (Michael W. Deem and Ramdas Pophale) SiO2 
 PCOD9019322
Probable space group: P -1
;
_chemical_formula_sum "Si O2"
_cell_formula_units_Z 16
_cell_length_a 8.583650
_cell_length_b 14.293968
_cell_length_c 11.491037
_cell_angle_alpha 27.410955
_cell_angle_beta 95.884521
_cell_angle_gamma 87.862472
_cell_volume 619.786551
_symmetry_space_group_name_H-M "P -1"
_symmetry_group_IT_number 2
_symmetry_cell_setting 'triclinic'
loop_
_space_group_symop_operation_xyz
x,y,z
-x,-y,-z
loop_
_atom_site_type_symbol
_atom_site_label
_atom_site_fract_x
_atom_site_fract_y
_atom_site_fract_z
Si Si1 0.317614 0.708634 0.879572
Si Si2 0.079327 0.421015 0.276414
Si Si3 0.037133 0.273784 0.690035
Si Si4 0.985056 0.764428 0.771615
Si Si5 0.392086 0.064549 0.636313
Si Si6 0.696483 0.271738 0.657630
Si Si7 0.380556 0.682371 0.662359
Si Si8 0.397031 0.232410 0.826525
O O1 0.163026 0.631085 0.001252
O O2 0.273607 0.705497 0.743654
O O3 0.310877 0.927914 0.696627
O O4 0.492814 0.548570 0.086573
O O5 0.019600 0.333204 0.487035
O O6 0.272517 0.256372 0.485178
O O7 0.050208 0.315131 0.267145
O O8 0.907236 0.652833 0.987380
O O9 0.229375 0.174479 0.845589
O O10 0.000000 0.500000 0.500000
O O11 0.883977 0.184301 0.814590
O O12 0.000000 0.000000 0.500000
O O13 0.503678 0.172725 0.450627
O O14 0.508159 0.900063 0.912565
O O15 0.694877 0.247704 0.544730
O O16 0.540554 0.208691 0.767647
O O17 0.653856 0.520787 0.413199
#
# Coordination Sequence:
#
# PCOD9019322 Si02
#       8
#     2   2   2   2   2   2   2   2
#     4  11  23  41  64  98 136 184 231 291 357 424
#     4  11  24  42  71  99 140 185 236 296 358 427
#     4  10  23  45  70 104 143 187 239 301 351 420
#     4  11  23  44  68 101 136 183 236 290 358 429
#     4  12  23  43  68 101 136 185 241 292 353 428
#     4  10  21  44  70  98 139 187 234 300 353 415
#     4  11  23  40  66  96 138 179 236 289 356 427
#     4  10  23  42  73 101 136 189 241 287 359 418
#
# _framework density 25.815339000000002
#
# number of rings (size 3 to 8) (size 9 to 14) (size 15 to 20)
#    0.000    1.250    3.750    1.875    0.000    3.000 
#    4.500    2.500    0.000    0.000    0.000    0.000 
#    0.000    0.000    0.000    0.000    0.000    0.000 
#
# Total GULP energy -89085.593238 kJ/mol
# GULP energy per Si atom -5567.849577 kJ/mol
# Density = 2.575658 g / cm^3
# Si number density = 25.815339 Si / 1000 Ang^3
#
#
#
# Elastic Constant Matrix: (Units=GPa)
#
#
# Indices 1 2 3 4 5 6 
#
# 1 157.2547 37.1091 33.2996 -8.2675 4.8531 23.2313
# 2 37.1091 72.4484 10.0324 -3.9253 -3.0904 7.1697
# 3 33.2996 10.0324 98.9454 -14.3228 20.0019 -4.4466
# 4 -8.2675 -3.9253 -14.3228 51.8002 0.0915 -3.4576
# 5 4.8531 -3.0904 20.0019 0.0915 39.3584 -7.4798
# 6 23.2313 7.1697 -4.4466 -3.4576 -7.4798 38.3655
#
#
#
# Elastic Compliance Matrix: (Units=1/GPa)
#
#
# Indices 1 2 3 4 5 6 
#
# 1 0.008496 -0.003552 -0.002512 0.000063 -0.000992 -0.004960
# 2 -0.003552 0.015885 -0.000784 0.000384 0.001990 -0.000486
# 3 -0.002512 -0.000784 0.012779 0.003237 -0.005815 0.002307
# 4 0.000063 0.000384 0.003237 0.020365 -0.001320 0.001843
# 5 -0.000992 0.001990 -0.005815 -0.001320 0.029636 0.005214
# 6 -0.004960 -0.000486 0.002307 0.001843 0.005214 0.030609
#
#
# Mechanical properties :
#
#
# Convention : Reuss Voigt Hill
#
# Bulk Modulus (GPa) = 42.61853 54.39230 48.50542
# Shear Modulus (GPa) = 35.89721 42.45198 39.17459
#
# Velocity S-wave (km/s) = 3.73304 4.05958 3.89973
# Velocity P-wave (km/s) = 5.92668 6.56423 6.25359
#
# Compressibility (1/GPa) = 0.02346397
#
# Stress axis : x y z
#
# Youngs Moduli (GPa) = 117.70340 62.95398 78.25065
#
# Poissons Ratio (x) = 0.22361 0.19659
# Poissons Ratio (y) = 0.41808 0.06133
# Poissons Ratio (z) = 0.29570 0.04934
#
# Static dielectric constant tensor:
#      x y z
#    x 2.308910 -0.213200 -0.077460 
#    y -0.213200 2.380050 0.369130 
#    z -0.077460 0.369130 2.664200 
# 
# From -- ./inp_files/398197.got.cif
#   From: 2010.05.17/outbox.cif.g08.bks.cpg/sg2_200_cif.got.tgz:398197.got - 2010.06.03 11:33:40.
