data_PCOD9019731
_publ_section_title
;
Structure prediction by ZEFSAII (Michael W. Deem and Ramdas Pophale) SiO2 
 PCOD9019731
Probable space group: P -1
;
_chemical_formula_sum "Si O2"
_cell_formula_units_Z 14
_cell_length_a 14.530708
_cell_length_b 7.712553
_cell_length_c 14.105138
_cell_angle_alpha 72.465030
_cell_angle_beta 152.022409
_cell_angle_gamma 124.022045
_cell_volume 533.715942
_symmetry_space_group_name_H-M "P -1"
_symmetry_group_IT_number 2
_symmetry_cell_setting 'triclinic'
loop_
_space_group_symop_operation_xyz
x,y,z
-x,-y,-z
loop_
_atom_site_type_symbol
_atom_site_label
_atom_site_fract_x
_atom_site_fract_y
_atom_site_fract_z
Si Si1 0.448409 0.044245 0.050335
Si Si2 0.898005 0.917047 0.562986
Si Si3 0.646083 0.856555 0.543769
Si Si4 0.387382 0.010262 0.206326
Si Si5 0.847369 0.676138 0.871870
Si Si6 0.644473 0.572522 0.907986
Si Si7 0.776135 0.564450 0.231523
O O1 0.422497 0.933916 0.147838
O O2 0.699029 0.329083 0.245804
O O3 0.500000 0.000000 0.000000
O O4 0.161358 0.960323 0.793962
O O5 0.813705 0.890404 0.600390
O O6 0.647289 0.684450 0.321687
O O7 0.993983 0.168455 0.567233
O O8 0.767903 0.837397 0.749481
O O9 0.368533 0.587790 0.326198
O O10 0.600236 0.043272 0.461452
O O11 0.393047 0.230598 0.156371
O O12 0.115289 0.804335 0.042432
O O13 0.810352 0.628640 0.957093
O O14 0.791641 0.572394 0.130458
O O15 0.500000 0.500000 0.000000
#
# Coordination Sequence:
#
# PCOD9019731 Si02
#       7
#     2   2   2   2   2   2   2
#     4  11  25  43  68 100 140 182 233 283 342 408
#     4  10  22  45  69  95 139 179 226 287 337 412
#     4  10  22  41  70 100 136 182 229 283 350 409
#     4  12  23  44  67 105 140 179 233 287 342 414
#     4  10  22  43  69 101 141 179 225 290 347 416
#     4  11  23  41  74 106 129 187 233 273 361 407
#     4  10  21  45  67  95 142 185 222 286 341 404
#
# _framework density 26.231179999999998
#
# number of rings (size 3 to 8) (size 9 to 14) (size 15 to 20)
#    0.000    1.429    4.286    0.857    4.000    4.000 
#    0.000    1.429    0.000    0.000    0.000    0.000 
#    0.000    0.000    0.000    0.000    0.000    0.000 
#
# Total GULP energy -78362.028310 kJ/mol
# GULP energy per Si atom -5597.287736 kJ/mol
# Density = 2.617148 g / cm^3
# Si number density = 26.231180 Si / 1000 Ang^3
#
#
#
# Elastic Constant Matrix: (Units=GPa)
#
#
# Indices 1 2 3 4 5 6 
#
# 1 138.4979 37.2143 42.7444 12.6832 21.5797 43.8331
# 2 37.2143 117.9474 54.9245 11.5492 16.5657 14.8015
# 3 42.7444 54.9245 116.9965 30.4446 23.4423 12.9652
# 4 12.6832 11.5492 30.4446 69.6107 5.5269 -0.7509
# 5 21.5797 16.5657 23.4423 5.5269 42.1211 0.4531
# 6 43.8331 14.8015 12.9652 -0.7509 0.4531 35.4484
#
#
#
# Elastic Compliance Matrix: (Units=1/GPa)
#
#
# Indices 1 2 3 4 5 6 
#
# 1 0.014177 -0.000759 -0.001410 -0.001560 -0.005796 -0.016657
# 2 -0.000759 0.011291 -0.004583 0.000369 -0.001527 -0.002072
# 3 -0.001410 -0.004583 0.013397 -0.004512 -0.004325 -0.001283
# 4 -0.001560 0.000369 -0.004512 0.016527 0.000957 0.003763
# 5 -0.005796 -0.001527 -0.004325 0.000957 0.029496 0.009030
# 6 -0.016657 -0.002072 -0.001283 0.003763 0.009030 0.050105
#
#
# Mechanical properties :
#
#
# Convention : Reuss Voigt Hill
#
# Bulk Modulus (GPa) = 39.43342 71.46757 55.45050
# Shear Modulus (GPa) = 31.85707 45.33996 38.59852
#
# Velocity S-wave (km/s) = 3.48871 4.16200 3.84014
# Velocity P-wave (km/s) = 5.59409 7.09935 6.39119
#
# Compressibility (1/GPa) = 0.02535920
#
# Stress axis : x y z
#
# Youngs Moduli (GPa) = 70.53601 88.56910 74.64293
#
# Poissons Ratio (x) = 0.06726 0.10524
# Poissons Ratio (y) = 0.05357 0.34212
# Poissons Ratio (z) = 0.09945 0.40595
#
# Static dielectric constant tensor:
#      x y z
#    x 2.101030 -0.071370 -0.022770 
#    y -0.071370 2.136610 -0.025430 
#    z -0.022770 -0.025430 2.041780 
# 
# From -- ./inp_files/529592.got.cif
#   From: 2010.05.17/outbox.cif.g08.bks.cpg/sg2_265_cif.got.tgz:529592.got - 2010.06.03 11:33:40.
