data_PCOD9019525
_publ_section_title
;
Structure prediction by ZEFSAII (Michael W. Deem and Ramdas Pophale) SiO2 
 PCOD9019525
Probable space group: P -1
;
_chemical_formula_sum "Si O2"
_cell_formula_units_Z 14
_cell_length_a 9.402444
_cell_length_b 7.595062
_cell_length_c 12.494972
_cell_angle_alpha 103.502573
_cell_angle_beta 56.235242
_cell_angle_gamma 68.082604
_cell_volume 564.602404
_symmetry_space_group_name_H-M "P -1"
_symmetry_group_IT_number 2
_symmetry_cell_setting 'triclinic'
loop_
_space_group_symop_operation_xyz
x,y,z
-x,-y,-z
loop_
_atom_site_type_symbol
_atom_site_label
_atom_site_fract_x
_atom_site_fract_y
_atom_site_fract_z
Si Si1 0.565603 0.357159 0.117739
Si Si2 0.077678 0.717370 0.316700
Si Si3 0.144018 0.101732 0.343325
Si Si4 0.342921 0.296702 0.889155
Si Si5 0.280393 0.128913 0.679799
Si Si6 0.649685 0.313357 0.319538
Si Si7 0.110981 0.188161 0.134621
O O1 0.533586 0.383596 0.263121
O O2 0.331285 0.498132 0.179969
O O3 0.674137 0.477057 0.060095
O O4 0.722430 0.091073 0.983502
O O5 0.981361 0.745272 0.478960
O O6 0.919348 0.734108 0.298939
O O7 0.067540 0.943101 0.336011
O O8 0.103323 0.237765 0.270913
O O9 0.401295 0.922348 0.235446
O O10 0.274640 0.280500 0.796800
O O11 0.210087 0.270727 0.026897
O O12 0.287914 0.930096 0.706705
O O13 0.500000 0.000000 0.500000
O O14 0.500000 0.500000 0.500000
O O15 0.873071 0.278319 0.211885
#
# Coordination Sequence:
#
# PCOD9019525 Si02
#       7
#     2   2   2   2   2   2   2
#     4  11  26  48  77 113 150 204 253 304 390 451
#     4  10  22  43  79 105 150 203 252 314 378 443
#     4  10  21  44  73 106 150 199 249 310 370 444
#     4  11  25  45  76 113 153 196 258 310 374 449
#     4  12  23  47  78 113 154 195 256 320 371 449
#     4  12  26  48  77 109 149 204 251 313 384 450
#     4  12  25  49  77 108 160 197 248 319 381 450
#
# _framework density 24.796211
#
# number of rings (size 3 to 8) (size 9 to 14) (size 15 to 20)
#    0.000    0.857    4.286    2.571    2.000    2.857 
#    2.571    5.714    0.000    0.000    0.000    0.000 
#    0.000    0.000    0.000    0.000    0.000    0.000 
#
# Total GULP energy -78695.579020 kJ/mol
# GULP energy per Si atom -5621.112787 kJ/mol
# Density = 2.473977 g / cm^3
# Si number density = 24.796211 Si / 1000 Ang^3
#
#
#
# Elastic Constant Matrix: (Units=GPa)
#
#
# Indices 1 2 3 4 5 6 
#
# 1 194.6483 62.8514 76.5952 -11.5426 7.2101 -15.6998
# 2 62.8514 125.2441 70.6226 -12.9686 -7.1740 1.4493
# 3 76.5952 70.6226 157.8979 -26.7821 0.3746 6.4265
# 4 -11.5426 -12.9686 -26.7821 51.7194 -7.1388 0.1956
# 5 7.2101 -7.1740 0.3746 -7.1388 44.3494 -15.1812
# 6 -15.6998 1.4493 6.4265 0.1956 -15.1812 37.2769
#
#
#
# Elastic Compliance Matrix: (Units=1/GPa)
#
#
# Indices 1 2 3 4 5 6 
#
# 1 0.007174 -0.002173 -0.002717 -0.000418 -0.000393 0.003416
# 2 -0.002173 0.011547 -0.004016 0.000671 0.002477 0.000333
# 3 -0.002717 -0.004016 0.010179 0.003562 -0.000774 -0.003077
# 4 -0.000418 0.000671 0.003562 0.021787 0.003875 0.000648
# 5 -0.000393 0.002477 -0.000774 0.003875 0.027414 0.011016
# 6 0.003416 0.000333 -0.003077 0.000648 0.011016 0.033265
#
#
# Mechanical properties :
#
#
# Convention : Reuss Voigt Hill
#
# Bulk Modulus (GPa) = 90.19416 99.76986 94.98201
# Shear Modulus (GPa) = 37.62960 44.51720 41.07340
#
# Velocity S-wave (km/s) = 3.89981 4.24172 4.07435
# Velocity P-wave (km/s) = 7.53201 8.01953 7.77959
#
# Compressibility (1/GPa) = 0.01108719
#
# Stress axis : x y z
#
# Youngs Moduli (GPa) = 139.39925 86.60170 98.24497
#
# Poissons Ratio (x) = 0.18821 0.26692
# Poissons Ratio (y) = 0.30295 0.39455
# Poissons Ratio (z) = 0.37873 0.34779
#
# Static dielectric constant tensor:
#      x y z
#    x 1.920580 0.022080 0.017360 
#    y 0.022080 1.939740 -0.003750 
#    z 0.017360 -0.003750 1.926100 
# 
# From -- ./inp_files/388131.got.cif
#   From: 2010.05.17/outbox.cif.g08.bks.cpg/sg2_195_cif.got.tgz:388131.got - 2010.06.03 11:33:40.
