data_PCOD9019739
_publ_section_title
;
Structure prediction by ZEFSAII (Michael W. Deem and Ramdas Pophale) SiO2 
 PCOD9019739
Probable space group: P -1
;
_chemical_formula_sum "Si O2"
_cell_formula_units_Z 14
_cell_length_a 15.641114
_cell_length_b 7.469837
_cell_length_c 12.077640
_cell_angle_alpha 71.969869
_cell_angle_beta 45.205091
_cell_angle_gamma 107.842618
_cell_volume 599.109882
_symmetry_space_group_name_H-M "P -1"
_symmetry_group_IT_number 2
_symmetry_cell_setting 'triclinic'
loop_
_space_group_symop_operation_xyz
x,y,z
-x,-y,-z
loop_
_atom_site_type_symbol
_atom_site_label
_atom_site_fract_x
_atom_site_fract_y
_atom_site_fract_z
Si Si1 0.582991 0.844260 0.813212
Si Si2 0.517333 0.728545 0.495543
Si Si3 0.838385 0.700244 0.943062
Si Si4 0.503052 0.148040 0.743656
Si Si5 0.729012 0.803499 0.475170
Si Si6 0.855803 0.644953 0.696381
Si Si7 0.815377 0.079683 0.780946
O O1 0.638124 0.775306 0.675695
O O2 0.606952 0.085903 0.700458
O O3 0.708146 0.956233 0.784762
O O4 0.358134 0.559090 0.102390
O O5 0.500000 0.500000 0.500000
O O6 0.536369 0.889739 0.343873
O O7 0.683267 0.898329 0.401682
O O8 0.326724 0.546641 0.772462
O O9 0.844942 0.581841 0.848789
O O10 0.790517 0.851943 0.912780
O O11 0.046328 0.951225 0.759587
O O12 0.628476 0.483204 0.598514
O O13 0.302030 0.919438 0.036099
O O14 0.960607 0.643980 0.509517
O O15 0.000000 0.000000 0.500000
#
# Coordination Sequence:
#
# PCOD9019739 Si02
#       7
#     2   2   2   2   2   2   2
#     4  12  25  45  68 101 138 177 222 278 338 396
#     4  10  21  45  67  98 133 176 231 270 332 401
#     4  11  21  40  70 103 126 176 230 271 332 401
#     4  11  26  45  67 101 137 177 224 277 335 400
#     4  11  23  44  72  94 134 181 222 275 335 392
#     4  10  22  38  67  98 129 175 223 267 329 400
#     4  11  23  42  63 103 136 169 223 274 335 399
#
# _framework density 23.368001
#
# number of rings (size 3 to 8) (size 9 to 14) (size 15 to 20)
#    0.000    1.143    5.714    1.286    4.000    6.286 
#    2.571    0.714    0.000    0.000    0.000    0.000 
#    0.000    0.000    0.000    0.000    0.000    0.000 
#
# Total GULP energy -78376.216767 kJ/mol
# GULP energy per Si atom -5598.301198 kJ/mol
# Density = 2.331481 g / cm^3
# Si number density = 23.368001 Si / 1000 Ang^3
#
#
#
# Elastic Constant Matrix: (Units=GPa)
#
#
# Indices 1 2 3 4 5 6 
#
# 1 195.7942 49.7480 73.1151 2.0357 -2.7157 22.7533
# 2 49.7480 95.3322 31.7739 12.6354 4.0690 -0.3718
# 3 73.1151 31.7739 108.1607 10.8119 3.9823 18.7701
# 4 2.0357 12.6354 10.8119 29.5023 14.1609 2.1645
# 5 -2.7157 4.0690 3.9823 14.1609 47.3750 0.4812
# 6 22.7533 -0.3718 18.7701 2.1645 0.4812 39.9511
#
#
#
# Elastic Compliance Matrix: (Units=1/GPa)
#
#
# Indices 1 2 3 4 5 6 
#
# 1 0.007678 -0.002962 -0.004109 0.002245 0.000395 -0.002597
# 2 -0.002962 0.013368 -0.001938 -0.005209 0.000372 0.003000
# 3 -0.004109 -0.001938 0.013625 -0.003538 -0.000117 -0.003886
# 4 0.002245 -0.005209 -0.003538 0.043170 -0.012012 -0.001859
# 5 0.000395 0.000372 -0.000117 -0.012012 0.024697 0.000187
# 6 -0.002597 0.003000 -0.003886 -0.001859 0.000187 0.028462
#
#
# Mechanical properties :
#
#
# Convention : Reuss Voigt Hill
#
# Bulk Modulus (GPa) = 60.05020 78.72903 69.38962
# Shear Modulus (GPa) = 32.34828 39.67569 36.01198
#
# Velocity S-wave (km/s) = 3.72465 4.12499 3.92992
# Velocity P-wave (km/s) = 6.65213 7.51342 7.09585
#
# Compressibility (1/GPa) = 0.01665273
#
# Stress axis : x y z
#
# Youngs Moduli (GPa) = 130.24013 74.80818 73.39656
#
# Poissons Ratio (x) = 0.22158 0.30155
# Poissons Ratio (y) = 0.38576 0.14226
# Poissons Ratio (z) = 0.53510 0.14500
#
# Static dielectric constant tensor:
#      x y z
#    x 1.879830 -0.071310 0.024530 
#    y -0.071310 1.998930 -0.019270 
#    z 0.024530 -0.019270 1.874790 
# 
# From -- ./inp_files/398614.got.cif
#   From: 2010.05.17/outbox.cif.g08.bks.cpg/sg2_200_cif.got.tgz:398614.got - 2010.06.03 11:33:40.
