data_PCOD9019268
_publ_section_title
;
Structure prediction by ZEFSAII (Michael W. Deem and Ramdas Pophale) SiO2 
 PCOD9019268
Probable space group: P -1
;
_chemical_formula_sum "Si O2"
_cell_formula_units_Z 14
_cell_length_a 10.857641
_cell_length_b 9.629588
_cell_length_c 12.358528
_cell_angle_alpha 69.292954
_cell_angle_beta 141.653437
_cell_angle_gamma 129.514928
_cell_volume 589.213327
_symmetry_space_group_name_H-M "P -1"
_symmetry_group_IT_number 2
_symmetry_cell_setting 'triclinic'
loop_
_space_group_symop_operation_xyz
x,y,z
-x,-y,-z
loop_
_atom_site_type_symbol
_atom_site_label
_atom_site_fract_x
_atom_site_fract_y
_atom_site_fract_z
Si Si1 0.740718 0.374828 0.422948
Si Si2 0.778368 0.719225 0.436506
Si Si3 0.230925 0.501838 0.191619
Si Si4 0.600245 0.209049 0.598137
Si Si5 0.035960 0.001423 0.337041
Si Si6 0.984953 0.168864 0.969899
Si Si7 0.652660 0.698731 0.991009
O O1 0.730202 0.527884 0.431864
O O2 0.686779 0.241095 0.523623
O O3 0.524235 0.279446 0.209718
O O4 0.000000 0.500000 0.500000
O O5 0.494678 0.655537 0.267652
O O6 0.916531 0.823091 0.615193
O O7 0.948699 0.857254 0.417234
O O8 0.301259 0.590454 0.335333
O O9 0.124141 0.289900 0.141772
O O10 0.000000 0.500000 0.000000
O O11 0.299393 0.074496 0.444531
O O12 0.726385 0.135750 0.776530
O O13 0.814072 0.876433 0.132882
O O14 0.165719 0.310313 0.959930
O O15 0.000000 0.000000 0.000000
O O16 0.500000 0.500000 0.000000
#
# Coordination Sequence:
#
# PCOD9019268 Si02
#       7
#     2   2   2   2   2   2   2
#     4  12  26  44  71 105 146 193 242 293 363 436
#     4  10  21  44  70 103 141 193 242 291 359 426
#     4   9  19  43  73 102 140 187 244 293 356 430
#     4  10  25  44  72 104 145 191 247 294 357 433
#     4  10  23  42  73 104 143 189 241 303 355 423
#     4  11  24  42  69 107 144 181 236 301 358 422
#     4  12  24  44  67  98 143 190 233 293 368 423
#
# _framework density 23.760496
#
# number of rings (size 3 to 8) (size 9 to 14) (size 15 to 20)
#    0.000    1.429    2.857    0.857    2.000    6.286 
#    0.000    0.714    0.000    0.000    0.000    0.000 
#    0.000    0.000    0.000    0.000    0.000    0.000 
#
# Total GULP energy -78202.385000 kJ/mol
# GULP energy per Si atom -5585.884643 kJ/mol
# Density = 2.370642 g / cm^3
# Si number density = 23.760496 Si / 1000 Ang^3
#
#
#
# Elastic Constant Matrix: (Units=GPa)
#
#
# Indices 1 2 3 4 5 6 
#
# 1 142.2062 58.1973 79.1558 14.9207 -27.3111 -3.4268
# 2 58.1973 116.3440 63.6022 14.3452 -15.4512 -11.9432
# 3 79.1558 63.6022 147.5822 34.3425 -23.3723 -1.1764
# 4 14.9207 14.3452 34.3425 38.6243 -6.7492 -3.4206
# 5 -27.3111 -15.4512 -23.3723 -6.7492 52.7901 16.1609
# 6 -3.4268 -11.9432 -1.1764 -3.4206 16.1609 68.7691
#
#
#
# Elastic Compliance Matrix: (Units=1/GPa)
#
#
# Indices 1 2 3 4 5 6 
#
# 1 0.011254 -0.002935 -0.004552 0.001308 0.003344 -0.000748
# 2 -0.002935 0.012281 -0.003741 0.000042 -0.000176 0.001966
# 3 -0.004552 -0.003741 0.013007 -0.008250 0.001703 -0.001464
# 4 0.001308 0.000042 -0.008250 0.032972 0.000831 0.001376
# 5 0.003344 -0.000176 0.001703 0.000831 0.023078 -0.005217
# 6 -0.000748 0.001966 -0.001464 0.001376 -0.005217 0.016115
#
#
# Mechanical properties :
#
#
# Convention : Reuss Voigt Hill
#
# Bulk Modulus (GPa) = 70.98577 89.78256 80.38417
# Shear Modulus (GPa) = 36.80308 45.71518 41.25913
#
# Velocity S-wave (km/s) = 3.93990 4.39110 4.17160
# Velocity P-wave (km/s) = 7.11600 7.97355 7.55695
#
# Compressibility (1/GPa) = 0.01408733
#
# Stress axis : x y z
#
# Youngs Moduli (GPa) = 88.85885 81.42351 76.88137
#
# Poissons Ratio (x) = 0.23896 0.34996
# Poissons Ratio (y) = 0.26079 0.28759
# Poissons Ratio (z) = 0.40448 0.30458
#
# Static dielectric constant tensor:
#      x y z
#    x 1.898130 0.004110 -0.025560 
#    y 0.004110 2.007020 0.000580 
#    z -0.025560 0.000580 1.936690 
# 
# From -- ./inp_files/292658.got.cif
#   From: 2010.05.17/outbox.cif.g08.bks.cpg/sg2_147_cif.got.tgz:292658.got - 2010.06.03 11:33:40.
