data_PCOD9019428
_publ_section_title
;
Structure prediction by ZEFSAII (Michael W. Deem and Ramdas Pophale) SiO2 
 PCOD9019428
Probable space group: P -1
;
_chemical_formula_sum "Si O2"
_cell_formula_units_Z 14
_cell_length_a 11.937143
_cell_length_b 15.220750
_cell_length_c 9.238654
_cell_angle_alpha 138.132697
_cell_angle_beta 51.855786
_cell_angle_gamma 147.997335
_cell_volume 593.258588
_symmetry_space_group_name_H-M "P -1"
_symmetry_group_IT_number 2
_symmetry_cell_setting 'triclinic'
loop_
_space_group_symop_operation_xyz
x,y,z
-x,-y,-z
loop_
_atom_site_type_symbol
_atom_site_label
_atom_site_fract_x
_atom_site_fract_y
_atom_site_fract_z
Si Si1 0.228054 0.607945 0.894230
Si Si2 0.927792 0.581503 0.746028
Si Si3 0.654967 0.477462 0.067987
Si Si4 0.199514 0.137163 0.611029
Si Si5 0.200895 0.064748 0.846796
Si Si6 0.644929 0.047298 0.209796
Si Si7 0.630456 0.322810 0.452287
O O1 0.279837 0.500748 0.791383
O O2 0.241531 0.618064 0.722967
O O3 0.000000 0.500000 0.000000
O O4 0.432631 0.831663 0.060282
O O5 0.754767 0.514030 0.685233
O O6 0.000000 0.500000 0.500000
O O7 0.138791 0.809995 0.884831
O O8 0.794255 0.466002 0.854003
O O9 0.736026 0.668620 0.174630
O O10 0.411153 0.288432 0.999130
O O11 0.171130 0.047219 0.677031
O O12 0.399334 0.212823 0.461552
O O13 0.000000 0.000000 0.500000
O O14 0.263560 0.961867 0.731479
O O15 0.000000 0.000000 0.000000
O O16 0.594383 0.167600 0.388812
#
# Coordination Sequence:
#
# PCOD9019428 Si02
#       7
#     2   2   2   2   2   2   2
#     4  11  25  44  71 104 143 185 228 299 363 408
#     4  10  21  44  72 101 133 182 235 291 345 416
#     4  11  25  47  69 101 145 188 237 283 356 427
#     4  12  29  45  71 105 143 190 236 290 359 418
#     4  11  25  46  74 102 137 191 237 288 354 423
#     4  10  24  43  75  98 140 184 239 283 352 416
#     4  11  25  45  69 106 143 181 240 294 349 419
#
# _framework density 23.598479000000001
#
# number of rings (size 3 to 8) (size 9 to 14) (size 15 to 20)
#    0.000    1.143    1.429    3.429   10.000    2.286 
#    2.571    0.000    0.000    0.000    0.000    0.000 
#    0.000    0.000    0.000    0.000    0.000    0.000 
#
# Total GULP energy -78141.024111 kJ/mol
# GULP energy per Si atom -5581.501722 kJ/mol
# Density = 2.354477 g / cm^3
# Si number density = 23.598479 Si / 1000 Ang^3
#
#
#
# Elastic Constant Matrix: (Units=GPa)
#
#
# Indices 1 2 3 4 5 6 
#
# 1 141.6185 51.8753 45.5058 -8.7556 23.1338 13.7063
# 2 51.8753 151.5651 43.0325 -9.0054 12.9653 39.3837
# 3 45.5058 43.0325 54.1986 -9.3035 11.4687 -0.3988
# 4 -8.7556 -9.0054 -9.3035 31.7758 5.2553 11.7172
# 5 23.1338 12.9653 11.4687 5.2553 37.3026 -1.7456
# 6 13.7063 39.3837 -0.3988 11.7172 -1.7456 53.5601
#
#
#
# Elastic Compliance Matrix: (Units=1/GPa)
#
#
# Indices 1 2 3 4 5 6 
#
# 1 0.010841 -0.000029 -0.007552 0.002921 -0.004971 -0.003610
# 2 -0.000029 0.012157 -0.008174 0.005306 -0.002921 -0.010249
# 3 -0.007552 -0.008174 0.032316 0.002697 -0.002439 0.007514
# 4 0.002921 0.005306 0.002697 0.041582 -0.011002 -0.014085
# 5 -0.004971 -0.002921 -0.002439 -0.011002 0.033529 0.006902
# 6 -0.003610 -0.010249 0.007514 -0.014085 0.006902 0.030492
#
#
# Mechanical properties :
#
#
# Convention : Reuss Voigt Hill
#
# Bulk Modulus (GPa) = 42.01211 69.80105 55.90658
# Shear Modulus (GPa) = 24.95492 38.32560 31.64026
#
# Velocity S-wave (km/s) = 3.25542 4.03435 3.66563
# Velocity P-wave (km/s) = 5.65437 7.16548 6.45430
#
# Compressibility (1/GPa) = 0.02380266
#
# Stress axis : x y z
#
# Youngs Moduli (GPa) = 92.24552 82.25778 30.94488
#
# Poissons Ratio (x) = 0.00242 0.23369
# Poissons Ratio (y) = 0.00272 0.25294
# Poissons Ratio (z) = 0.69661 0.67238
#
# Static dielectric constant tensor:
#      x y z
#    x 2.014850 0.012850 -0.041870 
#    y 0.012850 1.950310 0.003050 
#    z -0.041870 0.003050 1.927970 
# 
# From -- ./inp_files/274323.got.cif
#   From: 2010.05.17/outbox.cif.g08.bks.cpg/sg2_138_cif.got.tgz:274323.got - 2010.06.03 11:33:40.
