data_PCOD9019539
_publ_section_title
;
Structure prediction by ZEFSAII (Michael W. Deem and Ramdas Pophale) SiO2 
 PCOD9019539
Probable space group: P -1
;
_chemical_formula_sum "Si O2"
_cell_formula_units_Z 14
_cell_length_a 11.357439
_cell_length_b 7.500596
_cell_length_c 8.196633
_cell_angle_alpha 97.368945
_cell_angle_beta 71.417786
_cell_angle_gamma 57.342487
_cell_volume 516.284449
_symmetry_space_group_name_H-M "P -1"
_symmetry_group_IT_number 2
_symmetry_cell_setting 'triclinic'
loop_
_space_group_symop_operation_xyz
x,y,z
-x,-y,-z
loop_
_atom_site_type_symbol
_atom_site_label
_atom_site_fract_x
_atom_site_fract_y
_atom_site_fract_z
Si Si1 0.586097 0.606792 0.018186
Si Si2 0.173096 0.821430 0.973474
Si Si3 0.105149 0.147630 0.306828
Si Si4 0.788539 0.766737 0.266448
Si Si5 0.646845 0.177588 0.578904
Si Si6 0.747113 0.425898 0.417960
Si Si7 0.156670 0.451784 0.140385
O O1 0.776917 0.385993 0.948473
O O2 0.492597 0.758334 0.232427
O O3 0.500000 0.500000 0.000000
O O4 0.656402 0.683774 0.874128
O O5 0.266081 0.675870 0.757458
O O6 0.198008 0.969348 0.093183
O O7 0.000000 0.000000 0.000000
O O8 0.107656 0.352811 0.292351
O O9 0.924384 0.244583 0.389595
O O10 0.195549 0.001707 0.407758
O O11 0.741698 0.636669 0.385529
O O12 0.967879 0.674817 0.209862
O O13 0.668181 0.034244 0.394860
O O14 0.795594 0.696398 0.068183
O O15 0.637644 0.399902 0.576739
#
# Coordination Sequence:
#
# PCOD9019539 Si02
#       7
#     2   2   2   2   2   2   2
#     4  12  26  45  68 107 145 181 230 290 364 421
#     4  10  21  44  73  97 130 189 247 275 339 422
#     4  10  22  41  70 101 132 188 238 288 346 407
#     4  10  23  45  72 103 133 186 245 295 336 409
#     4  12  26  40  66 107 150 179 221 295 370 410
#     4  10  22  42  70 100 136 183 242 288 339 424
#     4  10  23  45  72  97 137 186 247 283 333 431
#
# _framework density 27.116834000000001
#
# number of rings (size 3 to 8) (size 9 to 14) (size 15 to 20)
#    0.000    1.429    2.857    1.286    6.000    6.286 
#    2.571    0.000    0.000    0.000    0.000    0.000 
#    0.000    0.000    0.000    0.000    0.000    0.000 
#
# Total GULP energy -78027.737760 kJ/mol
# GULP energy per Si atom -5573.409840 kJ/mol
# Density = 2.705512 g / cm^3
# Si number density = 27.116834 Si / 1000 Ang^3
#
#
#
# Elastic Constant Matrix: (Units=GPa)
#
#
# Indices 1 2 3 4 5 6 
#
# 1 138.9226 29.7748 58.0195 8.5000 -27.1457 13.5463
# 2 29.7748 89.6026 9.2756 -13.7899 -13.3098 11.9316
# 3 58.0195 9.2756 84.4805 11.4498 -10.5143 25.9964
# 4 8.5000 -13.7899 11.4498 39.5590 6.9611 1.8882
# 5 -27.1457 -13.3098 -10.5143 6.9611 48.5953 -13.1175
# 6 13.5463 11.9316 25.9964 1.8882 -13.1175 36.4372
#
#
#
# Elastic Compliance Matrix: (Units=1/GPa)
#
#
# Indices 1 2 3 4 5 6 
#
# 1 0.012279 -0.003388 -0.008465 -0.002613 0.005769 0.004796
# 2 -0.003388 0.013550 0.001537 0.005184 0.000202 -0.004470
# 3 -0.008465 0.001537 0.021729 -0.002762 -0.002927 -0.013770
# 4 -0.002613 0.005184 -0.002762 0.029518 -0.005475 -0.002256
# 5 0.005769 0.000202 -0.002927 -0.005475 0.026639 0.009752
# 6 0.004796 -0.004470 -0.013770 -0.002256 0.009752 0.040577
#
#
# Mechanical properties :
#
#
# Convention : Reuss Voigt Hill
#
# Bulk Modulus (GPa) = 37.13718 56.34951 46.74335
# Shear Modulus (GPa) = 28.75237 39.31404 34.03321
#
# Velocity S-wave (km/s) = 3.25978 3.81176 3.54652
# Velocity P-wave (km/s) = 5.28140 6.34019 5.83486
#
# Compressibility (1/GPa) = 0.02692719
#
# Stress axis : x y z
#
# Youngs Moduli (GPa) = 81.43994 73.79952 46.02171
#
# Poissons Ratio (x) = 0.25003 0.38955
# Poissons Ratio (y) = 0.27591 -0.07074
# Poissons Ratio (z) = 0.68935 -0.11343
#
# Static dielectric constant tensor:
#      x y z
#    x 2.223600 -0.054670 0.024880 
#    y -0.054670 2.202960 -0.020630 
#    z 0.024880 -0.020630 2.086570 
# 
# From -- ./inp_files/239609.got.cif
#   From: 2010.05.17/outbox.cif.g08.bks.cpg/sg2_120_cif.got.tgz:239609.got - 2010.06.03 11:33:40.
