data_PCOD9019014
_publ_section_title
;
Structure prediction by ZEFSAII (Michael W. Deem and Ramdas Pophale) SiO2 
 PCOD9019014
Probable space group: P -1
;
_chemical_formula_sum "Si O2"
_cell_formula_units_Z 16
_cell_length_a 9.491744
_cell_length_b 7.884249
_cell_length_c 15.045185
_cell_angle_alpha 109.021888
_cell_angle_beta 42.668533
_cell_angle_gamma 104.626894
_cell_volume 721.277644
_symmetry_space_group_name_H-M "P -1"
_symmetry_group_IT_number 2
_symmetry_cell_setting 'triclinic'
loop_
_space_group_symop_operation_xyz
x,y,z
-x,-y,-z
loop_
_atom_site_type_symbol
_atom_site_label
_atom_site_fract_x
_atom_site_fract_y
_atom_site_fract_z
Si Si1 0.315571 0.887688 0.020864
Si Si2 0.010481 0.590435 0.727644
Si Si3 0.231562 0.089683 0.915042
Si Si4 0.867035 0.665802 0.625150
Si Si5 0.679043 0.502895 0.993164
Si Si6 0.689461 0.103867 0.327448
Si Si7 0.066681 0.030325 0.654083
Si Si8 0.701654 0.694495 0.523814
O O1 0.350342 0.674082 0.963975
O O2 0.112930 0.918134 0.183107
O O3 0.500000 0.000000 0.000000
O O4 0.311491 0.975797 0.941248
O O5 0.096400 0.776812 0.758825
O O6 0.210879 0.497214 0.577757
O O7 0.840421 0.619322 0.733681
O O8 0.897877 0.479292 0.836668
O O9 0.329459 0.042119 0.766289
O O10 0.286284 0.300280 0.944924
O O11 0.000000 0.000000 0.000000
O O12 0.696175 0.697026 0.633978
O O13 0.000000 0.500000 0.500000
O O14 0.998626 0.849303 0.604310
O O15 0.500000 0.500000 0.000000
O O16 0.506399 0.240546 0.414696
O O17 0.729538 0.012027 0.388287
O O18 0.121078 0.173641 0.577545
#
# Coordination Sequence:
#
# PCOD9019014 Si02
#       8
#     2   2   2   2   2   2   2   2
#     4  12  26  45  74 100 136 186 233 289 350 407
#     4  10  21  44  67  94 138 175 221 282 343 403
#     4  12  24  47  70 103 141 179 231 289 347 406
#     4   9  21  38  63  91 127 172 217 275 332 395
#     4  12  25  44  74 104 135 183 236 285 346 416
#     4  11  24  42  67  94 141 179 215 282 344 414
#     4  11  22  43  64  92 137 174 222 282 343 401
#     4  11  22  39  66 100 128 177 229 267 339 416
#
# _framework density 22.182858
#
# number of rings (size 3 to 8) (size 9 to 14) (size 15 to 20)
#    0.000    1.000    5.000    1.875    1.750    0.500 
#    6.750    0.000    0.000    0.000    0.000    0.000 
#    0.000    0.000    0.000    0.000    0.000    0.000 
#
# Total GULP energy -89204.227106 kJ/mol
# GULP energy per Si atom -5575.264194 kJ/mol
# Density = 2.213237 g / cm^3
# Si number density = 22.182858 Si / 1000 Ang^3
#
#
#
# Elastic Constant Matrix: (Units=GPa)
#
#
# Indices 1 2 3 4 5 6 
#
# 1 127.1662 46.1699 29.8598 20.4832 15.8012 -6.1879
# 2 46.1699 155.8985 21.2822 21.2117 20.2588 2.9062
# 3 29.8598 21.2822 53.5052 15.9026 2.7916 9.5376
# 4 20.4832 21.2117 15.9026 30.6782 1.7038 8.2056
# 5 15.8012 20.2588 2.7916 1.7038 34.3912 3.4021
# 6 -6.1879 2.9062 9.5376 8.2056 3.4021 34.1528
#
#
#
# Elastic Compliance Matrix: (Units=1/GPa)
#
#
# Indices 1 2 3 4 5 6 
#
# 1 0.011102 -0.001517 -0.004798 -0.005012 -0.004073 0.005090
# 2 -0.001517 0.008033 -0.001099 -0.003941 -0.003818 0.000676
# 3 -0.004798 -0.001099 0.025025 -0.007464 0.001799 -0.006150
# 4 -0.005012 -0.003941 -0.007464 0.044904 0.003962 -0.009672
# 5 -0.004073 -0.003818 0.001799 0.003962 0.033369 -0.005191
# 6 0.005090 0.000676 -0.006150 -0.009672 -0.005191 0.034703
#
#
# Mechanical properties :
#
#
# Convention : Reuss Voigt Hill
#
# Bulk Modulus (GPa) = 34.08975 59.02152 46.55563
# Shear Modulus (GPa) = 27.51163 35.79496 31.65329
#
# Velocity S-wave (km/s) = 3.52550 4.02136 3.78157
# Velocity P-wave (km/s) = 5.65448 6.94452 6.33244
#
# Compressibility (1/GPa) = 0.02933433
#
# Stress axis : x y z
#
# Youngs Moduli (GPa) = 90.07324 124.48171 39.95971
#
# Poissons Ratio (x) = 0.18878 0.19171
# Poissons Ratio (y) = 0.13660 0.04391
# Poissons Ratio (z) = 0.43214 0.13680
#
# Static dielectric constant tensor:
#      x y z
#    x 1.733760 -0.021120 -0.051060 
#    y -0.021120 1.822240 0.024010 
#    z -0.051060 0.024010 1.862990 
# 
# From -- ./inp_files/495399.got.cif
#   From: 2010.05.17/outbox.cif.g08.bks.cpg/sg2_248_cif.got.tgz:495399.got - 2010.06.03 11:33:40.
