data_PCOD9019140
_publ_section_title
;
Structure prediction by ZEFSAII (Michael W. Deem and Ramdas Pophale) SiO2 
 PCOD9019140
Probable space group: P -1
;
_chemical_formula_sum "Si O2"
_cell_formula_units_Z 16
_cell_length_a 14.208160
_cell_length_b 20.079199
_cell_length_c 8.949130
_cell_angle_alpha 140.972613
_cell_angle_beta 138.906408
_cell_angle_gamma 30.811591
_cell_volume 793.345878
_symmetry_space_group_name_H-M "P -1"
_symmetry_group_IT_number 2
_symmetry_cell_setting 'triclinic'
loop_
_space_group_symop_operation_xyz
x,y,z
-x,-y,-z
loop_
_atom_site_type_symbol
_atom_site_label
_atom_site_fract_x
_atom_site_fract_y
_atom_site_fract_z
Si Si1 0.026911 0.212797 0.652645
Si Si2 0.199154 0.960979 0.188157
Si Si3 0.412932 0.653129 0.004641
Si Si4 0.666077 0.852478 0.869850
Si Si5 0.078744 0.646985 0.531894
Si Si6 0.301594 0.088949 0.329330
Si Si7 0.385354 0.605989 0.408387
Si Si8 0.587678 0.651625 0.508897
O O1 0.953175 0.330563 0.644103
O O2 0.831088 0.263736 0.577350
O O3 0.157715 0.065503 0.456433
O O4 0.145753 0.210041 0.920043
O O5 0.238177 0.002381 0.151860
O O6 0.359223 0.795017 0.123047
O O7 0.000000 0.000000 0.000000
O O8 0.479112 0.640373 0.229701
O O9 0.220560 0.676063 0.795389
O O10 0.579028 0.506103 0.864093
O O11 0.679685 0.884816 0.772337
O O12 0.602288 0.763741 0.667674
O O13 0.500000 0.000000 0.000000
O O14 0.195979 0.491152 0.457901
O O15 0.871004 0.757110 0.544767
O O16 0.500000 0.000000 0.500000
O O17 0.500000 0.500000 0.500000
O O18 0.481923 0.664093 0.555219
#
# Coordination Sequence:
#
# PCOD9019140 Si02
#       8
#     2   2   2   2   2   2   2   2
#     4  11  23  42  69  99 140 162 221 282 336 380
#     4  11  21  44  72  97 128 179 222 270 331 400
#     4  11  21  40  71 100 135 166 226 273 331 392
#     4  12  28  47  61  97 141 177 218 277 332 395
#     4  10  21  44  68  98 131 170 222 278 325 397
#     4  11  24  44  67  93 134 178 223 263 327 398
#     4  11  21  42  67 106 130 168 216 282 331 384
#     4  11  25  43  68  94 137 180 219 263 337 402
#
# _framework density 20.167746999999999
#
# number of rings (size 3 to 8) (size 9 to 14) (size 15 to 20)
#    0.000    1.000    5.000    4.500    3.500    3.000 
#    2.250    3.125    0.000    0.000    0.000    0.000 
#    0.000    0.000    0.000    0.000    0.000    0.000 
#
# Total GULP energy -89243.487905 kJ/mol
# GULP energy per Si atom -5577.717994 kJ/mol
# Density = 2.012184 g / cm^3
# Si number density = 20.167747 Si / 1000 Ang^3
#
#
#
# Elastic Constant Matrix: (Units=GPa)
#
#
# Indices 1 2 3 4 5 6 
#
# 1 173.7244 64.4626 54.8856 -4.2217 -7.3502 19.2394
# 2 64.4626 118.7589 30.8142 -1.4960 -6.0581 12.7454
# 3 54.8856 30.8142 85.0307 -18.0447 -4.9256 19.7405
# 4 -4.2217 -1.4960 -18.0447 46.1346 5.8442 1.1585
# 5 -7.3502 -6.0581 -4.9256 5.8442 23.7370 -0.2514
# 6 19.2394 12.7454 19.7405 1.1585 -0.2514 44.8700
#
#
#
# Elastic Compliance Matrix: (Units=1/GPa)
#
#
# Indices 1 2 3 4 5 6 
#
# 1 0.008445 -0.003360 -0.004224 -0.001114 0.001147 -0.000773
# 2 -0.003360 0.010831 -0.001620 -0.000766 0.001567 -0.000894
# 3 -0.004224 -0.001620 0.017834 0.006645 0.000283 -0.005745
# 4 -0.001114 -0.000766 0.006645 0.024895 -0.005322 -0.002901
# 5 0.001147 0.001567 0.000283 -0.005322 0.044245 -0.000676
# 6 -0.000773 -0.000894 -0.005745 -0.002901 -0.000676 0.025471
#
#
# Mechanical properties :
#
#
# Convention : Reuss Voigt Hill
#
# Bulk Modulus (GPa) = 53.47183 75.31541 64.39362
# Shear Modulus (GPa) = 31.97701 38.10510 35.04106
#
# Velocity S-wave (km/s) = 3.98622 4.35145 4.17283
# Velocity P-wave (km/s) = 6.91069 7.91659 7.43068
#
# Compressibility (1/GPa) = 0.01870144
#
# Stress axis : x y z
#
# Youngs Moduli (GPa) = 118.41880 92.32676 56.07265
#
# Poissons Ratio (x) = 0.31026 0.23683
# Poissons Ratio (y) = 0.39794 0.09085
# Poissons Ratio (z) = 0.50015 0.14958
#
# Static dielectric constant tensor:
#      x y z
#    x 1.776920 -0.023020 -0.015090 
#    y -0.023020 1.705210 -0.016940 
#    z -0.015090 -0.016940 1.760140 
# 
# From -- ./inp_files/319119.got.cif
#   From: 2010.05.17/outbox.cif.g08.bks.cpg/sg2_160_cif.got.tgz:319119.got - 2010.06.03 11:33:40.
