data_PCOD9019095
_publ_section_title
;
Structure prediction by ZEFSAII (Michael W. Deem and Ramdas Pophale) SiO2 
 PCOD9019095
Probable space group: P -1
;
_chemical_formula_sum "Si O2"
_cell_formula_units_Z 16
_cell_length_a 11.170661
_cell_length_b 7.794133
_cell_length_c 9.475533
_cell_angle_alpha 66.527723
_cell_angle_beta 90.616078
_cell_angle_gamma 66.166996
_cell_volume 677.550848
_symmetry_space_group_name_H-M "P -1"
_symmetry_group_IT_number 2
_symmetry_cell_setting 'triclinic'
loop_
_space_group_symop_operation_xyz
x,y,z
-x,-y,-z
loop_
_atom_site_type_symbol
_atom_site_label
_atom_site_fract_x
_atom_site_fract_y
_atom_site_fract_z
Si Si1 0.842290 0.653252 0.969894
Si Si2 0.470910 0.462094 0.354988
Si Si3 0.596368 0.290654 0.986135
Si Si4 0.813367 0.391889 0.599843
Si Si5 0.853013 0.335702 0.291867
Si Si6 0.693489 0.078277 0.325679
Si Si7 0.859973 0.699235 0.645045
Si Si8 0.144396 0.935855 0.083056
O O1 0.794713 0.525576 0.116963
O O2 0.790476 0.703721 0.792765
O O3 0.000000 0.500000 0.000000
O O4 0.824864 0.867035 0.970388
O O5 0.500000 0.500000 0.500000
O O6 0.326054 0.470677 0.368454
O O7 0.577080 0.243766 0.367700
O O8 0.466955 0.648151 0.191521
O O9 0.626561 0.105808 0.160430
O O10 0.500000 0.500000 0.000000
O O11 0.747839 0.237768 0.960297
O O12 0.803524 0.405148 0.428249
O O13 0.912721 0.471332 0.647368
O O14 0.848035 0.161179 0.730425
O O15 0.805199 0.165759 0.297290
O O16 0.012564 0.258004 0.332527
O O17 0.764973 0.858219 0.475236
O O18 0.000000 0.000000 0.000000
#
# Coordination Sequence:
#
# PCOD9019095 Si02
#       8
#     2   2   2   2   2   2   2   2
#     4  10  24  41  60  99 141 170 219 277 338 400
#     4  10  21  44  68  92 127 176 227 271 338 393
#     4   9  23  40  65  97 131 173 226 270 333 399
#     4  11  24  42  67  96 135 173 222 280 333 406
#     4  11  23  40  65  97 139 171 218 275 339 398
#     4  11  23  41  71  93 132 177 224 275 326 409
#     4  11  25  40  64 101 138 172 220 277 342 399
#     4  11  23  39  72  97 132 181 223 277 348 396
#
# _framework density 23.614462
#
# number of rings (size 3 to 8) (size 9 to 14) (size 15 to 20)
#    0.000    1.500    1.250    3.000   12.250    0.500 
#    0.000    0.000    0.000    8.250    0.000    0.000 
#    0.000    0.000    0.000    0.000    0.000    0.000 
#
# Total GULP energy -89298.282590 kJ/mol
# GULP energy per Si atom -5581.142662 kJ/mol
# Density = 2.356071 g / cm^3
# Si number density = 23.614462 Si / 1000 Ang^3
#
#
#
# Elastic Constant Matrix: (Units=GPa)
#
#
# Indices 1 2 3 4 5 6 
#
# 1 37.4512 20.0037 12.7361 -0.9730 -0.9260 -7.2455
# 2 20.0037 61.0780 47.5140 -1.4283 -3.7496 -3.2830
# 3 12.7361 47.5140 223.1768 1.2055 -6.5209 5.1007
# 4 -0.9730 -1.4283 1.2055 45.7454 3.1422 -3.9908
# 5 -0.9260 -3.7496 -6.5209 3.1422 28.4485 0.4267
# 6 -7.2455 -3.2830 5.1007 -3.9908 0.4267 42.2652
#
#
#
# Elastic Compliance Matrix: (Units=1/GPa)
#
#
# Indices 1 2 3 4 5 6 
#
# 1 0.033390 -0.010901 0.000285 0.000823 -0.000449 0.004925
# 2 -0.010901 0.023461 -0.004338 0.000545 0.001675 0.000512
# 3 0.000285 -0.004338 0.005435 -0.000410 0.000743 -0.000990
# 4 0.000823 0.000545 -0.000410 0.022283 -0.002492 0.002362
# 5 -0.000449 0.001675 0.000743 -0.002492 0.035813 -0.000633
# 6 0.004925 0.000512 -0.000990 0.002362 -0.000633 0.024893
#
#
# Mechanical properties :
#
#
# Convention : Reuss Voigt Hill
#
# Bulk Modulus (GPa) = 30.88612 53.57928 42.23270
# Shear Modulus (GPa) = 26.88540 39.38863 33.13702
#
# Velocity S-wave (km/s) = 3.37785 4.08853 3.75006
# Velocity P-wave (km/s) = 5.32173 6.71018 6.05588
#
# Compressibility (1/GPa) = 0.03237700
#
# Stress axis : x y z
#
# Youngs Moduli (GPa) = 29.94901 42.62445 184.00389
#
# Poissons Ratio (x) = 0.46465 -0.05248
# Poissons Ratio (y) = 0.32648 0.79827
# Poissons Ratio (z) = -0.00854 0.18492
#
# Static dielectric constant tensor:
#      x y z
#    x 2.064990 0.050910 0.025830 
#    y 0.050910 1.897100 -0.001490 
#    z 0.025830 -0.001490 1.946330 
# 
# From -- ./inp_files/223266.got.cif
#   From: 2010.05.17/outbox.cif.g08.bks.cpg/sg2_112_cif.got.tgz:223266.got - 2010.06.03 11:33:40.
