data_PCOD9019950
_publ_section_title
;
Structure prediction by ZEFSAII (Michael W. Deem and Ramdas Pophale) SiO2 
 PCOD9019950
Probable space group: P -1
;
_chemical_formula_sum "Si O2"
_cell_formula_units_Z 13
_cell_length_a 12.040657
_cell_length_b 10.031590
_cell_length_c 7.431424
_cell_angle_alpha 76.158513
_cell_angle_beta 99.206027
_cell_angle_gamma 39.798765
_cell_volume 464.753273
_symmetry_space_group_name_H-M "P -1"
_symmetry_group_IT_number 2
_symmetry_cell_setting 'triclinic'
loop_
_space_group_symop_operation_xyz
x,y,z
-x,-y,-z
loop_
_atom_site_type_symbol
_atom_site_label
_atom_site_fract_x
_atom_site_fract_y
_atom_site_fract_z
Si Si1 0.112813 0.528403 0.500713
Si Si2 0.121716 0.059492 0.913869
Si Si3 0.243130 0.640364 0.008199
Si Si4 0.801985 0.707714 0.749962
Si Si5 0.462440 0.878892 0.204121
Si Si6 0.000000 0.000000 0.500000
Si Si7 0.647802 0.154125 0.468943
O O1 0.202289 0.406285 0.360644
O O2 0.309830 0.335282 0.742595
O O3 0.000000 0.500000 0.500000
O O4 0.995193 0.795036 0.355159
O O5 0.952567 0.219469 0.975131
O O6 0.252994 0.787806 0.031408
O O7 0.273491 0.032735 0.978211
O O8 0.464522 0.347806 0.210697
O O9 0.165443 0.740835 0.754951
O O10 0.606299 0.916931 0.765802
O O11 0.786539 0.871202 0.591867
O O12 0.000000 0.500000 0.000000
O O13 0.457567 0.760289 0.389237
O O14 0.201353 0.872412 0.495166
#
# Coordination Sequence:
#
# PCOD9019950 Si02
#       7
#     2   2   2   2   2   1   2
#     4  12  25  43  68 101 138 174 233 286 338 397
#     4  11  23  44  68  98 134 181 219 280 348 408
#     4  11  24  43  71  98 138 176 227 280 343 406
#     4  10  21  45  73  95 134 188 226 275 338 419
#     4  10  22  43  69  96 133 184 227 264 346 407
#     4  12  24  44  68 104 130 174 236 286 324 408
#     4  10  23  42  69 100 133 178 227 278 338 406
#
# _framework density 27.971830000000001
#
# number of rings (size 3 to 8) (size 9 to 14) (size 15 to 20)
#    0.923    0.308    4.615    0.923    2.154    2.462 
#    0.000    0.000    0.000    0.000    0.000    0.000 
#    0.000    0.000    0.000    0.000    0.000    0.000 
#
# Total GULP energy -72516.174593 kJ/mol
# GULP energy per Si atom -5578.167276 kJ/mol
# Density = 2.790816 g / cm^3
# Si number density = 27.971830 Si / 1000 Ang^3
#
#
#
# Elastic Constant Matrix: (Units=GPa)
#
#
# Indices 1 2 3 4 5 6 
#
# 1 129.9680 17.7398 37.5157 -12.8494 -7.6973 -24.5983
# 2 17.7398 42.1542 13.6989 -9.4683 -13.3245 8.2915
# 3 37.5157 13.6989 212.7628 -19.3935 -13.7364 -17.1319
# 4 -12.8494 -9.4683 -19.3935 41.9909 2.0761 0.1859
# 5 -7.6973 -13.3245 -13.7364 2.0761 53.9645 -7.7488
# 6 -24.5983 8.2915 -17.1319 0.1859 -7.7488 34.9683
#
#
#
# Elastic Compliance Matrix: (Units=1/GPa)
#
#
# Indices 1 2 3 4 5 6 
#
# 1 0.010408 -0.005097 -0.000591 0.001664 0.001233 0.008505
# 2 -0.005097 0.030910 -0.001188 0.004664 0.004925 -0.010430
# 3 -0.000591 -0.001188 0.005367 0.001953 0.001312 0.002776
# 4 0.001664 0.004664 0.001953 0.026221 0.001037 0.001112
# 5 0.001233 0.004925 0.001312 0.001037 0.020931 0.004975
# 6 0.008505 -0.010430 0.002776 0.001112 0.004975 0.039509
#
#
# Mechanical properties :
#
#
# Convention : Reuss Voigt Hill
#
# Bulk Modulus (GPa) = 30.36593 58.08820 44.22707
# Shear Modulus (GPa) = 31.63046 47.24680 39.43863
#
# Velocity S-wave (km/s) = 3.36638 4.11431 3.75899
# Velocity P-wave (km/s) = 5.09799 6.58649 5.88945
#
# Compressibility (1/GPa) = 0.03293164
#
# Stress axis : x y z
#
# Youngs Moduli (GPa) = 96.08322 32.35249 186.32469
#
# Poissons Ratio (x) = 0.16491 0.11010
# Poissons Ratio (y) = 0.48976 0.22137
# Poissons Ratio (z) = 0.05678 0.03844
#
# Static dielectric constant tensor:
#      x y z
#    x 3.025030 0.635080 0.336430 
#    y 0.635080 2.931160 0.192520 
#    z 0.336430 0.192520 2.373380 
# 
# From -- ./inp_files/262049.got.cif
#   From: 2010.05.17/outbox.cif.g08.bks.cpg/sg2_132_cif.got.tgz:262049.got - 2010.06.03 11:33:40.
