data_PCOD9019506
_publ_section_title
;
Structure prediction by ZEFSAII (Michael W. Deem and Ramdas Pophale) SiO2 
 PCOD9019506
Probable space group: P -1
;
_chemical_formula_sum "Si O2"
_cell_formula_units_Z 14
_cell_length_a 11.106441
_cell_length_b 11.224295
_cell_length_c 8.817423
_cell_angle_alpha 38.648737
_cell_angle_beta 128.663904
_cell_angle_gamma 120.019706
_cell_volume 535.861048
_symmetry_space_group_name_H-M "P -1"
_symmetry_group_IT_number 2
_symmetry_cell_setting 'triclinic'
loop_
_space_group_symop_operation_xyz
x,y,z
-x,-y,-z
loop_
_atom_site_type_symbol
_atom_site_label
_atom_site_fract_x
_atom_site_fract_y
_atom_site_fract_z
Si Si1 0.879958 0.732679 0.349964
Si Si2 0.724929 0.854079 0.825123
Si Si3 0.701943 0.724716 0.589090
Si Si4 0.861812 0.378078 0.130589
Si Si5 0.374894 0.737524 0.700033
Si Si6 0.633713 0.414447 0.488954
Si Si7 0.804939 0.080985 0.131306
O O1 0.724810 0.612215 0.395561
O O2 0.018835 0.615257 0.643441
O O3 0.896353 0.942255 0.229711
O O4 0.855079 0.765187 0.120186
O O5 0.726392 0.787637 0.720165
O O6 0.551713 0.803792 0.800006
O O7 0.728229 0.081957 0.601750
O O8 0.538048 0.617301 0.553573
O O9 0.703904 0.919123 0.301496
O O10 0.837423 0.572690 0.825601
O O11 0.699637 0.345218 0.124701
O O12 0.884633 0.203948 0.205659
O O13 0.371204 0.608764 0.674976
O O14 0.721722 0.236869 0.808951
#
# Coordination Sequence:
#
# PCOD9019506 Si02
#       7
#     2   2   2   2   2   2   2
#     4  12  27  45  68 100 139 181 224 273 335 404
#     4  10  21  44  73 101 132 172 224 282 336 392
#     4  11  25  45  73 103 133 173 226 283 337 396
#     4  12  27  45  68 100 139 181 224 273 335 404
#     4  10  21  44  73 101 132 172 224 282 336 392
#     4  11  25  45  73 103 133 173 226 283 337 396
#     4  12  26  46  68  98 136 184 226 278 328 398
#
# _framework density 26.126176999999998
#
# number of rings (size 3 to 8) (size 9 to 14) (size 15 to 20)
#    0.000    0.857    2.857    3.429    0.000   13.143 
#    0.000    0.000    0.000    0.000    0.000    0.000 
#    0.000    0.000    0.000    0.000    0.000    0.000 
#
# Total GULP energy -78447.003456 kJ/mol
# GULP energy per Si atom -5603.357390 kJ/mol
# Density = 2.606671 g / cm^3
# Si number density = 26.126177 Si / 1000 Ang^3
#
#
#
# Elastic Constant Matrix: (Units=GPa)
#
#
# Indices 1 2 3 4 5 6 
#
# 1 32.9283 26.0232 -8.2031 -6.2642 -18.5487 -4.6837
# 2 26.0232 113.0726 14.8409 -19.1925 -3.5470 -2.6353
# 3 -8.2031 14.8409 140.9453 -13.9286 -7.2743 -0.2290
# 4 -6.2642 -19.1925 -13.9286 43.8229 -5.4643 -10.6269
# 5 -18.5487 -3.5470 -7.2743 -5.4643 40.7788 -1.0419
# 6 -4.6837 -2.6353 -0.2290 -10.6269 -1.0419 30.4655
#
#
#
# Elastic Compliance Matrix: (Units=1/GPa)
#
#
# Indices 1 2 3 4 5 6 
#
# 1 0.065199 -0.012299 0.008189 0.014228 0.032340 0.015090
# 2 -0.012299 0.012183 -0.002006 0.002319 -0.004587 -0.000200
# 3 0.008189 -0.002006 0.008520 0.004415 0.005736 0.002886
# 4 0.014228 0.002319 0.004415 0.032196 0.012135 0.014067
# 5 0.032340 -0.004587 0.005736 0.012135 0.041746 0.010279
# 6 0.015090 -0.000200 0.002886 0.014067 0.010279 0.040407
#
#
# Mechanical properties :
#
#
# Convention : Reuss Voigt Hill
#
# Bulk Modulus (GPa) = 13.57408 39.14091 26.35750
# Shear Modulus (GPa) = 21.09355 39.96579 30.52967
#
# Velocity S-wave (km/s) = 2.84451 3.91541 3.42211
# Velocity P-wave (km/s) = 3.99940 5.95438 5.07197
#
# Compressibility (1/GPa) = 0.07366982
#
# Stress axis : x y z
#
# Youngs Moduli (GPa) = 15.33757 82.08206 117.37332
#
# Poissons Ratio (x) = 1.00953 -0.96121
# Poissons Ratio (y) = 0.18864 0.23551
# Poissons Ratio (z) = -0.12560 0.16470
#
# Static dielectric constant tensor:
#      x y z
#    x 2.108890 -0.002790 -0.023700 
#    y -0.002790 1.996920 0.000340 
#    z -0.023700 0.000340 2.028910 
# 
# From -- ./inp_files/261371.got.cif
#   From: 2010.05.17/outbox.cif.g08.bks.cpg/sg2_131_cif.got.tgz:261371.got - 2010.06.03 11:33:40.
