data_PCOD9019816
_publ_section_title
;
Structure prediction by ZEFSAII (Michael W. Deem and Ramdas Pophale) SiO2 
 PCOD9019816
Probable space group: P -1
;
_chemical_formula_sum "Si O2"
_cell_formula_units_Z 12
_cell_length_a 11.799421
_cell_length_b 10.323967
_cell_length_c 5.348965
_cell_angle_alpha 80.203339
_cell_angle_beta 115.364279
_cell_angle_gamma 72.097919
_cell_volume 524.622586
_symmetry_space_group_name_H-M "P -1"
_symmetry_group_IT_number 2
_symmetry_cell_setting 'triclinic'
loop_
_space_group_symop_operation_xyz
x,y,z
-x,-y,-z
loop_
_atom_site_type_symbol
_atom_site_label
_atom_site_fract_x
_atom_site_fract_y
_atom_site_fract_z
Si Si1 0.661570 0.335972 0.551405
Si Si2 0.068086 0.532631 0.799345
Si Si3 0.168870 0.975415 0.430807
Si Si4 0.585346 0.930784 0.351949
Si Si5 0.355532 0.388742 0.370027
Si Si6 0.893660 0.186065 0.170291
O O1 0.758606 0.190422 0.545235
O O2 0.502536 0.364408 0.393223
O O3 0.673214 0.487528 0.484145
O O4 0.737082 0.288862 0.905607
O O5 0.055840 0.697186 0.705937
O O6 0.000000 0.500000 0.500000
O O7 0.231138 0.435362 0.038703
O O8 0.000000 0.500000 0.000000
O O9 0.130105 0.944447 0.680652
O O10 0.280449 0.038581 0.517301
O O11 0.025564 0.096804 0.144339
O O12 0.624925 0.761208 0.442579
O O13 0.500000 0.000000 0.500000
O O14 0.500000 0.000000 0.000000
#
# Coordination Sequence:
#
# PCOD9019816 Si02
#       6
#     2   2   2   2   2   2
#     4  10  21  45  69 104 139 187 241 298 364 426
#     4  11  26  48  73 108 148 193 244 299 369 435
#     4  11  23  43  71 100 145 192 241 300 360 433
#     4  12  26  47  71 107 149 191 243 301 366 435
#     4  10  23  45  73 105 144 189 243 303 360 435
#     4  10  24  43  69 105 141 193 245 297 361 436
#
# _framework density 22.873584999999999
#
# number of rings (size 3 to 8) (size 9 to 14) (size 15 to 20)
#    0.000    1.333    1.667    2.500    4.667    2.667 
#    9.000    3.333    0.000    0.000    0.000    0.000 
#    0.000    0.000    0.000    0.000    0.000    0.000 
#
# Total GULP energy -66856.726186 kJ/mol
# GULP energy per Si atom -5571.393849 kJ/mol
# Density = 2.282152 g / cm^3
# Si number density = 22.873585 Si / 1000 Ang^3
#
#
#
# Elastic Constant Matrix: (Units=GPa)
#
#
# Indices 1 2 3 4 5 6 
#
# 1 134.2474 46.9050 67.8847 1.0658 34.2983 15.6122
# 2 46.9050 175.8011 57.0106 -17.3329 17.0708 17.6938
# 3 67.8847 57.0106 120.9267 5.3789 28.8463 4.0867
# 4 1.0658 -17.3329 5.3789 35.1932 1.5808 1.8597
# 5 34.2983 17.0708 28.8463 1.5808 42.6489 -11.5356
# 6 15.6122 17.6938 4.0867 1.8597 -11.5356 42.6245
#
#
#
# Elastic Compliance Matrix: (Units=1/GPa)
#
#
# Indices 1 2 3 4 5 6 
#
# 1 0.013067 -0.000263 -0.004900 0.000977 -0.008928 -0.006666
# 2 -0.000263 0.007773 -0.003148 0.004590 -0.001898 -0.003542
# 3 -0.004900 -0.003148 0.013455 -0.003355 -0.003502 0.001010
# 4 0.000977 0.004590 -0.003355 0.031488 -0.002608 -0.004021
# 5 -0.008928 -0.001898 -0.003502 -0.002608 0.037842 0.014749
# 6 -0.006666 -0.003542 0.001010 -0.004021 0.014749 0.031443
#
#
# Mechanical properties :
#
#
# Convention : Reuss Voigt Hill
#
# Bulk Modulus (GPa) = 56.58621 86.06397 71.32509
# Shear Modulus (GPa) = 31.72972 41.37165 36.55068
#
# Velocity S-wave (km/s) = 3.72852 4.25751 4.00176
# Velocity P-wave (km/s) = 6.58242 7.86613 7.25273
#
# Compressibility (1/GPa) = 0.01767215
#
# Stress axis : x y z
#
# Youngs Moduli (GPa) = 76.52817 128.65332 74.32265
#
# Poissons Ratio (x) = 0.03387 0.36416
# Poissons Ratio (y) = 0.02015 0.23399
# Poissons Ratio (z) = 0.37497 0.40504
#
# Static dielectric constant tensor:
#      x y z
#    x 1.848830 -0.103490 -0.086020 
#    y -0.103490 1.917210 -0.058330 
#    z -0.086020 -0.058330 1.868430 
# 
# From -- ./inp_files/60290.got.cif
#   From: 2010.05.17/outbox.cif.g08.bks.cpg/sg2_31_cif.got.tgz:60290.got - 2010.06.03 11:33:40.
