data_PCOD9019836
_publ_section_title
;
Structure prediction by ZEFSAII (Michael W. Deem and Ramdas Pophale) SiO2 
 PCOD9019836
Probable space group: P -1
;
_chemical_formula_sum "Si O2"
_cell_formula_units_Z 14
_cell_length_a 7.526846
_cell_length_b 18.166249
_cell_length_c 5.724236
_cell_angle_alpha 75.218928
_cell_angle_beta 116.106007
_cell_angle_gamma 118.179027
_cell_volume 618.437888
_symmetry_space_group_name_H-M "P -1"
_symmetry_group_IT_number 2
_symmetry_cell_setting 'triclinic'
loop_
_space_group_symop_operation_xyz
x,y,z
-x,-y,-z
loop_
_atom_site_type_symbol
_atom_site_label
_atom_site_fract_x
_atom_site_fract_y
_atom_site_fract_z
Si Si1 0.108467 0.119968 0.369186
Si Si2 0.867963 0.435326 0.273491
Si Si3 0.891973 0.710946 0.888603
Si Si4 0.136291 0.732113 0.508022
Si Si5 0.309102 0.468307 0.222659
Si Si6 0.821450 0.958424 0.129642
Si Si7 0.506593 0.911772 0.613819
O O1 0.156596 0.207370 0.211171
O O2 0.123954 0.113255 0.660897
O O3 0.300825 0.094270 0.422444
O O4 0.878134 0.043392 0.240413
O O5 0.766520 0.338441 0.370627
O O6 0.000000 0.500000 0.500000
O O7 0.070855 0.443938 0.218788
O O8 0.698479 0.465218 0.026397
O O9 0.705179 0.618205 0.823418
O O10 0.026274 0.725615 0.706864
O O11 0.998562 0.710614 0.203808
O O12 0.299438 0.828566 0.505733
O O13 0.500000 0.500000 0.500000
O O14 0.583788 0.915152 0.923151
O O15 0.000000 0.000000 0.000000
O O16 0.500000 0.000000 0.500000
#
# Coordination Sequence:
#
# PCOD9019836 Si02
#       7
#     2   2   2   2   2   2   2
#     4  10  23  40  66  89 132 177 225 285 339 409
#     4  10  21  45  69  98 145 181 227 291 354 409
#     4  11  25  45  67 100 137 178 228 281 350 413
#     4  11  26  44  69  99 139 181 225 289 347 412
#     4  10  23  43  71 104 138 185 233 287 351 427
#     4   9  21  40  61  91 124 173 223 281 334 398
#     4  11  25  40  64  95 131 177 230 278 344 408
#
# _framework density 22.637681000000001
#
# number of rings (size 3 to 8) (size 9 to 14) (size 15 to 20)
#    0.000    1.714    1.429    0.857   12.000    3.429 
#    2.571    0.000    0.000    0.000    0.000    0.000 
#    0.000    0.000    0.000    0.000    0.000    0.000 
#
# Total GULP energy -78003.607249 kJ/mol
# GULP energy per Si atom -5571.686232 kJ/mol
# Density = 2.258616 g / cm^3
# Si number density = 22.637681 Si / 1000 Ang^3
#
#
#
# Elastic Constant Matrix: (Units=GPa)
#
#
# Indices 1 2 3 4 5 6 
#
# 1 54.0948 28.5178 9.1212 -6.7807 -7.4186 -0.8585
# 2 28.5178 186.8157 68.8473 -7.0748 26.3770 -12.4133
# 3 9.1212 68.8473 154.8877 3.2886 21.7027 -3.2677
# 4 -6.7807 -7.0748 3.2886 53.1560 -0.5846 13.2086
# 5 -7.4186 26.3770 21.7027 -0.5846 31.0841 -3.2222
# 6 -0.8585 -12.4133 -3.2677 13.2086 -3.2222 28.6764
#
#
#
# Elastic Compliance Matrix: (Units=1/GPa)
#
#
# Indices 1 2 3 4 5 6 
#
# 1 0.022671 -0.004545 -0.000767 0.002837 0.009691 -0.001594
# 2 -0.004545 0.007909 -0.002371 -0.000034 -0.005896 0.002371
# 3 -0.000767 -0.002371 0.008114 -0.000925 -0.003867 -0.000133
# 4 0.002837 -0.000034 -0.000925 0.021708 0.000729 -0.009952
# 5 0.009691 -0.005896 -0.003867 0.000729 0.042379 0.001724
# 6 -0.001594 0.002371 -0.000133 -0.009952 0.001724 0.040613
#
#
# Mechanical properties :
#
#
# Convention : Reuss Voigt Hill
#
# Bulk Modulus (GPa) = 42.86577 67.64119 55.25348
# Shear Modulus (GPa) = 30.02368 41.87077 35.94722
#
# Velocity S-wave (km/s) = 3.64575 4.30537 3.98922
# Velocity P-wave (km/s) = 6.05794 7.39322 6.75864
#
# Compressibility (1/GPa) = 0.02332864
#
# Stress axis : x y z
#
# Youngs Moduli (GPa) = 44.10999 126.43630 123.24239
#
# Poissons Ratio (x) = 0.57464 0.09447
# Poissons Ratio (y) = 0.20048 0.29222
# Poissons Ratio (z) = 0.03381 0.29980
#
# Static dielectric constant tensor:
#      x y z
#    x 2.781190 -0.388280 -0.873360 
#    y -0.388280 2.033120 0.362120 
#    z -0.873360 0.362120 2.778790 
# 
# From -- ./inp_files/47171.got.cif
#   From: 2010.05.17/outbox.cif.g08.bks.cpg/sg2_24_cif.got.tgz:47171.got - 2010.06.03 11:33:40.
