data_PCOD9019090
_publ_section_title
;
Structure prediction by ZEFSAII (Michael W. Deem and Ramdas Pophale) SiO2 
 PCOD9019090
Probable space group: P -1
;
_chemical_formula_sum "Si O2"
_cell_formula_units_Z 16
_cell_length_a 12.266812
_cell_length_b 16.178240
_cell_length_c 9.271883
_cell_angle_alpha 89.571244
_cell_angle_beta 97.713285
_cell_angle_gamma 153.347759
_cell_volume 791.318316
_symmetry_space_group_name_H-M "P -1"
_symmetry_group_IT_number 2
_symmetry_cell_setting 'triclinic'
loop_
_space_group_symop_operation_xyz
x,y,z
-x,-y,-z
loop_
_atom_site_type_symbol
_atom_site_label
_atom_site_fract_x
_atom_site_fract_y
_atom_site_fract_z
Si Si1 0.275284 0.210772 0.683749
Si Si2 0.025360 0.355798 0.784177
Si Si3 0.915129 0.019768 0.086054
Si Si4 0.697477 0.579577 0.943302
Si Si5 0.752930 0.930841 0.567481
Si Si6 0.480074 0.781683 0.814450
Si Si7 0.723586 0.093658 0.471685
Si Si8 0.508588 0.015308 0.172103
O O1 0.527727 0.412782 0.803742
O O2 0.323958 0.198756 0.542053
O O3 0.134837 0.049121 0.763994
O O4 0.059306 0.134687 0.631096
O O5 0.209170 0.556979 0.789754
O O6 0.958543 0.272104 0.616856
O O7 0.759009 0.198901 0.812103
O O8 0.154275 0.377938 0.916827
O O9 0.114328 0.228633 0.102601
O O10 0.651027 0.875050 0.980308
O O11 0.000000 0.000000 0.000000
O O12 0.500000 0.500000 0.000000
O O13 0.625809 0.842315 0.702363
O O14 0.669016 0.960104 0.481369
O O15 0.473951 0.875517 0.792490
O O16 0.500000 0.000000 0.500000
O O17 0.727893 0.119892 0.303365
O O18 0.500000 0.000000 0.000000
#
# Coordination Sequence:
#
# PCOD9019090 Si02
#       8
#     2   2   2   2   2   2   2   2
#     4  11  25  41  64 102 136 181 220 276 327 394
#     4  11  23  41  69  97 126 177 221 266 337 400
#     4  12  21  38  67  93 130 176 217 267 330 390
#     4  12  21  38  68  98 133 173 226 266 326 400
#     4  11  23  45  64  94 144 174 224 276 329 394
#     4  12  22  43  67  92 132 175 220 269 334 402
#     4  10  21  44  68  91 128 178 220 272 332 389
#     4  11  26  46  68  97 129 169 224 285 333 385
#
# _framework density 20.219422999999999
#
# number of rings (size 3 to 8) (size 9 to 14) (size 15 to 20)
#    0.000    0.750    7.500    0.750    1.750    1.000 
#    4.500    1.250    0.000    0.000    0.000    0.000 
#    0.000    0.000    0.000    0.000    0.000    0.000 
#
# Total GULP energy -89400.343721 kJ/mol
# GULP energy per Si atom -5587.521483 kJ/mol
# Density = 2.017340 g / cm^3
# Si number density = 20.219423 Si / 1000 Ang^3
#
#
#
# Elastic Constant Matrix: (Units=GPa)
#
#
# Indices 1 2 3 4 5 6 
#
# 1 65.7147 30.7114 31.6072 -0.8296 11.3211 -5.6654
# 2 30.7114 111.2748 30.5518 20.9075 -13.1822 -11.5256
# 3 31.6072 30.5518 135.7415 10.7889 1.0803 0.1560
# 4 -0.8296 20.9075 10.7889 33.5877 3.6517 2.3671
# 5 11.3211 -13.1822 1.0803 3.6517 37.3543 -4.3053
# 6 -5.6654 -11.5256 0.1560 2.3671 -4.3053 15.8587
#
#
#
# Elastic Compliance Matrix: (Units=1/GPa)
#
#
# Indices 1 2 3 4 5 6 
#
# 1 0.022767 -0.008197 -0.004025 0.008257 -0.010705 -0.001923
# 2 -0.008197 0.016642 -0.000951 -0.012470 0.011227 0.014085
# 3 -0.004025 -0.000951 0.008694 -0.002251 0.000657 -0.001701
# 4 0.008257 -0.012470 -0.002251 0.040938 -0.012642 -0.015633
# 5 -0.010705 0.011227 0.000657 -0.012642 0.037070 0.016280
# 6 -0.001923 0.014085 -0.001701 -0.015633 0.016280 0.079376
#
#
# Mechanical properties :
#
#
# Convention : Reuss Voigt Hill
#
# Bulk Modulus (GPa) = 45.96563 55.38575 50.67569
# Shear Modulus (GPa) = 20.91285 32.01751 26.46518
#
# Velocity S-wave (km/s) = 3.21953 3.98364 3.62180
# Velocity P-wave (km/s) = 6.05007 6.97216 6.52742
#
# Compressibility (1/GPa) = 0.02175538
#
# Stress axis : x y z
#
# Youngs Moduli (GPa) = 43.92326 60.08780 115.02183
#
# Poissons Ratio (x) = 0.49256 0.46298
# Poissons Ratio (y) = 0.36006 0.10944
# Poissons Ratio (z) = 0.17680 0.05717
#
# Static dielectric constant tensor:
#      x y z
#    x 1.730570 0.002470 0.008710 
#    y 0.002470 1.719660 0.010810 
#    z 0.008710 0.010810 1.755370 
# 
# From -- ./inp_files/273216.got.cif
#   From: 2010.05.17/outbox.cif.g08.bks.cpg/sg2_137_cif.got.tgz:273216.got - 2010.06.03 11:33:40.
