data_PCOD9019038
_publ_section_title
;
Structure prediction by ZEFSAII (Michael W. Deem and Ramdas Pophale) SiO2 
 PCOD9019038
Probable space group: P -1
;
_chemical_formula_sum "Si O2"
_cell_formula_units_Z 16
_cell_length_a 11.875539
_cell_length_b 9.775942
_cell_length_c 8.136129
_cell_angle_alpha 114.280553
_cell_angle_beta 60.094306
_cell_angle_gamma 112.629750
_cell_volume 726.791866
_symmetry_space_group_name_H-M "P -1"
_symmetry_group_IT_number 2
_symmetry_cell_setting 'triclinic'
loop_
_space_group_symop_operation_xyz
x,y,z
-x,-y,-z
loop_
_atom_site_type_symbol
_atom_site_label
_atom_site_fract_x
_atom_site_fract_y
_atom_site_fract_z
Si Si1 0.971972 0.092070 0.405633
Si Si2 0.289745 0.979095 0.622372
Si Si3 0.618092 0.544527 0.585757
Si Si4 0.480523 0.229166 0.429478
Si Si5 0.750685 0.750993 0.861322
Si Si6 0.756978 0.226618 0.744934
Si Si7 0.655348 0.041531 0.055237
Si Si8 0.622709 0.505931 0.040141
O O1 0.851007 0.997367 0.334955
O O2 0.910347 0.233357 0.587708
O O3 0.104008 0.148596 0.231413
O O4 0.000000 0.000000 0.500000
O O5 0.316126 0.855422 0.406402
O O6 0.277842 0.928621 0.795563
O O7 0.411858 0.125005 0.578339
O O8 0.606080 0.368511 0.455024
O O9 0.630058 0.687938 0.524953
O O10 0.721117 0.608108 0.685189
O O11 0.464476 0.528738 0.750661
O O12 0.526927 0.113092 0.210995
O O13 0.720397 0.671274 0.020135
O O14 0.647242 0.859344 0.955649
O O15 0.727761 0.123261 0.880692
O O16 0.706468 0.378928 0.889544
O O17 0.500000 0.500000 0.000000
#
# Coordination Sequence:
#
# PCOD9019038 Si02
#       8
#     2   2   2   2   2   2   2   2
#     4  10  21  44  67  97 134 175 230 278 323 388
#     4  10  25  39  67  98 136 169 222 277 327 395
#     4  10  22  38  62  95 140 172 209 279 340 396
#     4  11  22  38  63  99 137 169 214 278 341 391
#     4  11  23  39  68  96 130 181 223 271 331 394
#     4  10  23  43  66  95 137 177 218 278 331 393
#     4  12  23  40  69 100 131 175 227 273 334 397
#     4  10  22  38  62  94 132 173 217 265 336 401
#
# _framework density 22.014555000000001
#
# number of rings (size 3 to 8) (size 9 to 14) (size 15 to 20)
#    0.750    0.750    2.500    2.625    7.000    2.000 
#    0.000    0.000    0.000    1.500    0.000    0.000 
#    0.000    0.000    0.000    0.000    0.000    0.000 
#
# Total GULP energy -89114.486291 kJ/mol
# GULP energy per Si atom -5569.655393 kJ/mol
# Density = 2.196445 g / cm^3
# Si number density = 22.014555 Si / 1000 Ang^3
#
#
#
# Elastic Constant Matrix: (Units=GPa)
#
#
# Indices 1 2 3 4 5 6 
#
# 1 71.0801 20.6005 12.9646 -15.7451 4.9381 -11.3593
# 2 20.6005 109.5552 31.2334 -11.0212 -9.3756 -15.5432
# 3 12.9646 31.2334 87.8117 -4.2001 -1.3085 -4.7745
# 4 -15.7451 -11.0212 -4.2001 27.3771 -9.8123 -2.4814
# 5 4.9381 -9.3756 -1.3085 -9.8123 36.6171 -3.0970
# 6 -11.3593 -15.5432 -4.7745 -2.4814 -3.0970 32.7011
#
#
#
# Elastic Compliance Matrix: (Units=1/GPa)
#
#
# Indices 1 2 3 4 5 6 
#
# 1 0.017916 -0.000927 -0.001452 0.010528 0.000660 0.006432
# 2 -0.000927 0.012240 -0.003511 0.006306 0.005328 0.005966
# 3 -0.001452 -0.003511 0.012803 -0.000463 -0.000402 -0.000377
# 4 0.010528 0.006306 -0.000463 0.051501 0.014987 0.011914
# 5 0.000660 0.005328 -0.000402 0.014987 0.033177 0.006982
# 6 0.006432 0.005966 -0.000377 0.011914 0.006982 0.037160
#
#
# Mechanical properties :
#
#
# Convention : Reuss Voigt Hill
#
# Bulk Modulus (GPa) = 32.07395 44.22709 38.15052
# Shear Modulus (GPa) = 26.74217 32.91561 29.82889
#
# Velocity S-wave (km/s) = 3.48911 3.87094 3.68497
# Velocity P-wave (km/s) = 5.55274 6.33344 5.95590
#
# Compressibility (1/GPa) = 0.03117795
#
# Stress axis : x y z
#
# Youngs Moduli (GPa) = 55.81526 81.69955 78.10839
#
# Poissons Ratio (x) = 0.07571 0.11345
# Poissons Ratio (y) = 0.05173 0.27426
# Poissons Ratio (z) = 0.08107 0.28687
#
# Static dielectric constant tensor:
#      x y z
#    x 1.827400 -0.014360 0.044530 
#    y -0.014360 1.857650 0.006310 
#    z 0.044530 0.006310 1.903220 
# 
# From -- ./inp_files/299122.got.cif
#   From: 2010.05.17/outbox.cif.g08.bks.cpg/sg2_150_cif.got.tgz:299122.got - 2010.06.03 11:33:40.
