data_PCOD9019274
_publ_section_title
;
Structure prediction by ZEFSAII (Michael W. Deem and Ramdas Pophale) SiO2 
 PCOD9019274
Probable space group: P -1
;
_chemical_formula_sum "Si O2"
_cell_formula_units_Z 16
_cell_length_a 23.463491
_cell_length_b 23.198031
_cell_length_c 5.536585
_cell_angle_alpha 88.056332
_cell_angle_beta 88.499708
_cell_angle_gamma 11.955091
_cell_volume 623.536358
_symmetry_space_group_name_H-M "P -1"
_symmetry_group_IT_number 2
_symmetry_cell_setting 'triclinic'
loop_
_space_group_symop_operation_xyz
x,y,z
-x,-y,-z
loop_
_atom_site_type_symbol
_atom_site_label
_atom_site_fract_x
_atom_site_fract_y
_atom_site_fract_z
Si Si1 0.096759 0.773141 0.624153
Si Si2 0.755616 0.779522 0.381979
Si Si3 0.985376 0.644413 0.690907
Si Si4 0.168469 0.823135 0.760709
Si Si5 0.161486 0.046876 0.989918
Si Si6 0.419296 0.691398 0.692272
Si Si7 0.471117 0.131448 0.993028
Si Si8 0.284056 0.431615 0.003796
O O1 0.238344 0.686353 0.761257
O O2 0.285151 0.580240 0.393654
O O3 0.790651 0.094496 0.537915
O O4 0.035466 0.779791 0.796086
O O5 0.875536 0.724754 0.449009
O O6 0.000000 0.500000 0.500000
O O7 0.500000 0.000000 0.500000
O O8 0.623183 0.927461 0.121476
O O9 0.147370 0.542615 0.753093
O O10 0.197938 0.388528 0.832291
O O11 0.702862 0.929034 0.827268
O O12 0.406248 0.636375 0.762877
O O13 0.000000 0.000000 0.500000
O O14 0.000000 0.000000 0.000000
O O15 0.276791 0.875033 0.873089
O O16 0.441929 0.803477 0.042938
O O17 0.947573 0.304097 0.859365
O O18 0.369521 0.286359 0.144128
#
# Coordination Sequence:
#
# PCOD9019274 Si02
#       8
#     2   2   2   2   2   2   2   2
#     4  11  24  43  65 103 139 185 242 307 382 452
#     4  12  26  40  70 108 138 180 234 289 358 437
#     4  10  22  45  65  96 139 181 232 284 361 430
#     4  10  21  44  70 105 149 199 248 318 402 483
#     4  12  22  43  70  95 136 178 250 303 368 437
#     4  11  24  43  65 103 139 185 242 307 382 452
#     4  10  22  45  65  96 139 181 232 284 361 430
#     4  10  22  44  68  94 132 194 230 301 366 439
#
# _framework density 25.660093
#
# number of rings (size 3 to 8) (size 9 to 14) (size 15 to 20)
#    0.750    0.500    2.500    3.375    0.000    3.000 
#    2.250    5.000    0.000    0.000    0.000    0.000 
#    0.000    0.000    0.000    0.000    0.000    0.000 
#
# Total GULP energy -89179.952183 kJ/mol
# GULP energy per Si atom -5573.747011 kJ/mol
# Density = 2.560169 g / cm^3
# Si number density = 25.660093 Si / 1000 Ang^3
#
#
#
# Elastic Constant Matrix: (Units=GPa)
#
#
# Indices 1 2 3 4 5 6 
#
# 1 138.7095 42.3813 35.8453 -2.6914 19.1695 -13.2620
# 2 42.3813 182.9332 29.0988 8.2731 -2.4821 -9.8514
# 3 35.8453 29.0988 54.2157 4.5867 8.4131 -11.5745
# 4 -2.6914 8.2731 4.5867 40.1903 -7.8976 -4.0998
# 5 19.1695 -2.4821 8.4131 -7.8976 24.1989 -4.7018
# 6 -13.2620 -9.8514 -11.5745 -4.0998 -4.7018 40.0506
#
#
#
# Elastic Compliance Matrix: (Units=1/GPa)
#
#
# Indices 1 2 3 4 5 6 
#
# 1 0.009796 -0.001603 -0.004525 0.000403 -0.006050 0.000873
# 2 -0.001603 0.006344 -0.002614 -0.000515 0.002767 0.000546
# 3 -0.004525 -0.002614 0.024853 -0.003291 -0.005612 0.004045
# 4 0.000403 -0.000515 -0.003291 0.027760 0.010439 0.003123
# 5 -0.006050 0.002767 -0.005612 0.010439 0.052594 0.004298
# 6 0.000873 0.000546 0.004045 0.003123 0.004298 0.027385
#
#
# Mechanical properties :
#
#
# Convention : Reuss Voigt Hill
#
# Bulk Modulus (GPa) = 42.53933 65.61212 54.07573
# Shear Modulus (GPa) = 28.72689 38.79013 33.75851
#
# Velocity S-wave (km/s) = 3.34955 3.89227 3.63106
# Velocity P-wave (km/s) = 5.61901 6.76941 6.22086
#
# Compressibility (1/GPa) = 0.02350766
#
# Stress axis : x y z
#
# Youngs Moduli (GPa) = 102.08410 157.62981 40.23679
#
# Poissons Ratio (x) = 0.25267 0.18208
# Poissons Ratio (y) = 0.16364 0.10519
# Poissons Ratio (z) = 0.46195 0.41210
#
# Static dielectric constant tensor:
#      x y z
#    x 2.240390 0.123390 -0.000450 
#    y 0.123390 2.004340 -0.032530 
#    z -0.000450 -0.032530 2.112880 
# 
# From -- ./inp_files/127753.got.cif
#   From: 2010.05.17/outbox.cif.g08.bks.cpg/sg2_64_cif.got.tgz:127753.got - 2010.06.03 11:33:40.
