data_PCOD9019580
_publ_section_title
;
Structure prediction by ZEFSAII (Michael W. Deem and Ramdas Pophale) SiO2 
 PCOD9019580
Probable space group: P -1
;
_chemical_formula_sum "Si O2"
_cell_formula_units_Z 13
_cell_length_a 20.836384
_cell_length_b 5.912122
_cell_length_c 5.023530
_cell_angle_alpha 84.964498
_cell_angle_beta 63.285471
_cell_angle_gamma 81.803761
_cell_volume 546.936142
_symmetry_space_group_name_H-M "P -1"
_symmetry_group_IT_number 2
_symmetry_cell_setting 'triclinic'
loop_
_space_group_symop_operation_xyz
x,y,z
-x,-y,-z
loop_
_atom_site_type_symbol
_atom_site_label
_atom_site_fract_x
_atom_site_fract_y
_atom_site_fract_z
Si Si1 0.091562 0.573695 0.565969
Si Si2 0.362542 0.249323 0.146973
Si Si3 0.983011 0.217141 0.813178
Si Si4 0.500000 0.500000 0.000000
Si Si5 0.433712 0.859696 0.682809
Si Si6 0.747369 0.344838 0.802742
Si Si7 0.696573 0.100997 0.404665
O O1 0.055092 0.769874 0.407399
O O2 0.176173 0.560270 0.361504
O O3 0.054298 0.343240 0.612150
O O4 0.071867 0.628008 0.904671
O O5 0.316706 0.451870 0.054504
O O6 0.310057 0.159890 0.478772
O O7 0.436019 0.320014 0.126222
O O8 0.381520 0.029354 0.946870
O O9 0.000000 0.000000 0.000000
O O10 0.461784 0.632124 0.803864
O O11 0.388550 0.807065 0.510033
O O12 0.500000 0.000000 0.500000
O O13 0.728730 0.232945 0.570811
O O14 0.742589 0.157121 0.059178
#
# Coordination Sequence:
#
# PCOD9019580 Si02
#       7
#     2   2   2   1   2   2   2
#     4  10  23  43  70 108 142 183 232 274 340 411
#     4  12  27  45  70 104 134 185 240 295 360 425
#     4  10  21  44  75 107 142 181 231 281 327 404
#     4  12  24  44  70  92 130 178 232 304 354 398
#     4  12  27  45  72  98 132 180 245 299 357 423
#     4  12  28  46  71 102 150 186 225 293 353 417
#     4  12  26  48  67 101 141 183 234 287 355 428
#
# _framework density 23.768771000000001
#
# number of rings (size 3 to 8) (size 9 to 14) (size 15 to 20)
#    0.000    0.615    4.615    1.846    4.308    4.308 
#    0.000    0.000    0.000    0.000    0.000    0.000 
#    0.000    0.000    0.000    0.000    0.000    0.000 
#
# Total GULP energy -72484.077615 kJ/mol
# GULP energy per Si atom -5575.698278 kJ/mol
# Density = 2.371467 g / cm^3
# Si number density = 23.768771 Si / 1000 Ang^3
#
#
#
# Elastic Constant Matrix: (Units=GPa)
#
#
# Indices 1 2 3 4 5 6 
#
# 1 114.0576 24.0343 57.9513 -5.7893 -9.0106 8.3083
# 2 24.0343 42.7086 23.4210 -23.5231 4.3261 3.3165
# 3 57.9513 23.4210 129.7015 -24.1333 -2.3886 15.5125
# 4 -5.7893 -23.5231 -24.1333 46.1620 7.8028 8.5284
# 5 -9.0106 4.3261 -2.3886 7.8028 52.8779 -1.9047
# 6 8.3083 3.3165 15.5125 8.5284 -1.9047 19.4425
#
#
#
# Elastic Compliance Matrix: (Units=1/GPa)
#
#
# Indices 1 2 3 4 5 6 
#
# 1 0.013514 -0.009275 -0.006323 -0.007905 0.004113 0.004722
# 2 -0.009275 0.045504 0.003708 0.029520 -0.010238 -0.020709
# 3 -0.006323 0.003708 0.013587 0.011284 -0.002937 -0.014008
# 4 -0.007905 0.029520 0.011284 0.049833 -0.011819 -0.033677
# 5 0.004113 -0.010238 -0.002937 -0.011819 0.022411 0.009712
# 6 0.004722 -0.020709 -0.014008 -0.033677 0.009712 0.079848
#
#
# Mechanical properties :
#
#
# Convention : Reuss Voigt Hill
#
# Bulk Modulus (GPa) = 20.48125 55.25344 37.86735
# Shear Modulus (GPa) = 18.88552 35.76722 27.32637
#
# Velocity S-wave (km/s) = 2.82184 3.88338 3.39436
# Velocity P-wave (km/s) = 4.38778 6.58819 5.59718
#
# Compressibility (1/GPa) = 0.04882514
#
# Stress axis : x y z
#
# Youngs Moduli (GPa) = 73.99524 21.97590 73.60176
#
# Poissons Ratio (x) = 0.20382 0.46541
# Poissons Ratio (y) = 0.68628 -0.27291
# Poissons Ratio (z) = 0.46790 -0.08148
#
# Static dielectric constant tensor:
#      x y z
#    x 1.891220 0.003420 0.021970 
#    y 0.003420 2.070660 0.142720 
#    z 0.021970 0.142720 2.023460 
# 
# From -- ./inp_files/6596.got.cif
#   From: 2010.05.17/outbox.cif.g08.bks.cpg/sg2_4_cif.got.tgz:6596.got - 2010.06.03 11:33:40.
