data_PCOD9019065
_publ_section_title
;
Structure prediction by ZEFSAII (Michael W. Deem and Ramdas Pophale) SiO2 
 PCOD9019065
Probable space group: P -1
;
_chemical_formula_sum "Si O2"
_cell_formula_units_Z 16
_cell_length_a 22.687354
_cell_length_b 12.815251
_cell_length_c 9.258234
_cell_angle_alpha 130.324044
_cell_angle_beta 40.010785
_cell_angle_gamma 155.492101
_cell_volume 705.267262
_symmetry_space_group_name_H-M "P -1"
_symmetry_group_IT_number 2
_symmetry_cell_setting 'triclinic'
loop_
_space_group_symop_operation_xyz
x,y,z
-x,-y,-z
loop_
_atom_site_type_symbol
_atom_site_label
_atom_site_fract_x
_atom_site_fract_y
_atom_site_fract_z
Si Si1 0.733756 0.890853 0.525937
Si Si2 0.055853 0.416181 0.793453
Si Si3 0.869814 0.559781 0.655010
Si Si4 0.568583 0.512265 0.742080
Si Si5 0.665669 0.044316 0.592963
Si Si6 0.195498 0.992982 0.901993
Si Si7 0.600450 0.235352 0.415769
Si Si8 0.167027 0.195158 0.955762
O O1 0.685602 0.760340 0.650802
O O2 0.710546 0.736936 0.317683
O O3 0.637297 0.901376 0.649192
O O4 0.934660 0.187745 0.427641
O O5 0.120420 0.457824 0.551156
O O6 0.204645 0.571673 0.770435
O O7 0.000000 0.500000 0.000000
O O8 0.879300 0.118986 0.900196
O O9 0.756207 0.296797 0.701443
O O10 0.784683 0.598804 0.885030
O O11 0.619152 0.418426 0.595334
O O12 0.394500 0.275447 0.767620
O O13 0.500000 0.500000 0.000000
O O14 0.809233 0.148133 0.314526
O O15 0.507012 0.885883 0.641859
O O16 0.106474 0.014399 0.029573
O O17 0.500000 0.000000 0.500000
O O18 0.000000 0.000000 0.000000
#
# Coordination Sequence:
#
# PCOD9019065 Si02
#       8
#     2   2   2   2   2   2   2   2
#     4  10  23  44  70 101 140 188 229 284 365 411
#     4  12  23  41  71 102 138 186 233 288 357 407
#     4  11  21  40  70 101 139 181 240 289 342 423
#     4  11  25  45  70 102 142 179 232 293 349 425
#     4  10  21  44  68 101 140 186 233 292 344 422
#     4  10  22  40  65  96 134 182 224 284 348 407
#     4  11  24  43  70 101 147 182 234 291 352 413
#     4   9  22  39  61  98 137 172 228 285 340 409
#
# _framework density 22.686434999999999
#
# number of rings (size 3 to 8) (size 9 to 14) (size 15 to 20)
#    0.000    1.500    2.500    1.875    5.250    5.000 
#    0.000    1.250    0.000    6.750    0.000    0.000 
#    0.000    0.000    0.000    0.000    0.000    0.000 
#
# Total GULP energy -89159.140369 kJ/mol
# GULP energy per Si atom -5572.446273 kJ/mol
# Density = 2.263480 g / cm^3
# Si number density = 22.686435 Si / 1000 Ang^3
#
#
#
# Elastic Constant Matrix: (Units=GPa)
#
#
# Indices 1 2 3 4 5 6 
#
# 1 134.1773 45.2846 52.0474 17.2070 -29.4921 -15.4177
# 2 45.2846 91.5238 43.2720 16.5428 -11.6822 -7.3589
# 3 52.0474 43.2720 95.7247 28.8542 -7.9533 -14.3788
# 4 17.2070 16.5428 28.8542 33.7044 -0.1807 -10.0677
# 5 -29.4921 -11.6822 -7.9533 -0.1807 32.5433 -8.0825
# 6 -15.4177 -7.3589 -14.3788 -10.0677 -8.0825 29.4247
#
#
#
# Elastic Compliance Matrix: (Units=1/GPa)
#
#
# Indices 1 2 3 4 5 6 
#
# 1 0.013451 -0.002611 -0.004014 0.000273 0.012232 0.007886
# 2 -0.002611 0.014998 -0.004575 -0.002121 0.001872 -0.000064
# 3 -0.004014 -0.004575 0.018165 -0.010708 -0.000442 0.001844
# 4 0.000273 -0.002121 -0.010708 0.042320 -0.000747 0.008654
# 5 0.012232 0.001872 -0.000442 -0.000747 0.047182 0.019366
# 6 0.007886 -0.000064 0.001844 0.008654 0.019366 0.047283
#
#
# Mechanical properties :
#
#
# Convention : Reuss Voigt Hill
#
# Bulk Modulus (GPa) = 41.29982 66.95930 54.12956
# Shear Modulus (GPa) = 23.37847 31.18926 27.28386
#
# Velocity S-wave (km/s) = 3.21363 3.71185 3.47169
# Velocity P-wave (km/s) = 5.65810 6.92457 6.32312
#
# Compressibility (1/GPa) = 0.02421318
#
# Stress axis : x y z
#
# Youngs Moduli (GPa) = 74.34343 66.67449 55.04989
#
# Poissons Ratio (x) = 0.17411 0.22100
# Poissons Ratio (y) = 0.19413 0.25185
# Poissons Ratio (z) = 0.29845 0.30503
#
# Static dielectric constant tensor:
#      x y z
#    x 1.959440 0.127050 0.061440 
#    y 0.127050 2.068760 0.180990 
#    z 0.061440 0.180990 2.006380 
# 
# From -- ./inp_files/346338.got.cif
#   From: 2010.05.17/outbox.cif.g08.bks.cpg/sg2_174_cif.got.tgz:346338.got - 2010.06.03 11:33:40.
