data_PCOD9019087
_publ_section_title
;
Structure prediction by ZEFSAII (Michael W. Deem and Ramdas Pophale) SiO2 
 PCOD9019087
Probable space group: P -1
;
_chemical_formula_sum "Si O2"
_cell_formula_units_Z 14
_cell_length_a 19.103961
_cell_length_b 5.622371
_cell_length_c 10.042461
_cell_angle_alpha 82.445868
_cell_angle_beta 38.840420
_cell_angle_gamma 101.829465
_cell_volume 582.905730
_symmetry_space_group_name_H-M "P -1"
_symmetry_group_IT_number 2
_symmetry_cell_setting 'triclinic'
loop_
_space_group_symop_operation_xyz
x,y,z
-x,-y,-z
loop_
_atom_site_type_symbol
_atom_site_label
_atom_site_fract_x
_atom_site_fract_y
_atom_site_fract_z
Si Si1 0.278281 0.728046 0.937006
Si Si2 0.955798 0.878491 0.724748
Si Si3 0.147437 0.779814 0.623579
Si Si4 0.336721 0.946565 0.108892
Si Si5 0.939995 0.145343 0.986223
Si Si6 0.449004 0.259072 0.486990
Si Si7 0.531079 0.420707 0.099807
O O1 0.415776 0.734199 0.743545
O O2 0.331969 0.985859 0.738755
O O3 0.160093 0.438454 0.089001
O O4 0.246395 0.792838 0.126603
O O5 0.078518 0.905263 0.621979
O O6 0.000000 0.000000 0.500000
O O7 0.906582 0.021594 0.896005
O O8 0.276751 0.861352 0.349386
O O9 0.156143 0.843992 0.762515
O O10 0.052062 0.455838 0.777655
O O11 0.432996 0.819868 0.965267
O O12 0.372931 0.265368 0.011582
O O13 0.000000 0.000000 0.000000
O O14 0.500000 0.500000 0.500000
O O15 0.418293 0.324762 0.382258
O O16 0.500000 0.500000 0.000000
#
# Coordination Sequence:
#
# PCOD9019087 Si02
#       7
#     2   2   2   2   2   2   2
#     4  10  23  41  66 102 132 185 235 285 353 415
#     4  11  24  40  70 103 142 181 239 289 344 433
#     4  10  23  43  65  97 139 185 228 290 350 430
#     4  11  24  43  75  99 140 185 227 293 362 414
#     4   9  21  43  62  89 141 179 233 282 349 414
#     4  10  21  44  68  89 140 178 227 292 351 412
#     4  11  25  47  70 105 136 177 241 291 353 425
#
# _framework density 24.017606000000001
#
# number of rings (size 3 to 8) (size 9 to 14) (size 15 to 20)
#    0.000    1.714    1.429    1.286    8.000    3.429 
#   10.286    0.000    0.000    0.000    0.000    0.000 
#    0.000    0.000    0.000    0.000    0.000    0.000 
#
# Total GULP energy -77986.292971 kJ/mol
# GULP energy per Si atom -5570.449498 kJ/mol
# Density = 2.396294 g / cm^3
# Si number density = 24.017606 Si / 1000 Ang^3
#
#
#
# Elastic Constant Matrix: (Units=GPa)
#
#
# Indices 1 2 3 4 5 6 
#
# 1 51.0455 28.7221 24.6334 -8.3069 15.2280 13.2164
# 2 28.7221 143.1404 88.1713 5.8097 14.0648 35.5508
# 3 24.6334 88.1713 172.8332 -9.8704 41.6252 18.1248
# 4 -8.3069 5.8097 -9.8704 30.8105 -1.1912 1.5495
# 5 15.2280 14.0648 41.6252 -1.1912 51.8962 3.7209
# 6 13.2164 35.5508 18.1248 1.5495 3.7209 45.4525
#
#
#
# Elastic Compliance Matrix: (Units=1/GPa)
#
#
# Indices 1 2 3 4 5 6 
#
# 1 0.026065 -0.004577 0.001182 0.008214 -0.006867 -0.004189
# 2 -0.004577 0.013594 -0.006709 -0.005477 0.003396 -0.006718
# 3 0.001182 -0.006709 0.010965 0.004766 -0.007283 0.000965
# 4 0.008214 -0.005477 0.004766 0.037131 -0.003828 -0.000957
# 5 -0.006867 0.003396 -0.007283 -0.003828 0.026101 0.000239
# 6 -0.004189 -0.006718 0.000965 -0.000957 0.000239 0.028102
#
#
# Mechanical properties :
#
#
# Convention : Reuss Voigt Hill
#
# Bulk Modulus (GPa) = 32.87591 72.23031 52.55311
# Shear Modulus (GPa) = 29.01844 40.66464 34.84154
#
# Velocity S-wave (km/s) = 3.47971 4.11922 3.81289
# Velocity P-wave (km/s) = 5.46466 7.26382 6.42750
#
# Compressibility (1/GPa) = 0.03041741
#
# Stress axis : x y z
#
# Youngs Moduli (GPa) = 38.36569 73.56087 91.19754
#
# Poissons Ratio (x) = 0.33666 -0.10780
# Poissons Ratio (y) = 0.17558 0.61184
# Poissons Ratio (z) = -0.04535 0.49352
#
# Static dielectric constant tensor:
#      x y z
#    x 2.336490 -0.186370 0.079420 
#    y -0.186370 2.065320 0.006770 
#    z 0.079420 0.006770 1.992050 
# 
# From -- ./inp_files/340389.got.cif
#   From: 2010.05.17/outbox.cif.g08.bks.cpg/sg2_171_cif.got.tgz:340389.got - 2010.06.03 11:33:40.
