data_PCOD9019799
_publ_section_title
;
Structure prediction by ZEFSAII (Michael W. Deem and Ramdas Pophale) SiO2 
 PCOD9019799
Probable space group: P -1
;
_chemical_formula_sum "Si O2"
_cell_formula_units_Z 14
_cell_length_a 14.023605
_cell_length_b 10.449636
_cell_length_c 9.218175
_cell_angle_alpha 97.764006
_cell_angle_beta 122.963681
_cell_angle_gamma 126.529084
_cell_volume 667.121409
_symmetry_space_group_name_H-M "P -1"
_symmetry_group_IT_number 2
_symmetry_cell_setting 'triclinic'
loop_
_space_group_symop_operation_xyz
x,y,z
-x,-y,-z
loop_
_atom_site_type_symbol
_atom_site_label
_atom_site_fract_x
_atom_site_fract_y
_atom_site_fract_z
Si Si1 0.794373 0.611772 0.592606
Si Si2 0.372628 0.013238 0.422646
Si Si3 0.051332 0.626358 0.914908
Si Si4 0.321386 0.475146 0.208674
Si Si5 0.938167 0.075051 0.381756
Si Si6 0.454370 0.375189 0.085580
Si Si7 0.994170 0.313701 0.724688
O O1 0.730679 0.621710 0.688925
O O2 0.626340 0.455351 0.312768
O O3 0.874221 0.547958 0.702539
O O4 0.962576 0.832865 0.677656
O O5 0.515885 0.264958 0.597595
O O6 0.500000 0.000000 0.500000
O O7 0.220293 0.874811 0.410516
O O8 0.229300 0.879209 0.144234
O O9 0.081953 0.537288 0.816528
O O10 0.000000 0.500000 0.000000
O O11 0.389741 0.421428 0.157180
O O12 0.134243 0.365632 0.959606
O O13 0.714448 0.872337 0.138232
O O14 0.000000 0.000000 0.500000
O O15 0.994248 0.240611 0.561484
O O16 0.500000 0.500000 0.000000
#
# Coordination Sequence:
#
# PCOD9019799 Si02
#       7
#     2   2   2   2   2   2   2
#     4  12  26  45  70 104 138 181 236 287 339 413
#     4  11  21  38  71 103 132 176 225 284 351 400
#     4  10  21  45  68  99 142 168 226 293 341 400
#     4  12  23  41  71 106 135 179 231 288 343 409
#     4  12  26  47  70  96 145 190 226 283 347 408
#     4  12  26  47  67 100 146 184 231 280 342 418
#     4  11  22  45  72 100 140 184 225 282 353 406
#
# _framework density 20.985686000000001
#
# number of rings (size 3 to 8) (size 9 to 14) (size 15 to 20)
#    0.000    0.571    7.143    2.143    2.000    1.143 
#    0.000    0.714    0.000    0.000    0.000    0.000 
#    0.000    0.000    0.000    0.000    0.000    0.000 
#
# Total GULP energy -78193.618061 kJ/mol
# GULP energy per Si atom -5585.258433 kJ/mol
# Density = 2.093792 g / cm^3
# Si number density = 20.985686 Si / 1000 Ang^3
#
#
#
# Elastic Constant Matrix: (Units=GPa)
#
#
# Indices 1 2 3 4 5 6 
#
# 1 85.7187 17.7145 30.1055 -8.2857 -12.8865 -1.1919
# 2 17.7145 72.7788 30.4247 -15.7343 -5.6662 20.4773
# 3 30.1055 30.4247 145.5456 -9.8984 8.1309 -1.2028
# 4 -8.2857 -15.7343 -9.8984 38.2719 -10.4389 4.3405
# 5 -12.8865 -5.6662 8.1309 -10.4389 53.9195 -3.1291
# 6 -1.1919 20.4773 -1.2028 4.3405 -3.1291 35.5572
#
#
#
# Elastic Compliance Matrix: (Units=1/GPa)
#
#
# Indices 1 2 3 4 5 6 
#
# 1 0.013807 -0.001883 -0.002506 0.002500 0.004052 0.001514
# 2 -0.001883 0.022265 -0.003883 0.010324 0.003664 -0.013955
# 3 -0.002506 -0.003883 0.008288 -0.000886 -0.002293 0.002339
# 4 0.002500 0.010324 -0.000886 0.033881 0.007834 -0.009338
# 5 0.004052 0.003664 -0.002293 0.007834 0.021698 -0.001099
# 6 0.001514 -0.013955 0.002339 -0.009338 -0.001099 0.037333
#
#
# Mechanical properties :
#
#
# Convention : Reuss Voigt Hill
#
# Bulk Modulus (GPa) = 35.94945 51.17027 43.55986
# Shear Modulus (GPa) = 30.65806 40.60293 35.63050
#
# Velocity S-wave (km/s) = 3.82632 4.40340 4.12496
# Velocity P-wave (km/s) = 6.05712 7.09151 6.59463
#
# Compressibility (1/GPa) = 0.02781684
#
# Stress axis : x y z
#
# Youngs Moduli (GPa) = 72.42565 44.91279 120.65794
#
# Poissons Ratio (x) = 0.08457 0.30239
# Poissons Ratio (y) = 0.13637 0.46849
# Poissons Ratio (z) = 0.18151 0.17439
#
# Static dielectric constant tensor:
#      x y z
#    x 1.794810 0.018900 0.015150 
#    y 0.018900 1.745850 0.052110 
#    z 0.015150 0.052110 1.737190 
# 
# From -- ./inp_files/305412.got.cif
#   From: 2010.05.17/outbox.cif.g08.bks.cpg/sg2_153_cif.got.tgz:305412.got - 2010.06.03 11:33:40.
