data_PCOD9019067
_publ_section_title
;
Structure prediction by ZEFSAII (Michael W. Deem and Ramdas Pophale) SiO2 
 PCOD9019067
Probable space group: P -1
;
_chemical_formula_sum "Si O2"
_cell_formula_units_Z 12
_cell_length_a 10.852295
_cell_length_b 12.120914
_cell_length_c 5.281760
_cell_angle_alpha 52.581276
_cell_angle_beta 55.755851
_cell_angle_gamma 62.432043
_cell_volume 448.339275
_symmetry_space_group_name_H-M "P -1"
_symmetry_group_IT_number 2
_symmetry_cell_setting 'triclinic'
loop_
_space_group_symop_operation_xyz
x,y,z
-x,-y,-z
loop_
_atom_site_type_symbol
_atom_site_label
_atom_site_fract_x
_atom_site_fract_y
_atom_site_fract_z
Si Si1 0.454773 0.629217 0.067194
Si Si2 0.914070 0.288792 0.137657
Si Si3 0.310002 0.155010 0.031391
Si Si4 0.061317 0.142522 0.683542
Si Si5 0.251632 0.446556 0.842642
Si Si6 0.346142 0.863517 0.198630
O O1 0.328176 0.561489 0.453309
O O2 0.617540 0.623418 0.018844
O O3 0.379198 0.794398 0.977142
O O4 0.500000 0.500000 0.000000
O O5 0.984073 0.209959 0.419573
O O6 0.883632 0.457075 0.986326
O O7 0.755740 0.226711 0.393909
O O8 0.006587 0.243360 0.840768
O O9 0.237256 0.120775 0.431218
O O10 0.277595 0.029730 0.062015
O O11 0.235059 0.319838 0.850265
O O12 0.489632 0.151520 0.835389
O O13 0.000000 0.000000 0.000000
#
# Coordination Sequence:
#
# PCOD9019067 Si02
#       6
#     2   2   2   2   2   2
#     4   9  18  37  64  97 138 178 227 283 348 412
#     4  11  25  46  74 101 137 191 234 282 352 427
#     4  10  21  44  68 101 143 176 234 295 347 406
#     4  12  26  47  72 101 143 187 234 285 355 422
#     4   9  21  39  62  99 139 175 233 284 349 406
#     4   9  20  42  69 102 132 183 233 286 344 410
#
# _framework density 26.765447999999999
#
# number of rings (size 3 to 8) (size 9 to 14) (size 15 to 20)
#    0.000    2.000    1.667    1.500    4.667    1.333 
#    6.000    1.667    0.000    0.000    0.000    0.000 
#    0.000    0.000    0.000    0.000    0.000    0.000 
#
# Total GULP energy -66964.573945 kJ/mol
# GULP energy per Si atom -5580.381162 kJ/mol
# Density = 2.670453 g / cm^3
# Si number density = 26.765448 Si / 1000 Ang^3
#
#
#
# Elastic Constant Matrix: (Units=GPa)
#
#
# Indices 1 2 3 4 5 6 
#
# 1 65.6611 30.0180 38.1484 10.5657 -13.5105 7.6599
# 2 30.0180 314.3049 48.1275 3.1207 8.1745 29.1008
# 3 38.1484 48.1275 90.7442 11.6728 -15.3449 3.3330
# 4 10.5657 3.1207 11.6728 58.3983 9.7150 -2.8320
# 5 -13.5105 8.1745 -15.3449 9.7150 37.6042 2.6609
# 6 7.6599 29.1008 3.3330 -2.8320 2.6609 45.0981
#
#
#
# Elastic Compliance Matrix: (Units=1/GPa)
#
#
# Indices 1 2 3 4 5 6 
#
# 1 0.022068 -0.000837 -0.007150 -0.003742 0.006393 -0.003292
# 2 -0.000837 0.003797 -0.001991 0.000572 -0.001944 -0.002010
# 3 -0.007150 -0.001991 0.016261 -0.002663 0.005129 0.000827
# 4 -0.003742 0.000572 -0.002663 0.019705 -0.007799 0.002161
# 5 0.006393 -0.001944 0.005129 -0.007799 0.033610 -0.002683
# 6 -0.003292 -0.002010 0.000827 0.002161 -0.002683 0.024263
#
#
# Mechanical properties :
#
#
# Convention : Reuss Voigt Hill
#
# Bulk Modulus (GPa) = 45.10418 78.14421 61.62420
# Shear Modulus (GPa) = 34.00194 51.84786 42.92490
#
# Velocity S-wave (km/s) = 3.56809 4.40605 4.00902
# Velocity P-wave (km/s) = 5.81921 7.42588 6.67109
#
# Compressibility (1/GPa) = 0.02217089
#
# Stress axis : x y z
#
# Youngs Moduli (GPa) = 45.31446 263.33750 61.49620
#
# Poissons Ratio (x) = 0.22044 0.43970
# Poissons Ratio (y) = 0.03793 0.12242
# Poissons Ratio (z) = 0.32400 0.52421
#
# Static dielectric constant tensor:
#      x y z
#    x 2.400430 -0.049320 -0.033300 
#    y -0.049320 2.265360 0.029800 
#    z -0.033300 0.029800 2.084540 
# 
# From -- ./inp_files/94258.got.cif
#   From: 2010.05.17/outbox.cif.g08.bks.cpg/sg2_48_cif.got.tgz:94258.got - 2010.06.03 11:33:40.
