data_PCOD9019519
_publ_section_title
;
Structure prediction by ZEFSAII (Michael W. Deem and Ramdas Pophale) SiO2 
 PCOD9019519
Probable space group: P -1
;
_chemical_formula_sum "Si O2"
_cell_formula_units_Z 16
_cell_length_a 13.198316
_cell_length_b 5.361332
_cell_length_c 10.838168
_cell_angle_alpha 66.150789
_cell_angle_beta 52.215539
_cell_angle_gamma 74.361715
_cell_volume 554.102090
_symmetry_space_group_name_H-M "P -1"
_symmetry_group_IT_number 2
_symmetry_cell_setting 'triclinic'
loop_
_space_group_symop_operation_xyz
x,y,z
-x,-y,-z
loop_
_atom_site_type_symbol
_atom_site_label
_atom_site_fract_x
_atom_site_fract_y
_atom_site_fract_z
Si Si1 0.362774 0.373353 0.103149
Si Si2 0.626395 0.519985 0.197510
Si Si3 0.341463 0.303004 0.397061
Si Si4 0.500603 0.177050 0.591430
Si Si5 0.014851 0.612673 0.607626
Si Si6 0.185064 0.959753 0.761402
Si Si7 0.794988 0.081168 0.719444
Si Si8 0.076043 0.914722 0.119812
O O1 0.295242 0.429985 0.275396
O O2 0.343267 0.050022 0.162318
O O3 0.500000 0.500000 0.000000
O O4 0.316384 0.475524 0.983330
O O5 0.475849 0.449100 0.296060
O O6 0.714205 0.297302 0.250674
O O7 0.614651 0.802581 0.226831
O O8 0.252590 0.218565 0.595044
O O9 0.387338 0.990011 0.391250
O O10 0.500000 0.500000 0.500000
O O11 0.500000 0.000000 0.500000
O O12 0.000000 0.500000 0.500000
O O13 0.903001 0.837155 0.663219
O O14 0.987769 0.381505 0.772844
O O15 0.157547 0.728430 0.466571
O O16 0.135225 0.002553 0.929520
O O17 0.054326 0.901317 0.795449
O O18 0.826487 0.117468 0.833310
#
# Coordination Sequence:
#
# PCOD9019519 Si02
#       8
#     2   2   2   2   2   2   2   2
#     4  10  25  46  76 114 157 204 271 332 406 482
#     4  11  24  49  75 109 161 213 267 333 410 489
#     4  11  24  45  74 113 154 214 267 330 407 487
#     4  12  23  46  78 113 155 209 269 328 407 487
#     4   9  20  40  71 103 144 198 260 321 400 470
#     4  11  23  45  77 111 160 203 268 333 406 489
#     4  10  21  44  73 104 152 205 260 326 406 477
#     4  10  24  45  71 116 154 205 272 331 402 480
#
# _framework density 28.875546
#
# number of rings (size 3 to 8) (size 9 to 14) (size 15 to 20)
#    0.000    1.500    2.500    1.125    5.250    2.500 
#    2.250   11.875    0.000    0.000    0.000    0.000 
#    0.000    0.000    0.000    0.000    0.000    0.000 
#
# Total GULP energy -89183.730587 kJ/mol
# GULP energy per Si atom -5573.983162 kJ/mol
# Density = 2.880982 g / cm^3
# Si number density = 28.875546 Si / 1000 Ang^3
#
#
#
# Elastic Constant Matrix: (Units=GPa)
#
#
# Indices 1 2 3 4 5 6 
#
# 1 139.0421 17.7350 73.9017 -6.6034 10.7946 18.9662
# 2 17.7350 71.3277 59.9695 24.3672 0.7569 7.3580
# 3 73.9017 59.9695 243.2486 4.6132 14.6209 5.3010
# 4 -6.6034 24.3672 4.6132 55.5220 4.1551 -10.4153
# 5 10.7946 0.7569 14.6209 4.1551 75.1312 -8.8882
# 6 18.9662 7.3580 5.3010 -10.4153 -8.8882 34.9833
#
#
#
# Elastic Compliance Matrix: (Units=1/GPa)
#
#
# Indices 1 2 3 4 5 6 
#
# 1 0.009431 0.000412 -0.002777 0.000333 -0.001434 -0.005044
# 2 0.000412 0.023039 -0.005465 -0.011034 0.000507 -0.007397
# 3 -0.002777 -0.005465 0.006255 0.001997 -0.000620 0.002144
# 4 0.000333 -0.011034 0.001997 0.024454 -0.000618 0.008961
# 5 -0.001434 0.000507 -0.000620 -0.000618 0.014160 0.004178
# 6 -0.005044 -0.007397 0.002144 0.008961 0.004178 0.036280
#
#
# Mechanical properties :
#
#
# Convention : Reuss Voigt Hill
#
# Bulk Modulus (GPa) = 43.35756 84.09231 63.72493
# Shear Modulus (GPa) = 36.50495 53.26145 44.88320
#
# Velocity S-wave (km/s) = 3.55944 4.29944 3.94682
# Velocity P-wave (km/s) = 5.65161 7.33706 6.54879
#
# Compressibility (1/GPa) = 0.02306403
#
# Stress axis : x y z
#
# Youngs Moduli (GPa) = 106.03804 43.40379 159.88078
#
# Poissons Ratio (x) = -0.01787 0.44396
# Poissons Ratio (y) = -0.04365 0.87377
# Poissons Ratio (z) = 0.29445 0.23721
#
# Static dielectric constant tensor:
#      x y z
#    x 2.451710 0.090070 -0.059700 
#    y 0.090070 2.512220 -0.080550 
#    z -0.059700 -0.080550 2.462510 
# 
# From -- ./inp_files/410037.got.cif
#   From: 2010.05.17/outbox.cif.g08.bks.cpg/sg2_206_cif.got.tgz:410037.got - 2010.06.03 11:33:40.
