data_PCOD9019291
_publ_section_title
;
Structure prediction by ZEFSAII (Michael W. Deem and Ramdas Pophale) SiO2 
 PCOD9019291
Probable space group: P -1
;
_chemical_formula_sum "Si O2"
_cell_formula_units_Z 10
_cell_length_a 8.452737
_cell_length_b 7.368368
_cell_length_c 9.113451
_cell_angle_alpha 117.617914
_cell_angle_beta 131.316061
_cell_angle_gamma 88.636739
_cell_volume 342.085293
_symmetry_space_group_name_H-M "P -1"
_symmetry_group_IT_number 2
_symmetry_cell_setting 'triclinic'
loop_
_space_group_symop_operation_xyz
x,y,z
-x,-y,-z
loop_
_atom_site_type_symbol
_atom_site_label
_atom_site_fract_x
_atom_site_fract_y
_atom_site_fract_z
Si Si1 0.755093 0.019512 0.638011
Si Si2 0.179520 0.559424 0.351436
Si Si3 0.272834 0.184189 0.723046
Si Si4 0.245390 0.870393 0.997037
Si Si5 0.626784 0.670687 0.862003
O O1 0.859156 0.242516 0.683167
O O2 0.500000 0.000000 0.500000
O O3 0.727476 0.796475 0.448759
O O4 0.818671 0.048368 0.856599
O O5 0.384782 0.640556 0.627925
O O6 0.265895 0.446562 0.229696
O O7 0.948320 0.384341 0.223975
O O8 0.494920 0.117441 0.849324
O O9 0.344423 0.372130 0.965588
O O10 0.000000 0.000000 0.500000
O O11 0.229704 0.053750 0.945591
#
# Coordination Sequence:
#
# PCOD9019291 Si02
#       5
#     2   2   2   2   2
#     4  10  21  44  70  94 136 177 217 273 337 397
#     4  11  23  42  74 101 131 177 228 268 340 403
#     4  11  24  44  67  98 141 177 218 282 335 387
#     4  11  23  44  75  96 135 179 224 276 331 397
#     4  11  24  45  70 101 136 170 228 281 329 396
#
# _framework density 29.232476999999999
#
# number of rings (size 3 to 8) (size 9 to 14) (size 15 to 20)
#    0.000    1.200    4.000    3.000    0.000    0.800 
#    3.600    5.000    0.000    0.000    0.000    0.000 
#    0.000    0.000    0.000    0.000    0.000    0.000 
#
# Total GULP energy -55860.159615 kJ/mol
# GULP energy per Si atom -5586.015962 kJ/mol
# Density = 2.916594 g / cm^3
# Si number density = 29.232477 Si / 1000 Ang^3
#
#
#
# Elastic Constant Matrix: (Units=GPa)
#
#
# Indices 1 2 3 4 5 6 
#
# 1 162.6764 27.3467 73.8484 -1.9941 5.5453 -0.6848
# 2 27.3467 167.8038 31.0217 4.7602 12.3071 -1.8750
# 3 73.8484 31.0217 210.5015 -17.9028 -0.2400 4.4828
# 4 -1.9941 4.7602 -17.9028 37.2868 -3.4496 5.1146
# 5 5.5453 12.3071 -0.2400 -3.4496 38.9882 -2.6046
# 6 -0.6848 -1.8750 4.4828 5.1146 -2.6046 43.2835
#
#
#
# Elastic Compliance Matrix: (Units=1/GPa)
#
#
# Indices 1 2 3 4 5 6 
#
# 1 0.007462 -0.000634 -0.002612 -0.000917 -0.000931 0.000413
# 2 -0.000634 0.006420 -0.000864 -0.001514 -0.002048 0.000413
# 3 -0.002612 -0.000864 0.006082 0.003113 0.000889 -0.001023
# 4 -0.000917 -0.001514 0.003113 0.029237 0.002969 -0.003679
# 5 -0.000931 -0.002048 0.000889 0.002969 0.026767 0.001064
# 6 0.000413 0.000413 -0.001023 -0.003679 0.001064 0.023733
#
#
# Mechanical properties :
#
#
# Convention : Reuss Voigt Hill
#
# Bulk Modulus (GPa) = 85.15098 89.49057 87.32077
# Shear Modulus (GPa) = 44.70865 51.16272 47.93569
#
# Velocity S-wave (km/s) = 3.91502 4.18808 4.05385
# Velocity P-wave (km/s) = 7.04476 7.35300 7.20053
#
# Compressibility (1/GPa) = 0.01174385
#
# Stress axis : x y z
#
# Youngs Moduli (GPa) = 134.01539 155.76003 164.42519
#
# Poissons Ratio (x) = 0.09879 0.42950
# Poissons Ratio (y) = 0.08500 0.14199
# Poissons Ratio (z) = 0.35007 0.13451
#
# Static dielectric constant tensor:
#      x y z
#    x 2.706500 0.190760 0.033820 
#    y 0.190760 2.310810 0.100120 
#    z 0.033820 0.100120 2.409810 
# 
# From -- ./inp_files/156291.got.cif
#   From: 2010.05.17/outbox.cif.g08.bks.cpg/sg2_79_cif.got.tgz:156291.got - 2010.06.03 11:33:40.
