data_PCOD9019860
_publ_section_title
;
Structure prediction by ZEFSAII (Michael W. Deem and Ramdas Pophale) SiO2 
 PCOD9019860
Probable space group: P -1
;
_chemical_formula_sum "Si O2"
_cell_formula_units_Z 14
_cell_length_a 6.533228
_cell_length_b 12.791466
_cell_length_c 11.394179
_cell_angle_alpha 135.878910
_cell_angle_beta 77.191871
_cell_angle_gamma 112.517370
_cell_volume 610.265513
_symmetry_space_group_name_H-M "P -1"
_symmetry_group_IT_number 2
_symmetry_cell_setting 'triclinic'
loop_
_space_group_symop_operation_xyz
x,y,z
-x,-y,-z
loop_
_atom_site_type_symbol
_atom_site_label
_atom_site_fract_x
_atom_site_fract_y
_atom_site_fract_z
Si Si1 0.581419 0.397127 0.815717
Si Si2 0.701845 0.106438 0.639173
Si Si3 0.163567 0.283861 0.621271
Si Si4 0.241379 0.122521 0.090173
Si Si5 0.758782 0.599647 0.543629
Si Si6 0.649643 0.084605 0.894306
Si Si7 0.043063 0.571484 0.791644
O O1 0.667143 0.277184 0.782561
O O2 0.379962 0.296175 0.677228
O O3 0.781786 0.505228 0.796885
O O4 0.500000 0.500000 0.000000
O O5 0.691696 0.047832 0.725874
O O6 0.944152 0.148649 0.584239
O O7 0.500000 0.000000 0.500000
O O8 0.188700 0.277215 0.473192
O O9 0.136170 0.459921 0.775448
O O10 0.206054 0.289561 0.257743
O O11 0.347288 0.058229 0.135864
O O12 0.416619 0.120418 0.965056
O O13 0.000000 0.000000 0.000000
O O14 0.500000 0.500000 0.500000
O O15 0.886705 0.479802 0.386063
O O16 0.837977 0.245712 0.044944
#
# Coordination Sequence:
#
# PCOD9019860 Si02
#       7
#     2   2   2   2   2   2   2
#     4  11  22  40  66  98 129 175 224 275 337 400
#     4  11  26  42  66  98 137 180 223 277 342 406
#     4   9  22  41  65  94 135 168 227 276 328 396
#     4  11  26  44  68  97 135 180 223 284 338 407
#     4  10  21  45  70  92 135 176 225 277 335 396
#     4  11  24  44  66  98 137 172 227 281 341 395
#     4   9  21  41  65  96 130 174 223 280 332 401
#
# _framework density 22.940833999999999
#
# number of rings (size 3 to 8) (size 9 to 14) (size 15 to 20)
#    0.857    0.857    1.429    1.714    4.000    7.429 
#    2.571    1.429    0.000    0.000    0.000    0.000 
#    0.000    0.000    0.000    0.000    0.000    0.000 
#
# Total GULP energy -78195.636283 kJ/mol
# GULP energy per Si atom -5585.402592 kJ/mol
# Density = 2.288862 g / cm^3
# Si number density = 22.940834 Si / 1000 Ang^3
#
#
#
# Elastic Constant Matrix: (Units=GPa)
#
#
# Indices 1 2 3 4 5 6 
#
# 1 85.1428 25.6316 15.8126 0.7022 -11.1744 29.6677
# 2 25.6316 94.8717 10.0720 -11.8093 -4.7966 28.3022
# 3 15.8126 10.0720 89.0308 8.1600 -12.1888 25.8835
# 4 0.7022 -11.8093 8.1600 40.7413 0.4647 4.4812
# 5 -11.1744 -4.7966 -12.1888 0.4647 41.4482 5.8724
# 6 29.6677 28.3022 25.8835 4.4812 5.8724 63.2441
#
#
#
# Elastic Compliance Matrix: (Units=1/GPa)
#
#
# Indices 1 2 3 4 5 6 
#
# 1 0.015320 -0.001877 0.000178 -0.000145 0.004940 -0.006867
# 2 -0.001877 0.013373 0.000341 0.004449 0.001904 -0.005735
# 3 0.000178 0.000341 0.013855 -0.002052 0.005068 -0.006232
# 4 -0.000145 0.004449 -0.002052 0.026575 -0.000005 -0.002966
# 5 0.004940 0.001904 0.005068 -0.000005 0.028284 -0.007869
# 6 -0.006867 -0.005735 -0.006232 -0.002966 -0.007869 0.025091
#
#
# Mechanical properties :
#
#
# Convention : Reuss Voigt Hill
#
# Bulk Modulus (GPa) = 25.10682 41.34196 33.22439
# Shear Modulus (GPa) = 36.10329 43.58865 39.84597
#
# Velocity S-wave (km/s) = 3.97136 4.36368 4.17214
# Velocity P-wave (km/s) = 5.65658 6.59160 6.14191
#
# Compressibility (1/GPa) = 0.03982982
#
# Stress axis : x y z
#
# Youngs Moduli (GPa) = 65.27612 74.77947 72.17358
#
# Poissons Ratio (x) = 0.14039 -0.01281
# Poissons Ratio (y) = 0.12255 -0.02460
# Poissons Ratio (z) = -0.01159 -0.02549
#
# Static dielectric constant tensor:
#      x y z
#    x 1.882780 -0.026400 -0.045380 
#    y -0.026400 1.808920 0.026570 
#    z -0.045380 0.026570 1.818550 
# 
# From -- ./inp_files/368081.got.cif
#   From: 2010.05.17/outbox.cif.g08.bks.cpg/sg2_185_cif.got.tgz:368081.got - 2010.06.03 11:33:40.
