data_PCOD9019617
_publ_section_title
;
Structure prediction by ZEFSAII (Michael W. Deem and Ramdas Pophale) SiO2 
 PCOD9019617
Probable space group: P -1
;
_chemical_formula_sum "Si O2"
_cell_formula_units_Z 16
_cell_length_a 11.753861
_cell_length_b 7.324596
_cell_length_c 19.518001
_cell_angle_alpha 41.075173
_cell_angle_beta 46.862577
_cell_angle_gamma 74.824608
_cell_volume 683.661793
_symmetry_space_group_name_H-M "P -1"
_symmetry_group_IT_number 2
_symmetry_cell_setting 'triclinic'
loop_
_space_group_symop_operation_xyz
x,y,z
-x,-y,-z
loop_
_atom_site_type_symbol
_atom_site_label
_atom_site_fract_x
_atom_site_fract_y
_atom_site_fract_z
Si Si1 0.260327 0.187143 0.990221
Si Si2 0.061657 0.145196 0.342908
Si Si3 0.862474 0.308725 0.469094
Si Si4 0.203232 0.229172 0.546795
Si Si5 0.516010 0.872352 0.199286
Si Si6 0.107254 0.870001 0.822249
Si Si7 0.444899 0.939798 0.721332
Si Si8 0.664530 0.809273 0.884111
O O1 0.329835 0.052932 0.939921
O O2 0.365488 0.581979 0.823248
O O3 0.328187 0.169938 0.043293
O O4 0.041420 0.034132 0.124943
O O5 0.031646 0.402876 0.322177
O O6 0.168127 0.209958 0.209943
O O7 0.859838 0.878696 0.474155
O O8 0.147273 0.992749 0.400077
O O9 0.888422 0.580573 0.435412
O O10 0.663640 0.177765 0.553861
O O11 0.417509 0.509142 0.374721
O O12 0.151142 0.938110 0.703984
O O13 0.581134 0.102612 0.173678
O O14 0.358534 0.900778 0.217276
O O15 0.308775 0.054921 0.720472
O O16 0.000000 0.500000 0.000000
O O17 0.500000 0.500000 0.000000
#
# Coordination Sequence:
#
# PCOD9019617 Si02
#       8
#     2   2   2   2   2   2   2   2
#     4  11  22  42  64  93 129 170 211 254 318 380
#     4  11  21  39  63  97 131 166 202 255 326 376
#     4  10  22  37  65  97 130 163 205 260 315 385
#     4  11  22  42  64  94 127 167 211 266 310 380
#     4  11  24  38  67  97 125 169 209 257 318 381
#     4  10  24  43  69  87 127 172 212 273 317 366
#     4  10  21  45  60  88 129 163 216 264 311 364
#     4  12  22  40  64  95 135 168 201 259 320 382
#
# _framework density 23.403386000000001
#
# number of rings (size 3 to 8) (size 9 to 14) (size 15 to 20)
#    0.000    1.250    5.000    1.500    0.000    4.500 
#    0.000    8.125    0.000    0.000    0.000    0.000 
#    0.000    0.000    0.000    0.000    0.000    0.000 
#
# Total GULP energy -89269.324922 kJ/mol
# GULP energy per Si atom -5579.332808 kJ/mol
# Density = 2.335012 g / cm^3
# Si number density = 23.403386 Si / 1000 Ang^3
#
#
#
# Elastic Constant Matrix: (Units=GPa)
#
#
# Indices 1 2 3 4 5 6 
#
# 1 118.3350 19.7100 22.4677 9.5702 -8.3154 -14.5075
# 2 19.7100 82.0646 19.1186 28.8114 3.0981 0.9179
# 3 22.4677 19.1186 88.2323 18.6593 11.6660 -8.7090
# 4 9.5702 28.8114 18.6593 45.1980 -1.4280 3.3470
# 5 -8.3154 3.0981 11.6660 -1.4280 27.8820 -2.4971
# 6 -14.5075 0.9179 -8.7090 3.3470 -2.4971 19.8403
#
#
#
# Elastic Compliance Matrix: (Units=1/GPa)
#
#
# Indices 1 2 3 4 5 6 
#
# 1 0.010500 -0.002177 -0.002011 -0.000412 0.004872 0.007578
# 2 -0.002177 0.016395 -0.000719 -0.009679 -0.002790 -0.001385
# 3 -0.002011 -0.000719 0.014566 -0.005711 -0.006449 0.005109
# 4 -0.000412 -0.009679 -0.005711 0.031403 0.004313 -0.007116
# 5 0.004872 -0.002790 -0.006449 0.004313 0.041022 0.005296
# 6 0.007578 -0.001385 0.005109 -0.007116 0.005296 0.060117
#
#
# Mechanical properties :
#
#
# Convention : Reuss Voigt Hill
#
# Bulk Modulus (GPa) = 31.59890 45.69160 38.64525
# Shear Modulus (GPa) = 25.72457 33.73978 29.73217
#
# Velocity S-wave (km/s) = 3.31899 3.80104 3.56816
# Velocity P-wave (km/s) = 5.31213 6.23135 5.79001
#
# Compressibility (1/GPa) = 0.03164667
#
# Stress axis : x y z
#
# Youngs Moduli (GPa) = 95.23931 60.99515 68.65104
#
# Poissons Ratio (x) = 0.13280 0.13805
# Poissons Ratio (y) = 0.20736 0.04936
# Poissons Ratio (z) = 0.19151 0.04386
#
# Static dielectric constant tensor:
#      x y z
#    x 2.017020 -0.039750 -0.066500 
#    y -0.039750 1.895230 -0.026200 
#    z -0.066500 -0.026200 2.026580 
# 
# From -- ./inp_files/593958.got.cif
#   From: 2010.05.17/outbox.cif.g08.bks.cpg/sg2_297_cif.got.tgz:593958.got - 2010.06.03 11:33:40.
