data_PCOD9019509
_publ_section_title
;
Structure prediction by ZEFSAII (Michael W. Deem and Ramdas Pophale) SiO2 
 PCOD9019509
Probable space group: P -1
;
_chemical_formula_sum "Si O2"
_cell_formula_units_Z 16
_cell_length_a 14.355640
_cell_length_b 8.460247
_cell_length_c 8.351615
_cell_angle_alpha 79.511526
_cell_angle_beta 46.770820
_cell_angle_gamma 103.185277
_cell_volume 632.501201
_symmetry_space_group_name_H-M "P -1"
_symmetry_group_IT_number 2
_symmetry_cell_setting 'triclinic'
loop_
_space_group_symop_operation_xyz
x,y,z
-x,-y,-z
loop_
_atom_site_type_symbol
_atom_site_label
_atom_site_fract_x
_atom_site_fract_y
_atom_site_fract_z
Si Si1 0.281980 0.418667 0.440230
Si Si2 0.866940 0.359518 0.298070
Si Si3 0.644043 0.017755 0.417760
Si Si4 0.177069 0.161748 0.911714
Si Si5 0.557791 0.646815 0.251101
Si Si6 0.554078 0.030498 0.109408
Si Si7 0.109056 0.709784 0.374454
Si Si8 0.942375 0.894564 0.420766
O O1 0.216330 0.557543 0.509154
O O2 0.206602 0.302958 0.710981
O O3 0.455437 0.524617 0.249502
O O4 0.218704 0.272361 0.396892
O O5 0.752273 0.214102 0.333530
O O6 0.906631 0.267195 0.419126
O O7 0.000000 0.500000 0.000000
O O8 0.551865 0.900772 0.699314
O O9 0.500000 0.000000 0.500000
O O10 0.737825 0.944052 0.231605
O O11 0.267983 0.267525 0.945601
O O12 0.006862 0.039157 0.173455
O O13 0.500000 0.500000 0.500000
O O14 0.540214 0.833347 0.223140
O O15 0.500000 0.000000 0.000000
O O16 0.721010 0.191006 0.891761
O O17 0.000000 0.500000 0.500000
O O18 0.045876 0.803844 0.312391
O O19 0.000000 0.000000 0.500000
#
# Coordination Sequence:
#
# PCOD9019509 Si02
#       8
#     2   2   2   2   2   2   2   2
#     4  11  23  45  68  99 141 181 240 286 353 432
#     4  12  26  42  69 103 141 185 240 293 353 436
#     4  12  23  42  72 107 134 189 238 289 366 428
#     4  11  24  45  71 100 141 186 236 292 355 434
#     4  10  21  44  73 101 146 186 235 301 359 436
#     4  12  23  44  75 105 148 184 243 305 364 426
#     4  12  26  48  70 102 147 186 238 305 365 423
#     4  12  27  45  68  99 143 191 238 293 362 420
#
# _framework density 25.296392999999998
#
# number of rings (size 3 to 8) (size 9 to 14) (size 15 to 20)
#    0.000    0.500    6.250    1.125    5.250    0.000 
#    0.000    1.875    0.000    0.000    0.000    0.000 
#    0.000    0.000    0.000    0.000    0.000    0.000 
#
# Total GULP energy -89140.327535 kJ/mol
# GULP energy per Si atom -5571.270471 kJ/mol
# Density = 2.523882 g / cm^3
# Si number density = 25.296393 Si / 1000 Ang^3
#
#
#
# Elastic Constant Matrix: (Units=GPa)
#
#
# Indices 1 2 3 4 5 6 
#
# 1 101.3774 41.0653 13.3430 -10.5988 -8.7047 26.9593
# 2 41.0653 103.9958 36.5004 -19.8637 -15.8413 26.7906
# 3 13.3430 36.5004 109.5684 -25.9973 -12.3208 5.5286
# 4 -10.5988 -19.8637 -25.9973 32.0407 15.7420 -4.2513
# 5 -8.7047 -15.8413 -12.3208 15.7420 48.3672 -21.2692
# 6 26.9593 26.7906 5.5286 -4.2513 -21.2692 58.0611
#
#
#
# Elastic Compliance Matrix: (Units=1/GPa)
#
#
# Indices 1 2 3 4 5 6 
#
# 1 0.012664 -0.003721 0.000296 0.002321 -0.001655 -0.004627
# 2 -0.003721 0.014057 -0.002939 0.004623 -0.000167 -0.004201
# 3 0.000296 -0.002939 0.011952 0.008184 -0.000274 0.000580
# 4 0.002321 0.004623 0.008184 0.047589 -0.013940 -0.005612
# 5 -0.001655 -0.000167 -0.000274 -0.013940 0.029472 0.010647
# 6 -0.004627 -0.004201 0.000580 -0.005612 0.010647 0.024744
#
#
# Mechanical properties :
#
#
# Convention : Reuss Voigt Hill
#
# Bulk Modulus (GPa) = 38.54683 55.19545 46.87114
# Shear Modulus (GPa) = 30.89200 42.62934 36.76067
#
# Velocity S-wave (km/s) = 3.49836 4.10957 3.81622
# Velocity P-wave (km/s) = 5.62043 6.66220 6.16336
#
# Compressibility (1/GPa) = 0.02594247
#
# Stress axis : x y z
#
# Youngs Moduli (GPa) = 78.96626 71.14110 83.66943
#
# Poissons Ratio (x) = 0.26471 -0.02473
# Poissons Ratio (y) = 0.29383 0.24594
# Poissons Ratio (z) = -0.02334 0.20911
#
# Static dielectric constant tensor:
#      x y z
#    x 2.144890 1.098360 -0.593200 
#    y 1.098360 16.174040 -8.361890 
#    z -0.593200 -8.361890 7.000710 
# 
# From -- ./inp_files/298154.got.cif
#   From: 2010.05.17/outbox.cif.g08.bks.cpg/sg2_150_cif.got.tgz:298154.got - 2010.06.03 11:33:40.
