data_PCOD9019882
_publ_section_title
;
Structure prediction by ZEFSAII (Michael W. Deem and Ramdas Pophale) SiO2 
 PCOD9019882
Probable space group: P -1
;
_chemical_formula_sum "Si O2"
_cell_formula_units_Z 14
_cell_length_a 10.522971
_cell_length_b 12.056028
_cell_length_c 5.295056
_cell_angle_alpha 78.938504
_cell_angle_beta 116.283622
_cell_angle_gamma 75.534274
_cell_volume 546.671679
_symmetry_space_group_name_H-M "P -1"
_symmetry_group_IT_number 2
_symmetry_cell_setting 'triclinic'
loop_
_space_group_symop_operation_xyz
x,y,z
-x,-y,-z
loop_
_atom_site_type_symbol
_atom_site_label
_atom_site_fract_x
_atom_site_fract_y
_atom_site_fract_z
Si Si1 0.645199 0.474093 0.313303
Si Si2 0.316665 0.913970 0.339514
Si Si3 0.872635 0.235101 0.837861
Si Si4 0.916784 0.386018 0.210314
Si Si5 0.792287 0.797820 0.993932
Si Si6 0.503528 0.864812 0.030135
Si Si7 0.215287 0.387679 0.366704
O O1 0.710306 0.346755 0.578549
O O2 0.787685 0.450185 0.265919
O O3 0.634353 0.594216 0.405787
O O4 0.500000 0.500000 0.000000
O O5 0.166151 0.883093 0.186683
O O6 0.397137 0.865008 0.699080
O O7 0.275893 0.059754 0.220642
O O8 0.569944 0.151142 0.763746
O O9 0.912387 0.261071 0.147524
O O10 0.023546 0.232079 0.816838
O O11 0.081779 0.380650 0.433059
O O12 0.867140 0.477135 0.887856
O O13 0.679295 0.794621 0.126012
O O14 0.768585 0.710921 0.793496
O O15 0.500000 0.000000 0.000000
#
# Coordination Sequence:
#
# PCOD9019882 Si02
#       7
#     2   2   2   2   2   2   2
#     4  11  24  42  66  98 139 179 232 290 358 419
#     4  11  24  47  70 109 149 185 234 297 360 427
#     4  10  24  44  69 100 141 185 234 292 359 422
#     4   9  20  42  64  93 131 174 232 287 345 420
#     4  10  21  45  71 104 136 186 239 289 351 429
#     4  10  23  46  69 101 147 190 238 290 350 424
#     4   9  20  41  67  94 130 175 231 287 348 410
#
# _framework density 25.609521999999998
#
# number of rings (size 3 to 8) (size 9 to 14) (size 15 to 20)
#    0.000    2.000    0.000    3.429    2.000    4.571 
#   25.714    3.571    0.000    0.000    0.000    0.000 
#    0.000    0.000    0.000    0.000    0.000    0.000 
#
# Total GULP energy -78241.580338 kJ/mol
# GULP energy per Si atom -5588.684310 kJ/mol
# Density = 2.555123 g / cm^3
# Si number density = 25.609522 Si / 1000 Ang^3
#
#
#
# Elastic Constant Matrix: (Units=GPa)
#
#
# Indices 1 2 3 4 5 6 
#
# 1 115.7076 41.6414 38.3822 18.5394 10.0599 -19.3372
# 2 41.6414 113.1353 42.8831 25.1609 33.1770 -6.0540
# 3 38.3822 42.8831 120.0987 26.6236 39.1299 -5.5303
# 4 18.5394 25.1609 26.6236 48.0291 -3.6541 8.5999
# 5 10.0599 33.1770 39.1299 -3.6541 43.6720 3.6913
# 6 -19.3372 -6.0540 -5.5303 8.5999 3.6913 45.3860
#
#
#
# Elastic Compliance Matrix: (Units=1/GPa)
#
#
# Indices 1 2 3 4 5 6 
#
# 1 0.011493 -0.002852 -0.002159 -0.002515 0.000850 0.004661
# 2 -0.002852 0.015930 0.002768 -0.010745 -0.015206 0.004520
# 3 -0.002159 0.002768 0.016988 -0.012386 -0.018315 0.005356
# 4 -0.002515 -0.010745 -0.012386 0.038503 0.024183 -0.013277
# 5 0.000850 -0.015206 -0.018315 0.024183 0.053774 -0.012854
# 6 0.004661 0.004520 0.005356 -0.013277 -0.012854 0.028836
#
#
# Mechanical properties :
#
#
# Convention : Reuss Voigt Hill
#
# Bulk Modulus (GPa) = 25.04761 66.08388 45.56574
# Shear Modulus (GPa) = 27.27464 42.48640 34.88052
#
# Velocity S-wave (km/s) = 3.26700 4.07751 3.69455
# Velocity P-wave (km/s) = 4.90234 6.93026 6.00256
#
# Compressibility (1/GPa) = 0.03992397
#
# Stress axis : x y z
#
# Youngs Moduli (GPa) = 87.00742 62.77350 58.86489
#
# Poissons Ratio (x) = 0.17904 0.12711
# Poissons Ratio (y) = 0.24816 -0.16292
# Poissons Ratio (z) = 0.18788 -0.17374
#
# Static dielectric constant tensor:
#      x y z
#    x 2.012670 0.002870 -0.047800 
#    y 0.002870 2.068680 -0.068250 
#    z -0.047800 -0.068250 2.231140 
# 
# From -- ./inp_files/64468.got.cif
#   From: 2010.05.17/outbox.cif.g08.bks.cpg/sg2_33_cif.got.tgz:64468.got - 2010.06.03 11:33:40.
