data_PCOD9019299
_publ_section_title
;
Structure prediction by ZEFSAII (Michael W. Deem and Ramdas Pophale) SiO2 
 PCOD9019299
Probable space group: P -1
;
_chemical_formula_sum "Si O2"
_cell_formula_units_Z 16
_cell_length_a 10.997723
_cell_length_b 15.639356
_cell_length_c 9.313683
_cell_angle_alpha 134.363709
_cell_angle_beta 115.450353
_cell_angle_gamma 37.512834
_cell_volume 668.067130
_symmetry_space_group_name_H-M "P -1"
_symmetry_group_IT_number 2
_symmetry_cell_setting 'triclinic'
loop_
_space_group_symop_operation_xyz
x,y,z
-x,-y,-z
loop_
_atom_site_type_symbol
_atom_site_label
_atom_site_fract_x
_atom_site_fract_y
_atom_site_fract_z
Si Si1 0.147298 0.860780 0.537026
Si Si2 0.199876 0.227717 0.371245
Si Si3 0.449074 0.460723 0.281427
Si Si4 0.584648 0.082038 0.241698
Si Si5 0.877976 0.128437 0.950241
Si Si6 0.514931 0.832952 0.032231
Si Si7 0.831551 0.621014 0.182358
Si Si8 0.012768 0.690739 0.923061
O O1 0.267930 0.655886 0.341537
O O2 0.326913 0.841554 0.624285
O O3 0.000000 0.000000 0.500000
O O4 0.977400 0.966992 0.701066
O O5 0.409396 0.163294 0.362996
O O6 0.121140 0.320076 0.594685
O O7 0.045019 0.341326 0.290649
O O8 0.278748 0.035981 0.184867
O O9 0.500000 0.500000 0.500000
O O10 0.399711 0.358243 0.171042
O O11 0.644727 0.306828 0.095529
O O12 0.483736 0.127293 0.087106
O O13 0.799241 0.860758 0.102660
O O14 0.922409 0.223796 0.002780
O O15 0.000000 0.000000 0.000000
O O16 0.629280 0.793566 0.190768
O O17 0.834116 0.491662 0.115933
O O18 0.000000 0.500000 0.000000
#
# Coordination Sequence:
#
# PCOD9019299 Si02
#       8
#     2   2   2   2   2   2   2   2
#     4  11  26  45  70 106 143 187 237 300 358 419
#     4  11  23  44  72  97 138 188 228 285 360 422
#     4  12  24  45  74 103 141 190 240 290 355 431
#     4  10  21  44  70  95 137 182 232 287 353 425
#     4  11  23  45  72 105 145 186 242 290 354 430
#     4  11  24  44  68 100 136 182 232 286 357 422
#     4  12  26  42  64 104 142 176 233 290 348 420
#     4  10  23  42  69 102 138 180 232 288 351 427
#
# _framework density 23.949688999999999
#
# number of rings (size 3 to 8) (size 9 to 14) (size 15 to 20)
#    0.000    1.000    2.500    5.250    5.250    2.500 
#    2.250    0.000    0.000    0.000    0.000    0.000 
#    0.000    0.000    0.000    0.000    0.000    0.000 
#
# Total GULP energy -89214.480823 kJ/mol
# GULP energy per Si atom -5575.905051 kJ/mol
# Density = 2.389518 g / cm^3
# Si number density = 23.949689 Si / 1000 Ang^3
#
#
#
# Elastic Constant Matrix: (Units=GPa)
#
#
# Indices 1 2 3 4 5 6 
#
# 1 48.8352 34.3900 18.2623 7.6762 -13.2854 2.4453
# 2 34.3900 175.4145 35.4714 8.6793 -14.4838 33.6359
# 3 18.2623 35.4714 125.6147 8.0350 -17.9150 7.2152
# 4 7.6762 8.6793 8.0350 50.9832 6.7991 2.2139
# 5 -13.2854 -14.4838 -17.9150 6.7991 44.0892 7.5342
# 6 2.4453 33.6359 7.2152 2.2139 7.5342 28.9016
#
#
#
# Elastic Compliance Matrix: (Units=1/GPa)
#
#
# Indices 1 2 3 4 5 6 
#
# 1 0.026441 -0.004609 -0.001565 -0.003851 0.006028 0.002241
# 2 -0.004609 0.009149 -0.000779 -0.000705 0.003265 -0.010860
# 3 -0.001565 -0.000779 0.009127 -0.001455 0.003557 -0.002055
# 4 -0.003851 -0.000705 -0.001455 0.021217 -0.005479 0.001312
# 5 0.006028 0.003265 0.003557 -0.005479 0.030014 -0.012602
# 6 0.002241 -0.010860 -0.002055 0.001312 -0.012602 0.050747
#
#
# Mechanical properties :
#
#
# Convention : Reuss Voigt Hill
#
# Bulk Modulus (GPa) = 32.45624 58.45687 45.45655
# Shear Modulus (GPa) = 29.26195 42.24418 35.75307
#
# Velocity S-wave (km/s) = 3.49923 4.20440 3.86792
# Velocity P-wave (km/s) = 5.46877 6.93041 6.24251
#
# Compressibility (1/GPa) = 0.03081072
#
# Stress axis : x y z
#
# Youngs Moduli (GPa) = 37.82025 109.30602 109.56815
#
# Poissons Ratio (x) = 0.50374 0.17151
# Poissons Ratio (y) = 0.17430 0.08535
# Poissons Ratio (z) = 0.05920 0.08514
#
# Static dielectric constant tensor:
#      x y z
#    x 2.083930 0.006420 0.109940 
#    y 0.006420 1.944840 0.026540 
#    z 0.109940 0.026540 1.943970 
# 
# From -- ./inp_files/274416.got.cif
#   From: 2010.05.17/outbox.cif.g08.bks.cpg/sg2_138_cif.got.tgz:274416.got - 2010.06.03 11:33:40.
