data_PCOD9019895
_publ_section_title
;
Structure prediction by ZEFSAII (Michael W. Deem and Ramdas Pophale) SiO2 
 PCOD9019895
Probable space group: P -1
;
_chemical_formula_sum "Si O2"
_cell_formula_units_Z 16
_cell_length_a 17.801454
_cell_length_b 8.666096
_cell_length_c 11.786473
_cell_angle_alpha 100.680221
_cell_angle_beta 143.896497
_cell_angle_gamma 54.197190
_cell_volume 694.368810
_symmetry_space_group_name_H-M "P -1"
_symmetry_group_IT_number 2
_symmetry_cell_setting 'triclinic'
loop_
_space_group_symop_operation_xyz
x,y,z
-x,-y,-z
loop_
_atom_site_type_symbol
_atom_site_label
_atom_site_fract_x
_atom_site_fract_y
_atom_site_fract_z
Si Si1 0.586347 0.078845 0.673226
Si Si2 0.516444 0.294012 0.381279
Si Si3 0.865113 0.307715 0.146740
Si Si4 0.010135 0.597154 0.135344
Si Si5 0.154014 0.476000 0.632728
Si Si6 0.955753 0.132144 0.580192
Si Si7 0.758443 0.837577 0.470731
Si Si8 0.317019 0.560795 0.523240
O O1 0.584001 0.198201 0.578285
O O2 0.469384 0.278010 0.655424
O O3 0.500000 0.000000 0.500000
O O4 0.794346 0.838721 0.939379
O O5 0.613541 0.358663 0.455618
O O6 0.590739 0.081263 0.365463
O O7 0.285683 0.524955 0.115361
O O8 0.778134 0.474632 0.175587
O O9 0.076139 0.189468 0.368229
O O10 0.900700 0.092021 0.189719
O O11 0.129632 0.380201 0.337077
O O12 0.122774 0.654239 0.256729
O O13 0.000000 0.500000 0.000000
O O14 0.299615 0.226301 0.710347
O O15 0.000000 0.500000 0.500000
O O16 0.042365 0.690893 0.435716
O O17 0.745408 0.321385 0.411674
O O18 0.000000 0.000000 0.500000
#
# Coordination Sequence:
#
# PCOD9019895 Si02
#       8
#     2   2   2   2   2   2   2   2
#     4  12  26  46  67 100 140 178 239 284 333 410
#     4  12  26  42  66 103 140 179 229 285 334 420
#     4  10  23  42  67  96 138 177 228 280 347 395
#     4  12  24  44  71  97 134 187 227 281 348 399
#     4   9  20  40  71  98 127 179 224 283 337 400
#     4  10  21  45  71  96 137 176 227 281 342 412
#     4  11  21  42  69  96 136 178 232 280 336 407
#     4  12  26  44  69 101 139 180 227 284 350 402
#
# _framework density 23.042511000000001
#
# number of rings (size 3 to 8) (size 9 to 14) (size 15 to 20)
#    0.000    1.000    5.000    1.125    1.750    1.000 
#    0.000    3.750    5.500    0.000    0.000    0.000 
#    0.000    0.000    0.000    0.000    0.000    0.000 
#
# Total GULP energy -89318.163552 kJ/mol
# GULP energy per Si atom -5582.385222 kJ/mol
# Density = 2.299006 g / cm^3
# Si number density = 23.042511 Si / 1000 Ang^3
#
#
#
# Elastic Constant Matrix: (Units=GPa)
#
#
# Indices 1 2 3 4 5 6 
#
# 1 87.9875 28.6733 6.1960 -13.3310 -6.0783 12.1961
# 2 28.6733 155.5254 13.4119 -24.0928 6.5041 -12.5978
# 3 6.1960 13.4119 68.2742 -27.2725 -3.3658 7.8357
# 4 -13.3310 -24.0928 -27.2725 36.6202 0.6772 5.7342
# 5 -6.0783 6.5041 -3.3658 0.6772 28.1032 -5.8185
# 6 12.1961 -12.5978 7.8357 5.7342 -5.8185 52.2016
#
#
#
# Elastic Compliance Matrix: (Units=1/GPa)
#
#
# Indices 1 2 3 4 5 6 
#
# 1 0.013608 -0.002280 0.002106 0.005656 0.002682 -0.004368
# 2 -0.002280 0.007693 -0.000007 0.003993 -0.002013 0.001727
# 3 0.002106 -0.000007 0.022550 0.018426 0.001527 -0.005732
# 4 0.005656 0.003993 0.018426 0.047027 -0.000352 -0.008329
# 5 0.002682 -0.002013 0.001527 -0.000352 0.037414 0.002867
# 6 -0.004368 0.001727 -0.005732 -0.008329 0.002867 0.022689
#
#
# Mechanical properties :
#
#
# Convention : Reuss Voigt Hill
#
# Bulk Modulus (GPa) = 22.99385 45.37218 34.18302
# Shear Modulus (GPa) = 30.14954 40.95204 35.55079
#
# Velocity S-wave (km/s) = 3.62115 4.22030 3.93215
# Velocity P-wave (km/s) = 5.24253 6.59404 5.95674
#
# Compressibility (1/GPa) = 0.04348988
#
# Stress axis : x y z
#
# Youngs Moduli (GPa) = 73.48752 129.97986 44.34497
#
# Poissons Ratio (x) = 0.29637 -0.09339
# Poissons Ratio (y) = 0.16756 0.00030
# Poissons Ratio (z) = -0.15476 0.00088
#
# Static dielectric constant tensor:
#      x y z
#    x 1.975490 -0.074570 0.039590 
#    y -0.074570 1.978650 0.046430 
#    z 0.039590 0.046430 1.894130 
# 
# From -- ./inp_files/462251.got.cif
#   From: 2010.05.17/outbox.cif.g08.bks.cpg/sg2_232_cif.got.tgz:462251.got - 2010.06.03 11:33:40.
