data_PCOD9019521
_publ_section_title
;
Structure prediction by ZEFSAII (Michael W. Deem and Ramdas Pophale) SiO2 
 PCOD9019521
Probable space group: P -1
;
_chemical_formula_sum "Si O2"
_cell_formula_units_Z 12
_cell_length_a 8.439500
_cell_length_b 9.398996
_cell_length_c 8.537020
_cell_angle_alpha 100.232768
_cell_angle_beta 88.377089
_cell_angle_gamma 47.891170
_cell_volume 484.203885
_symmetry_space_group_name_H-M "P -1"
_symmetry_group_IT_number 2
_symmetry_cell_setting 'triclinic'
loop_
_space_group_symop_operation_xyz
x,y,z
-x,-y,-z
loop_
_atom_site_type_symbol
_atom_site_label
_atom_site_fract_x
_atom_site_fract_y
_atom_site_fract_z
Si Si1 0.144885 0.532485 0.421775
Si Si2 0.518688 0.813266 0.455898
Si Si3 0.859083 0.660532 0.168231
Si Si4 0.228412 0.785514 0.608107
Si Si5 0.334094 0.666301 0.911996
Si Si6 0.857113 0.941299 0.081912
O O1 0.316959 0.316052 0.719284
O O2 0.000000 0.500000 0.500000
O O3 0.046435 0.603374 0.267438
O O4 0.128647 0.700582 0.530128
O O5 0.624988 0.686072 0.589294
O O6 0.743982 0.870174 0.134506
O O7 0.500000 0.000000 0.500000
O O8 0.688325 0.163195 0.525940
O O9 0.912178 0.239499 0.038659
O O10 0.000000 0.500000 0.000000
O O11 0.385342 0.622465 0.715576
O O12 0.094312 0.981667 0.758017
O O13 0.500000 0.500000 0.000000
O O14 0.299489 0.860580 0.978443
#
# Coordination Sequence:
#
# PCOD9019521 Si02
#       6
#     2   2   2   2   2   2
#     4  10  25  43  69 102 143 195 237 300 375 427
#     4  11  22  46  70 107 144 182 243 310 365 440
#     4  11  25  46  72  98 146 194 243 304 373 442
#     4  10  21  44  73 105 145 189 252 301 360 448
#     4   9  20  38  67 108 148 186 243 302 365 438
#     4   9  21  40  71 105 147 190 254 289 377 437
#
# _framework density 24.782948999999999
#
# number of rings (size 3 to 8) (size 9 to 14) (size 15 to 20)
#    1.000    1.000    1.667    0.500    7.000    0.667 
#    0.000    3.333    0.000    0.000    0.000    0.000 
#    0.000    0.000    0.000    0.000    0.000    0.000 
#
# Total GULP energy -66844.269817 kJ/mol
# GULP energy per Si atom -5570.355818 kJ/mol
# Density = 2.472654 g / cm^3
# Si number density = 24.782949 Si / 1000 Ang^3
#
#
#
# Elastic Constant Matrix: (Units=GPa)
#
#
# Indices 1 2 3 4 5 6 
#
# 1 101.4420 40.8658 67.4805 -2.1161 -22.3290 47.6315
# 2 40.8658 133.1485 53.6837 -17.5615 -10.1456 22.5769
# 3 67.4805 53.6837 142.9525 0.7466 -20.6360 16.5386
# 4 -2.1161 -17.5615 0.7466 48.2782 4.6636 3.6834
# 5 -22.3290 -10.1456 -20.6360 4.6636 42.7477 -9.2884
# 6 47.6315 22.5769 16.5386 3.6834 -9.2884 41.2345
#
#
#
# Elastic Compliance Matrix: (Units=1/GPa)
#
#
# Indices 1 2 3 4 5 6 
#
# 1 0.036053 0.001165 -0.012583 0.004549 0.004583 -0.036611
# 2 0.001165 0.010222 -0.003807 0.004335 -0.000565 -0.005930
# 3 -0.012583 -0.003807 0.013265 -0.003241 0.001891 0.012014
# 4 0.004549 0.004335 -0.003241 0.023488 -0.002684 -0.009032
# 5 0.004583 -0.000565 0.001891 -0.002684 0.026984 0.000575
# 6 -0.036611 -0.005930 0.012014 -0.009032 0.000575 0.065907
#
#
# Mechanical properties :
#
#
# Convention : Reuss Voigt Hill
#
# Bulk Modulus (GPa) = 34.37546 77.95590 56.16568
# Shear Modulus (GPa) = 23.14127 40.81961 31.98044
#
# Velocity S-wave (km/s) = 3.05906 4.06283 3.59614
# Velocity P-wave (km/s) = 5.13594 7.31659 6.32101
#
# Compressibility (1/GPa) = 0.02909052
#
# Stress axis : x y z
#
# Youngs Moduli (GPa) = 27.73687 97.82860 75.38899
#
# Poissons Ratio (x) = -0.11396 0.94860
# Poissons Ratio (y) = -0.03231 0.28698
# Poissons Ratio (z) = 0.34901 0.37240
#
# Static dielectric constant tensor:
#      x y z
#    x 2.728500 -0.233930 -0.013130 
#    y -0.233930 2.116900 -0.022350 
#    z -0.013130 -0.022350 1.990170 
# 
# From -- ./inp_files/170367.got.cif
#   From: 2010.05.17/outbox.cif.g08.bks.cpg/sg2_86_cif.got.tgz:170367.got - 2010.06.03 11:33:40.
