data_PCOD9019814
_publ_section_title
;
Structure prediction by ZEFSAII (Michael W. Deem and Ramdas Pophale) SiO2 
 PCOD9019814
Probable space group: P -1
;
_chemical_formula_sum "Si O2"
_cell_formula_units_Z 16
_cell_length_a 8.481741
_cell_length_b 22.174773
_cell_length_c 8.481081
_cell_angle_alpha 148.616137
_cell_angle_beta 126.354362
_cell_angle_gamma 52.194722
_cell_volume 646.904906
_symmetry_space_group_name_H-M "P -1"
_symmetry_group_IT_number 2
_symmetry_cell_setting 'triclinic'
loop_
_space_group_symop_operation_xyz
x,y,z
-x,-y,-z
loop_
_atom_site_type_symbol
_atom_site_label
_atom_site_fract_x
_atom_site_fract_y
_atom_site_fract_z
Si Si1 0.959611 0.896211 0.431239
Si Si2 0.209360 0.845980 0.162752
Si Si3 0.385965 0.157918 0.424463
Si Si4 0.060833 0.379586 0.865260
Si Si5 0.081707 0.347940 0.148546
Si Si6 0.676650 0.310455 0.403264
Si Si7 0.344492 0.493010 0.749349
Si Si8 0.629736 0.107071 0.145925
O O1 0.022884 0.871739 0.230334
O O2 0.163842 0.885600 0.626784
O O3 0.824183 0.028923 0.670786
O O4 0.853562 0.791360 0.165810
O O5 0.411961 0.827976 0.340954
O O6 0.231421 0.736998 0.815300
O O7 0.215600 0.274713 0.630236
O O8 0.443905 0.142106 0.238594
O O9 0.343011 0.034100 0.184647
O O10 0.858475 0.334650 0.666922
O O11 0.124781 0.405142 0.135776
O O12 0.000000 0.500000 0.000000
O O13 0.205857 0.396881 0.465250
O O14 0.837307 0.388697 0.124919
O O15 0.502267 0.433025 0.573346
O O16 0.602851 0.203033 0.203873
O O17 0.500000 0.500000 0.000000
#
# Coordination Sequence:
#
# PCOD9019814 Si02
#       8
#     2   2   2   2   2   2   2   2
#     4  10  21  45  69 103 145 183 235 290 373 435
#     4  10  24  41  69 109 143 182 232 306 362 439
#     4  10  24  44  66 106 143 185 237 296 367 428
#     4  12  27  45  69 106 143 188 251 307 354 426
#     4  11  25  45  75 104 140 200 239 297 365 436
#     4  12  25  43  73 103 141 191 238 301 362 429
#     4  11  24  46  70 103 141 186 247 291 354 431
#     4  10  22  42  71 100 144 187 231 295 362 438
#
# _framework density 24.733156000000001
#
# number of rings (size 3 to 8) (size 9 to 14) (size 15 to 20)
#    0.000    1.250    2.500    1.500    5.250    6.500 
#    0.000    1.875    0.000    0.000    0.000    0.000 
#    0.000    0.000    0.000    0.000    0.000    0.000 
#
# Total GULP energy -89471.934631 kJ/mol
# GULP energy per Si atom -5591.995914 kJ/mol
# Density = 2.467686 g / cm^3
# Si number density = 24.733156 Si / 1000 Ang^3
#
#
#
# Elastic Constant Matrix: (Units=GPa)
#
#
# Indices 1 2 3 4 5 6 
#
# 1 65.5990 34.1293 19.8656 7.4833 -12.2907 -16.6374
# 2 34.1293 68.8771 27.2260 9.3439 0.1572 -18.4672
# 3 19.8656 27.2260 109.3767 -8.2054 -8.5889 -17.0109
# 4 7.4833 9.3439 -8.2054 46.5535 -14.6896 1.3496
# 5 -12.2907 0.1572 -8.5889 -14.6896 44.4709 6.9239
# 6 -16.6374 -18.4672 -17.0109 1.3496 6.9239 48.4184
#
#
#
# Elastic Compliance Matrix: (Units=1/GPa)
#
#
# Indices 1 2 3 4 5 6 
#
# 1 0.022505 -0.010145 -0.000677 0.000014 0.005692 0.002812
# 2 -0.010145 0.023363 -0.004140 -0.005968 -0.006445 0.005058
# 3 -0.000677 -0.004140 0.011053 0.003781 0.002971 0.001541
# 4 0.000014 -0.005968 0.003781 0.026597 0.010026 -0.003118
# 5 0.005692 -0.006445 0.002971 0.010026 0.028563 -0.003823
# 6 0.002812 0.005058 0.001541 -0.003118 -0.003823 0.024724
#
#
# Mechanical properties :
#
#
# Convention : Reuss Voigt Hill
#
# Bulk Modulus (GPa) = 37.04143 45.14386 41.09264
# Shear Modulus (GPa) = 28.45314 38.73067 33.59190
#
# Velocity S-wave (km/s) = 3.39544 3.96149 3.68934
# Velocity P-wave (km/s) = 5.51189 6.26231 5.89905
#
# Compressibility (1/GPa) = 0.02699680
#
# Stress axis : x y z
#
# Youngs Moduli (GPa) = 44.43408 42.80339 90.47436
#
# Poissons Ratio (x) = 0.43424 0.06125
# Poissons Ratio (y) = 0.45078 0.37456
# Poissons Ratio (z) = 0.03008 0.17721
#
# Static dielectric constant tensor:
#      x y z
#    x 1.995550 0.035150 0.004180 
#    y 0.035150 1.996750 0.013490 
#    z 0.004180 0.013490 1.976890 
# 
# From -- ./inp_files/226843.got.cif
#   From: 2010.05.17/outbox.cif.g08.bks.cpg/sg2_114_cif.got.tgz:226843.got - 2010.06.03 11:33:40.
