data_PCOD9019272
_publ_section_title
;
Structure prediction by ZEFSAII (Michael W. Deem and Ramdas Pophale) SiO2 
 PCOD9019272
Probable space group: P -1
;
_chemical_formula_sum "Si O2"
_cell_formula_units_Z 14
_cell_length_a 5.354036
_cell_length_b 26.594463
_cell_length_c 24.794919
_cell_angle_alpha 11.078823
_cell_angle_beta 119.967312
_cell_angle_gamma 120.223413
_cell_volume 585.875648
_symmetry_space_group_name_H-M "P -1"
_symmetry_group_IT_number 2
_symmetry_cell_setting 'triclinic'
loop_
_space_group_symop_operation_xyz
x,y,z
-x,-y,-z
loop_
_atom_site_type_symbol
_atom_site_label
_atom_site_fract_x
_atom_site_fract_y
_atom_site_fract_z
Si Si1 0.764160 0.488763 0.157158
Si Si2 0.509959 0.241461 0.483667
Si Si3 0.568073 0.656842 0.145340
Si Si4 0.281269 0.159379 0.841038
Si Si5 0.968145 0.045670 0.569927
Si Si6 0.693907 0.346743 0.139523
Si Si7 0.752071 0.415396 0.701004
O O1 0.775300 0.385316 0.327801
O O2 0.795199 0.226540 0.401622
O O3 0.483786 0.640439 0.948366
O O4 0.987835 0.739718 0.905577
O O5 0.464448 0.450358 0.305117
O O6 0.283175 0.187977 0.466010
O O7 0.513535 0.958179 0.809363
O O8 0.389697 0.553344 0.288256
O O9 0.922758 0.675882 0.164398
O O10 0.476860 0.258466 0.807978
O O11 0.191877 0.360103 0.574771
O O12 0.500000 0.000000 0.000000
O O13 0.000000 0.000000 0.000000
O O14 0.803496 0.084394 0.454856
O O15 0.500000 0.500000 0.000000
O O16 0.000000 0.500000 0.000000
#
# Coordination Sequence:
#
# PCOD9019272 Si02
#       7
#     2   2   2   2   2   2   2
#     4  11  24  45  71 102 142 190 246 316 377 445
#     4  12  28  47  70 105 144 204 254 300 362 438
#     4  12  30  47  78 103 158 202 246 300 358 438
#     4  11  24  47  84 113 149 188 238 305 362 425
#     4  11  24  45  71 102 142 190 246 316 377 445
#     4  10  21  44  70 105 139 183 242 314 390 445
#     4  11  28  50  72 118 148 193 246 298 362 429
#
# _framework density 23.895855999999998
#
# number of rings (size 3 to 8) (size 9 to 14) (size 15 to 20)
#    0.000    0.857    1.429    3.857   12.000    2.286 
#    0.000    2.857    0.000    0.000    0.000    0.000 
#    0.000    0.000    0.000    0.000    0.000    0.000 
#
# Total GULP energy -78018.592288 kJ/mol
# GULP energy per Si atom -5572.756592 kJ/mol
# Density = 2.384147 g / cm^3
# Si number density = 23.895856 Si / 1000 Ang^3
#
#
#
# Elastic Constant Matrix: (Units=GPa)
#
#
# Indices 1 2 3 4 5 6 
#
# 1 127.5010 27.4140 39.6392 6.8441 -27.0062 13.1869
# 2 27.4140 106.7944 14.3960 -20.5803 6.7229 26.4753
# 3 39.6392 14.3960 179.8085 18.6218 -30.3435 -27.6993
# 4 6.8441 -20.5803 18.6218 37.2850 -3.7882 -6.6285
# 5 -27.0062 6.7229 -30.3435 -3.7882 45.7040 10.9615
# 6 13.1869 26.4753 -27.6993 -6.6285 10.9615 56.3502
#
#
#
# Elastic Compliance Matrix: (Units=1/GPa)
#
#
# Indices 1 2 3 4 5 6 
#
# 1 0.010688 -0.002634 -0.001313 -0.002725 0.006441 -0.003482
# 2 -0.002634 0.013527 -0.002749 0.008003 -0.003391 -0.005489
# 3 -0.001313 -0.002749 0.007717 -0.004029 0.003397 0.004258
# 4 -0.002725 0.008003 -0.004029 0.033371 -0.002532 -0.000685
# 5 0.006441 -0.003391 0.003397 -0.002532 0.029245 -0.004231
# 6 -0.003482 -0.005489 0.004258 -0.000685 -0.004231 0.023975
#
#
# Mechanical properties :
#
#
# Convention : Reuss Voigt Hill
#
# Bulk Modulus (GPa) = 53.93409 64.11137 59.02273
# Shear Modulus (GPa) = 36.20671 50.04484 43.12578
#
# Velocity S-wave (km/s) = 3.89676 4.58131 4.25283
# Velocity P-wave (km/s) = 6.54720 7.40758 6.99064
#
# Compressibility (1/GPa) = 0.01854115
#
# Stress axis : x y z
#
# Youngs Moduli (GPa) = 93.56119 73.92597 129.57753
#
# Poissons Ratio (x) = 0.19472 0.17009
# Poissons Ratio (y) = 0.24644 0.35622
# Poissons Ratio (z) = 0.12282 0.20323
#
# Static dielectric constant tensor:
#      x y z
#    x 1.917860 0.038540 -0.008520 
#    y 0.038540 1.821380 -0.076560 
#    z -0.008520 -0.076560 1.893440 
# 
# From -- ./inp_files/616085.got.cif
#   From: 2010.05.17/outbox.cif.g08.bks.cpg/sg2_309_cif.got.tgz:616085.got - 2010.06.03 11:33:40.
