data_PCOD9019924
_publ_section_title
;
Structure prediction by ZEFSAII (Michael W. Deem and Ramdas Pophale) SiO2 
 PCOD9019924
Probable space group: P -1
;
_chemical_formula_sum "Si O2"
_cell_formula_units_Z 16
_cell_length_a 14.572883
_cell_length_b 7.893139
_cell_length_c 9.238246
_cell_angle_alpha 131.377708
_cell_angle_beta 91.937145
_cell_angle_gamma 70.305447
_cell_volume 723.371869
_symmetry_space_group_name_H-M "P -1"
_symmetry_group_IT_number 2
_symmetry_cell_setting 'triclinic'
loop_
_space_group_symop_operation_xyz
x,y,z
-x,-y,-z
loop_
_atom_site_type_symbol
_atom_site_label
_atom_site_fract_x
_atom_site_fract_y
_atom_site_fract_z
Si Si1 0.233718 0.421248 0.992458
Si Si2 0.580907 0.917848 0.635851
Si Si3 0.887486 0.205811 0.595044
Si Si4 0.294707 0.070206 0.070839
Si Si5 0.459540 0.543149 0.685519
Si Si6 0.118843 0.402184 0.417444
Si Si7 0.572560 0.601216 0.984346
Si Si8 0.762323 0.886069 0.460225
O O1 0.131678 0.618020 0.166161
O O2 0.286037 0.237563 0.025425
O O3 0.313371 0.539502 0.036815
O O4 0.226573 0.273090 0.771884
O O5 0.645652 0.866442 0.759562
O O6 0.568168 0.691398 0.429550
O O7 0.646860 0.004114 0.578503
O O8 0.472840 0.118343 0.797895
O O9 0.870150 0.373570 0.544465
O O10 0.809498 0.079731 0.534730
O O11 0.000000 0.000000 0.500000
O O12 0.180384 0.162496 0.180448
O O13 0.359699 0.789335 0.862974
O O14 0.500000 0.500000 0.500000
O O15 0.547124 0.573533 0.801680
O O16 0.174378 0.305993 0.518758
O O17 0.000000 0.500000 0.500000
O O18 0.500000 0.500000 0.000000
#
# Coordination Sequence:
#
# PCOD9019924 Si02
#       8
#     2   2   2   2   2   2   2   2
#     4  11  24  40  64  96 133 168 222 272 325 398
#     4  10  22  40  63  95 137 177 225 272 324 399
#     4  11  24  46  70  94 131 171 217 278 340 393
#     4   9  22  40  62  94 133 171 218 272 335 388
#     4  11  22  38  66  94 133 178 227 266 328 395
#     4  10  21  45  72  95 130 174 217 278 339 396
#     4  11  23  39  59  92 132 177 218 271 328 387
#     4  11  24  42  69  98 132 173 220 269 336 393
#
# _framework density 22.118637
#
# number of rings (size 3 to 8) (size 9 to 14) (size 15 to 20)
#    0.000    1.500    1.250    3.000    0.000   12.500 
#    0.000    1.875    0.000    0.000    0.000    0.000 
#    0.000    0.000    0.000    0.000    0.000    0.000 
#
# Total GULP energy -89335.127286 kJ/mol
# GULP energy per Si atom -5583.445455 kJ/mol
# Density = 2.206829 g / cm^3
# Si number density = 22.118637 Si / 1000 Ang^3
#
#
#
# Elastic Constant Matrix: (Units=GPa)
#
#
# Indices 1 2 3 4 5 6 
#
# 1 106.4513 32.2284 54.4662 5.8371 -25.3684 10.0359
# 2 32.2284 89.3392 51.6453 -8.1103 -10.1282 8.5084
# 3 54.4662 51.6453 172.8769 -4.9400 -13.0909 -2.0502
# 4 5.8371 -8.1103 -4.9400 42.1512 1.9401 -8.9835
# 5 -25.3684 -10.1282 -13.0909 1.9401 35.6169 10.1478
# 6 10.0359 8.5084 -2.0502 -8.9835 10.1478 38.7589
#
#
#
# Elastic Compliance Matrix: (Units=1/GPa)
#
#
# Indices 1 2 3 4 5 6 
#
# 1 0.015810 -0.001863 -0.003766 -0.005299 0.011986 -0.008250
# 2 -0.001863 0.014677 -0.003606 0.001894 0.002300 -0.003094
# 3 -0.003766 -0.003606 0.007997 0.001477 -0.001697 0.002977
# 4 -0.005299 0.001894 0.001477 0.027252 -0.006777 0.009125
# 5 0.011986 0.002300 -0.001697 -0.006777 0.041619 -0.016166
# 6 -0.008250 -0.003094 0.002977 0.009125 -0.016166 0.035121
#
#
# Mechanical properties :
#
#
# Convention : Reuss Voigt Hill
#
# Bulk Modulus (GPa) = 49.96448 71.70522 60.83485
# Shear Modulus (GPa) = 29.82982 38.66056 34.24519
#
# Velocity S-wave (km/s) = 3.67635 4.18529 3.93905
# Velocity P-wave (km/s) = 6.37645 7.47291 6.94635
#
# Compressibility (1/GPa) = 0.02001422
#
# Stress axis : x y z
#
# Youngs Moduli (GPa) = 63.25282 68.13279 125.04112
#
# Poissons Ratio (x) = 0.12690 0.47092
# Poissons Ratio (y) = 0.11781 0.45093
# Poissons Ratio (z) = 0.23822 0.24571
#
# Static dielectric constant tensor:
#      x y z
#    x 1.887360 0.033590 -0.011420 
#    y 0.033590 1.960420 0.048150 
#    z -0.011420 0.048150 1.852550 
# 
# From -- ./inp_files/226592.got.cif
#   From: 2010.05.17/outbox.cif.g08.bks.cpg/sg2_114_cif.got.tgz:226592.got - 2010.06.03 11:33:40.
