data_PCOD9019210
_publ_section_title
;
Structure prediction by ZEFSAII (Michael W. Deem and Ramdas Pophale) SiO2 
 PCOD9019210
Probable space group: P -1
;
_chemical_formula_sum "Si O2"
_cell_formula_units_Z 14
_cell_length_a 7.127987
_cell_length_b 9.063349
_cell_length_c 14.377729
_cell_angle_alpha 127.900898
_cell_angle_beta 116.139881
_cell_angle_gamma 57.670431
_cell_volume 610.510459
_symmetry_space_group_name_H-M "P -1"
_symmetry_group_IT_number 2
_symmetry_cell_setting 'triclinic'
loop_
_space_group_symop_operation_xyz
x,y,z
-x,-y,-z
loop_
_atom_site_type_symbol
_atom_site_label
_atom_site_fract_x
_atom_site_fract_y
_atom_site_fract_z
Si Si1 0.052067 0.441337 0.216056
Si Si2 0.585229 0.680366 0.109501
Si Si3 0.877213 0.503289 0.379152
Si Si4 0.740963 0.843065 0.023107
Si Si5 0.829348 0.105486 0.778321
Si Si6 0.610853 0.366776 0.666969
Si Si7 0.839710 0.946816 0.519041
O O1 0.158574 0.294858 0.097796
O O2 0.221628 0.553855 0.318108
O O3 0.805382 0.586815 0.185206
O O4 0.019173 0.350746 0.272251
O O5 0.378970 0.862838 0.184226
O O6 0.500000 0.500000 0.000000
O O7 0.678582 0.739213 0.058461
O O8 0.640939 0.480341 0.330216
O O9 0.825629 0.731792 0.418145
O O10 0.000000 0.500000 0.500000
O O11 0.943506 0.911358 0.126814
O O12 0.500000 0.000000 0.000000
O O13 0.716047 0.313446 0.772720
O O14 0.895817 0.955360 0.645196
O O15 0.619032 0.153234 0.544490
O O16 0.000000 0.000000 0.500000
#
# Coordination Sequence:
#
# PCOD9019210 Si02
#       7
#     2   2   2   2   2   2   2
#     4  12  23  45  71 100 134 182 231 268 340 415
#     4  12  22  42  76  97 129 180 233 275 321 414
#     4  12  26  43  67 106 137 173 223 288 338 391
#     4  12  28  44  65 105 142 173 219 288 349 391
#     4  10  22  42  70  98 132 180 226 273 334 400
#     4  10  22  42  71  96 132 182 223 272 330 406
#     4  10  21  44  69  95 134 177 230 266 330 408
#
# _framework density 22.931629000000001
#
# number of rings (size 3 to 8) (size 9 to 14) (size 15 to 20)
#    0.857    0.000    5.714    1.714    0.000    3.429 
#    2.571    0.000    0.000    0.000    0.000    0.000 
#    0.000    0.000    0.000    0.000    0.000    0.000 
#
# Total GULP energy -78084.506114 kJ/mol
# GULP energy per Si atom -5577.464722 kJ/mol
# Density = 2.287944 g / cm^3
# Si number density = 22.931629 Si / 1000 Ang^3
#
#
#
# Elastic Constant Matrix: (Units=GPa)
#
#
# Indices 1 2 3 4 5 6 
#
# 1 176.6980 31.8647 69.0791 -7.8363 -14.2814 -27.1525
# 2 31.8647 44.6123 45.2664 -10.1099 -1.2176 -21.1921
# 3 69.0791 45.2664 123.2801 -10.4530 -22.1942 -21.4057
# 4 -7.8363 -10.1099 -10.4530 36.4313 -3.7644 4.2247
# 5 -14.2814 -1.2176 -22.1942 -3.7644 52.8755 -4.1928
# 6 -27.1525 -21.1921 -21.4057 4.2247 -4.1928 31.8779
#
#
#
# Elastic Compliance Matrix: (Units=1/GPa)
#
#
# Indices 1 2 3 4 5 6 
#
# 1 0.007755 0.000167 -0.003404 0.000321 0.001051 0.004526
# 2 0.000167 0.048061 -0.013883 0.006631 -0.002494 0.021563
# 3 -0.003404 -0.013883 0.016033 0.000666 0.005480 -0.000730
# 4 0.000321 0.006631 0.000666 0.029653 0.002754 0.001562
# 5 0.001051 -0.002494 0.005480 0.002754 0.022068 0.005455
# 6 0.004526 0.021563 -0.000730 0.001562 0.005455 0.049580
#
#
# Mechanical properties :
#
#
# Convention : Reuss Voigt Hill
#
# Bulk Modulus (GPa) = 26.59054 70.77898 48.68476
# Shear Modulus (GPa) = 22.73491 37.46227 30.09859
#
# Velocity S-wave (km/s) = 3.15210 4.04623 3.62682
# Velocity P-wave (km/s) = 4.98682 7.26371 6.23017
#
# Compressibility (1/GPa) = 0.03760736
#
# Stress axis : x y z
#
# Youngs Moduli (GPa) = 128.95107 20.80700 62.37128
#
# Poissons Ratio (x) = -0.00347 0.21232
# Poissons Ratio (y) = -0.02148 0.86590
# Poissons Ratio (z) = 0.43897 0.28886
#
# Static dielectric constant tensor:
#      x y z
#    x 1.906340 0.014030 -0.083780 
#    y 0.014030 1.927830 0.053660 
#    z -0.083780 0.053660 1.877440 
# 
# From -- ./inp_files/480095.got.cif
#   From: 2010.05.17/outbox.cif.g08.bks.cpg/sg2_241_cif.got.tgz:480095.got - 2010.06.03 11:33:40.
