data_PCOD9019166
_publ_section_title
;
Structure prediction by ZEFSAII (Michael W. Deem and Ramdas Pophale) SiO2 
 PCOD9019166
Probable space group: P -1
;
_chemical_formula_sum "Si O2"
_cell_formula_units_Z 14
_cell_length_a 17.176668
_cell_length_b 7.439284
_cell_length_c 12.432016
_cell_angle_alpha 114.522796
_cell_angle_beta 143.812289
_cell_angle_gamma 42.408974
_cell_volume 563.563381
_symmetry_space_group_name_H-M "P -1"
_symmetry_group_IT_number 2
_symmetry_cell_setting 'triclinic'
loop_
_space_group_symop_operation_xyz
x,y,z
-x,-y,-z
loop_
_atom_site_type_symbol
_atom_site_label
_atom_site_fract_x
_atom_site_fract_y
_atom_site_fract_z
Si Si1 0.811664 0.015372 0.398235
Si Si2 0.395758 0.331996 0.961251
Si Si3 0.458064 0.195291 0.602007
Si Si4 0.005136 0.722365 0.759661
Si Si5 0.697589 0.381513 0.647978
Si Si6 0.149117 0.376720 0.037720
Si Si7 0.840757 0.417686 0.462084
O O1 0.883589 0.161061 0.505846
O O2 0.579626 0.268598 0.174415
O O3 0.863498 0.855776 0.530033
O O4 0.948796 0.751577 0.396359
O O5 0.218228 0.544100 0.902865
O O6 0.295531 0.468989 0.767124
O O7 0.500000 0.000000 0.000000
O O8 0.364286 0.484997 0.508034
O O9 0.301661 0.304507 0.544976
O O10 0.500000 0.000000 0.500000
O O11 0.670986 0.981432 0.842987
O O12 0.045668 0.509788 0.840992
O O13 0.887619 0.026346 0.767751
O O14 0.500000 0.500000 0.500000
O O15 0.753268 0.517256 0.807720
O O16 0.000000 0.500000 0.000000
#
# Coordination Sequence:
#
# PCOD9019166 Si02
#       7
#     2   2   2   2   2   2   2
#     4  10  23  44  72 102 138 186 239 299 355 424
#     4  11  25  45  65 108 141 183 238 300 369 419
#     4  10  22  44  68 102 142 186 233 294 363 431
#     4  11  24  44  73 103 137 191 242 299 358 437
#     4  11  24  45  70 102 141 192 244 292 356 441
#     4  11  25  45  65 107 148 186 241 300 364 426
#     4  10  21  44  69 101 138 183 239 286 358 427
#
# _framework density 24.841926999999998
#
# number of rings (size 3 to 8) (size 9 to 14) (size 15 to 20)
#    0.000    1.429    1.429    2.571    2.000    3.429 
#   20.571    0.000    0.000    0.000    0.000    0.000 
#    0.000    0.000    0.000    0.000    0.000    0.000 
#
# Total GULP energy -78328.119816 kJ/mol
# GULP energy per Si atom -5594.865701 kJ/mol
# Density = 2.478539 g / cm^3
# Si number density = 24.841927 Si / 1000 Ang^3
#
#
#
# Elastic Constant Matrix: (Units=GPa)
#
#
# Indices 1 2 3 4 5 6 
#
# 1 146.5038 10.8367 68.5196 -3.6765 -15.0654 -43.4087
# 2 10.8367 71.2025 19.1586 -16.7238 -6.5053 -29.5564
# 3 68.5196 19.1586 145.8292 -30.9203 -5.7798 -20.4643
# 4 -3.6765 -16.7238 -30.9203 46.3497 5.0497 0.7951
# 5 -15.0654 -6.5053 -5.7798 5.0497 62.9506 -12.4879
# 6 -43.4087 -29.5564 -20.4643 0.7951 -12.4879 53.0857
#
#
#
# Elastic Compliance Matrix: (Units=1/GPa)
#
#
# Indices 1 2 3 4 5 6 
#
# 1 0.013329 0.005011 -0.005149 -0.001444 0.005955 0.013126
# 2 0.005011 0.023347 -0.001130 0.007046 0.006532 0.018092
# 3 -0.005149 -0.001130 0.010577 0.006380 -0.001112 -0.001119
# 4 -0.001444 0.007046 0.006380 0.028218 -0.000364 0.004694
# 5 0.005955 0.006532 -0.001112 -0.000364 0.020471 0.012898
# 6 0.013126 0.018092 -0.001119 0.004694 0.012898 0.042176
#
#
# Mechanical properties :
#
#
# Convention : Reuss Voigt Hill
#
# Bulk Modulus (GPa) = 22.36335 62.28501 42.32418
# Shear Modulus (GPa) = 32.14179 50.14525 41.14352
#
# Velocity S-wave (km/s) = 3.60092 4.49773 4.07407
# Velocity P-wave (km/s) = 5.12939 7.21801 6.26140
#
# Compressibility (1/GPa) = 0.04471602
#
# Stress axis : x y z
#
# Youngs Moduli (GPa) = 75.02632 42.83118 94.54714
#
# Poissons Ratio (x) = -0.21461 0.48682
# Poissons Ratio (y) = -0.37592 0.10683
# Poissons Ratio (z) = 0.38631 0.04840
#
# Static dielectric constant tensor:
#      x y z
#    x 1.996940 -0.011960 0.039890 
#    y -0.011960 2.155480 0.076300 
#    z 0.039890 0.076300 2.035700 
# 
# From -- ./inp_files/462311.got.cif
#   From: 2010.05.17/outbox.cif.g08.bks.cpg/sg2_232_cif.got.tgz:462311.got - 2010.06.03 11:33:40.
