data_PCOD9019433
_publ_section_title
;
Structure prediction by ZEFSAII (Michael W. Deem and Ramdas Pophale) SiO2 
 PCOD9019433
Probable space group: P -1
;
_chemical_formula_sum "Si O2"
_cell_formula_units_Z 15
_cell_length_a 8.950698
_cell_length_b 7.677541
_cell_length_c 12.071431
_cell_angle_alpha 65.615028
_cell_angle_beta 131.272007
_cell_angle_gamma 105.444771
_cell_volume 567.831026
_symmetry_space_group_name_H-M "P -1"
_symmetry_group_IT_number 2
_symmetry_cell_setting 'triclinic'
loop_
_space_group_symop_operation_xyz
x,y,z
-x,-y,-z
loop_
_atom_site_type_symbol
_atom_site_label
_atom_site_fract_x
_atom_site_fract_y
_atom_site_fract_z
Si Si1 0.923395 0.895105 0.245527
Si Si2 0.000000 0.000000 0.500000
Si Si3 0.288190 0.363665 0.476102
Si Si4 0.726701 0.913047 0.938593
Si Si5 0.636465 0.129716 0.611496
Si Si6 0.361508 0.687202 0.868133
Si Si7 0.960257 0.516495 0.106540
Si Si8 0.226565 0.484121 0.650571
O O1 0.780519 0.709542 0.230314
O O2 0.154013 0.834891 0.355979
O O3 0.848426 0.009461 0.071800
O O4 0.915526 0.988377 0.336158
O O5 0.158824 0.174218 0.492827
O O6 0.488710 0.297551 0.531984
O O7 0.337714 0.452610 0.598439
O O8 0.147599 0.483799 0.289946
O O9 0.507205 0.863979 0.889149
O O10 0.697500 0.026408 0.782266
O O11 0.853149 0.720452 0.023145
O O12 0.500000 0.000000 0.500000
O O13 0.195112 0.644050 0.887704
O O14 0.274295 0.662518 0.706416
O O15 0.500000 0.500000 0.000000
O O16 0.000000 0.500000 0.000000
O O17 0.000000 0.500000 0.500000
#
# Coordination Sequence:
#
# PCOD9019433 Si02
#       8
#     2   1   2   2   2   2   2   2
#     4  11  23  47  71  99 147 189 241 293 367 427
#     4  10  24  42  74 100 142 188 240 298 350 438
#     4  11  24  44  70 108 135 189 239 293 362 423
#     4  11  25  48  73 102 142 198 234 298 361 430
#     4  12  26  45  71 106 149 190 236 302 364 424
#     4  10  21  44  72 101 136 184 236 292 352 415
#     4  11  23  44  71 105 145 183 236 296 354 423
#     4  11  21  43  74 102 136 183 240 298 352 424
#
# _framework density 26.416308999999998
#
# number of rings (size 3 to 8) (size 9 to 14) (size 15 to 20)
#    0.000    1.067    5.333    1.200    3.733    0.000 
#    4.800    4.000    0.000    0.000    0.000    0.000 
#    0.000    0.000    0.000    0.000    0.000    0.000 
#
# Total GULP energy -83831.037775 kJ/mol
# GULP energy per Si atom -5588.735852 kJ/mol
# Density = 2.635618 g / cm^3
# Si number density = 26.416309 Si / 1000 Ang^3
#
#
#
# Elastic Constant Matrix: (Units=GPa)
#
#
# Indices 1 2 3 4 5 6 
#
# 1 192.5988 54.4078 81.6042 12.0791 -18.6757 2.4411
# 2 54.4078 86.3377 44.3779 16.0880 -12.0770 -6.0831
# 3 81.6042 44.3779 188.5043 6.3849 -23.1812 -11.7182
# 4 12.0791 16.0880 6.3849 60.4648 -6.4513 -7.2391
# 5 -18.6757 -12.0770 -23.1812 -6.4513 54.1581 4.3172
# 6 2.4411 -6.0831 -11.7182 -7.2391 4.3172 49.3709
#
#
#
# Elastic Compliance Matrix: (Units=1/GPa)
#
#
# Indices 1 2 3 4 5 6 
#
# 1 0.007228 -0.003264 -0.002334 -0.000414 0.000832 -0.001447
# 2 -0.003264 0.015406 -0.001917 -0.003005 0.001046 0.001073
# 3 -0.002334 -0.001917 0.007053 0.000595 0.001739 0.001489
# 4 -0.000414 -0.003005 0.000595 0.017778 0.001378 0.002278
# 5 0.000832 0.001046 0.001739 0.001378 0.019976 -0.001044
# 6 -0.001447 0.001073 0.001489 0.002278 -0.001044 0.021237
#
#
# Mechanical properties :
#
#
# Convention : Reuss Voigt Hill
#
# Bulk Modulus (GPa) = 68.22588 92.02451 80.12520
# Shear Modulus (GPa) = 46.04311 51.93551 48.98931
#
# Velocity S-wave (km/s) = 4.17943 4.43881 4.31107
# Velocity P-wave (km/s) = 7.01238 7.82193 7.42819
#
# Compressibility (1/GPa) = 0.01465719
#
# Stress axis : x y z
#
# Youngs Moduli (GPa) = 138.34898 64.90886 141.78397
#
# Poissons Ratio (x) = 0.21184 0.33098
# Poissons Ratio (y) = 0.45152 0.27180
# Poissons Ratio (z) = 0.32296 0.12443
#
# Static dielectric constant tensor:
#      x y z
#    x 2.087870 0.117150 -0.024550 
#    y 0.117150 3.041180 -0.503780 
#    z -0.024550 -0.503780 2.262740 
# 
# From -- ./inp_files/378479.got.cif
#   From: 2010.05.17/outbox.cif.g08.bks.cpg/sg2_190_cif.got.tgz:378479.got - 2010.06.03 11:33:40.
