data_PCOD9019265
_publ_section_title
;
Structure prediction by ZEFSAII (Michael W. Deem and Ramdas Pophale) SiO2 
 PCOD9019265
Probable space group: P -1
;
_chemical_formula_sum "Si O2"
_cell_formula_units_Z 12
_cell_length_a 5.018682
_cell_length_b 9.254639
_cell_length_c 18.798316
_cell_angle_alpha 144.574033
_cell_angle_beta 110.923630
_cell_angle_gamma 75.971145
_cell_volume 470.816165
_symmetry_space_group_name_H-M "P -1"
_symmetry_group_IT_number 2
_symmetry_cell_setting 'triclinic'
loop_
_space_group_symop_operation_xyz
x,y,z
-x,-y,-z
loop_
_atom_site_type_symbol
_atom_site_label
_atom_site_fract_x
_atom_site_fract_y
_atom_site_fract_z
Si Si1 0.349723 0.579010 0.800590
Si Si2 0.894160 0.916700 0.034382
Si Si3 0.872963 0.812929 0.471778
Si Si4 0.739973 0.143459 0.826036
Si Si5 0.085949 0.235957 0.763498
Si Si6 0.820034 0.575329 0.579919
O O1 0.152529 0.439675 0.788225
O O2 0.391494 0.360206 0.658127
O O3 0.231769 0.821942 0.848898
O O4 0.634607 0.703852 0.915124
O O5 0.146968 0.823246 0.069213
O O6 0.000000 0.000000 0.000000
O O7 0.088875 0.602120 0.420372
O O8 0.888676 0.995759 0.614784
O O9 0.000000 0.000000 0.500000
O O10 0.403575 0.163814 0.788589
O O11 0.923247 0.298008 0.845094
O O12 0.831165 0.865238 0.711091
O O13 0.500000 0.500000 0.500000
O O14 0.000000 0.500000 0.500000
#
# Coordination Sequence:
#
# PCOD9019265 Si02
#       6
#     2   2   2   2   2   2
#     4  10  25  48  68  99 146 184 235 286 346 418
#     4  11  27  46  72  99 137 194 238 281 346 417
#     4  10  21  44  70 103 141 179 224 288 352 413
#     4  12  25  45  72 102 142 182 236 288 347 416
#     4  11  26  46  72 110 138 180 232 293 358 408
#     4  12  22  41  66 100 139 177 224 281 343 412
#
# _framework density 25.487653999999999
#
# number of rings (size 3 to 8) (size 9 to 14) (size 15 to 20)
#    0.000    1.000    5.000    0.000    7.000    2.667 
#    3.000    5.000    0.000    0.000    0.000    0.000 
#    0.000    0.000    0.000    0.000    0.000    0.000 
#
# Total GULP energy -67076.716628 kJ/mol
# GULP energy per Si atom -5589.726386 kJ/mol
# Density = 2.542964 g / cm^3
# Si number density = 25.487654 Si / 1000 Ang^3
#
#
#
# Elastic Constant Matrix: (Units=GPa)
#
#
# Indices 1 2 3 4 5 6 
#
# 1 96.6926 21.1263 27.2729 -4.6808 6.0332 0.8975
# 2 21.1263 163.0977 54.0326 9.6861 8.6663 -12.6010
# 3 27.2729 54.0326 166.5306 5.3055 14.0833 8.0280
# 4 -4.6808 9.6861 5.3055 52.9883 4.4860 -1.3799
# 5 6.0332 8.6663 14.0833 4.4860 16.2713 -2.0671
# 6 0.8975 -12.6010 8.0280 -1.3799 -2.0671 46.2785
#
#
#
# Elastic Compliance Matrix: (Units=1/GPa)
#
#
# Indices 1 2 3 4 5 6 
#
# 1 0.011185 -0.000980 -0.001295 0.001539 -0.002973 -0.000346
# 2 -0.000980 0.007280 -0.002192 -0.001050 -0.001035 0.002304
# 3 -0.001295 -0.002192 0.007459 -0.000088 -0.005050 -0.002094
# 4 0.001539 -0.001050 -0.000088 0.019663 -0.005351 0.000047
# 5 -0.002973 -0.001035 -0.005050 -0.005351 0.069414 0.003593
# 6 -0.000346 0.002304 -0.002094 0.000047 0.003593 0.022767
#
#
# Mechanical properties :
#
#
# Convention : Reuss Voigt Hill
#
# Bulk Modulus (GPa) = 58.85629 70.13161 64.49395
# Shear Modulus (GPa) = 32.81621 44.70022 38.75821
#
# Velocity S-wave (km/s) = 3.59211 4.19238 3.90380
# Velocity P-wave (km/s) = 6.35190 7.14216 6.75859
#
# Compressibility (1/GPa) = 0.01699054
#
# Stress axis : x y z
#
# Youngs Moduli (GPa) = 89.40877 137.36974 134.06934
#
# Poissons Ratio (x) = 0.13463 0.17358
# Poissons Ratio (y) = 0.08762 0.29382
# Poissons Ratio (z) = 0.11576 0.30105
#
# Static dielectric constant tensor:
#      x y z
#    x 2.007510 -0.003440 -0.052970 
#    y -0.003440 1.937040 -0.158800 
#    z -0.052970 -0.158800 2.130360 
# 
# From -- ./inp_files/24387.got.cif
#   From: 2010.05.17/outbox.cif.g08.bks.cpg/sg2_13_cif.got.tgz:24387.got - 2010.06.03 11:33:40.
