data_PCOD9019423
_publ_section_title
;
Structure prediction by ZEFSAII (Michael W. Deem and Ramdas Pophale) SiO2 
 PCOD9019423
Probable space group: P -1
;
_chemical_formula_sum "Si O2"
_cell_formula_units_Z 16
_cell_length_a 7.967302
_cell_length_b 21.896432
_cell_length_c 7.051169
_cell_angle_alpha 139.378536
_cell_angle_beta 99.976041
_cell_angle_gamma 66.056820
_cell_volume 712.930331
_symmetry_space_group_name_H-M "P -1"
_symmetry_group_IT_number 2
_symmetry_cell_setting 'triclinic'
loop_
_space_group_symop_operation_xyz
x,y,z
-x,-y,-z
loop_
_atom_site_type_symbol
_atom_site_label
_atom_site_fract_x
_atom_site_fract_y
_atom_site_fract_z
Si Si1 0.780666 0.983050 0.615303
Si Si2 0.698426 0.137103 0.261402
Si Si3 0.385412 0.330987 0.488876
Si Si4 0.825053 0.525441 0.888726
Si Si5 0.510087 0.107412 0.527376
Si Si6 0.180153 0.326042 0.084606
Si Si7 0.378498 0.599341 0.581187
Si Si8 0.887716 0.231062 0.799921
O O1 0.628020 0.949150 0.604539
O O2 0.960381 0.878775 0.347978
O O3 0.676632 0.054565 0.586881
O O4 0.830186 0.047369 0.935669
O O5 0.524942 0.212634 0.276401
O O6 0.607448 0.098620 0.323290
O O7 0.800327 0.202067 0.530103
O O8 0.209464 0.339863 0.345762
O O9 0.489299 0.383058 0.503893
O O10 0.338521 0.386109 0.812405
O O11 0.843339 0.575424 0.811896
O O12 0.774741 0.429897 0.619458
O O13 0.000000 0.500000 0.000000
O O14 0.372165 0.227621 0.826884
O O15 0.007106 0.297306 0.941903
O O16 0.500000 0.500000 0.500000
O O17 0.276160 0.701137 0.928762
#
# Coordination Sequence:
#
# PCOD9019423 Si02
#       8
#     2   2   2   2   2   2   2   2
#     4  10  23  44  71 101 137 180 223 281 346 402
#     4  12  23  43  71 104 134 180 227 277 342 411
#     4  12  25  45  73  99 135 184 233 278 340 416
#     4  12  27  44  73 104 134 180 231 291 341 401
#     4  10  21  44  72 100 137 181 227 274 341 417
#     4  11  23  47  68 101 142 179 226 282 347 403
#     4  12  26  48  71  97 138 190 227 279 345 404
#     4  11  27  44  67 104 143 175 227 291 333 403
#
# _framework density 22.442585000000001
#
# number of rings (size 3 to 8) (size 9 to 14) (size 15 to 20)
#    0.000    0.750    3.750    3.375    3.500    1.500 
#    2.250    0.000    0.000    0.000    0.000    0.000 
#    0.000    0.000    0.000    0.000    0.000    0.000 
#
# Total GULP energy -89589.867401 kJ/mol
# GULP energy per Si atom -5599.366713 kJ/mol
# Density = 2.239150 g / cm^3
# Si number density = 22.442585 Si / 1000 Ang^3
#
#
#
# Elastic Constant Matrix: (Units=GPa)
#
#
# Indices 1 2 3 4 5 6 
#
# 1 82.7080 25.9061 11.1719 -6.6529 16.0236 -4.4420
# 2 25.9061 106.5875 7.2270 -16.6318 1.4540 2.4519
# 3 11.1719 7.2270 98.3957 -2.3112 12.1927 -7.7526
# 4 -6.6529 -16.6318 -2.3112 29.6688 -9.5399 1.7294
# 5 16.0236 1.4540 12.1927 -9.5399 40.8000 -3.6608
# 6 -4.4420 2.4519 -7.7526 1.7294 -3.6608 30.6021
#
#
#
# Elastic Compliance Matrix: (Units=1/GPa)
#
#
# Indices 1 2 3 4 5 6 
#
# 1 0.014338 -0.003502 -0.000599 -0.000600 -0.005323 0.001607
# 2 -0.003502 0.011284 -0.000726 0.006396 0.002537 -0.001654
# 3 -0.000599 -0.000726 0.010820 -0.000784 -0.002940 0.002405
# 4 -0.000600 0.006396 -0.000784 0.040257 0.009481 -0.001939
# 5 -0.005323 0.002537 -0.002940 0.009481 0.029722 0.001299
# 6 0.001607 -0.001654 0.002405 -0.001939 0.001299 0.033917
#
#
# Mechanical properties :
#
#
# Convention : Reuss Voigt Hill
#
# Bulk Modulus (GPa) = 37.32928 41.81124 39.57026
# Shear Modulus (GPa) = 31.46234 36.43994 33.95114
#
# Velocity S-wave (km/s) = 3.74826 4.03388 3.89369
# Velocity P-wave (km/s) = 5.94996 6.35351 6.15504
#
# Compressibility (1/GPa) = 0.02678862
#
# Stress axis : x y z
#
# Youngs Moduli (GPa) = 69.74497 88.62237 92.42431
#
# Poissons Ratio (x) = 0.31038 0.05532
# Poissons Ratio (y) = 0.24427 0.06707
# Poissons Ratio (z) = 0.04174 0.06431
#
# Static dielectric constant tensor:
#      x y z
#    x 1.847490 -0.033170 -0.007250 
#    y -0.033170 1.787990 0.023260 
#    z -0.007250 0.023260 1.846080 
# 
# From -- ./inp_files/53970.got.cif
#   From: 2010.05.17/outbox.cif.g08.bks.cpg/sg2_27_cif.got.tgz:53970.got - 2010.06.03 11:33:40.
