data_PCOD9019725
_publ_section_title
;
Structure prediction by ZEFSAII (Michael W. Deem and Ramdas Pophale) SiO2 
 PCOD9019725
Probable space group: P -1
;
_chemical_formula_sum "Si O2"
_cell_formula_units_Z 14
_cell_length_a 10.159851
_cell_length_b 8.907159
_cell_length_c 9.469853
_cell_angle_alpha 132.485705
_cell_angle_beta 65.936372
_cell_angle_gamma 104.872585
_cell_volume 576.828906
_symmetry_space_group_name_H-M "P -1"
_symmetry_group_IT_number 2
_symmetry_cell_setting 'triclinic'
loop_
_space_group_symop_operation_xyz
x,y,z
-x,-y,-z
loop_
_atom_site_type_symbol
_atom_site_label
_atom_site_fract_x
_atom_site_fract_y
_atom_site_fract_z
Si Si1 0.918193 0.851421 0.552120
Si Si2 0.075030 0.572562 0.868828
Si Si3 0.714061 0.054347 0.976735
Si Si4 0.214650 0.310810 0.069458
Si Si5 0.457838 0.717847 0.602005
Si Si6 0.798918 0.257116 0.498908
Si Si7 0.643960 0.869354 0.380039
O O1 0.885498 0.638234 0.358254
O O2 0.027612 0.780714 0.589427
O O3 0.774124 0.957723 0.744123
O O4 0.000000 0.000000 0.500000
O O5 0.949812 0.687341 0.908116
O O6 0.199612 0.732640 0.930255
O O7 0.000000 0.500000 0.000000
O O8 0.756222 0.875275 0.956100
O O9 0.562527 0.132747 0.160336
O O10 0.237487 0.532674 0.269088
O O11 0.309665 0.270320 0.861042
O O12 0.500000 0.500000 0.500000
O O13 0.304860 0.732739 0.588484
O O14 0.591628 0.755143 0.465463
O O15 0.755307 0.047594 0.459908
O O16 0.500000 0.000000 0.500000
#
# Coordination Sequence:
#
# PCOD9019725 Si02
#       7
#     2   2   2   2   2   2   2
#     4  11  25  42  69 109 132 170 227 276 348 407
#     4  11  25  42  69 102 135 177 214 283 349 405
#     4  12  25  43  69  99 140 176 224 281 337 402
#     4  11  24  42  70 103 129 177 227 273 345 404
#     4  11  27  45  69 100 137 185 231 277 330 399
#     4  10  24  45  71  98 136 179 221 284 336 399
#     4  10  21  45  67  93 133 182 227 272 332 389
#
# _framework density 24.270629
#
# number of rings (size 3 to 8) (size 9 to 14) (size 15 to 20)
#    0.000    1.143    4.286    1.286    6.000    3.429 
#    0.000    0.714    0.000    0.000    0.000    0.000 
#    0.000    0.000    0.000    0.000    0.000    0.000 
#
# Total GULP energy -78157.743743 kJ/mol
# GULP energy per Si atom -5582.695982 kJ/mol
# Density = 2.421539 g / cm^3
# Si number density = 24.270629 Si / 1000 Ang^3
#
#
#
# Elastic Constant Matrix: (Units=GPa)
#
#
# Indices 1 2 3 4 5 6 
#
# 1 8.2430 -79.6834 28.1653 -41.7747 29.5678 -31.5785
# 2 -79.6834 72.9878 65.8730 -49.1530 37.1015 -20.8331
# 3 28.1653 65.8730 190.6346 5.6043 -22.9652 15.8140
# 4 -41.7747 -49.1530 5.6043 24.7085 24.9473 -13.2028
# 5 29.5678 37.1015 -22.9652 24.9473 19.8558 11.2494
# 6 -31.5785 -20.8331 15.8140 -13.2028 11.2494 33.0867
#
#
#
# Elastic Compliance Matrix: (Units=1/GPa)
#
#
# Indices 1 2 3 4 5 6 
#
# 1 0.006637 -0.003727 0.001727 -0.006505 0.008582 -0.002351
# 2 -0.003727 0.004307 -0.000069 -0.003552 0.003898 -0.003554
# 3 0.001727 -0.000069 0.004798 0.002735 -0.000692 0.000638
# 4 -0.006505 -0.003552 0.002735 0.014510 0.004333 -0.005435
# 5 0.008582 0.003898 -0.000692 0.004333 0.020880 0.005605
# 6 -0.002351 -0.003554 0.000638 -0.005435 0.005605 0.021362
#
#
# Mechanical properties :
#
#
# Convention : Reuss Voigt Hill
#
# Bulk Modulus (GPa) = 86.16936 33.39726 59.78331
# Shear Modulus (GPa) = 62.11250 32.69756 47.40503
#
# Velocity S-wave (km/s) = 5.06431 3.67441 4.42428
# Velocity P-wave (km/s) = 8.35326 5.63844 7.12632
#
# Compressibility (1/GPa) = 0.01160505
#
# Stress axis : x y z
#
# Youngs Moduli (GPa) = 150.66904 232.17957 208.43888
#
# Poissons Ratio (x) = 0.86523 -0.36000
# Poissons Ratio (y) = 0.56148 0.01436
# Poissons Ratio (z) = -0.26023 0.01599
#
# Static dielectric constant tensor:
#      x y z
#    x 2.150590 0.163280 -0.006700 
#    y 0.163280 2.123970 -0.095090 
#    z -0.006700 -0.095090 1.935130 
# 
# From -- ./inp_files/241263.got.cif
#   From: 2010.05.17/outbox.cif.g08.bks.cpg/sg2_121_cif.got.tgz:241263.got - 2010.06.03 11:33:40.
