data_PCOD9019073
_publ_section_title
;
Structure prediction by ZEFSAII (Michael W. Deem and Ramdas Pophale) SiO2 
 PCOD9019073
Probable space group: P -1
;
_chemical_formula_sum "Si O2"
_cell_formula_units_Z 13
_cell_length_a 6.540783
_cell_length_b 14.585684
_cell_length_c 12.094555
_cell_angle_alpha 33.619790
_cell_angle_beta 66.553036
_cell_angle_gamma 69.025742
_cell_volume 585.302659
_symmetry_space_group_name_H-M "P -1"
_symmetry_group_IT_number 2
_symmetry_cell_setting 'triclinic'
loop_
_space_group_symop_operation_xyz
x,y,z
-x,-y,-z
loop_
_atom_site_type_symbol
_atom_site_label
_atom_site_fract_x
_atom_site_fract_y
_atom_site_fract_z
Si Si1 0.307144 0.147739 0.127495
Si Si2 0.209567 0.816754 0.065618
Si Si3 0.193053 0.328462 0.414141
Si Si4 0.917260 0.398422 0.013860
Si Si5 0.860466 0.086047 0.778331
Si Si6 0.000000 0.500000 0.500000
Si Si7 0.609856 0.114045 0.453164
O O1 0.285177 0.035322 0.136861
O O2 0.257917 0.019911 0.364031
O O3 0.557602 0.206276 0.024081
O O4 0.132545 0.302290 0.010444
O O5 0.259231 0.835940 0.166709
O O6 0.052890 0.663835 0.251517
O O7 0.073436 0.976454 0.888451
O O8 0.196355 0.475859 0.176636
O O9 0.412362 0.209571 0.469259
O O10 0.969120 0.227830 0.540161
O O11 0.154012 0.386654 0.490237
O O12 0.756831 0.254695 0.229165
O O13 0.000000 0.500000 0.000000
O O14 0.500000 0.000000 0.500000
#
# Coordination Sequence:
#
# PCOD9019073 Si02
#       7
#     2   2   2   2   2   1   2
#     4  12  24  43  72  99 136 180 238 282 346 414
#     4  10  22  42  69 101 140 180 224 281 356 414
#     4  11  23  45  70  99 143 179 231 286 355 415
#     4  12  27  44  66 105 144 179 236 299 342 413
#     4  10  21  44  68 103 135 180 229 283 344 424
#     4  10  24  40  70 102 136 180 218 292 350 416
#     4  12  26  45  73 101 137 195 239 283 349 418
#
# _framework density 22.210730999999999
#
# number of rings (size 3 to 8) (size 9 to 14) (size 15 to 20)
#    0.000    0.923    1.538    5.077    4.308    0.000 
#    2.769    3.846    0.000    0.000    0.000    0.000 
#    0.000    0.000    0.000    0.000    0.000    0.000 
#
# Total GULP energy -72427.537401 kJ/mol
# GULP energy per Si atom -5571.349031 kJ/mol
# Density = 2.216018 g / cm^3
# Si number density = 22.210731 Si / 1000 Ang^3
#
#
#
# Elastic Constant Matrix: (Units=GPa)
#
#
# Indices 1 2 3 4 5 6 
#
# 1 23.5211 -3.3453 12.9809 10.8590 -6.9132 -5.6285
# 2 -3.3453 75.8865 -6.0737 -4.7213 -1.1590 -7.8630
# 3 12.9809 -6.0737 123.6407 1.2658 -23.5600 -5.6908
# 4 10.8590 -4.7213 1.2658 30.1341 -8.3842 0.7962
# 5 -6.9132 -1.1590 -23.5600 -8.3842 32.3310 6.7590
# 6 -5.6285 -7.8630 -5.6908 0.7962 6.7590 35.9731
#
#
#
# Elastic Compliance Matrix: (Units=1/GPa)
#
#
# Indices 1 2 3 4 5 6 
#
# 1 0.057305 0.001814 -0.005001 -0.019915 0.001692 0.008694
# 2 0.001814 0.013782 0.000862 0.001750 0.001306 0.003149
# 3 -0.005001 0.000862 0.009979 0.003547 0.007249 -0.000456
# 4 -0.019915 0.001750 0.003547 0.043622 0.010781 -0.005163
# 5 0.001692 0.001306 0.007249 0.010781 0.040711 -0.006191
# 6 0.008694 0.003149 -0.000456 -0.005163 -0.006191 0.031052
#
#
# Mechanical properties :
#
#
# Convention : Reuss Voigt Hill
#
# Bulk Modulus (GPa) = 13.08621 25.57465 19.33043
# Shear Modulus (GPa) = 22.06796 34.32009 28.19403
#
# Velocity S-wave (km/s) = 3.15552 3.93517 3.56671
# Velocity P-wave (km/s) = 4.37961 5.67336 5.06794
#
# Compressibility (1/GPa) = 0.07641634
#
# Stress axis : x y z
#
# Youngs Moduli (GPa) = 17.45057 72.56059 100.20732
#
# Poissons Ratio (x) = -0.13160 0.50111
# Poissons Ratio (y) = -0.03165 -0.08642
# Poissons Ratio (z) = 0.08727 -0.06258
#
# Static dielectric constant tensor:
#      x y z
#    x 1.796370 0.043710 -0.007070 
#    y 0.043710 1.839530 0.016010 
#    z -0.007070 0.016010 1.759120 
# 
# From -- ./inp_files/26407.got.cif
#   From: 2010.05.17/outbox.cif.g08.bks.cpg/sg2_14_cif.got.tgz:26407.got - 2010.06.03 11:33:40.
