data_PCOD9019380
_publ_section_title
;
Structure prediction by ZEFSAII (Michael W. Deem and Ramdas Pophale) SiO2 
 PCOD9019380
Probable space group: P -1
;
_chemical_formula_sum "Si O2"
_cell_formula_units_Z 16
_cell_length_a 25.515403
_cell_length_b 9.285188
_cell_length_c 10.228027
_cell_angle_alpha 139.492074
_cell_angle_beta 143.789465
_cell_angle_gamma 35.400959
_cell_volume 791.087255
_symmetry_space_group_name_H-M "P -1"
_symmetry_group_IT_number 2
_symmetry_cell_setting 'triclinic'
loop_
_space_group_symop_operation_xyz
x,y,z
-x,-y,-z
loop_
_atom_site_type_symbol
_atom_site_label
_atom_site_fract_x
_atom_site_fract_y
_atom_site_fract_z
Si Si1 0.396222 0.601476 0.236920
Si Si2 0.305718 0.155736 0.930288
Si Si3 0.060991 0.073522 0.273954
Si Si4 0.599959 0.081102 0.324965
Si Si5 0.732989 0.512277 0.289809
Si Si6 0.265106 0.720343 0.592166
Si Si7 0.553076 0.747635 0.524079
Si Si8 0.113787 0.504185 0.617687
O O1 0.477234 0.294909 0.216737
O O2 0.356871 0.758974 0.401734
O O3 0.466445 0.699246 0.378078
O O4 0.307917 0.631027 0.984567
O O5 0.201128 0.411901 0.844612
O O6 0.358338 0.005497 0.796693
O O7 0.277263 0.966225 0.817062
O O8 0.379346 0.212541 0.203555
O O9 0.087199 0.278309 0.404519
O O10 0.986678 0.228952 0.354783
O O11 0.167442 0.829608 0.373566
O O12 0.000000 0.000000 0.000000
O O13 0.641319 0.818078 0.309046
O O14 0.750483 0.400299 0.391777
O O15 0.832712 0.486652 0.401407
O O16 0.368673 0.499675 0.576785
O O17 0.500000 0.000000 0.500000
#
# Coordination Sequence:
#
# PCOD9019380 Si02
#       8
#     2   2   2   2   2   2   2   2
#     4  11  24  36  60  88 124 174 214 246 299 356
#     4  10  22  40  63  86 127 162 212 258 293 365
#     4  10  21  44  71  89 116 153 205 259 311 377
#     4  10  23  37  57  86 118 168 216 247 293 349
#     4  11  24  40  60  90 134 157 201 260 303 363
#     4  11  24  41  62  92 124 170 203 250 320 360
#     4  12  25  37  58  92 130 172 215 247 296 362
#     4   9  22  40  65  95 113 154 203 256 314 365
#
# _framework density 20.225328000000001
#
# number of rings (size 3 to 8) (size 9 to 14) (size 15 to 20)
#    0.000    1.500    1.250    2.625   10.500    4.500 
#    0.000    0.625    0.000    0.000    0.000    0.000 
#    0.000    0.000    0.000    0.000    0.000    0.000 
#
# Total GULP energy -89469.939319 kJ/mol
# GULP energy per Si atom -5591.871207 kJ/mol
# Density = 2.017929 g / cm^3
# Si number density = 20.225328 Si / 1000 Ang^3
#
#
#
# Elastic Constant Matrix: (Units=GPa)
#
#
# Indices 1 2 3 4 5 6 
#
# 1 110.9363 17.8180 20.7110 8.5859 10.6869 20.0981
# 2 17.8180 57.0139 -11.3559 6.0856 8.4323 13.6551
# 3 20.7110 -11.3559 81.6800 -5.2750 16.2611 2.6973
# 4 8.5859 6.0856 -5.2750 14.4953 -3.2120 -1.0317
# 5 10.6869 8.4323 16.2611 -3.2120 23.1413 3.7499
# 6 20.0981 13.6551 2.6973 -1.0317 3.7499 32.6645
#
#
#
# Elastic Compliance Matrix: (Units=1/GPa)
#
#
# Indices 1 2 3 4 5 6 
#
# 1 0.011924 -0.001388 -0.002950 -0.008697 -0.003093 -0.006433
# 2 -0.001388 0.024124 0.005749 -0.010543 -0.012254 -0.008632
# 3 -0.002950 0.005749 0.016316 0.002631 -0.011751 -0.000504
# 4 -0.008697 -0.010543 0.002631 0.083798 0.015962 0.010356
# 5 -0.003093 -0.012254 -0.011751 0.015962 0.059305 0.001692
# 6 -0.006433 -0.008632 -0.000504 0.010356 0.001692 0.038355
#
#
# Mechanical properties :
#
#
# Convention : Reuss Voigt Hill
#
# Bulk Modulus (GPa) = 18.11995 33.77516 25.94756
# Shear Modulus (GPa) = 20.04854 28.89069 24.46962
#
# Velocity S-wave (km/s) = 3.15184 3.78357 3.48206
# Velocity P-wave (km/s) = 4.71423 5.98523 5.38734
#
# Compressibility (1/GPa) = 0.05518778
#
# Stress axis : x y z
#
# Youngs Moduli (GPa) = 83.86239 41.45325 61.28861
#
# Poissons Ratio (x) = 0.05752 0.18080
# Poissons Ratio (y) = 0.11637 -0.35238
# Poissons Ratio (z) = 0.24739 -0.23833
#
# Static dielectric constant tensor:
#      x y z
#    x 1.738660 -0.005520 0.016890 
#    y -0.005520 1.716180 0.019730 
#    z 0.016890 0.019730 1.719070 
# 
# From -- ./inp_files/38870.got.cif
#   From: 2010.05.17/outbox.cif.g08.bks.cpg/sg2_20_cif.got.tgz:38870.got - 2010.06.03 11:33:40.
