data_PCOD9019532
_publ_section_title
;
Structure prediction by ZEFSAII (Michael W. Deem and Ramdas Pophale) SiO2 
 PCOD9019532
Probable space group: P -1
;
_chemical_formula_sum "Si O2"
_cell_formula_units_Z 16
_cell_length_a 14.896860
_cell_length_b 8.726502
_cell_length_c 8.762047
_cell_angle_alpha 46.818519
_cell_angle_beta 67.987046
_cell_angle_gamma 71.202246
_cell_volume 766.380152
_symmetry_space_group_name_H-M "P -1"
_symmetry_group_IT_number 2
_symmetry_cell_setting 'triclinic'
loop_
_space_group_symop_operation_xyz
x,y,z
-x,-y,-z
loop_
_atom_site_type_symbol
_atom_site_label
_atom_site_fract_x
_atom_site_fract_y
_atom_site_fract_z
Si Si1 0.829117 0.030361 0.967221
Si Si2 0.717380 0.856551 0.649473
Si Si3 0.416851 0.544054 0.396604
Si Si4 0.636265 0.915080 0.329115
Si Si5 0.481395 0.144651 0.064670
Si Si6 0.872205 0.480192 0.729970
Si Si7 0.915595 0.564803 0.288570
Si Si8 0.785951 0.217757 0.538369
O O1 0.858300 0.231708 0.906224
O O2 0.826019 0.103861 0.744634
O O3 0.722109 0.985563 0.120534
O O4 0.894998 0.810808 0.093904
O O5 0.666942 0.935171 0.470021
O O6 0.781604 0.634716 0.739233
O O7 0.783218 0.038449 0.535919
O O8 0.632205 0.827838 0.844755
O O9 0.500000 0.500000 0.500000
O O10 0.374527 0.329901 0.523579
O O11 0.531419 0.353622 0.847834
O O12 0.325950 0.693854 0.417542
O O13 0.537779 0.039344 0.245737
O O14 0.500000 0.000000 0.000000
O O15 0.886346 0.543144 0.500467
O O16 0.970392 0.510925 0.737972
O O17 0.849473 0.414394 0.339210
#
# Coordination Sequence:
#
# PCOD9019532 Si02
#       8
#     2   2   2   2   2   2   2   2
#     4  11  20  43  71  94 128 175 222 266 330 402
#     4  12  25  44  62 101 142 168 218 282 324 387
#     4  12  23  41  68  94 126 179 222 260 326 397
#     4  12  23  42  66  97 133 173 222 271 328 383
#     4  12  24  44  66  94 134 179 218 264 325 399
#     4  10  23  42  67 102 130 167 220 279 333 381
#     4  10  21  44  73  92 128 178 220 268 332 402
#     4  11  23  41  67  96 133 174 220 268 326 394
#
# _framework density 20.877368000000001
#
# number of rings (size 3 to 8) (size 9 to 14) (size 15 to 20)
#    0.000    0.750    6.250    1.500    0.000    1.000 
#    6.750    0.625    0.000    0.000    0.000    0.000 
#    0.000    0.000    0.000    0.000    0.000    0.000 
#
# Total GULP energy -89481.914273 kJ/mol
# GULP energy per Si atom -5592.619642 kJ/mol
# Density = 2.082985 g / cm^3
# Si number density = 20.877368 Si / 1000 Ang^3
#
#
#
# Elastic Constant Matrix: (Units=GPa)
#
#
# Indices 1 2 3 4 5 6 
#
# 1 107.5381 45.1667 23.3596 -4.5359 -1.2134 3.0517
# 2 45.1667 66.0812 46.2633 -8.8450 -0.9633 1.1616
# 3 23.3596 46.2633 69.0950 -25.7356 -5.0212 2.6504
# 4 -4.5359 -8.8450 -25.7356 29.1661 0.3131 -1.5834
# 5 -1.2134 -0.9633 -5.0212 0.3131 23.2356 -6.4157
# 6 3.0517 1.1616 2.6504 -1.5834 -6.4157 44.6232
#
#
#
# Elastic Compliance Matrix: (Units=1/GPa)
#
#
# Indices 1 2 3 4 5 6 
#
# 1 0.013500 -0.011985 0.004418 0.002317 0.000951 -0.000655
# 2 -0.011985 0.042799 -0.031029 -0.016196 -0.005279 0.000215
# 3 0.004418 -0.031029 0.046313 0.032057 0.008554 0.000122
# 4 0.002317 -0.016196 0.032057 0.058027 0.005947 0.001273
# 5 0.000951 -0.005279 0.008554 0.005947 0.046417 0.006449
# 6 -0.000655 0.000215 0.000122 0.001273 0.006449 0.023414
#
#
# Mechanical properties :
#
#
# Convention : Reuss Voigt Hill
#
# Bulk Modulus (GPa) = 39.33992 52.47703 45.90847
# Shear Modulus (GPa) = 15.81596 27.93329 21.87463
#
# Velocity S-wave (km/s) = 2.75538 3.66180 3.24044
# Velocity P-wave (km/s) = 5.38582 6.56268 6.00316
#
# Compressibility (1/GPa) = 0.02541947
#
# Stress axis : x y z
#
# Youngs Moduli (GPa) = 74.07365 23.36479 21.59242
#
# Poissons Ratio (x) = 0.28002 -0.09539
# Poissons Ratio (y) = 0.88774 0.67000
# Poissons Ratio (z) = -0.32723 0.72499
#
# Static dielectric constant tensor:
#      x y z
#    x 1.878280 -0.094090 0.063310 
#    y -0.094090 1.829010 -0.069230 
#    z 0.063310 -0.069230 1.792640 
# 
# From -- ./inp_files/327065.got.cif
#   From: 2010.05.17/outbox.cif.g08.bks.cpg/sg2_164_cif.got.tgz:327065.got - 2010.06.03 11:33:40.
