data_PCOD9019991
_publ_section_title
;
Structure prediction by ZEFSAII (Michael W. Deem and Ramdas Pophale) SiO2 
 PCOD9019991
Probable space group: P -1
;
_chemical_formula_sum "Si O2"
_cell_formula_units_Z 16
_cell_length_a 12.244290
_cell_length_b 13.858372
_cell_length_c 9.580203
_cell_angle_alpha 105.209970
_cell_angle_beta 117.673453
_cell_angle_gamma 127.606287
_cell_volume 716.712532
_symmetry_space_group_name_H-M "P -1"
_symmetry_group_IT_number 2
_symmetry_cell_setting 'triclinic'
loop_
_space_group_symop_operation_xyz
x,y,z
-x,-y,-z
loop_
_atom_site_type_symbol
_atom_site_label
_atom_site_fract_x
_atom_site_fract_y
_atom_site_fract_z
Si Si1 0.180716 0.220209 0.192116
Si Si2 0.731655 0.208289 0.135577
Si Si3 0.866600 0.102973 0.743295
Si Si4 0.508590 0.272991 0.438997
Si Si5 0.839770 0.648497 0.507890
Si Si6 0.071584 0.935506 0.539440
Si Si7 0.944288 0.367935 0.019978
Si Si8 0.487533 0.758062 0.871777
O O1 0.426429 0.331378 0.402712
O O2 0.144069 0.268253 0.317856
O O3 0.103133 0.223425 0.007302
O O4 0.000000 0.000000 0.000000
O O5 0.721078 0.312526 0.230973
O O6 0.943502 0.280246 0.328210
O O7 0.762946 0.246481 0.999861
O O8 0.500000 0.000000 0.000000
O O9 0.861144 0.215721 0.820907
O O10 0.637366 0.885457 0.588023
O O11 0.877538 0.084866 0.581670
O O12 0.436931 0.165998 0.213060
O O13 0.792255 0.467664 0.696358
O O14 0.606454 0.419465 0.265509
O O15 0.863973 0.734349 0.420688
O O16 0.299330 0.087366 0.834311
O O17 0.000000 0.000000 0.500000
O O18 0.000000 0.500000 0.000000
#
# Coordination Sequence:
#
# PCOD9019991 Si02
#       8
#     2   2   2   2   2   2   2   2
#     4  10  21  45  76 106 144 188 250 301 362 447
#     4  12  25  50  79 105 148 198 253 306 373 451
#     4  11  24  45  71 105 149 192 236 302 379 435
#     4  11  24  45  79 105 144 189 247 303 370 439
#     4  12  25  47  76 109 141 197 251 303 363 447
#     4  12  27  45  69 109 151 194 240 303 375 442
#     4  12  29  47  73 113 149 188 251 312 377 434
#     4  12  26  45  75 106 145 191 254 300 365 442
#
# _framework density 22.324152999999999
#
# number of rings (size 3 to 8) (size 9 to 14) (size 15 to 20)
#    0.000    0.500    3.750    4.875    3.500    4.000 
#    0.000    0.000    0.000    0.000    0.000    0.000 
#    0.000    0.000    0.000    0.000    0.000    0.000 
#
# Total GULP energy -89456.179564 kJ/mol
# GULP energy per Si atom -5591.011223 kJ/mol
# Density = 2.227334 g / cm^3
# Si number density = 22.324153 Si / 1000 Ang^3
#
#
#
# Elastic Constant Matrix: (Units=GPa)
#
#
# Indices 1 2 3 4 5 6 
#
# 1 125.3105 25.2676 29.6673 0.6199 -20.8060 -0.7734
# 2 25.2676 137.3438 24.8813 8.3581 -16.5350 4.4887
# 3 29.6673 24.8813 72.1210 1.7229 -23.2042 25.3599
# 4 0.6199 8.3581 1.7229 33.6740 0.8126 -5.6166
# 5 -20.8060 -16.5350 -23.2042 0.8126 44.8337 -1.6912
# 6 -0.7734 4.4887 25.3599 -5.6166 -1.6912 39.2992
#
#
#
# Elastic Compliance Matrix: (Units=1/GPa)
#
#
# Indices 1 2 3 4 5 6 
#
# 1 0.009475 -0.000909 -0.004008 0.000718 0.002090 0.003069
# 2 -0.000909 0.008099 -0.001868 -0.001928 0.001635 0.000057
# 3 -0.004008 -0.001868 0.025124 -0.003686 0.009911 -0.016179
# 4 0.000718 -0.001928 -0.003686 0.031583 -0.002593 0.007015
# 5 0.002090 0.001635 0.009911 -0.002593 0.028840 -0.005671
# 6 0.003069 0.000057 -0.016179 0.007015 -0.005671 0.036698
#
#
# Mechanical properties :
#
#
# Convention : Reuss Voigt Hill
#
# Bulk Modulus (GPa) = 34.33101 54.93417 44.63259
# Shear Modulus (GPa) = 30.65620 40.55864 35.60742
#
# Velocity S-wave (km/s) = 3.70973 4.26702 3.99810
# Velocity P-wave (km/s) = 5.81045 6.99554 6.43035
#
# Compressibility (1/GPa) = 0.02912818
#
# Stress axis : x y z
#
# Youngs Moduli (GPa) = 105.54343 123.47152 39.80214
#
# Poissons Ratio (x) = 0.11229 0.15951
# Poissons Ratio (y) = 0.09599 0.07435
# Poissons Ratio (z) = 0.42297 0.23064
#
# Static dielectric constant tensor:
#      x y z
#    x 1.844970 0.013460 0.031030 
#    y 0.013460 1.866660 0.025000 
#    z 0.031030 0.025000 1.855490 
# 
# From -- ./inp_files/273865.got.cif
#   From: 2010.05.17/outbox.cif.g08.bks.cpg/sg2_137_cif.got.tgz:273865.got - 2010.06.03 11:33:40.
