data_PCOD9019631
_publ_section_title
;
Structure prediction by ZEFSAII (Michael W. Deem and Ramdas Pophale) SiO2 
 PCOD9019631
Probable space group: P -1
;
_chemical_formula_sum "Si O2"
_cell_formula_units_Z 12
_cell_length_a 17.318946
_cell_length_b 5.498521
_cell_length_c 7.080898
_cell_angle_alpha 72.753852
_cell_angle_beta 128.512951
_cell_angle_gamma 114.824721
_cell_volume 478.283397
_symmetry_space_group_name_H-M "P -1"
_symmetry_group_IT_number 2
_symmetry_cell_setting 'triclinic'
loop_
_space_group_symop_operation_xyz
x,y,z
-x,-y,-z
loop_
_atom_site_type_symbol
_atom_site_label
_atom_site_fract_x
_atom_site_fract_y
_atom_site_fract_z
Si Si1 0.388413 0.765595 0.110837
Si Si2 0.673119 0.280208 0.557721
Si Si3 0.040960 0.898843 0.398758
Si Si4 0.841467 0.463629 0.278502
Si Si5 0.896455 0.569396 0.783307
Si Si6 0.400208 0.212192 0.733017
O O1 0.391741 0.798422 0.332001
O O2 0.481638 0.675412 0.188517
O O3 0.275136 0.556987 0.939585
O O4 0.398537 0.048918 0.960535
O O5 0.794965 0.383423 0.773553
O O6 0.648165 0.546059 0.382913
O O7 0.652550 0.030990 0.440266
O O8 0.140093 0.822595 0.638225
O O9 0.936531 0.651851 0.254496
O O10 0.078443 0.111685 0.241838
O O11 0.000000 0.000000 0.500000
O O12 0.865592 0.522210 0.524240
O O13 0.000000 0.500000 0.000000
#
# Coordination Sequence:
#
# PCOD9019631 Si02
#       6
#     2   2   2   2   2   2
#     4  11  25  46  79 105 145 200 238 313 371 429
#     4  12  27  49  75 110 149 193 249 301 368 443
#     4   9  21  39  65  91 138 179 234 289 352 424
#     4  10  21  45  64 100 139 183 244 291 363 430
#     4  11  25  42  64 103 144 188 235 299 358 432
#     4  11  27  52  73 112 148 189 251 307 366 442
#
# _framework density 25.089728000000001
#
# number of rings (size 3 to 8) (size 9 to 14) (size 15 to 20)
#    0.000    1.333    1.667    2.000    7.000    6.000 
#    9.000    0.000    0.000    0.000    0.000    0.000 
#    0.000    0.000    0.000    0.000    0.000    0.000 
#
# Total GULP energy -67124.126912 kJ/mol
# GULP energy per Si atom -5593.677243 kJ/mol
# Density = 2.503262 g / cm^3
# Si number density = 25.089728 Si / 1000 Ang^3
#
#
#
# Elastic Constant Matrix: (Units=GPa)
#
#
# Indices 1 2 3 4 5 6 
#
# 1 82.5669 20.8417 11.9727 1.6288 14.6787 18.8630
# 2 20.8417 74.4841 43.4839 8.1603 12.7539 5.0597
# 3 11.9727 43.4839 73.8080 6.7703 24.2412 3.8804
# 4 1.6288 8.1603 6.7703 31.8945 15.0366 2.2402
# 5 14.6787 12.7539 24.2412 15.0366 63.3736 6.1171
# 6 18.8630 5.0597 3.8804 2.2402 6.1171 45.7172
#
#
#
# Elastic Compliance Matrix: (Units=1/GPa)
#
#
# Indices 1 2 3 4 5 6 
#
# 1 0.014701 -0.004087 0.001097 0.001814 -0.002911 -0.005406
# 2 -0.004087 0.022001 -0.012703 -0.003804 0.002260 0.000214
# 3 0.001097 -0.012703 0.022966 0.001553 -0.006835 -0.000157
# 4 0.001814 -0.003804 0.001553 0.036084 -0.008708 -0.001062
# 5 -0.002911 0.002260 -0.006835 -0.008708 0.020759 -0.000820
# 6 -0.005406 0.000214 -0.000157 -0.001062 -0.000820 0.024256
#
#
# Mechanical properties :
#
#
# Convention : Reuss Voigt Hill
#
# Bulk Modulus (GPa) = 35.36017 42.60617 38.98317
# Shear Modulus (GPa) = 27.53622 38.50111 33.01866
#
# Velocity S-wave (km/s) = 3.31646 3.92157 3.63164
# Velocity P-wave (km/s) = 5.36557 6.12563 5.75815
#
# Compressibility (1/GPa) = 0.02828041
#
# Stress axis : x y z
#
# Youngs Moduli (GPa) = 68.02429 45.45298 43.54310
#
# Poissons Ratio (x) = 0.18577 -0.04777
# Poissons Ratio (y) = 0.27801 0.55314
# Poissons Ratio (z) = -0.07462 0.57741
#
# Static dielectric constant tensor:
#      x y z
#    x 1.985700 -0.049990 -0.039680 
#    y -0.049990 2.194590 0.052730 
#    z -0.039680 0.052730 2.025220 
# 
# From -- ./inp_files/39616.got.cif
#   From: 2010.05.17/outbox.cif.g08.bks.cpg/sg2_20_cif.got.tgz:39616.got - 2010.06.03 11:33:40.
