data_PCOD9019485
_publ_section_title
;
Structure prediction by ZEFSAII (Michael W. Deem and Ramdas Pophale) SiO2 
 PCOD9019485
Probable space group: P -1
;
_chemical_formula_sum "Si O2"
_cell_formula_units_Z 14
_cell_length_a 9.111707
_cell_length_b 10.361360
_cell_length_c 12.135337
_cell_angle_alpha 78.652281
_cell_angle_beta 51.455002
_cell_angle_gamma 46.934525
_cell_volume 599.905061
_symmetry_space_group_name_H-M "P -1"
_symmetry_group_IT_number 2
_symmetry_cell_setting 'triclinic'
loop_
_space_group_symop_operation_xyz
x,y,z
-x,-y,-z
loop_
_atom_site_type_symbol
_atom_site_label
_atom_site_fract_x
_atom_site_fract_y
_atom_site_fract_z
Si Si1 0.864911 0.252999 0.955864
Si Si2 0.691900 0.319409 0.801396
Si Si3 0.872145 0.710976 0.504177
Si Si4 0.219293 0.058522 0.036764
Si Si5 0.797730 0.772326 0.775374
Si Si6 0.211653 0.318820 0.680311
Si Si7 0.677010 0.704277 0.139247
O O1 0.843866 0.183128 0.862645
O O2 0.011869 0.131450 0.020702
O O3 0.020506 0.303092 0.827433
O O4 0.552872 0.451845 0.095184
O O5 0.907046 0.294282 0.636089
O O6 0.530238 0.289829 0.819448
O O7 0.000000 0.500000 0.500000
O O8 0.759834 0.816491 0.655449
O O9 0.687564 0.780702 0.469453
O O10 0.327809 0.148371 0.931925
O O11 0.518189 0.839158 0.929145
O O12 0.124970 0.147541 0.189791
O O13 0.036409 0.541318 0.711023
O O14 0.408004 0.249758 0.700609
O O15 0.000000 0.500000 0.000000
#
# Coordination Sequence:
#
# PCOD9019485 Si02
#       7
#     2   2   2   2   2   2   2
#     4   9  17  31  53  83  96 130 181 222 256 292
#     4  10  17  30  56  77 104 130 179 224 248 300
#     4   9  20  34  51  76 107 146 169 204 264 316
#     4  10  19  32  55  80 104 135 175 219 259 306
#     4  10  18  32  53  76 108 144 169 205 266 314
#     4   9  16  33  55  76 103 133 178 213 252 307
#     4  11  17  32  57  82  98 129 184 222 250 297
#
# _framework density 23.337026000000002
#
# number of rings (size 3 to 8) (size 9 to 14) (size 15 to 20)
#    0.000    2.286    4.286    0.000    0.000    0.000 
#    0.000   13.571    0.000   36.000    0.000    0.000 
#    0.000    0.000    0.000    0.000    0.000    0.000 
#
# Total GULP energy -77986.238786 kJ/mol
# GULP energy per Si atom -5570.445628 kJ/mol
# Density = 2.328391 g / cm^3
# Si number density = 23.337026 Si / 1000 Ang^3
#
#
#
# Elastic Constant Matrix: (Units=GPa)
#
#
# Indices 1 2 3 4 5 6 
#
# 1 177.3748 7.5812 55.6562 -13.0689 42.6081 -22.8615
# 2 7.5812 48.2346 8.5202 -2.8788 10.1081 -17.8268
# 3 55.6562 8.5202 101.0250 -23.3733 43.6997 -13.1059
# 4 -13.0689 -2.8788 -23.3733 24.3380 -8.3577 3.5312
# 5 42.6081 10.1081 43.6997 -8.3577 48.6442 -18.9938
# 6 -22.8615 -17.8268 -13.1059 3.5312 -18.9938 31.5878
#
#
#
# Elastic Compliance Matrix: (Units=1/GPa)
#
#
# Indices 1 2 3 4 5 6 
#
# 1 0.007570 0.001070 -0.002207 0.000390 -0.003662 0.002921
# 2 0.001070 0.026398 -0.000850 0.000815 0.000557 0.015564
# 3 -0.002207 -0.000850 0.020628 0.013747 -0.015850 -0.004586
# 4 0.000390 0.000815 0.013747 0.053352 -0.004582 -0.002273
# 5 -0.003662 0.000557 -0.015850 -0.004582 0.044199 0.018176
# 6 0.002921 0.015564 -0.004586 -0.002273 0.018176 0.051837
#
#
# Mechanical properties :
#
#
# Convention : Reuss Voigt Hill
#
# Bulk Modulus (GPa) = 19.75382 52.23884 35.99633
# Shear Modulus (GPa) = 22.23909 37.90580 30.07244
#
# Velocity S-wave (km/s) = 3.09034 4.03460 3.59362
# Velocity P-wave (km/s) = 4.60615 6.64358 5.71637
#
# Compressibility (1/GPa) = 0.05062311
#
# Stress axis : x y z
#
# Youngs Moduli (GPa) = 132.10840 37.88178 48.47832
#
# Poissons Ratio (x) = -0.04055 0.10699
# Poissons Ratio (y) = -0.14142 0.04119
# Poissons Ratio (z) = 0.29156 0.03218
#
# Static dielectric constant tensor:
#      x y z
#    x 2.018350 -0.022010 0.079740 
#    y -0.022010 2.067500 0.043190 
#    z 0.079740 0.043190 1.915520 
# 
# From -- ./inp_files/259614.got.cif
#   From: 2010.05.17/outbox.cif.g08.bks.cpg/sg2_130_cif.got.tgz:259614.got - 2010.06.03 11:33:40.
