data_PCOD9019898
_publ_section_title
;
Structure prediction by ZEFSAII (Michael W. Deem and Ramdas Pophale) SiO2 
 PCOD9019898
Probable space group: P -1
;
_chemical_formula_sum "Si O2"
_cell_formula_units_Z 14
_cell_length_a 10.343099
_cell_length_b 5.191034
_cell_length_c 16.779335
_cell_angle_alpha 78.843222
_cell_angle_beta 63.032821
_cell_angle_gamma 122.054698
_cell_volume 556.891257
_symmetry_space_group_name_H-M "P -1"
_symmetry_group_IT_number 2
_symmetry_cell_setting 'triclinic'
loop_
_space_group_symop_operation_xyz
x,y,z
-x,-y,-z
loop_
_atom_site_type_symbol
_atom_site_label
_atom_site_fract_x
_atom_site_fract_y
_atom_site_fract_z
Si Si1 0.119182 0.918778 0.680695
Si Si2 0.465191 0.177977 0.271934
Si Si3 0.684905 0.152249 0.493670
Si Si4 0.876091 0.660701 0.205859
Si Si5 0.045864 0.850238 0.427577
Si Si6 0.346049 0.699666 0.179060
Si Si7 0.666902 0.880080 0.977446
O O1 0.247486 0.032852 0.556632
O O2 0.136566 0.650051 0.734341
O O3 0.890150 0.690187 0.726692
O O4 0.168350 0.181925 0.722299
O O5 0.709618 0.510736 0.192806
O O6 0.409494 0.973974 0.384341
O O7 0.290050 0.179831 0.321468
O O8 0.402446 0.938716 0.225996
O O9 0.881918 0.596719 0.417246
O O10 0.500000 0.000000 0.500000
O O11 0.112264 0.975168 0.090927
O O12 0.000000 0.500000 0.500000
O O13 0.000000 0.000000 0.500000
O O14 0.316789 0.840990 0.098701
O O15 0.547711 0.786436 0.097965
O O16 0.500000 0.500000 0.000000
#
# Coordination Sequence:
#
# PCOD9019898 Si02
#       7
#     2   2   2   2   2   2   2
#     4  11  23  44  67 101 133 189 223 271 330 409
#     4  11  24  44  64 105 138 177 221 283 331 399
#     4  11  23  44  68  98 140 185 224 267 328 405
#     4  11  25  42  71 100 137 175 232 275 340 400
#     4  10  24  43  63  93 135 177 220 272 324 384
#     4  10  22  44  72  95 135 172 228 281 343 399
#     4  10  21  45  71  97 125 179 225 283 343 409
#
# _framework density 25.139558000000001
#
# number of rings (size 3 to 8) (size 9 to 14) (size 15 to 20)
#    0.000    1.429    4.286    0.000    2.000    3.429 
#    7.714    0.714    0.000    0.000    0.000    0.000 
#    0.000    0.000    0.000    0.000    0.000    0.000 
#
# Total GULP energy -78190.386579 kJ/mol
# GULP energy per Si atom -5585.027613 kJ/mol
# Density = 2.508234 g / cm^3
# Si number density = 25.139558 Si / 1000 Ang^3
#
#
#
# Elastic Constant Matrix: (Units=GPa)
#
#
# Indices 1 2 3 4 5 6 
#
# 1 126.5983 54.3940 26.8463 -3.6412 -34.3535 33.7163
# 2 54.3940 129.0361 31.4399 22.3342 -31.3599 17.9985
# 3 26.8463 31.4399 143.1611 8.8888 -30.3143 8.4222
# 4 -3.6412 22.3342 8.8888 50.9867 15.5926 -17.9240
# 5 -34.3535 -31.3599 -30.3143 15.5926 37.1183 -2.6722
# 6 33.7163 17.9985 8.4222 -17.9240 -2.6722 56.9843
#
#
#
# Elastic Compliance Matrix: (Units=1/GPa)
#
#
# Indices 1 2 3 4 5 6 
#
# 1 0.015641 0.001997 0.002876 -0.011683 0.022489 -0.012931
# 2 0.001997 0.018936 0.003930 -0.022622 0.029589 -0.013471
# 3 0.002876 0.003930 0.010846 -0.011909 0.019311 -0.007386
# 4 -0.011683 -0.022622 -0.011909 0.061373 -0.063117 0.032162
# 5 0.022489 0.029589 0.019311 -0.063117 0.112152 -0.040100
# 6 -0.012931 -0.013471 -0.007386 0.032162 -0.040100 0.038782
#
#
# Mechanical properties :
#
#
# Convention : Reuss Voigt Hill
#
# Bulk Modulus (GPa) = 15.86563 69.35063 42.60813
# Shear Modulus (GPa) = 19.14726 48.09220 33.61973
#
# Velocity S-wave (km/s) = 2.76277 4.37854 3.66091
# Velocity P-wave (km/s) = 4.06226 7.29440 5.90382
#
# Compressibility (1/GPa) = 0.06302933
#
# Stress axis : x y z
#
# Youngs Moduli (GPa) = 63.93278 52.80890 92.20200
#
# Poissons Ratio (x) = -0.10546 -0.26522
# Poissons Ratio (y) = -0.12767 -0.36231
# Poissons Ratio (z) = -0.18390 -0.20751
#
# Static dielectric constant tensor:
#      x y z
#    x 4.525250 -0.315950 2.158460 
#    y -0.315950 2.075880 -0.257980 
#    z 2.158460 -0.257980 3.926870 
# 
# From -- ./inp_files/122626.got.cif
#   From: 2010.05.17/outbox.cif.g08.bks.cpg/sg2_62_cif.got.tgz:122626.got - 2010.06.03 11:33:40.
