data_PCOD9019982
_publ_section_title
;
Structure prediction by ZEFSAII (Michael W. Deem and Ramdas Pophale) SiO2 
 PCOD9019982
Probable space group: P -1
;
_chemical_formula_sum "Si O2"
_cell_formula_units_Z 16
_cell_length_a 15.843258
_cell_length_b 8.234136
_cell_length_c 12.850250
_cell_angle_alpha 114.942024
_cell_angle_beta 26.810164
_cell_angle_gamma 116.212324
_cell_volume 676.788268
_symmetry_space_group_name_H-M "P -1"
_symmetry_group_IT_number 2
_symmetry_cell_setting 'triclinic'
loop_
_space_group_symop_operation_xyz
x,y,z
-x,-y,-z
loop_
_atom_site_type_symbol
_atom_site_label
_atom_site_fract_x
_atom_site_fract_y
_atom_site_fract_z
Si Si1 0.757701 0.164072 0.816726
Si Si2 0.646325 0.421112 0.391161
Si Si3 0.863715 0.617074 0.739723
Si Si4 0.192240 0.252415 0.372417
Si Si5 0.538393 0.712532 0.224034
Si Si6 0.260676 0.828614 0.399072
Si Si7 0.253001 0.881752 0.953888
Si Si8 0.806454 0.778329 0.415297
O O1 0.679606 0.199315 0.796226
O O2 0.970078 0.273950 0.624439
O O3 0.790474 0.957672 0.710350
O O4 0.670762 0.165381 0.027636
O O5 0.500000 0.500000 0.500000
O O6 0.550435 0.327085 0.575527
O O7 0.720038 0.267077 0.201171
O O8 0.787807 0.605362 0.314795
O O9 0.740966 0.670779 0.791249
O O10 0.000000 0.500000 0.500000
O O11 0.033844 0.763758 0.637316
O O12 0.695529 0.578578 0.997486
O O13 0.276481 0.306865 0.406157
O O14 0.369614 0.713408 0.325788
O O15 0.655854 0.917438 0.131342
O O16 0.285183 0.042097 0.460426
O O17 0.026536 0.860749 0.212296
#
# Coordination Sequence:
#
# PCOD9019982 Si02
#       8
#     2   2   2   2   2   2   2   2
#     4   8  15  34  69 102 134 176 226 281 346 424
#     4  12  29  48  65 103 147 191 248 303 352 414
#     4  11  23  42  68 109 151 184 226 294 368 430
#     4   8  15  34  64  98 138 175 222 278 349 421
#     4  12  26  47  72 107 148 184 242 304 351 433
#     4  10  22  44  74 109 143 188 232 290 375 424
#     4  11  21  46  76 102 142 196 246 289 348 426
#     4  10  21  45  75 102 141 194 242 289 358 433
#
# _framework density 23.641071
#
# number of rings (size 3 to 8) (size 9 to 14) (size 15 to 20)
#    0.000    1.750    2.500    3.000    1.750    4.000 
#    4.500    1.250    0.000    0.000    0.000    0.000 
#    0.000    0.000    0.000    0.000    0.000    0.000 
#
# Total GULP energy -89177.821298 kJ/mol
# GULP energy per Si atom -5573.613831 kJ/mol
# Density = 2.358726 g / cm^3
# Si number density = 23.641071 Si / 1000 Ang^3
#
#
#
# Elastic Constant Matrix: (Units=GPa)
#
#
# Indices 1 2 3 4 5 6 
#
# 1 125.0225 32.1882 51.6020 1.1215 11.2839 -20.5673
# 2 32.1882 79.3066 26.6869 1.0016 4.7276 -0.4197
# 3 51.6020 26.6869 123.5015 5.1987 13.1270 -8.0671
# 4 1.1215 1.0016 5.1987 33.8303 3.8672 11.6568
# 5 11.2839 4.7276 13.1270 3.8672 34.0744 0.1917
# 6 -20.5673 -0.4197 -8.0671 11.6568 0.1917 41.3556
#
#
#
# Elastic Compliance Matrix: (Units=1/GPa)
#
#
# Indices 1 2 3 4 5 6 
#
# 1 0.011307 -0.003285 -0.003413 -0.001375 -0.001848 0.005321
# 2 -0.003285 0.014583 -0.001915 0.000711 -0.000267 -0.002059
# 3 -0.003413 -0.001915 0.010297 -0.001374 -0.002419 0.000690
# 4 -0.001375 0.000711 -0.001374 0.033720 -0.002882 -0.010436
# 5 -0.001848 -0.000267 -0.002419 -0.002882 0.031260 -0.000726
# 6 0.005321 -0.002059 0.000690 -0.010436 -0.000726 0.029885
#
#
# Mechanical properties :
#
#
# Convention : Reuss Voigt Hill
#
# Bulk Modulus (GPa) = 52.73718 60.97610 56.85664
# Shear Modulus (GPa) = 32.34193 36.34230 34.34211
#
# Velocity S-wave (km/s) = 3.70272 3.92503 3.81549
# Velocity P-wave (km/s) = 6.37464 6.81099 6.59642
#
# Compressibility (1/GPa) = 0.01896195
#
# Stress axis : x y z
#
# Youngs Moduli (GPa) = 88.43785 68.57318 97.11810
#
# Poissons Ratio (x) = 0.22528 0.33144
# Poissons Ratio (y) = 0.29054 0.18594
# Poissons Ratio (z) = 0.30182 0.13129
#
# Static dielectric constant tensor:
#      x y z
#    x 1.982680 0.058480 0.003700 
#    y 0.058480 2.131380 0.002350 
#    z 0.003700 0.002350 1.926880 
# 
# From -- ./inp_files/447746.got.cif
#   From: 2010.05.17/outbox.cif.g08.bks.cpg/sg2_224_cif.got.tgz:447746.got - 2010.06.03 11:33:40.
