data_PCOD9019793
_publ_section_title
;
Structure prediction by ZEFSAII (Michael W. Deem and Ramdas Pophale) SiO2 
 PCOD9019793
Probable space group: P -1
;
_chemical_formula_sum "Si O2"
_cell_formula_units_Z 16
_cell_length_a 9.214755
_cell_length_b 9.071199
_cell_length_c 17.164103
_cell_angle_alpha 145.448216
_cell_angle_beta 105.989982
_cell_angle_gamma 80.875226
_cell_volume 776.063504
_symmetry_space_group_name_H-M "P -1"
_symmetry_group_IT_number 2
_symmetry_cell_setting 'triclinic'
loop_
_space_group_symop_operation_xyz
x,y,z
-x,-y,-z
loop_
_atom_site_type_symbol
_atom_site_label
_atom_site_fract_x
_atom_site_fract_y
_atom_site_fract_z
Si Si1 0.376191 0.395067 0.872590
Si Si2 0.392970 0.602560 0.317223
Si Si3 0.141419 0.174937 0.382403
Si Si4 0.923916 0.382372 0.313242
Si Si5 0.067283 0.305000 0.144738
Si Si6 0.539252 0.974991 0.622895
Si Si7 0.380205 0.741023 0.868051
Si Si8 0.042892 0.375509 0.871009
O O1 0.442507 0.144732 0.736684
O O2 0.357451 0.604907 0.891158
O O3 0.217345 0.331371 0.866309
O O4 0.500000 0.500000 0.000000
O O5 0.248409 0.382265 0.198764
O O6 0.387845 0.823789 0.346180
O O7 0.541883 0.470102 0.261880
O O8 0.423044 0.753117 0.468038
O O9 0.128073 0.385397 0.540659
O O10 0.036510 0.243610 0.324626
O O11 0.316016 0.147488 0.374175
O O12 0.062717 0.894185 0.275974
O O13 0.773094 0.216328 0.182155
O O14 0.018040 0.452076 0.278795
O O15 0.993223 0.424101 0.112254
O O16 0.000000 0.000000 0.000000
O O17 0.500000 0.000000 0.000000
O O18 0.000000 0.500000 0.000000
#
# Coordination Sequence:
#
# PCOD9019793 Si02
#       8
#     2   2   2   2   2   2   2   2
#     4  11  26  42  68 102 134 178 232 283 340 418
#     4  10  22  39  70  98 130 179 225 284 348 405
#     4  11  24  46  71  98 141 182 229 287 347 413
#     4  11  25  45  69 102 139 181 233 284 346 414
#     4  12  25  43  67 102 138 182 233 284 347 416
#     4  10  21  45  68  98 133 175 231 283 342 412
#     4  11  23  44  68  97 140 181 224 282 348 408
#     4  12  26  44  70  99 139 184 231 287 344 409
#
# _framework density 20.616869000000001
#
# number of rings (size 3 to 8) (size 9 to 14) (size 15 to 20)
#    0.000    1.000    3.750    2.250    5.250    0.500 
#    0.000    0.625    0.000    0.000    0.000    0.000 
#    0.000    0.000    0.000    0.000    0.000    0.000 
#
# Total GULP energy -89360.205280 kJ/mol
# GULP energy per Si atom -5585.012830 kJ/mol
# Density = 2.056994 g / cm^3
# Si number density = 20.616869 Si / 1000 Ang^3
#
#
#
# Elastic Constant Matrix: (Units=GPa)
#
#
# Indices 1 2 3 4 5 6 
#
# 1 147.1554 30.3270 53.7475 -16.1291 5.2315 -18.3763
# 2 30.3270 80.3818 47.7322 -8.2345 -8.2976 -19.5644
# 3 53.7475 47.7322 121.3829 -11.5806 2.7766 -9.1336
# 4 -16.1291 -8.2345 -11.5806 32.0274 5.0383 3.6428
# 5 5.2315 -8.2976 2.7766 5.0383 39.3494 -5.0283
# 6 -18.3763 -19.5644 -9.1336 3.6428 -5.0283 30.3310
#
#
#
# Elastic Compliance Matrix: (Units=1/GPa)
#
#
# Indices 1 2 3 4 5 6 
#
# 1 0.008850 -0.000334 -0.003210 0.002939 -0.000927 0.003674
# 2 -0.000334 0.020310 -0.007081 0.000159 0.006313 0.011793
# 3 -0.003210 -0.007081 0.012423 0.001857 -0.002619 -0.003428
# 4 0.002939 0.000159 0.001857 0.034532 -0.005239 -0.002574
# 5 -0.000927 0.006313 -0.002619 -0.005239 0.028761 0.008119
# 6 0.003674 0.011793 -0.003428 -0.002574 0.008119 0.043425
#
#
# Mechanical properties :
#
#
# Convention : Reuss Voigt Hill
#
# Bulk Modulus (GPa) = 49.17586 68.05927 58.61756
# Shear Modulus (GPa) = 28.35626 34.81577 31.58602
#
# Velocity S-wave (km/s) = 3.71265 4.11384 3.91838
# Velocity P-wave (km/s) = 6.50249 7.45976 6.99751
#
# Compressibility (1/GPa) = 0.02033518
#
# Stress axis : x y z
#
# Youngs Moduli (GPa) = 112.98849 49.23803 80.49545
#
# Poissons Ratio (x) = 0.01643 0.25836
# Poissons Ratio (y) = 0.03771 0.56995
# Poissons Ratio (z) = 0.36266 0.34863
#
# Static dielectric constant tensor:
#      x y z
#    x 1.776750 -0.015770 -0.011110 
#    y -0.015770 1.731190 0.006020 
#    z -0.011110 0.006020 1.708800 
# 
# From -- ./inp_files/495931.got.cif
#   From: 2010.05.17/outbox.cif.g08.bks.cpg/sg2_248_cif.got.tgz:495931.got - 2010.06.03 11:33:40.
