data_PCOD9019041
_publ_section_title
;
Structure prediction by ZEFSAII (Michael W. Deem and Ramdas Pophale) SiO2 
 PCOD9019041
Probable space group: P -1
;
_chemical_formula_sum "Si O2"
_cell_formula_units_Z 16
_cell_length_a 17.967475
_cell_length_b 11.972533
_cell_length_c 9.610826
_cell_angle_alpha 130.001697
_cell_angle_beta 152.955608
_cell_angle_gamma 49.219888
_cell_volume 700.520859
_symmetry_space_group_name_H-M "P -1"
_symmetry_group_IT_number 2
_symmetry_cell_setting 'triclinic'
loop_
_space_group_symop_operation_xyz
x,y,z
-x,-y,-z
loop_
_atom_site_type_symbol
_atom_site_label
_atom_site_fract_x
_atom_site_fract_y
_atom_site_fract_z
Si Si1 0.259636 0.624333 0.121303
Si Si2 0.184575 0.966084 0.842001
Si Si3 0.342927 0.425285 0.648189
Si Si4 0.367212 0.395052 0.338635
Si Si5 0.110878 0.685098 0.624924
Si Si6 0.354137 0.092697 0.434384
Si Si7 0.201366 0.963308 0.338656
Si Si8 0.263408 0.119154 0.849163
O O1 0.243068 0.507970 0.119918
O O2 0.448849 0.569102 0.332878
O O3 0.244863 0.786252 0.293212
O O4 0.139185 0.647812 0.805464
O O5 0.215215 0.809307 0.849827
O O6 0.295858 0.985450 0.909239
O O7 0.000000 0.000000 0.500000
O O8 0.194619 0.096929 0.070930
O O9 0.318108 0.407257 0.427524
O O10 0.182708 0.536269 0.538701
O O11 0.374966 0.258304 0.629928
O O12 0.500000 0.500000 0.000000
O O13 0.383167 0.229293 0.170307
O O14 0.919980 0.768739 0.344694
O O15 0.304723 0.008974 0.418516
O O16 0.500000 0.000000 0.500000
O O17 0.251216 0.050326 0.623407
O O18 0.000000 0.000000 0.000000
#
# Coordination Sequence:
#
# PCOD9019041 Si02
#       8
#     2   2   2   2   2   2   2   2
#     4  11  24  46  68  96 145 182 233 297 355 426
#     4  10  21  44  67  97 144 178 229 299 350 411
#     4  12  25  44  72 101 139 191 240 292 371 426
#     4  11  26  45  65 101 142 179 234 306 352 416
#     4  11  23  44  69  98 140 190 231 292 356 431
#     4  12  25  46  76 103 137 189 249 296 352 437
#     4  12  25  46  75 105 140 195 239 289 373 433
#     4  11  25  43  67 103 140 178 238 295 349 425
#
# _framework density 22.840147999999999
#
# number of rings (size 3 to 8) (size 9 to 14) (size 15 to 20)
#    0.000    0.750    5.000    2.250    3.500    2.500 
#    0.000    0.000    0.000    0.000    0.000    0.000 
#    0.000    0.000    0.000    0.000    0.000    0.000 
#
# Total GULP energy -89449.915912 kJ/mol
# GULP energy per Si atom -5590.619745 kJ/mol
# Density = 2.278816 g / cm^3
# Si number density = 22.840148 Si / 1000 Ang^3
#
#
#
# Elastic Constant Matrix: (Units=GPa)
#
#
# Indices 1 2 3 4 5 6 
#
# 1 101.5982 49.4322 25.9382 6.4636 -18.9123 10.3426
# 2 49.4322 131.8780 23.1847 12.2830 -7.3794 12.2731
# 3 25.9382 23.1847 82.2904 10.7532 -22.5455 9.1772
# 4 6.4636 12.2830 10.7532 42.2800 -2.0069 -3.5943
# 5 -18.9123 -7.3794 -22.5455 -2.0069 41.4731 2.0388
# 6 10.3426 12.2731 9.1772 -3.5943 2.0388 48.7304
#
#
#
# Elastic Compliance Matrix: (Units=1/GPa)
#
#
# Indices 1 2 3 4 5 6 
#
# 1 0.013366 -0.004299 -0.001518 -0.000334 0.004572 -0.001684
# 2 -0.004299 0.009672 -0.001203 -0.002010 -0.000922 -0.001407
# 3 -0.001518 -0.001203 0.015836 -0.003330 0.007685 -0.002924
# 4 -0.000334 -0.002010 -0.003330 0.025340 -0.001248 0.003126
# 5 0.004572 -0.000922 0.007685 -0.001248 0.030325 -0.003546
# 6 -0.001684 -0.001407 -0.002924 0.003126 -0.003546 0.022162
#
#
# Mechanical properties :
#
#
# Convention : Reuss Voigt Hill
#
# Bulk Modulus (GPa) = 40.26649 56.98630 48.62640
# Shear Modulus (GPa) = 35.96615 40.97747 38.47181
#
# Velocity S-wave (km/s) = 3.97254 4.24027 4.10859
# Velocity P-wave (km/s) = 6.22169 6.99839 6.62144
#
# Compressibility (1/GPa) = 0.02483454
#
# Stress axis : x y z
#
# Youngs Moduli (GPa) = 74.81837 103.38734 63.14632
#
# Poissons Ratio (x) = 0.44451 0.09583
# Poissons Ratio (y) = 0.32168 0.07596
# Poissons Ratio (z) = 0.11354 0.12436
#
# Static dielectric constant tensor:
#      x y z
#    x 1.873000 0.043810 0.054650 
#    y 0.043810 1.735190 0.003740 
#    z 0.054650 0.003740 1.950130 
# 
# From -- ./inp_files/315168.got.cif
#   From: 2010.05.17/outbox.cif.g08.bks.cpg/sg2_158_cif.got.tgz:315168.got - 2010.06.03 11:33:40.
