data_PCOD9019499
_publ_section_title
;
Structure prediction by ZEFSAII (Michael W. Deem and Ramdas Pophale) SiO2 
 PCOD9019499
Probable space group: P -1
;
_chemical_formula_sum "Si O2"
_cell_formula_units_Z 16
_cell_length_a 13.919004
_cell_length_b 5.574529
_cell_length_c 14.412436
_cell_angle_alpha 75.441673
_cell_angle_beta 134.672804
_cell_angle_gamma 80.612485
_cell_volume 669.358199
_symmetry_space_group_name_H-M "P -1"
_symmetry_group_IT_number 2
_symmetry_cell_setting 'triclinic'
loop_
_space_group_symop_operation_xyz
x,y,z
-x,-y,-z
loop_
_atom_site_type_symbol
_atom_site_label
_atom_site_fract_x
_atom_site_fract_y
_atom_site_fract_z
Si Si1 0.022881 0.508653 0.763424
Si Si2 0.050338 0.146395 0.129283
Si Si3 0.512698 0.529274 0.615191
Si Si4 0.690227 0.014338 0.924863
Si Si5 0.917787 0.078946 0.336703
Si Si6 0.588620 0.188634 0.041107
Si Si7 0.825076 0.306341 0.601661
Si Si8 0.742490 0.636261 0.845933
O O1 0.115406 0.607372 0.748337
O O2 0.977080 0.678472 0.811274
O O3 0.860393 0.565699 0.604138
O O4 0.134489 0.177661 0.897947
O O5 0.157196 0.216651 0.130417
O O6 0.134847 0.827371 0.253924
O O7 0.874035 0.301048 0.958247
O O8 0.500000 0.500000 0.500000
O O9 0.618017 0.239153 0.770924
O O10 0.344018 0.644915 0.534049
O O11 0.597715 0.710691 0.675950
O O12 0.680145 0.746496 0.896853
O O13 0.607039 0.196558 0.941704
O O14 0.763151 0.053156 0.218428
O O15 0.000000 0.000000 0.500000
O O16 0.052535 0.886444 0.373896
O O17 0.500000 0.500000 0.000000
O O18 0.500000 0.000000 0.000000
#
# Coordination Sequence:
#
# PCOD9019499 Si02
#       8
#     2   2   2   2   2   2   2   2
#     4  10  21  44  72  99 143 193 253 305 383 468
#     4   9  20  39  68 100 131 199 244 311 366 465
#     4  12  27  41  67 111 155 200 253 320 391 462
#     4  11  25  45  74 101 146 200 254 320 379 478
#     4  11  27  48  77 110 149 196 254 330 407 475
#     4  12  29  51  84 119 155 208 272 337 409 485
#     4  11  23  41  67  98 145 190 243 304 386 456
#     4  10  22  41  69  99 148 193 259 311 385 458
#
# _framework density 23.903494999999999
#
# number of rings (size 3 to 8) (size 9 to 14) (size 15 to 20)
#    0.000    1.250    1.250    3.000    7.000    5.500 
#    0.000    5.000    0.000    0.000    0.000    0.000 
#    0.000    0.000    0.000    0.000    0.000    0.000 
#
# Total GULP energy -89170.441492 kJ/mol
# GULP energy per Si atom -5573.152593 kJ/mol
# Density = 2.384909 g / cm^3
# Si number density = 23.903495 Si / 1000 Ang^3
#
#
#
# Elastic Constant Matrix: (Units=GPa)
#
#
# Indices 1 2 3 4 5 6 
#
# 1 96.3016 59.9612 82.6250 11.7066 9.5007 -9.2648
# 2 59.9612 74.1229 52.8408 19.5572 12.7074 -2.1556
# 3 82.6250 52.8408 161.2728 31.7377 12.7968 3.6628
# 4 11.7066 19.5572 31.7377 41.6292 4.4995 -4.6198
# 5 9.5007 12.7074 12.7968 4.4995 59.7636 6.7470
# 6 -9.2648 -2.1556 3.6628 -4.6198 6.7470 43.7404
#
#
#
# Elastic Compliance Matrix: (Units=1/GPa)
#
#
# Indices 1 2 3 4 5 6 
#
# 1 0.033966 -0.020957 -0.012906 0.011062 0.000038 0.008405
# 2 -0.020957 0.031746 0.002874 -0.011348 -0.002740 -0.003891
# 3 -0.012906 0.002874 0.013702 -0.008643 -0.000323 -0.004603
# 4 0.011062 -0.011348 -0.008643 0.033594 -0.000720 0.006167
# 5 0.000038 -0.002740 -0.000323 -0.000720 0.017762 -0.002916
# 6 0.008405 -0.003891 -0.004603 0.006167 -0.002916 0.025937
#
#
# Mechanical properties :
#
#
# Convention : Reuss Voigt Hill
#
# Bulk Modulus (GPa) = 57.35059 80.28348 68.81704
# Shear Modulus (GPa) = 22.27211 38.11133 30.19172
#
# Velocity S-wave (km/s) = 3.05577 3.99730 3.55782
# Velocity P-wave (km/s) = 6.04111 7.41377 6.76236
#
# Compressibility (1/GPa) = 0.01743661
#
# Stress axis : x y z
#
# Youngs Moduli (GPa) = 29.44120 31.50044 72.98063
#
# Poissons Ratio (x) = 0.66015 0.94190
# Poissons Ratio (y) = 0.61699 -0.20977
# Poissons Ratio (z) = 0.37997 -0.09054
#
# Static dielectric constant tensor:
#      x y z
#    x 1.979690 0.082190 0.000700 
#    y 0.082190 2.102370 -0.058430 
#    z 0.000700 -0.058430 2.002330 
# 
# From -- ./inp_files/525701.got.cif
#   From: 2010.05.17/outbox.cif.g08.bks.cpg/sg2_263_cif.got.tgz:525701.got - 2010.06.03 11:33:40.
