data_PCOD9019683
_publ_section_title
;
Structure prediction by ZEFSAII (Michael W. Deem and Ramdas Pophale) SiO2 
 PCOD9019683
Probable space group: P -1
;
_chemical_formula_sum "Si O2"
_cell_formula_units_Z 14
_cell_length_a 11.530236
_cell_length_b 9.290532
_cell_length_c 8.794039
_cell_angle_alpha 131.930707
_cell_angle_beta 112.252561
_cell_angle_gamma 70.557714
_cell_volume 644.263663
_symmetry_space_group_name_H-M "P -1"
_symmetry_group_IT_number 2
_symmetry_cell_setting 'triclinic'
loop_
_space_group_symop_operation_xyz
x,y,z
-x,-y,-z
loop_
_atom_site_type_symbol
_atom_site_label
_atom_site_fract_x
_atom_site_fract_y
_atom_site_fract_z
Si Si1 0.536766 0.933912 0.304689
Si Si2 0.910549 0.055123 0.638530
Si Si3 0.983328 0.403141 0.088715
Si Si4 0.630215 0.040652 0.009348
Si Si5 0.251734 0.369083 0.343945
Si Si6 0.776903 0.681144 0.354460
Si Si7 0.317167 0.748691 0.530527
O O1 0.424448 0.856524 0.099376
O O2 0.658672 0.774938 0.260753
O O3 0.500000 0.000000 0.500000
O O4 0.570626 0.138583 0.396015
O O5 0.793487 0.192069 0.602601
O O6 0.861918 0.859703 0.538608
O O7 0.970739 0.179245 0.884242
O O8 0.000000 0.000000 0.500000
O O9 0.860701 0.508761 0.187111
O O10 0.105787 0.427809 0.267645
O O11 0.000000 0.500000 0.000000
O O12 0.708170 0.842112 0.855116
O O13 0.708145 0.154939 0.246853
O O14 0.500000 0.000000 0.000000
O O15 0.265084 0.370910 0.534002
O O16 0.332642 0.520861 0.408127
#
# Coordination Sequence:
#
# PCOD9019683 Si02
#       7
#     2   2   2   2   2   2   2
#     4  10  21  45  66  92 130 170 212 266 319 374
#     4  11  21  40  66  93 127 172 210 258 322 378
#     4  12  24  40  69  97 128 170 216 259 323 385
#     4  10  23  40  67  92 127 171 214 258 318 376
#     4  12  24  43  64  99 133 162 215 270 315 380
#     4  11  25  42  66  94 134 165 211 273 316 380
#     4  10  23  39  67  92 128 168 215 254 325 376
#
# _framework density 21.730233999999999
#
# number of rings (size 3 to 8) (size 9 to 14) (size 15 to 20)
#    0.000    1.143    4.286    1.286    4.000    4.000 
#    0.000    2.143    0.000    0.000    0.000    0.000 
#    0.000    0.000    0.000    0.000    0.000    0.000 
#
# Total GULP energy -78199.380251 kJ/mol
# GULP energy per Si atom -5585.670018 kJ/mol
# Density = 2.168077 g / cm^3
# Si number density = 21.730234 Si / 1000 Ang^3
#
#
#
# Elastic Constant Matrix: (Units=GPa)
#
#
# Indices 1 2 3 4 5 6 
#
# 1 42.0207 13.3690 1.4318 4.8511 -11.5060 -5.7382
# 2 13.3690 64.9730 15.4590 -2.1959 3.3451 6.8036
# 3 1.4318 15.4590 85.0537 -1.6032 -6.5642 0.5549
# 4 4.8511 -2.1959 -1.6032 30.6147 -6.2642 -6.1578
# 5 -11.5060 3.3451 -6.5642 -6.2642 32.7301 2.7737
# 6 -5.7382 6.8036 0.5549 -6.1578 2.7737 32.5053
#
#
#
# Elastic Compliance Matrix: (Units=1/GPa)
#
#
# Indices 1 2 3 4 5 6 
#
# 1 0.030214 -0.007836 0.001686 -0.001890 0.010920 0.005655
# 2 -0.007836 0.018619 -0.003591 0.000439 -0.004894 -0.004718
# 3 0.001686 -0.003591 0.012677 0.001028 0.003638 0.000717
# 4 -0.001890 0.000439 0.001028 0.035392 0.005782 0.005768
# 5 0.010920 -0.004894 0.003638 0.005782 0.036655 0.000857
# 6 0.005655 -0.004718 0.000717 0.005768 0.000857 0.033757
#
#
# Mechanical properties :
#
#
# Convention : Reuss Voigt Hill
#
# Bulk Modulus (GPa) = 23.79413 28.06301 25.92857
# Shear Modulus (GPa) = 24.89971 29.95588 27.42779
#
# Velocity S-wave (km/s) = 3.38872 3.71689 3.55659
# Velocity P-wave (km/s) = 5.12687 5.60024 5.36877
#
# Compressibility (1/GPa) = 0.04202717
#
# Stress axis : x y z
#
# Youngs Moduli (GPa) = 33.09746 53.70967 78.88302
#
# Poissons Ratio (x) = 0.42088 -0.13299
# Poissons Ratio (y) = 0.25936 0.28325
# Poissons Ratio (z) = -0.05580 0.19286
#
# Static dielectric constant tensor:
#      x y z
#    x 1.818280 0.006900 0.032510 
#    y 0.006900 1.814970 -0.017470 
#    z 0.032510 -0.017470 1.797450 
# 
# From -- ./inp_files/180799.got.cif
#   From: 2010.05.17/outbox.cif.g08.bks.cpg/sg2_91_cif.got.tgz:180799.got - 2010.06.03 11:33:40.
