data_PCOD9019785
_publ_section_title
;
Structure prediction by ZEFSAII (Michael W. Deem and Ramdas Pophale) SiO2 
 PCOD9019785
Probable space group: P -1
;
_chemical_formula_sum "Si O2"
_cell_formula_units_Z 14
_cell_length_a 4.936193
_cell_length_b 15.544452
_cell_length_c 11.248783
_cell_angle_alpha 46.227229
_cell_angle_beta 73.163908
_cell_angle_gamma 61.228505
_cell_volume 545.027154
_symmetry_space_group_name_H-M "P -1"
_symmetry_group_IT_number 2
_symmetry_cell_setting 'triclinic'
loop_
_space_group_symop_operation_xyz
x,y,z
-x,-y,-z
loop_
_atom_site_type_symbol
_atom_site_label
_atom_site_fract_x
_atom_site_fract_y
_atom_site_fract_z
Si Si1 0.641742 0.277419 0.170657
Si Si2 0.120448 0.037589 0.763977
Si Si3 0.316610 0.100349 0.324353
Si Si4 0.092734 0.690114 0.508313
Si Si5 0.829780 0.879413 0.064417
Si Si6 0.743021 0.645705 0.391323
Si Si7 0.278128 0.514314 0.874852
O O1 0.378796 0.224337 0.239763
O O2 0.611993 0.382163 0.175968
O O3 0.958492 0.154965 0.281972
O O4 0.571653 0.373918 0.972568
O O5 0.033008 0.108068 0.835853
O O6 0.968959 0.163643 0.577217
O O7 0.478343 0.967006 0.752870
O O8 0.012585 0.919803 0.902079
O O9 0.500000 0.000000 0.500000
O O10 0.404281 0.647661 0.430953
O O11 0.157549 0.577426 0.703297
O O12 0.795517 0.702767 0.457019
O O13 0.793256 0.743435 0.196437
O O14 0.500000 0.000000 0.000000
O O15 0.000000 0.500000 0.500000
O O16 0.000000 0.500000 0.000000
#
# Coordination Sequence:
#
# PCOD9019785 Si02
#       7
#     2   2   2   2   2   2   2
#     4  11  26  44  68  99 143 185 231 285 355 410
#     4  10  24  42  71  97 136 185 228 288 344 429
#     4  12  26  45  69 108 142 179 236 295 352 415
#     4  11  25  44  73  99 132 191 230 276 362 412
#     4  10  21  45  68  97 134 185 233 277 359 418
#     4  11  25  45  69 104 140 172 236 298 346 415
#     4  11  25  48  71  97 145 187 236 285 346 437
#
# _framework density 25.686793999999999
#
# number of rings (size 3 to 8) (size 9 to 14) (size 15 to 20)
#    0.000    1.143    2.857    1.714    6.000    2.286 
#    2.571    0.000    0.000    0.000    0.000    0.000 
#    0.000    0.000    0.000    0.000    0.000    0.000 
#
# Total GULP energy -78184.383836 kJ/mol
# GULP energy per Si atom -5584.598845 kJ/mol
# Density = 2.562833 g / cm^3
# Si number density = 25.686794 Si / 1000 Ang^3
#
#
#
# Elastic Constant Matrix: (Units=GPa)
#
#
# Indices 1 2 3 4 5 6 
#
# 1 88.5736 4.2777 21.2671 5.4956 8.3404 -10.2272
# 2 4.2777 64.2452 28.1657 -29.5950 -5.6798 -18.2895
# 3 21.2671 28.1657 162.8457 -36.7984 6.2424 -11.3956
# 4 5.4956 -29.5950 -36.7984 44.9908 -2.4875 9.3289
# 5 8.3404 -5.6798 6.2424 -2.4875 39.1501 -11.3175
# 6 -10.2272 -18.2895 -11.3956 9.3289 -11.3175 47.5677
#
#
#
# Elastic Compliance Matrix: (Units=1/GPa)
#
#
# Indices 1 2 3 4 5 6 
#
# 1 0.012697 -0.001914 -0.002277 -0.005199 -0.002402 0.001896
# 2 -0.001914 0.026211 -0.000419 0.015839 0.007679 0.008287
# 3 -0.002277 -0.000419 0.007999 0.006546 -0.000473 -0.000131
# 4 -0.005199 0.015839 0.006546 0.038889 0.004852 0.000068
# 5 -0.002402 0.007679 -0.000473 0.004852 0.030013 0.008512
# 6 0.001896 0.008287 -0.000131 0.000068 0.008512 0.026597
#
#
# Mechanical properties :
#
#
# Convention : Reuss Voigt Hill
#
# Bulk Modulus (GPa) = 26.53481 47.00950 36.77216
# Shear Modulus (GPa) = 30.45297 43.80533 37.12915
#
# Velocity S-wave (km/s) = 3.44692 4.13409 3.80604
# Velocity P-wave (km/s) = 5.11803 6.41314 5.80183
#
# Compressibility (1/GPa) = 0.03768634
#
# Stress axis : x y z
#
# Youngs Moduli (GPa) = 78.75943 38.15221 125.01960
#
# Poissons Ratio (x) = 0.07304 0.28467
# Poissons Ratio (y) = 0.15077 0.05234
# Poissons Ratio (z) = 0.17934 0.01597
#
# Static dielectric constant tensor:
#      x y z
#    x 2.021520 0.037410 0.035830 
#    y 0.037410 2.086220 -0.005670 
#    z 0.035830 -0.005670 2.191960 
# 
# From -- ./inp_files/369291.got.cif
#   From: 2010.05.17/outbox.cif.g08.bks.cpg/sg2_185_cif.got.tgz:369291.got - 2010.06.03 11:33:40.
