data_PCOD9019594
_publ_section_title
;
Structure prediction by ZEFSAII (Michael W. Deem and Ramdas Pophale) SiO2 
 PCOD9019594
Probable space group: P -1
;
_chemical_formula_sum "Si O2"
_cell_formula_units_Z 14
_cell_length_a 5.164392
_cell_length_b 6.292375
_cell_length_c 20.926598
_cell_angle_alpha 110.022292
_cell_angle_beta 113.382421
_cell_angle_gamma 76.102562
_cell_volume 582.158280
_symmetry_space_group_name_H-M "P -1"
_symmetry_group_IT_number 2
_symmetry_cell_setting 'triclinic'
loop_
_space_group_symop_operation_xyz
x,y,z
-x,-y,-z
loop_
_atom_site_type_symbol
_atom_site_label
_atom_site_fract_x
_atom_site_fract_y
_atom_site_fract_z
Si Si1 0.841762 0.934032 0.843932
Si Si2 0.135416 0.238274 0.510259
Si Si3 0.332194 0.788271 0.963046
Si Si4 0.734485 0.274445 0.243587
Si Si5 0.139718 0.039931 0.358746
Si Si6 0.739053 0.402262 0.929901
Si Si7 0.341255 0.241133 0.669291
O O1 0.524744 0.873657 0.802903
O O2 0.007570 0.849524 0.916720
O O3 0.037115 0.803405 0.796123
O O4 0.837265 0.207619 0.869067
O O5 0.309508 0.291486 0.595352
O O6 0.000000 0.500000 0.500000
O O7 0.000000 0.000000 0.500000
O O8 0.263593 0.141293 0.445502
O O9 0.491045 0.601243 0.911180
O O10 0.381654 0.718273 0.033618
O O11 0.500000 0.000000 0.000000
O O12 0.613104 0.537892 0.263405
O O13 0.914187 0.222558 0.320889
O O14 0.945934 0.846320 0.341567
O O15 0.387103 0.949443 0.324541
O O16 0.000000 0.500000 0.000000
#
# Coordination Sequence:
#
# PCOD9019594 Si02
#       7
#     2   2   2   2   2   2   2
#     4  12  27  45  71 103 140 182 234 288 364 437
#     4  10  21  44  76 113 147 198 259 323 373 433
#     4  11  24  46  71 101 135 172 229 295 359 426
#     4  12  27  46  65 102 145 190 231 288 355 451
#     4  11  24  46  71 103 145 189 247 301 357 433
#     4  11  25  44  73 100 131 175 229 296 358 422
#     4  11  24  46  71 102 142 194 243 300 366 422
#
# _framework density 24.048444
#
# number of rings (size 3 to 8) (size 9 to 14) (size 15 to 20)
#    0.000    0.857    2.857    3.429    4.000    3.429 
#    0.000    2.857    0.000    0.000    0.000    0.000 
#    0.000    0.000    0.000    0.000    0.000    0.000 
#
# Total GULP energy -78129.526091 kJ/mol
# GULP energy per Si atom -5580.680435 kJ/mol
# Density = 2.399371 g / cm^3
# Si number density = 24.048444 Si / 1000 Ang^3
#
#
#
# Elastic Constant Matrix: (Units=GPa)
#
#
# Indices 1 2 3 4 5 6 
#
# 1 70.5249 11.9768 7.7462 5.6740 -0.1032 -7.2962
# 2 11.9768 99.6815 19.0633 13.9080 -5.0205 -20.5556
# 3 7.7462 19.0633 87.0573 14.2748 -11.6863 -11.8581
# 4 5.6740 13.9080 14.2748 52.4716 -11.0799 -3.2877
# 5 -0.1032 -5.0205 -11.6863 -11.0799 36.8897 0.5046
# 6 -7.2962 -20.5556 -11.8581 -3.2877 0.5046 42.9586
#
#
#
# Elastic Compliance Matrix: (Units=1/GPa)
#
#
# Indices 1 2 3 4 5 6 
#
# 1 0.014720 -0.001163 -0.000739 -0.001129 -0.000713 0.001661
# 2 -0.001163 0.011775 -0.001389 -0.002222 0.000425 0.004878
# 3 -0.000739 -0.001389 0.013011 -0.002249 0.003220 0.002591
# 4 -0.001129 -0.002222 -0.002249 0.021513 0.005447 -0.000293
# 5 -0.000713 0.000425 0.003220 0.005447 0.029806 0.001038
# 6 0.001661 0.004878 0.002591 -0.000293 0.001038 0.026575
#
#
# Mechanical properties :
#
#
# Convention : Reuss Voigt Hill
#
# Bulk Modulus (GPa) = 30.37464 37.20401 33.78933
# Shear Modulus (GPa) = 37.04928 41.02914 39.03921
#
# Velocity S-wave (km/s) = 3.92932 4.13498 4.03346
# Velocity P-wave (km/s) = 5.76577 6.18882 5.98103
#
# Compressibility (1/GPa) = 0.03292220
#
# Stress axis : x y z
#
# Youngs Moduli (GPa) = 67.93583 84.92790 76.86062
#
# Poissons Ratio (x) = 0.09877 0.05683
# Poissons Ratio (y) = 0.07901 0.10676
# Poissons Ratio (z) = 0.05023 0.11797
#
# Static dielectric constant tensor:
#      x y z
#    x 1.875430 -0.006440 -0.003750 
#    y -0.006440 2.046050 0.007080 
#    z -0.003750 0.007080 1.906900 
# 
# From -- ./inp_files/10523.got.cif
#   From: 2010.05.17/outbox.cif.g08.bks.cpg/sg2_6_cif.got.tgz:10523.got - 2010.06.03 11:33:40.
