data_PCOD9019841
_publ_section_title
;
Structure prediction by ZEFSAII (Michael W. Deem and Ramdas Pophale) SiO2 
 PCOD9019841
Probable space group: P -1
;
_chemical_formula_sum "Si O2"
_cell_formula_units_Z 14
_cell_length_a 11.693614
_cell_length_b 12.266040
_cell_length_c 8.251771
_cell_angle_alpha 44.671478
_cell_angle_beta 42.543240
_cell_angle_gamma 39.074841
_cell_volume 476.787847
_symmetry_space_group_name_H-M "P -1"
_symmetry_group_IT_number 2
_symmetry_cell_setting 'triclinic'
loop_
_space_group_symop_operation_xyz
x,y,z
-x,-y,-z
loop_
_atom_site_type_symbol
_atom_site_label
_atom_site_fract_x
_atom_site_fract_y
_atom_site_fract_z
Si Si1 0.342944 0.669527 0.870950
Si Si2 0.597492 0.816732 0.371772
Si Si3 0.852010 0.389190 0.441469
Si Si4 0.318605 0.950481 0.248790
Si Si5 0.171637 0.308969 0.440362
Si Si6 0.505661 0.347780 0.868686
Si Si7 0.056966 0.793735 0.803824
O O1 0.416700 0.805760 0.659100
O O2 0.408114 0.565167 0.737221
O O3 0.112639 0.749465 0.986068
O O4 0.500000 0.500000 0.000000
O O5 0.741084 0.605781 0.374710
O O6 0.458766 0.961754 0.225436
O O7 0.713190 0.833222 0.384800
O O8 0.731119 0.295357 0.732277
O O9 0.058903 0.286987 0.430648
O O10 0.880728 0.351245 0.259264
O O11 0.464379 0.760250 0.208960
O O12 0.149930 0.919949 0.539456
O O13 0.182289 0.097491 0.096867
O O14 0.000000 0.500000 0.500000
O O15 0.345724 0.331653 0.157308
#
# Coordination Sequence:
#
# PCOD9019841 Si02
#       7
#     2   2   2   2   2   2   2
#     4  10  17  30  57  84 113 147 187 241 287 335
#     4   9  17  32  55  81 114 148 185 239 292 333
#     4   9  19  34  58  84 113 149 197 238 282 340
#     4   9  18  34  58  80 112 158 191 232 288 342
#     4  10  20  34  57  87 120 145 188 243 292 339
#     4  10  19  35  60  83 114 148 192 238 288 340
#     4   9  18  34  55  84 115 149 199 234 280 348
#
# _framework density 29.363163
#
# number of rings (size 3 to 8) (size 9 to 14) (size 15 to 20)
#    0.000    2.571    1.429    0.857    0.000    3.429 
#    0.000    8.571    6.286    0.000    0.000    0.000 
#    0.000    0.000    0.000    0.000    0.000    0.000 
#
# Total GULP energy -78003.679816 kJ/mol
# GULP energy per Si atom -5571.691415 kJ/mol
# Density = 2.929633 g / cm^3
# Si number density = 29.363163 Si / 1000 Ang^3
#
#
#
# Elastic Constant Matrix: (Units=GPa)
#
#
# Indices 1 2 3 4 5 6 
#
# 1 274.2364 72.3999 37.4965 -7.6497 -2.1747 -82.9061
# 2 72.3999 80.7220 38.7748 0.4798 12.1850 -24.0779
# 3 37.4965 38.7748 104.3556 -1.4586 4.5243 -32.4506
# 4 -7.6497 0.4798 -1.4586 51.6133 -22.4727 9.1202
# 5 -2.1747 12.1850 4.5243 -22.4727 34.7318 -7.0734
# 6 -82.9061 -24.0779 -32.4506 9.1202 -7.0734 84.5022
#
#
#
# Elastic Compliance Matrix: (Units=1/GPa)
#
#
# Indices 1 2 3 4 5 6 
#
# 1 0.006827 -0.005793 0.001295 0.002223 0.004893 0.005715
# 2 -0.005793 0.021668 -0.006254 -0.005782 -0.011346 -0.002237
# 3 0.001295 -0.006254 0.012758 0.000673 0.001961 0.004480
# 4 0.002223 -0.005782 0.000673 0.028868 0.020637 -0.000596
# 5 0.004893 -0.011346 0.001961 0.020637 0.046997 0.004028
# 6 0.005715 -0.002237 0.004480 -0.000596 0.004028 0.018925
#
#
# Mechanical properties :
#
#
# Convention : Reuss Voigt Hill
#
# Bulk Modulus (GPa) = 50.63200 84.07292 67.35246
# Shear Modulus (GPa) = 30.46370 54.87900 42.67135
#
# Velocity S-wave (km/s) = 3.22449 4.32785 3.81626
# Velocity P-wave (km/s) = 5.58067 7.32585 6.51199
#
# Compressibility (1/GPa) = 0.01975036
#
# Stress axis : x y z
#
# Youngs Moduli (GPa) = 146.47342 46.15160 78.37972
#
# Poissons Ratio (x) = 0.26734 -0.10152
# Poissons Ratio (y) = 0.84848 0.49019
# Poissons Ratio (z) = -0.18972 0.28863
#
# Static dielectric constant tensor:
#      x y z
#    x 2.446470 -0.292200 0.095360 
#    y -0.292200 2.659490 -0.060220 
#    z 0.095360 -0.060220 2.662360 
# 
# From -- ./inp_files/276323.got.cif
#   From: 2010.05.17/outbox.cif.g08.bks.cpg/sg2_139_cif.got.tgz:276323.got - 2010.06.03 11:33:40.
