data_PCOD9019786
_publ_section_title
;
Structure prediction by ZEFSAII (Michael W. Deem and Ramdas Pophale) SiO2 
 PCOD9019786
Probable space group: P -1
;
_chemical_formula_sum "Si O2"
_cell_formula_units_Z 14
_cell_length_a 4.911356
_cell_length_b 25.059800
_cell_length_c 11.926708
_cell_angle_alpha 30.285193
_cell_angle_beta 121.276327
_cell_angle_gamma 103.927680
_cell_volume 554.454382
_symmetry_space_group_name_H-M "P -1"
_symmetry_group_IT_number 2
_symmetry_cell_setting 'triclinic'
loop_
_space_group_symop_operation_xyz
x,y,z
-x,-y,-z
loop_
_atom_site_type_symbol
_atom_site_label
_atom_site_fract_x
_atom_site_fract_y
_atom_site_fract_z
Si Si1 0.160255 0.198187 0.927130
Si Si2 0.832133 0.194496 0.659825
Si Si3 0.638945 0.408327 0.090914
Si Si4 0.482517 0.052282 0.778481
Si Si5 0.133499 0.558479 0.158568
Si Si6 0.093768 0.959302 0.720934
Si Si7 0.325351 0.389194 0.705815
O O1 0.505265 0.155972 0.994977
O O2 0.159755 0.087317 0.192935
O O3 0.211672 0.285973 0.863059
O O4 0.809715 0.252239 0.672226
O O5 0.902924 0.276745 0.438199
O O6 0.514612 0.172344 0.581368
O O7 0.147753 0.056297 0.997876
O O8 0.500000 0.500000 0.000000
O O9 0.791220 0.448503 0.945422
O O10 0.285764 0.401080 0.985612
O O11 0.150627 0.054934 0.634420
O O12 0.500000 0.000000 0.000000
O O13 0.333417 0.434734 0.498235
O O14 0.300816 0.638196 0.104131
O O15 0.000000 0.000000 0.500000
O O16 0.000000 0.500000 0.500000
#
# Coordination Sequence:
#
# PCOD9019786 Si02
#       7
#     2   2   2   2   2   2   2
#     4  11  25  43  71  98 131 185 230 268 358 410
#     4  10  24  41  70  98 134 188 222 288 340 427
#     4  12  26  45  69 106 143 177 234 294 351 413
#     4  10  21  45  68  97 135 180 237 273 355 414
#     4  11  26  44  66 100 140 183 230 282 353 408
#     4  11  25  44  68 102 136 172 229 296 339 408
#     4  11  25  47  73  96 144 186 233 284 343 434
#
# _framework density 25.250052
#
# number of rings (size 3 to 8) (size 9 to 14) (size 15 to 20)
#    0.000    1.143    2.857    1.714    6.000    2.286 
#    0.000    0.000    0.000    0.000    0.000    0.000 
#    0.000    0.000    0.000    0.000    0.000    0.000 
#
# Total GULP energy -78264.403840 kJ/mol
# GULP energy per Si atom -5590.314560 kJ/mol
# Density = 2.519258 g / cm^3
# Si number density = 25.250052 Si / 1000 Ang^3
#
#
#
# Elastic Constant Matrix: (Units=GPa)
#
#
# Indices 1 2 3 4 5 6 
#
# 1 94.0205 13.6000 14.2017 1.0630 -21.7076 4.1429
# 2 13.6000 144.7453 28.8995 11.5411 -12.0960 31.8222
# 3 14.2017 28.8995 69.5960 16.1037 -26.8668 0.4706
# 4 1.0630 11.5411 16.1037 41.2950 -11.8066 -11.4466
# 5 -21.7076 -12.0960 -26.8668 -11.8066 40.1371 10.0150
# 6 4.1429 31.8222 0.4706 -11.4466 10.0150 44.6673
#
#
#
# Elastic Compliance Matrix: (Units=1/GPa)
#
#
# Indices 1 2 3 4 5 6 
#
# 1 0.012537 -0.000098 0.000297 0.001140 0.007929 -0.002582
# 2 -0.000098 0.009653 -0.002196 -0.003434 0.002440 -0.008272
# 3 0.000297 -0.002196 0.021420 -0.004782 0.013144 -0.002861
# 4 0.001140 -0.003434 -0.004782 0.030506 0.002973 0.009542
# 5 0.007929 0.002440 0.013144 0.002973 0.042448 -0.011368
# 6 -0.002582 -0.008272 -0.002861 0.009542 -0.011368 0.033544
#
#
# Mechanical properties :
#
#
# Convention : Reuss Voigt Hill
#
# Bulk Modulus (GPa) = 25.24228 46.86268 36.05248
# Shear Modulus (GPa) = 29.88528 41.99724 35.94126
#
# Velocity S-wave (km/s) = 3.44404 4.08273 3.77691
# Velocity P-wave (km/s) = 5.08270 6.38941 5.77315
#
# Compressibility (1/GPa) = 0.03961607
#
# Stress axis : x y z
#
# Youngs Moduli (GPa) = 79.76465 103.60009 46.68569
#
# Poissons Ratio (x) = 0.01014 -0.01387
# Poissons Ratio (y) = 0.00781 0.10251
# Poissons Ratio (z) = -0.02370 0.22748
#
# Static dielectric constant tensor:
#      x y z
#    x 2.033500 0.043730 0.096470 
#    y 0.043730 2.147800 0.048980 
#    z 0.096470 0.048980 2.052040 
# 
# From -- ./inp_files/370834.got.cif
#   From: 2010.05.17/outbox.cif.g08.bks.cpg/sg2_186_cif.got.tgz:370834.got - 2010.06.03 11:33:40.
