data_PCOD9019130
_publ_section_title
;
Structure prediction by ZEFSAII (Michael W. Deem and Ramdas Pophale) SiO2 
 PCOD9019130
Probable space group: P -1
;
_chemical_formula_sum "Si O2"
_cell_formula_units_Z 16
_cell_length_a 16.344422
_cell_length_b 15.772863
_cell_length_c 8.379007
_cell_angle_alpha 68.742479
_cell_angle_beta 96.678750
_cell_angle_gamma 156.658315
_cell_volume 646.009859
_symmetry_space_group_name_H-M "P -1"
_symmetry_group_IT_number 2
_symmetry_cell_setting 'triclinic'
loop_
_space_group_symop_operation_xyz
x,y,z
-x,-y,-z
loop_
_atom_site_type_symbol
_atom_site_label
_atom_site_fract_x
_atom_site_fract_y
_atom_site_fract_z
Si Si1 0.438581 0.970664 0.829892
Si Si2 0.166529 0.283525 0.997932
Si Si3 0.526914 0.370254 0.461200
Si Si4 0.034485 0.296906 0.745268
Si Si5 0.031920 0.412662 0.405699
Si Si6 0.038336 0.257522 0.285731
Si Si7 0.088164 0.522301 0.827945
Si Si8 0.076421 0.130243 0.591110
O O1 0.345256 0.799647 0.798805
O O2 0.711521 0.297829 0.632919
O O3 0.175995 0.752216 0.942079
O O4 0.500000 0.000000 0.000000
O O5 0.209813 0.389521 0.096448
O O6 0.062916 0.077417 0.167944
O O7 0.412529 0.529171 0.772192
O O8 0.972003 0.138333 0.937261
O O9 0.702634 0.464588 0.435578
O O10 0.639992 0.557808 0.488300
O O11 0.241894 0.043330 0.646642
O O12 0.876689 0.185967 0.648699
O O13 0.079551 0.419468 0.804989
O O14 0.094040 0.414600 0.264286
O O15 0.924807 0.397791 0.334731
O O16 0.015195 0.168354 0.496649
O O17 0.000000 0.000000 0.500000
#
# Coordination Sequence:
#
# PCOD9019130 Si02
#       8
#     2   2   2   2   2   2   2   2
#     4   9  22  40  64  93 126 170 226 270 323 387
#     4   9  23  40  68  94 129 171 211 274 322 390
#     4  10  23  42  64  95 131 168 216 265 330 386
#     4  10  23  42  59  97 132 170 223 270 318 394
#     4  11  23  41  64  95 130 175 220 274 318 390
#     4  11  23  43  68  94 132 172 218 268 332 383
#     4  10  22  40  65  92 131 177 215 271 330 379
#     4  10  21  44  68  97 132 165 217 272 327 397
#
# _framework density 24.767423000000001
#
# number of rings (size 3 to 8) (size 9 to 14) (size 15 to 20)
#    0.750    1.250    1.250    0.750    7.000    3.000 
#    6.750    3.750    0.000    0.000    0.000    0.000 
#    0.000    0.000    0.000    0.000    0.000    0.000 
#
# Total GULP energy -89072.028229 kJ/mol
# GULP energy per Si atom -5567.001764 kJ/mol
# Density = 2.471105 g / cm^3
# Si number density = 24.767423 Si / 1000 Ang^3
#
#
#
# Elastic Constant Matrix: (Units=GPa)
#
#
# Indices 1 2 3 4 5 6 
#
# 1 95.0228 26.9312 21.7555 4.1170 21.2354 -16.6236
# 2 26.9312 118.4483 9.6930 -0.3096 -21.5511 -22.3865
# 3 21.7555 9.6930 90.3361 11.3809 32.1896 10.6537
# 4 4.1170 -0.3096 11.3809 23.0101 8.0033 2.6541
# 5 21.2354 -21.5511 32.1896 8.0033 53.0311 10.0548
# 6 -16.6236 -22.3865 10.6537 2.6541 10.0548 33.9166
#
#
#
# Elastic Compliance Matrix: (Units=1/GPa)
#
#
# Indices 1 2 3 4 5 6 
#
# 1 0.014927 -0.003227 -0.001325 -0.000209 -0.007966 0.007980
# 2 -0.003227 0.011813 -0.003673 -0.000633 0.007429 0.005216
# 3 -0.001325 -0.003673 0.016171 -0.004021 -0.009202 -0.005111
# 4 -0.000209 -0.000633 -0.004021 0.047247 -0.004560 -0.001602
# 5 -0.007966 0.007429 -0.009202 -0.004560 0.032353 -0.005345
# 6 0.007980 0.005216 -0.005111 -0.001602 -0.005345 0.040154
#
#
# Mechanical properties :
#
#
# Convention : Reuss Voigt Hill
#
# Bulk Modulus (GPa) = 37.79116 46.72961 42.26039
# Shear Modulus (GPa) = 26.60496 38.35341 32.47918
#
# Velocity S-wave (km/s) = 3.28104 3.93942 3.62521
# Velocity P-wave (km/s) = 5.44474 6.29288 5.88411
#
# Compressibility (1/GPa) = 0.02646121
#
# Stress axis : x y z
#
# Youngs Moduli (GPa) = 66.99182 84.65542 61.83849
#
# Poissons Ratio (x) = 0.27320 0.08193
# Poissons Ratio (y) = 0.21620 0.22712
# Poissons Ratio (z) = 0.08875 0.31092
#
# Static dielectric constant tensor:
#      x y z
#    x 2.029800 0.007570 0.034860 
#    y 0.007570 2.007690 0.031690 
#    z 0.034860 0.031690 2.126650 
# 
# From -- ./inp_files/348470.got.cif
#   From: 2010.05.17/outbox.cif.g08.bks.cpg/sg2_175_cif.got.tgz:348470.got - 2010.06.03 11:33:40.
