data_PCOD9019791
_publ_section_title
;
Structure prediction by ZEFSAII (Michael W. Deem and Ramdas Pophale) SiO2 
 PCOD9019791
Probable space group: P -1
;
_chemical_formula_sum "Si O2"
_cell_formula_units_Z 16
_cell_length_a 13.466351
_cell_length_b 16.476275
_cell_length_c 6.953608
_cell_angle_alpha 135.196522
_cell_angle_beta 43.336022
_cell_angle_gamma 137.946967
_cell_volume 659.260435
_symmetry_space_group_name_H-M "P -1"
_symmetry_group_IT_number 2
_symmetry_cell_setting 'triclinic'
loop_
_space_group_symop_operation_xyz
x,y,z
-x,-y,-z
loop_
_atom_site_type_symbol
_atom_site_label
_atom_site_fract_x
_atom_site_fract_y
_atom_site_fract_z
Si Si1 0.652599 0.014986 0.632413
Si Si2 0.382747 0.342290 0.404073
Si Si3 0.773695 0.619678 0.645554
Si Si4 0.175799 0.608231 0.871703
Si Si5 0.595496 0.204426 0.803298
Si Si6 0.228554 0.821163 0.868567
Si Si7 0.962936 0.147248 0.136453
Si Si8 0.317101 0.222143 0.716057
O O1 0.543176 0.066441 0.753099
O O2 0.812155 0.064799 0.351397
O O3 0.593479 0.863491 0.507696
O O4 0.694316 0.083814 0.897039
O O5 0.500000 0.500000 0.500000
O O6 0.225772 0.327502 0.480350
O O7 0.340167 0.281542 0.572761
O O8 0.464303 0.257252 0.056592
O O9 0.727513 0.470242 0.460009
O O10 0.944702 0.705729 0.658342
O O11 0.647421 0.657346 0.992444
O O12 0.151880 0.684950 0.859126
O O13 0.272336 0.697558 0.065420
O O14 0.000000 0.500000 0.000000
O O15 0.672802 0.198141 0.481823
O O16 0.105124 0.857333 0.987722
O O17 0.121771 0.124750 0.861532
#
# Coordination Sequence:
#
# PCOD9019791 Si02
#       8
#     2   2   2   2   2   2   2   2
#     4  10  21  45  68  98 132 159 216 270 324 387
#     4  12  26  45  64  90 134 175 223 260 308 386
#     4  10  24  40  61  96 131 167 217 260 320 378
#     4  11  22  37  65  94 132 164 215 269 321 389
#     4  10  24  42  64  94 124 172 215 267 313 378
#     4  10  22  38  67  92 130 171 204 264 337 365
#     4   9  22  40  65 102 127 161 211 267 329 385
#     4  10  26  41  67  98 128 175 211 262 330 377
#
# _framework density 24.269618999999999
#
# number of rings (size 3 to 8) (size 9 to 14) (size 15 to 20)
#    0.750    1.000    1.250    2.625    5.250    7.500 
#    0.000    1.250    0.000    0.000    0.000    0.000 
#    0.000    0.000    0.000    0.000    0.000    0.000 
#
# Total GULP energy -89366.268234 kJ/mol
# GULP energy per Si atom -5585.391765 kJ/mol
# Density = 2.421438 g / cm^3
# Si number density = 24.269619 Si / 1000 Ang^3
#
#
#
# Elastic Constant Matrix: (Units=GPa)
#
#
# Indices 1 2 3 4 5 6 
#
# 1 85.6015 6.1593 32.9137 2.3779 16.5828 -13.5913
# 2 6.1593 112.4805 60.0807 0.4644 11.6119 -21.0889
# 3 32.9137 60.0807 105.9986 5.5510 12.7800 -22.8517
# 4 2.3779 0.4644 5.5510 49.2324 -8.1810 -2.8223
# 5 16.5828 11.6119 12.7800 -8.1810 45.9293 3.7228
# 6 -13.5913 -21.0889 -22.8517 -2.8223 3.7228 29.8241
#
#
#
# Elastic Compliance Matrix: (Units=1/GPa)
#
#
# Indices 1 2 3 4 5 6 
#
# 1 0.015390 0.003433 -0.004552 -0.000855 -0.005845 0.006602
# 2 0.003433 0.014152 -0.007341 0.000358 -0.003229 0.006384
# 3 -0.004552 -0.007341 0.016480 -0.001557 -0.001805 0.005440
# 4 -0.000855 0.000358 -0.001557 0.021269 0.004430 0.000130
# 5 -0.005845 -0.003229 -0.001805 0.004430 0.026740 -0.009248
# 6 0.006602 0.006384 0.005440 0.000130 -0.009248 0.046388
#
#
# Mechanical properties :
#
#
# Convention : Reuss Voigt Hill
#
# Bulk Modulus (GPa) = 34.36012 55.82089 45.09050
# Shear Modulus (GPa) = 29.93319 38.65896 34.29607
#
# Velocity S-wave (km/s) = 3.51573 3.99544 3.76324
# Velocity P-wave (km/s) = 5.53795 6.65845 6.12388
#
# Compressibility (1/GPa) = 0.02910351
#
# Stress axis : x y z
#
# Youngs Moduli (GPa) = 64.97920 70.66007 60.67857
#
# Poissons Ratio (x) = -0.24260 0.27620
# Poissons Ratio (y) = -0.22310 0.44543
# Poissons Ratio (z) = 0.29577 0.51871
#
# Static dielectric constant tensor:
#      x y z
#    x 1.992730 0.044980 -0.077980 
#    y 0.044980 1.908460 0.009980 
#    z -0.077980 0.009980 2.019790 
# 
# From -- ./inp_files/98550.got.cif
#   From: 2010.05.17/outbox.cif.g08.bks.cpg/sg2_50_cif.got.tgz:98550.got - 2010.06.03 11:33:40.
