data_PCOD9019483
_publ_section_title
;
Structure prediction by ZEFSAII (Michael W. Deem and Ramdas Pophale) SiO2 
 PCOD9019483
Probable space group: P -1
;
_chemical_formula_sum "Si O2"
_cell_formula_units_Z 16
_cell_length_a 18.236904
_cell_length_b 8.788344
_cell_length_c 8.867480
_cell_angle_alpha 61.391960
_cell_angle_beta 35.000007
_cell_angle_gamma 76.290468
_cell_volume 680.803523
_symmetry_space_group_name_H-M "P -1"
_symmetry_group_IT_number 2
_symmetry_cell_setting 'triclinic'
loop_
_space_group_symop_operation_xyz
x,y,z
-x,-y,-z
loop_
_atom_site_type_symbol
_atom_site_label
_atom_site_fract_x
_atom_site_fract_y
_atom_site_fract_z
Si Si1 0.523814 0.206327 0.319708
Si Si2 0.340613 0.216751 0.363044
Si Si3 0.309641 0.226860 0.902778
Si Si4 0.909305 0.307086 0.180982
Si Si5 0.287726 0.453122 0.111036
Si Si6 0.985107 0.316690 0.707058
Si Si7 0.105394 0.092466 0.055735
Si Si8 0.347870 0.959427 0.220025
O O1 0.469723 0.208217 0.242217
O O2 0.429936 0.280308 0.554421
O O3 0.500000 0.000000 0.500000
O O4 0.674452 0.331496 0.037539
O O5 0.379578 0.391649 0.106511
O O6 0.289103 0.049289 0.414269
O O7 0.223261 0.197027 0.690964
O O8 0.306718 0.388911 0.942156
O O9 0.170227 0.150230 0.083342
O O10 0.337160 0.072248 0.035944
O O11 0.753700 0.243661 0.524732
O O12 0.978335 0.159718 0.198908
O O13 0.915394 0.317395 0.984472
O O14 0.000000 0.500000 0.000000
O O15 0.140569 0.339633 0.465424
O O16 0.000000 0.500000 0.500000
O O17 0.924552 0.123337 0.818008
O O18 0.500000 0.000000 0.000000
#
# Coordination Sequence:
#
# PCOD9019483 Si02
#       8
#     2   2   2   2   2   2   2   2
#     4  11  24  41  69 103 143 185 237 298 359 429
#     4  10  21  44  72  96 132 196 231 289 351 438
#     4  10  25  43  73 104 141 196 237 302 357 429
#     4  12  28  48  75 111 147 190 245 305 369 437
#     4  11  24  44  67 100 141 187 245 284 361 432
#     4  12  28  44  75 106 142 189 239 304 361 440
#     4  11  23  50  75 102 150 191 243 292 375 426
#     4  11  24  45  72 103 147 188 241 296 366 432
#
# _framework density 23.501642
#
# number of rings (size 3 to 8) (size 9 to 14) (size 15 to 20)
#    0.000    1.000    2.500    3.375    7.000    3.000 
#    9.000    0.000    0.000    0.000    0.000    0.000 
#    0.000    0.000    0.000    0.000    0.000    0.000 
#
# Total GULP energy -89512.978987 kJ/mol
# GULP energy per Si atom -5594.561187 kJ/mol
# Density = 2.344815 g / cm^3
# Si number density = 23.501642 Si / 1000 Ang^3
#
#
#
# Elastic Constant Matrix: (Units=GPa)
#
#
# Indices 1 2 3 4 5 6 
#
# 1 163.1495 41.1405 40.9851 -17.7065 10.5870 5.9387
# 2 41.1405 75.0924 27.5013 -36.0375 1.9518 7.1696
# 3 40.9851 27.5013 89.8567 -15.1726 -12.9872 13.3723
# 4 -17.7065 -36.0375 -15.1726 41.4728 5.3446 -10.9368
# 5 10.5870 1.9518 -12.9872 5.3446 40.1359 -0.2763
# 6 5.9387 7.1696 13.3723 -10.9368 -0.2763 31.4233
#
#
#
# Elastic Compliance Matrix: (Units=1/GPa)
#
#
# Indices 1 2 3 4 5 6 
#
# 1 0.007881 -0.003139 -0.003137 0.000011 -0.002939 0.000540
# 2 -0.003139 0.027067 -0.004389 0.022249 -0.004844 0.003987
# 3 -0.003137 -0.004389 0.015313 -0.001798 0.006198 -0.005494
# 4 0.000011 0.022249 -0.001798 0.046957 -0.007837 0.011961
# 5 -0.002939 -0.004844 0.006198 -0.007837 0.028952 -0.003450
# 6 0.000540 0.003987 -0.005494 0.011961 -0.003450 0.037282
#
#
# Mechanical properties :
#
#
# Convention : Reuss Voigt Hill
#
# Bulk Modulus (GPa) = 34.56540 60.81695 47.69118
# Shear Modulus (GPa) = 25.71686 37.17117 31.44401
#
# Velocity S-wave (km/s) = 3.31155 3.98130 3.66177
# Velocity P-wave (km/s) = 5.41861 6.86063 6.18181
#
# Compressibility (1/GPa) = 0.02893067
#
# Stress axis : x y z
#
# Youngs Moduli (GPa) = 126.88334 36.94550 65.30529
#
# Poissons Ratio (x) = 0.11597 0.20489
# Poissons Ratio (y) = 0.39827 0.28661
# Poissons Ratio (z) = 0.39809 0.16215
#
# Static dielectric constant tensor:
#      x y z
#    x 1.946410 -0.041880 -0.023310 
#    y -0.041880 1.916010 0.011520 
#    z -0.023310 0.011520 1.948430 
# 
# From -- ./inp_files/328541.got.cif
#   From: 2010.05.17/outbox.cif.g08.bks.cpg/sg2_165_cif.got.tgz:328541.got - 2010.06.03 11:33:40.
