data_PCOD9019613
_publ_section_title
;
Structure prediction by ZEFSAII (Michael W. Deem and Ramdas Pophale) SiO2 
 PCOD9019613
Probable space group: P -1
;
_chemical_formula_sum "Si O2"
_cell_formula_units_Z 13
_cell_length_a 7.945882
_cell_length_b 12.942480
_cell_length_c 10.852327
_cell_angle_alpha 34.615651
_cell_angle_beta 65.975855
_cell_angle_gamma 48.716329
_cell_volume 451.637165
_symmetry_space_group_name_H-M "P -1"
_symmetry_group_IT_number 2
_symmetry_cell_setting 'triclinic'
loop_
_space_group_symop_operation_xyz
x,y,z
-x,-y,-z
loop_
_atom_site_type_symbol
_atom_site_label
_atom_site_fract_x
_atom_site_fract_y
_atom_site_fract_z
Si Si1 0.153796 0.917237 0.245164
Si Si2 0.112142 0.116808 0.306873
Si Si3 0.955640 0.693174 0.446938
Si Si4 0.500000 0.000000 0.500000
Si Si5 0.536251 0.113423 0.992198
Si Si6 0.630155 0.591505 0.026889
Si Si7 0.766354 0.438675 0.749279
O O1 0.234020 0.980698 0.276661
O O2 0.048422 0.783474 0.426988
O O3 0.353627 0.782518 0.214325
O O4 0.952105 0.168517 0.997686
O O5 0.300915 0.072628 0.388107
O O6 0.882601 0.384350 0.100598
O O7 0.000000 0.000000 0.500000
O O8 0.739272 0.910656 0.220124
O O9 0.842418 0.583215 0.648525
O O10 0.165336 0.543547 0.429746
O O11 0.485537 0.799348 0.767252
O O12 0.342986 0.309729 0.950241
O O13 0.500000 0.000000 0.000000
O O14 0.479644 0.503207 0.198445
#
# Coordination Sequence:
#
# PCOD9019613 Si02
#       7
#     2   2   2   1   2   2   2
#     4  11  22  50  79 119 171 219 284 356 428 520
#     4  12  31  57  84 125 173 231 291 351 437 526
#     4  10  21  44  80 123 171 223 271 361 443 502
#     4  12  30  58  88 118 180 232 282 356 436 526
#     4  11  23  45  79 119 164 217 290 359 426 512
#     4  12  26  54  86 126 169 228 293 357 430 520
#     4  10  21  44  83 123 168 220 286 353 429 513
#
# _framework density 28.784168999999999
#
# number of rings (size 3 to 8) (size 9 to 14) (size 15 to 20)
#    0.000    0.923    3.077    3.231    0.000    6.154 
#   11.077    1.538    0.000    2.769    0.000    0.000 
#    0.000    0.000    0.000    0.000    0.000    0.000 
#
# Total GULP energy -72700.577872 kJ/mol
# GULP energy per Si atom -5592.352144 kJ/mol
# Density = 2.871865 g / cm^3
# Si number density = 28.784169 Si / 1000 Ang^3
#
#
#
# Elastic Constant Matrix: (Units=GPa)
#
#
# Indices 1 2 3 4 5 6 
#
# 1 160.4309 47.4715 72.7486 2.8756 -18.9972 17.1634
# 2 47.4715 123.5528 71.7745 35.9744 0.0034 -1.8574
# 3 72.7486 71.7745 167.6708 -4.2068 -24.1271 -4.5604
# 4 2.8756 35.9744 -4.2068 40.0684 -0.9088 -13.6577
# 5 -18.9972 0.0034 -24.1271 -0.9088 68.5790 -12.2574
# 6 17.1634 -1.8574 -4.5604 -13.6577 -12.2574 47.4504
#
#
#
# Elastic Compliance Matrix: (Units=1/GPa)
#
#
# Indices 1 2 3 4 5 6 
#
# 1 0.008517 -0.001038 -0.003307 -0.001265 0.000524 -0.003668
# 2 -0.001038 0.020566 -0.009891 -0.022119 -0.005408 -0.007534
# 3 -0.003307 -0.009891 0.012880 0.013004 0.005056 0.007096
# 4 -0.001265 -0.022119 0.013004 0.052626 0.008157 0.018096
# 5 0.000524 -0.005408 0.005056 0.008157 0.017874 0.007050
# 6 -0.003668 -0.007534 0.007096 0.018096 0.007050 0.029818
#
#
# Mechanical properties :
#
#
# Convention : Reuss Voigt Hill
#
# Bulk Modulus (GPa) = 74.12982 92.84931 83.48957
# Shear Modulus (GPa) = 28.53060 48.53020 38.53040
#
# Velocity S-wave (km/s) = 3.15173 4.11055 3.66265
# Velocity P-wave (km/s) = 6.24933 7.40648 6.85238
#
# Compressibility (1/GPa) = 0.01348985
#
# Stress axis : x y z
#
# Youngs Moduli (GPa) = 117.41016 48.62438 77.64013
#
# Poissons Ratio (x) = 0.05048 0.25677
# Poissons Ratio (y) = 0.12189 0.76796
# Poissons Ratio (z) = 0.38830 0.48095
#
# Static dielectric constant tensor:
#      x y z
#    x 2.199810 -0.024010 -0.081600 
#    y -0.024010 2.564870 -0.056970 
#    z -0.081600 -0.056970 2.298550 
# 
# From -- ./inp_files/300064.got.cif
#   From: 2010.05.17/outbox.cif.g08.bks.cpg/sg2_151_cif.got.tgz:300064.got - 2010.06.03 11:33:40.
