data_PCOD9019360
_publ_section_title
;
Structure prediction by ZEFSAII (Michael W. Deem and Ramdas Pophale) SiO2 
 PCOD9019360
Probable space group: P -1
;
_chemical_formula_sum "Si O2"
_cell_formula_units_Z 15
_cell_length_a 13.389467
_cell_length_b 9.577594
_cell_length_c 18.232243
_cell_angle_alpha 27.515467
_cell_angle_beta 37.954560
_cell_angle_gamma 45.864604
_cell_volume 664.305540
_symmetry_space_group_name_H-M "P -1"
_symmetry_group_IT_number 2
_symmetry_cell_setting 'triclinic'
loop_
_space_group_symop_operation_xyz
x,y,z
-x,-y,-z
loop_
_atom_site_type_symbol
_atom_site_label
_atom_site_fract_x
_atom_site_fract_y
_atom_site_fract_z
Si Si1 0.354799 0.089317 0.790910
Si Si2 0.816106 0.522625 0.013800
Si Si3 0.370263 0.608486 0.420195
Si Si4 0.052469 0.958940 0.405277
Si Si5 0.777281 0.559154 0.684371
Si Si6 0.500000 0.500000 0.000000
Si Si7 0.900549 0.894448 0.939519
Si Si8 0.474404 0.347304 0.334532
O O1 0.347827 0.321650 0.619966
O O2 0.527361 0.141846 0.709629
O O3 0.370290 0.741118 0.924120
O O4 0.212759 0.161595 0.897281
O O5 0.845953 0.696302 0.993207
O O6 0.886560 0.736094 0.810311
O O7 0.625440 0.471323 0.143157
O O8 0.917177 0.213132 0.100145
O O9 0.203040 0.734425 0.428528
O O10 0.473123 0.520671 0.331239
O O11 0.902758 0.822359 0.510266
O O12 0.000000 0.000000 0.500000
O O13 0.633048 0.543782 0.834999
O O14 0.691101 0.609294 0.633577
O O15 0.873845 0.244813 0.774352
O O16 0.500000 0.000000 0.500000
#
# Coordination Sequence:
#
# PCOD9019360 Si02
#       8
#     2   2   2   2   2   1   2   2
#     4  10  21  44  71 103 140 187 233 295 353 418
#     4  11  26  45  74 104 147 190 237 296 353 430
#     4  11  24  43  71 101 144 187 237 289 353 429
#     4  12  28  47  74 105 142 189 244 295 363 421
#     4  11  27  46  73 103 145 188 237 300 355 427
#     4  10  22  44  70 100 140 184 234 294 350 418
#     4  10  23  45  73 103 145 184 240 292 360 414
#     4  12  28  45  73 109 145 190 242 292 363 424
#
# _framework density 22.579971
#
# number of rings (size 3 to 8) (size 9 to 14) (size 15 to 20)
#    0.000    1.067    1.333    3.200   11.200    4.267 
#    0.000    2.000    0.000    0.000    0.000    0.000 
#    0.000    0.000    0.000    0.000    0.000    0.000 
#
# Total GULP energy -83740.627995 kJ/mol
# GULP energy per Si atom -5582.708533 kJ/mol
# Density = 2.252858 g / cm^3
# Si number density = 22.579971 Si / 1000 Ang^3
#
#
#
# Elastic Constant Matrix: (Units=GPa)
#
#
# Indices 1 2 3 4 5 6 
#
# 1 106.1890 21.1101 38.3201 -0.9145 5.8542 -5.0790
# 2 21.1101 122.1550 25.1210 11.9951 11.2816 -1.5435
# 3 38.3201 25.1210 81.5135 12.6708 12.1220 -0.4608
# 4 -0.9145 11.9951 12.6708 15.3653 1.9645 4.8958
# 5 5.8542 11.2816 12.1220 1.9645 31.5047 1.9035
# 6 -5.0790 -1.5435 -0.4608 4.8958 1.9035 29.9298
#
#
#
# Elastic Compliance Matrix: (Units=1/GPa)
#
#
# Indices 1 2 3 4 5 6 
#
# 1 0.012067 -0.001468 -0.006308 0.006797 0.000242 0.000748
# 2 -0.001468 0.009544 -0.000770 -0.007076 -0.002501 0.001548
# 3 -0.006308 -0.000770 0.018548 -0.015068 -0.004867 0.001950
# 4 0.006797 -0.007076 -0.015068 0.087559 0.002450 -0.013922
# 5 0.000242 -0.002501 -0.004867 0.002450 0.034478 -0.002756
# 6 0.000748 0.001548 0.001950 -0.013922 -0.002756 0.036101
#
#
# Mechanical properties :
#
#
# Convention : Reuss Voigt Hill
#
# Bulk Modulus (GPa) = 43.35750 53.21778 48.28764
# Shear Modulus (GPa) = 22.41362 30.38039 26.39700
#
# Velocity S-wave (km/s) = 3.15403 3.67203 3.42284
# Velocity P-wave (km/s) = 5.70151 6.44966 6.08709
#
# Compressibility (1/GPa) = 0.02306406
#
# Stress axis : x y z
#
# Youngs Moduli (GPa) = 82.87382 104.77961 53.91402
#
# Poissons Ratio (x) = 0.15385 0.34011
# Poissons Ratio (y) = 0.12169 0.04154
# Poissons Ratio (z) = 0.52280 0.08072
#
# Static dielectric constant tensor:
#      x y z
#    x 1.915880 0.189190 -0.010410 
#    y 0.189190 1.669680 -0.093350 
#    z -0.010410 -0.093350 1.824390 
# 
# From -- ./inp_files/329504.got.cif
#   From: 2010.05.17/outbox.cif.g08.bks.cpg/sg2_165_cif.got.tgz:329504.got - 2010.06.03 11:33:40.
