data_PCOD9019531
_publ_section_title
;
Structure prediction by ZEFSAII (Michael W. Deem and Ramdas Pophale) SiO2 
 PCOD9019531
Probable space group: P -1
;
_chemical_formula_sum "Si O2"
_cell_formula_units_Z 12
_cell_length_a 7.180784
_cell_length_b 9.457850
_cell_length_c 11.591722
_cell_angle_alpha 123.777667
_cell_angle_beta 123.755197
_cell_angle_gamma 52.854175
_cell_volume 492.019887
_symmetry_space_group_name_H-M "P -1"
_symmetry_group_IT_number 2
_symmetry_cell_setting 'triclinic'
loop_
_space_group_symop_operation_xyz
x,y,z
-x,-y,-z
loop_
_atom_site_type_symbol
_atom_site_label
_atom_site_fract_x
_atom_site_fract_y
_atom_site_fract_z
Si Si1 0.484656 0.789571 0.340048
Si Si2 0.191912 0.295474 0.928238
Si Si3 0.960719 0.126989 0.930919
Si Si4 0.238636 0.534845 0.568898
Si Si5 0.658636 0.378062 0.123894
Si Si6 0.946065 0.819599 0.415237
O O1 0.216709 0.901895 0.240384
O O2 0.534744 0.673566 0.426712
O O3 0.571137 0.600018 0.205946
O O4 0.688938 0.869763 0.423158
O O5 0.099350 0.249312 0.755313
O O6 0.183179 0.143372 0.947731
O O7 0.454529 0.299441 0.007868
O O8 0.000000 0.500000 0.000000
O O9 0.830440 0.320986 0.046277
O O10 0.000000 0.000000 0.000000
O O11 0.240956 0.675123 0.735032
O O12 0.000000 0.500000 0.500000
O O13 0.170183 0.648399 0.478759
O O14 0.000000 0.000000 0.500000
#
# Coordination Sequence:
#
# PCOD9019531 Si02
#       6
#     2   2   2   2   2   2
#     4   9  19  43  66  92 132 185 218 278 336 406
#     4  12  24  42  75 102 129 183 242 273 331 425
#     4  12  25  39  66 106 135 173 230 292 340 394
#     4   8  19  37  71  90 124 194 215 262 353 408
#     4  10  21  44  73  91 139 176 238 277 336 401
#     4  11  23  40  68 104 144 176 220 289 359 393
#
# _framework density 24.389258000000002
#
# number of rings (size 3 to 8) (size 9 to 14) (size 15 to 20)
#    1.000    0.667    3.333    1.500    2.333    2.000 
#    0.000    4.167    3.667    0.000    0.000    0.000 
#    0.000    0.000    0.000    0.000    0.000    0.000 
#
# Total GULP energy -66900.523939 kJ/mol
# GULP energy per Si atom -5575.043662 kJ/mol
# Density = 2.433375 g / cm^3
# Si number density = 24.389258 Si / 1000 Ang^3
#
#
#
# Elastic Constant Matrix: (Units=GPa)
#
#
# Indices 1 2 3 4 5 6 
#
# 1 130.8655 47.8882 51.8697 -16.2649 3.2836 45.2945
# 2 47.8882 116.9768 26.3009 -27.0636 20.4584 36.9647
# 3 51.8697 26.3009 156.4061 -19.5898 22.3446 24.7141
# 4 -16.2649 -27.0636 -19.5898 37.4669 7.8194 -4.6131
# 5 3.2836 20.4584 22.3446 7.8194 34.0093 4.1604
# 6 45.2945 36.9647 24.7141 -4.6131 4.1604 43.7494
#
#
#
# Elastic Compliance Matrix: (Units=1/GPa)
#
#
# Indices 1 2 3 4 5 6 
#
# 1 0.013078 -0.001275 -0.002460 0.001667 0.002095 -0.011097
# 2 -0.001275 0.019438 0.003840 0.017194 -0.016345 -0.013905
# 3 -0.002460 0.003840 0.009693 0.008284 -0.009811 -0.004367
# 4 0.001667 0.017194 0.008284 0.047780 -0.025282 -0.013491
# 5 0.002095 -0.016345 -0.009811 -0.025282 0.050100 0.009754
# 6 -0.011097 -0.013905 -0.004367 -0.013491 0.009754 0.046212
#
#
# Mechanical properties :
#
#
# Convention : Reuss Voigt Hill
#
# Bulk Modulus (GPa) = 23.57403 72.92956 48.25180
# Shear Modulus (GPa) = 24.97114 41.59111 33.28112
#
# Velocity S-wave (km/s) = 3.20325 4.13401 3.69803
# Velocity P-wave (km/s) = 4.83403 7.26319 6.16935
#
# Compressibility (1/GPa) = 0.04241956
#
# Stress axis : x y z
#
# Youngs Moduli (GPa) = 76.46203 51.44539 103.16814
#
# Poissons Ratio (x) = 0.06560 0.25378
# Poissons Ratio (y) = 0.09750 -0.39618
# Poissons Ratio (z) = 0.18809 -0.19756
#
# Static dielectric constant tensor:
#      x y z
#    x 1.952820 -0.144070 -0.065960 
#    y -0.144070 2.341460 -0.148130 
#    z -0.065960 -0.148130 1.930550 
# 
# From -- ./inp_files/383336.got.cif
#   From: 2010.05.17/outbox.cif.g08.bks.cpg/sg2_192_cif.got.tgz:383336.got - 2010.06.03 11:33:40.
