data_PCOD9019874
_publ_section_title
;
Structure prediction by ZEFSAII (Michael W. Deem and Ramdas Pophale) SiO2 
 PCOD9019874
Probable space group: P -1
;
_chemical_formula_sum "Si O2"
_cell_formula_units_Z 14
_cell_length_a 5.069586
_cell_length_b 8.796167
_cell_length_c 14.925501
_cell_angle_alpha 97.087161
_cell_angle_beta 123.176178
_cell_angle_gamma 100.169243
_cell_volume 528.415555
_symmetry_space_group_name_H-M "P -1"
_symmetry_group_IT_number 2
_symmetry_cell_setting 'triclinic'
loop_
_space_group_symop_operation_xyz
x,y,z
-x,-y,-z
loop_
_atom_site_type_symbol
_atom_site_label
_atom_site_fract_x
_atom_site_fract_y
_atom_site_fract_z
Si Si1 0.112002 0.158855 0.240376
Si Si2 0.764943 0.850852 0.500296
Si Si3 0.308265 0.432086 0.807348
Si Si4 0.862356 0.116590 0.685498
Si Si5 0.815326 0.319956 0.339004
Si Si6 0.321000 0.823152 0.988777
Si Si7 0.871393 0.649922 0.036430
O O1 0.482426 0.271440 0.330532
O O2 0.839098 0.186009 0.260226
O O3 0.013791 0.218646 0.132998
O O4 0.107298 0.973599 0.223826
O O5 0.420589 0.801967 0.381629
O O6 0.904197 0.703351 0.541585
O O7 0.747513 0.952565 0.593995
O O8 0.000000 0.000000 0.500000
O O9 0.191082 0.533369 0.715993
O O10 0.097408 0.408787 0.860162
O O11 0.202409 0.249425 0.738025
O O12 0.683200 0.511003 0.918776
O O13 0.570158 0.726752 0.000033
O O14 0.181265 0.778383 0.058608
O O15 0.500000 0.000000 0.000000
#
# Coordination Sequence:
#
# PCOD9019874 Si02
#       7
#     2   2   2   2   2   2   2
#     4  11  21  42  64  98 131 180 229 281 335 406
#     4  10  21  45  70  99 133 179 232 300 340 411
#     4  11  24  46  66 105 141 191 224 284 356 416
#     4  10  23  42  71  98 138 178 235 284 355 414
#     4  11  23  42  70  92 138 176 225 286 345 406
#     4  12  23  43  69 100 135 188 241 283 333 407
#     4  11  26  44  67  99 152 183 226 289 340 408
#
# _framework density 26.494297
#
# number of rings (size 3 to 8) (size 9 to 14) (size 15 to 20)
#    0.000    1.143    4.286    1.286    0.000    5.143 
#    7.714    0.714    0.000    0.000    0.000    0.000 
#    0.000    0.000    0.000    0.000    0.000    0.000 
#
# Total GULP energy -78105.192838 kJ/mol
# GULP energy per Si atom -5578.942346 kJ/mol
# Density = 2.643400 g / cm^3
# Si number density = 26.494297 Si / 1000 Ang^3
#
#
#
# Elastic Constant Matrix: (Units=GPa)
#
#
# Indices 1 2 3 4 5 6 
#
# 1 83.9468 27.0169 11.6202 -5.5125 -4.2329 31.5165
# 2 27.0169 157.0466 40.8417 -39.5074 6.9209 30.5148
# 3 11.6202 40.8417 111.9362 -28.1146 29.7786 0.4114
# 4 -5.5125 -39.5074 -28.1146 55.8463 -0.4528 -1.0660
# 5 -4.2329 6.9209 29.7786 -0.4528 38.8051 -7.0497
# 6 31.5165 30.5148 0.4114 -1.0660 -7.0497 40.3046
#
#
#
# Elastic Compliance Matrix: (Units=1/GPa)
#
#
# Indices 1 2 3 4 5 6 
#
# 1 0.017245 0.000294 -0.001892 0.000707 0.000832 -0.013524
# 2 0.000294 0.009853 -0.001585 0.006037 -0.001863 -0.007840
# 3 -0.001892 -0.001585 0.013862 0.005604 -0.010337 0.000878
# 4 0.000707 0.006037 0.005604 0.024912 -0.006022 -0.005575
# 5 0.000832 -0.001863 -0.010337 -0.006022 0.035305 0.006881
# 6 -0.013524 -0.007840 0.000878 -0.005575 0.006881 0.042370
#
#
# Mechanical properties :
#
#
# Convention : Reuss Voigt Hill
#
# Bulk Modulus (GPa) = 28.90497 56.87633 42.89065
# Shear Modulus (GPa) = 30.97032 45.22125 38.09579
#
# Velocity S-wave (km/s) = 3.42269 4.13586 3.79606
# Velocity P-wave (km/s) = 5.15299 6.65741 5.95292
#
# Compressibility (1/GPa) = 0.03459613
#
# Stress axis : x y z
#
# Youngs Moduli (GPa) = 57.98661 101.48990 72.13716
#
# Poissons Ratio (x) = -0.02986 0.13645
# Poissons Ratio (y) = -0.01706 0.11434
# Poissons Ratio (z) = 0.10969 0.16087
#
# Static dielectric constant tensor:
#      x y z
#    x 2.100110 -0.042620 -0.076050 
#    y -0.042620 2.178930 -0.048650 
#    z -0.076050 -0.048650 2.402150 
# 
# From -- ./inp_files/45864.got.cif
#   From: 2010.05.17/outbox.cif.g08.bks.cpg/sg2_23_cif.got.tgz:45864.got - 2010.06.03 11:33:40.
