data_PCOD9019729
_publ_section_title
;
Structure prediction by ZEFSAII (Michael W. Deem and Ramdas Pophale) SiO2 
 PCOD9019729
Probable space group: P -1
;
_chemical_formula_sum "Si O2"
_cell_formula_units_Z 16
_cell_length_a 12.431511
_cell_length_b 9.736785
_cell_length_c 12.755753
_cell_angle_alpha 99.136570
_cell_angle_beta 142.771444
_cell_angle_gamma 107.036747
_cell_volume 656.662432
_symmetry_space_group_name_H-M "P -1"
_symmetry_group_IT_number 2
_symmetry_cell_setting 'triclinic'
loop_
_space_group_symop_operation_xyz
x,y,z
-x,-y,-z
loop_
_atom_site_type_symbol
_atom_site_label
_atom_site_fract_x
_atom_site_fract_y
_atom_site_fract_z
Si Si1 0.295910 0.116354 0.029793
Si Si2 0.223003 0.526218 0.641195
Si Si3 0.811943 0.239919 0.014758
Si Si4 0.859992 0.827211 0.527031
Si Si5 0.598788 0.895055 0.487220
Si Si6 0.332790 0.545825 0.357707
Si Si7 0.403195 0.630584 0.020266
Si Si8 0.117504 0.318842 0.950632
O O1 0.229528 0.226375 0.043058
O O2 0.205636 0.932833 0.998751
O O3 0.587207 0.277935 0.254651
O O4 0.143317 0.027277 0.790445
O O5 0.155490 0.347420 0.508231
O O6 0.354875 0.556614 0.856490
O O7 0.000000 0.500000 0.500000
O O8 0.701128 0.271278 0.027437
O O9 0.099893 0.434967 0.240876
O O10 0.629380 0.175330 0.768191
O O11 0.718021 0.825668 0.512433
O O12 0.694012 0.786305 0.296193
O O13 0.502549 0.776320 0.506436
O O14 0.821565 0.129061 0.692316
O O15 0.500000 0.500000 0.500000
O O16 0.197975 0.452524 0.128622
O O17 0.246220 0.452551 0.962297
#
# Coordination Sequence:
#
# PCOD9019729 Si02
#       8
#     2   2   2   2   2   2   2   2
#     4  11  25  45  69 101 136 177 227 278 337 402
#     4  12  26  42  68 102 139 178 230 275 337 398
#     4  11  25  43  69 100 138 176 222 285 339 389
#     4  10  21  45  67  95 135 176 224 277 333 393
#     4  10  23  44  68 100 135 177 221 278 339 400
#     4  12  24  45  72  99 139 177 224 277 340 399
#     4  11  24  45  70  96 138 181 226 282 336 392
#     4  11  24  45  70 100 134 178 229 269 340 409
#
# _framework density 24.365638000000001
#
# number of rings (size 3 to 8) (size 9 to 14) (size 15 to 20)
#    0.000    1.000    3.750    3.000    1.750    6.000 
#    2.250    0.000    0.000    0.000    0.000    0.000 
#    0.000    0.000    0.000    0.000    0.000    0.000 
#
# Total GULP energy -89604.593543 kJ/mol
# GULP energy per Si atom -5600.287096 kJ/mol
# Density = 2.431018 g / cm^3
# Si number density = 24.365638 Si / 1000 Ang^3
#
#
#
# Elastic Constant Matrix: (Units=GPa)
#
#
# Indices 1 2 3 4 5 6 
#
# 1 38.5249 18.8783 23.3899 7.8094 -4.3608 -6.8522
# 2 18.8783 87.8387 4.5734 -4.2877 0.7095 -10.0952
# 3 23.3899 4.5734 106.6641 2.7403 13.9305 -8.3539
# 4 7.8094 -4.2877 2.7403 37.0591 -6.5735 1.5614
# 5 -4.3608 0.7095 13.9305 -6.5735 42.1392 -2.5007
# 6 -6.8522 -10.0952 -8.3539 1.5614 -2.5007 32.8312
#
#
#
# Elastic Compliance Matrix: (Units=1/GPa)
#
#
# Indices 1 2 3 4 5 6 
#
# 1 0.037490 -0.007553 -0.008137 -0.007321 0.005805 0.004222
# 2 -0.007553 0.013389 0.001333 0.002777 -0.000855 0.002683
# 3 -0.008137 0.001333 0.011816 0.000109 -0.004673 0.001357
# 4 -0.007321 0.002777 0.000109 0.029565 0.003666 -0.001773
# 5 0.005805 -0.000855 -0.004673 0.003666 0.026558 0.001608
# 6 0.004222 0.002683 0.001357 -0.001773 0.001608 0.032717
#
#
# Mechanical properties :
#
#
# Convention : Reuss Voigt Hill
#
# Bulk Modulus (GPa) = 29.42746 36.30120 32.86433
# Shear Modulus (GPa) = 26.09915 34.81832 30.45874
#
# Velocity S-wave (km/s) = 3.27639 3.78430 3.53947
# Velocity P-wave (km/s) = 5.13971 5.83314 5.49737
#
# Compressibility (1/GPa) = 0.03398187
#
# Stress axis : x y z
#
# Youngs Moduli (GPa) = 26.67346 74.68731 84.62991
#
# Poissons Ratio (x) = 0.56410 0.68861
# Poissons Ratio (y) = 0.20146 -0.11277
# Poissons Ratio (z) = 0.21703 -0.09953
#
# Static dielectric constant tensor:
#      x y z
#    x 1.923140 0.015070 -0.000040 
#    y 0.015070 1.914200 -0.027210 
#    z -0.000040 -0.027210 1.971100 
# 
# From -- ./inp_files/505937.got.cif
#   From: 2010.05.17/outbox.cif.g08.bks.cpg/sg2_253_cif.got.tgz:505937.got - 2010.06.03 11:33:40.
