data_PCOD9019878
_publ_section_title
;
Structure prediction by ZEFSAII (Michael W. Deem and Ramdas Pophale) SiO2 
 PCOD9019878
Probable space group: P -1
;
_chemical_formula_sum "Si O2"
_cell_formula_units_Z 16
_cell_length_a 7.166764
_cell_length_b 8.726405
_cell_length_c 15.055157
_cell_angle_alpha 67.521177
_cell_angle_beta 85.496237
_cell_angle_gamma 126.214519
_cell_volume 640.749954
_symmetry_space_group_name_H-M "P -1"
_symmetry_group_IT_number 2
_symmetry_cell_setting 'triclinic'
loop_
_space_group_symop_operation_xyz
x,y,z
-x,-y,-z
loop_
_atom_site_type_symbol
_atom_site_label
_atom_site_fract_x
_atom_site_fract_y
_atom_site_fract_z
Si Si1 0.455779 0.497420 0.257031
Si Si2 0.023749 0.684953 0.906819
Si Si3 0.431409 0.782688 0.758184
Si Si4 0.091041 0.914967 0.586419
Si Si5 0.649434 0.927789 0.047049
Si Si6 0.783654 0.854477 0.875095
Si Si7 0.104137 0.744832 0.454002
Si Si8 0.254671 0.232293 0.648053
O O1 0.605569 0.416334 0.245748
O O2 0.164350 0.273311 0.308952
O O3 0.508013 0.689386 0.152585
O O4 0.516559 0.578611 0.339416
O O5 0.176563 0.729380 0.802375
O O6 0.774677 0.648987 0.914995
O O7 0.182934 0.896454 0.919894
O O8 0.000000 0.500000 0.000000
O O9 0.643808 0.025379 0.651171
O O10 0.552686 0.800398 0.843794
O O11 0.152366 0.801235 0.544856
O O12 0.000000 0.000000 0.500000
O O13 0.297327 0.110540 0.602614
O O14 0.789257 0.932780 0.955736
O O15 0.500000 0.000000 0.000000
O O16 0.035172 0.053727 0.766412
O O17 0.000000 0.500000 0.500000
O O18 0.876260 0.710616 0.422281
#
# Coordination Sequence:
#
# PCOD9019878 Si02
#       8
#     2   2   2   2   2   2   2   2
#     4  12  24  44  74 102 151 195 245 312 364 446
#     4  12  27  43  68 104 143 189 253 301 360 447
#     4  11  25  48  70 108 146 195 250 297 381 441
#     4  10  21  45  71 102 136 191 244 289 382 439
#     4  12  27  43  70 107 140 197 246 300 372 435
#     4  11  23  48  68  98 152 189 241 305 363 435
#     4  10  23  45  74 103 147 186 241 313 367 444
#     4  10  23  43  70 104 140 194 241 296 371 447
#
# _framework density 24.970739999999999
#
# number of rings (size 3 to 8) (size 9 to 14) (size 15 to 20)
#    0.000    1.000    6.250    1.125    5.250    3.000 
#    2.250    1.875    0.000    0.000    0.000    0.000 
#    0.000    0.000    0.000    0.000    0.000    0.000 
#
# Total GULP energy -89524.209464 kJ/mol
# GULP energy per Si atom -5595.263091 kJ/mol
# Density = 2.491391 g / cm^3
# Si number density = 24.970740 Si / 1000 Ang^3
#
#
#
# Elastic Constant Matrix: (Units=GPa)
#
#
# Indices 1 2 3 4 5 6 
#
# 1 127.7806 36.1416 38.3090 2.9036 14.4556 -29.9348
# 2 36.1416 181.0178 53.2365 20.3326 5.8521 -29.6580
# 3 38.3090 53.2365 124.9385 -3.1045 3.9122 -34.7334
# 4 2.9036 20.3326 -3.1045 50.8638 -8.9517 7.0336
# 5 14.4556 5.8521 3.9122 -8.9517 38.6564 2.1434
# 6 -29.9348 -29.6580 -34.7334 7.0336 2.1434 49.7806
#
#
#
# Elastic Compliance Matrix: (Units=1/GPa)
#
#
# Indices 1 2 3 4 5 6 
#
# 1 0.010146 -0.000370 -0.001365 -0.002031 -0.004370 0.005404
# 2 -0.000370 0.007225 -0.002108 -0.003756 -0.001791 0.003220
# 3 -0.001365 -0.002108 0.010855 0.000767 -0.000391 0.005406
# 4 -0.002031 -0.003756 0.000767 0.023470 0.007048 -0.006544
# 5 -0.004370 -0.001791 -0.000391 0.007048 0.029792 -0.006246
# 6 0.005404 0.003220 0.005406 -0.006544 -0.006246 0.030221
#
#
# Mechanical properties :
#
#
# Convention : Reuss Voigt Hill
#
# Bulk Modulus (GPa) = 48.68089 76.56792 62.62440
# Shear Modulus (GPa) = 39.60683 48.26348 43.93516
#
# Velocity S-wave (km/s) = 3.98695 4.40113 4.19915
# Velocity P-wave (km/s) = 6.38215 7.52039 6.97453
#
# Compressibility (1/GPa) = 0.02054194
#
# Stress axis : x y z
#
# Youngs Moduli (GPa) = 98.55985 138.40375 92.12699
#
# Poissons Ratio (x) = 0.05115 0.12575
# Poissons Ratio (y) = 0.03642 0.19416
# Poissons Ratio (z) = 0.13453 0.29169
#
# Static dielectric constant tensor:
#      x y z
#    x 2.067350 -0.038140 0.012040 
#    y -0.038140 2.005000 0.001510 
#    z 0.012040 0.001510 2.003900 
# 
# From -- ./inp_files/494668.got.cif
#   From: 2010.05.17/outbox.cif.g08.bks.cpg/sg2_248_cif.got.tgz:494668.got - 2010.06.03 11:33:40.
