data_PCOD9019846
_publ_section_title
;
Structure prediction by ZEFSAII (Michael W. Deem and Ramdas Pophale) SiO2 
 PCOD9019846
Probable space group: P -1
;
_chemical_formula_sum "Si O2"
_cell_formula_units_Z 16
_cell_length_a 17.538338
_cell_length_b 8.722839
_cell_length_c 17.641425
_cell_angle_alpha 149.390964
_cell_angle_beta 29.883254
_cell_angle_gamma 140.358910
_cell_volume 681.645729
_symmetry_space_group_name_H-M "P -1"
_symmetry_group_IT_number 2
_symmetry_cell_setting 'triclinic'
loop_
_space_group_symop_operation_xyz
x,y,z
-x,-y,-z
loop_
_atom_site_type_symbol
_atom_site_label
_atom_site_fract_x
_atom_site_fract_y
_atom_site_fract_z
Si Si1 0.443689 0.324945 0.197989
Si Si2 0.874462 0.598495 0.242518
Si Si3 0.069318 0.078637 0.820511
Si Si4 0.806477 0.598234 0.840808
Si Si5 0.597249 0.145325 0.281720
Si Si6 0.166477 0.064784 0.421087
Si Si7 0.386344 0.622443 0.211747
Si Si8 0.580376 0.763113 0.379100
O O1 0.282459 0.277829 0.360881
O O2 0.417004 0.503404 0.218821
O O3 0.570905 0.480054 0.211599
O O4 0.500000 0.000000 0.000000
O O5 0.945912 0.824020 0.212660
O O6 0.720912 0.410499 0.258826
O O7 0.847333 0.776197 0.417947
O O8 0.988558 0.336202 0.045737
O O9 0.248549 0.103083 0.693182
O O10 0.976966 0.754424 0.773933
O O11 0.773715 0.519130 0.746178
O O12 0.773300 0.269413 0.766325
O O13 0.699733 0.855605 0.072695
O O14 0.532644 0.282512 0.471670
O O15 0.438307 0.981881 0.314726
O O16 0.000000 0.000000 0.500000
O O17 0.500000 0.500000 0.000000
O O18 0.500000 0.000000 0.500000
#
# Coordination Sequence:
#
# PCOD9019846 Si02
#       8
#     2   2   2   2   2   2   2   2
#     4  12  27  46  71 107 147 186 234 298 363 417
#     4  10  24  48  70 104 142 185 246 293 360 421
#     4  10  26  46  74 102 141 195 236 299 351 431
#     4  10  25  47  74  99 142 194 240 290 361 426
#     4  10  21  45  70 102 135 180 236 292 352 422
#     4  12  29  44  69 106 145 186 237 301 358 425
#     4  10  22  44  76 101 138 187 240 287 353 432
#     4  12  26  43  71 102 140 184 241 292 353 427
#
# _framework density 23.472602999999999
#
# number of rings (size 3 to 8) (size 9 to 14) (size 15 to 20)
#    0.000    1.250    2.500    1.500    7.000    5.000 
#    0.000    2.500    0.000    0.000    0.000    0.000 
#    0.000    0.000    0.000    0.000    0.000    0.000 
#
# Total GULP energy -89363.530171 kJ/mol
# GULP energy per Si atom -5585.220636 kJ/mol
# Density = 2.341918 g / cm^3
# Si number density = 23.472603 Si / 1000 Ang^3
#
#
#
# Elastic Constant Matrix: (Units=GPa)
#
#
# Indices 1 2 3 4 5 6 
#
# 1 69.1848 23.1017 27.8134 -3.8368 8.1220 21.7019
# 2 23.1017 115.9157 24.9039 -3.9877 8.3961 15.4292
# 3 27.8134 24.9039 96.3159 10.1776 13.9014 3.7057
# 4 -3.8368 -3.9877 10.1776 38.9388 6.6615 1.7633
# 5 8.1220 8.3961 13.9014 6.6615 39.0736 -2.7550
# 6 21.7019 15.4292 3.7057 1.7633 -2.7550 38.8029
#
#
#
# Elastic Compliance Matrix: (Units=1/GPa)
#
#
# Indices 1 2 3 4 5 6 
#
# 1 0.021261 -0.001137 -0.005330 0.004549 -0.003859 -0.011410
# 2 -0.001137 0.009928 -0.002062 0.001888 -0.001720 -0.003323
# 3 -0.005330 -0.002062 0.013094 -0.003888 -0.002264 0.002567
# 4 0.004549 0.001888 -0.003888 0.028425 -0.005137 -0.004580
# 5 -0.003859 -0.001720 -0.002264 -0.005137 0.028822 0.005338
# 6 -0.011410 -0.003323 0.002567 -0.004580 0.005338 0.033816
#
#
# Mechanical properties :
#
#
# Convention : Reuss Voigt Hill
#
# Bulk Modulus (GPa) = 36.73272 48.11715 42.42493
# Shear Modulus (GPa) = 30.96342 37.06956 34.01649
#
# Velocity S-wave (km/s) = 3.63592 3.97831 3.81097
# Velocity P-wave (km/s) = 5.77146 6.45340 6.12193
#
# Compressibility (1/GPa) = 0.02722369
#
# Stress axis : x y z
#
# Youngs Moduli (GPa) = 47.03413 100.72036 76.37250
#
# Poissons Ratio (x) = 0.11455 0.40709
# Poissons Ratio (y) = 0.05349 0.15750
# Poissons Ratio (z) = 0.25070 0.20771
#
# Static dielectric constant tensor:
#      x y z
#    x 1.916580 0.006360 -0.051130 
#    y 0.006360 1.892560 -0.012120 
#    z -0.051130 -0.012120 1.886890 
# 
# From -- ./inp_files/569946.got.cif
#   From: 2010.05.17/outbox.cif.g08.bks.cpg/sg2_285_cif.got.tgz:569946.got - 2010.06.03 11:33:40.
