data_PCOD9019962
_publ_section_title
;
Structure prediction by ZEFSAII (Michael W. Deem and Ramdas Pophale) SiO2 
 PCOD9019962
Probable space group: P -1
;
_chemical_formula_sum "Si O2"
_cell_formula_units_Z 16
_cell_length_a 18.495610
_cell_length_b 5.226319
_cell_length_c 8.072432
_cell_angle_alpha 86.935150
_cell_angle_beta 131.319695
_cell_angle_gamma 83.482317
_cell_volume 573.569832
_symmetry_space_group_name_H-M "P -1"
_symmetry_group_IT_number 2
_symmetry_cell_setting 'triclinic'
loop_
_space_group_symop_operation_xyz
x,y,z
-x,-y,-z
loop_
_atom_site_type_symbol
_atom_site_label
_atom_site_fract_x
_atom_site_fract_y
_atom_site_fract_z
Si Si1 0.208364 0.390108 0.948045
Si Si2 0.987245 0.209875 0.331736
Si Si3 0.482241 0.844002 0.314300
Si Si4 0.311023 0.458189 0.763742
Si Si5 0.652481 0.344386 0.656521
Si Si6 0.882586 0.554727 0.656056
Si Si7 0.390643 0.915077 0.722435
Si Si8 0.089335 0.142066 0.992145
O O1 0.102543 0.572241 0.750158
O O2 0.282538 0.385290 0.908322
O O3 0.172810 0.139429 0.977823
O O4 0.259032 0.517626 0.171082
O O5 0.096105 0.259206 0.466257
O O6 0.949539 0.120589 0.098724
O O7 0.000000 0.000000 0.500000
O O8 0.562481 0.574058 0.448318
O O9 0.379828 0.771267 0.214767
O O10 0.500000 0.000000 0.500000
O O11 0.505154 0.024702 0.191592
O O12 0.206856 0.582522 0.514675
O O13 0.382890 0.663952 0.834875
O O14 0.341469 0.185856 0.722135
O O15 0.662347 0.142766 0.527210
O O16 0.986571 0.352967 0.812467
O O17 0.869238 0.746467 0.785775
#
# Coordination Sequence:
#
# PCOD9019962 Si02
#       8
#     2   2   2   2   2   2   2   2
#     4  11  26  41  63 102 134 182 229 286 342 405
#     4  11  23  40  64  89 137 180 232 283 345 396
#     4   9  20  42  76 101 132 171 228 278 347 403
#     4  12  26  42  66  98 145 179 226 278 350 407
#     4  10  21  45  74 102 133 176 230 282 336 413
#     4  10  23  40  61  91 124 182 229 289 335 399
#     4  11  24  44  69 102 135 182 225 279 340 417
#     4  10  22  40  61  88 127 170 242 281 336 398
#
# _framework density 27.895472999999999
#
# number of rings (size 3 to 8) (size 9 to 14) (size 15 to 20)
#    0.000    1.500    1.250    2.625    7.000    3.000 
#    0.000    1.250    0.000    0.000    0.000    0.000 
#    0.000    0.000    0.000    0.000    0.000    0.000 
#
# Total GULP energy -89520.225425 kJ/mol
# GULP energy per Si atom -5595.014089 kJ/mol
# Density = 2.783198 g / cm^3
# Si number density = 27.895473 Si / 1000 Ang^3
#
#
#
# Elastic Constant Matrix: (Units=GPa)
#
#
# Indices 1 2 3 4 5 6 
#
# 1 192.6301 73.1695 35.9110 6.4469 -22.5990 26.5395
# 2 73.1695 126.7578 8.2537 23.2040 -10.2218 8.4850
# 3 35.9110 8.2537 69.5204 12.3839 -2.8887 2.0682
# 4 6.4469 23.2040 12.3839 42.5764 1.9234 -2.4773
# 5 -22.5990 -10.2218 -2.8887 1.9234 54.0334 7.2266
# 6 26.5395 8.4850 2.0682 -2.4773 7.2266 68.6222
#
#
#
# Elastic Compliance Matrix: (Units=1/GPa)
#
#
# Indices 1 2 3 4 5 6 
#
# 1 0.008241 -0.004479 -0.003897 0.002047 0.002682 -0.002724
# 2 -0.004479 0.011539 0.002086 -0.006249 0.000650 -0.000051
# 3 -0.003897 0.002086 0.017101 -0.005479 -0.000201 0.000557
# 4 0.002047 -0.006249 -0.005479 0.028338 -0.001809 0.001360
# 5 0.002682 0.000650 -0.000201 -0.001809 0.020248 -0.003309
# 6 -0.002724 -0.000051 0.000557 0.001360 -0.003309 0.016013
#
#
# Mechanical properties :
#
#
# Convention : Reuss Voigt Hill
#
# Bulk Modulus (GPa) = 41.15441 69.28628 55.22035
# Shear Modulus (GPa) = 40.92972 51.15133 46.04053
#
# Velocity S-wave (km/s) = 3.83463 4.28679 4.06700
# Velocity P-wave (km/s) = 5.86438 7.02808 6.47243
#
# Compressibility (1/GPa) = 0.02429873
#
# Stress axis : x y z
#
# Youngs Moduli (GPa) = 121.34809 86.66493 58.47667
#
# Poissons Ratio (x) = 0.38819 0.22789
# Poissons Ratio (y) = 0.54354 -0.12196
# Poissons Ratio (z) = 0.47291 -0.18075
#
# Static dielectric constant tensor:
#      x y z
#    x 2.172150 0.044020 -0.061340 
#    y 0.044020 2.251980 -0.075600 
#    z -0.061340 -0.075600 2.230950 
# 
# From -- ./inp_files/323734.got.cif
#   From: 2010.05.17/outbox.cif.g08.bks.cpg/sg2_162_cif.got.tgz:323734.got - 2010.06.03 11:33:40.
