data_PCOD9019752
_publ_section_title
;
Structure prediction by ZEFSAII (Michael W. Deem and Ramdas Pophale) SiO2 
 PCOD9019752
Probable space group: P -1
;
_chemical_formula_sum "Si O2"
_cell_formula_units_Z 16
_cell_length_a 9.339146
_cell_length_b 15.034181
_cell_length_c 23.837386
_cell_angle_alpha 18.930186
_cell_angle_beta 127.381533
_cell_angle_gamma 126.344797
_cell_volume 860.592437
_symmetry_space_group_name_H-M "P -1"
_symmetry_group_IT_number 2
_symmetry_cell_setting 'triclinic'
loop_
_space_group_symop_operation_xyz
x,y,z
-x,-y,-z
loop_
_atom_site_type_symbol
_atom_site_label
_atom_site_fract_x
_atom_site_fract_y
_atom_site_fract_z
Si Si1 0.815823 0.015351 0.483094
Si Si2 0.965608 0.005241 0.900445
Si Si3 0.123968 0.540550 0.560251
Si Si4 0.803934 0.332743 0.757886
Si Si5 0.468836 0.323708 0.461386
Si Si6 0.298106 0.456293 0.913741
Si Si7 0.370476 0.837481 0.811074
Si Si8 0.985046 0.895264 0.414567
O O1 0.664491 0.810206 0.539191
O O2 0.753032 0.324337 0.275966
O O3 0.000000 0.000000 0.500000
O O4 0.868558 0.964791 0.590465
O O5 0.812847 0.150958 0.812815
O O6 0.857266 0.782452 0.969552
O O7 0.090215 0.249229 0.757603
O O8 0.083360 0.828369 0.074634
O O9 0.330363 0.612327 0.550391
O O10 0.000000 0.500000 0.500000
O O11 0.062146 0.777020 0.446415
O O12 0.615606 0.406274 0.695151
O O13 0.903922 0.626688 0.590126
O O14 0.462824 0.104840 0.641670
O O15 0.319266 0.631969 0.870378
O O16 0.482272 0.314699 0.028189
O O17 0.186049 0.924183 0.743214
#
# Coordination Sequence:
#
# PCOD9019752 Si02
#       8
#     2   2   2   2   2   2   2   2
#     4  11  17  34  65  89 108 139 186 254 282 321
#     4  10  19  33  57  80 113 146 182 233 279 328
#     4  11  25  39  53  76 121 163 184 220 280 350
#     4   9  18  33  57  87 104 137 193 241 271 323
#     4  10  20  36  58  83 114 146 193 225 287 337
#     4  10  17  30  56  89 110 134 187 235 289 314
#     4   9  19  32  58  87 107 142 187 244 272 331
#     4  10  19  37  60  86 110 145 194 232 288 326
#
# _framework density 18.591842
#
# number of rings (size 3 to 8) (size 9 to 14) (size 15 to 20)
#    0.000    2.000    5.000    0.750    0.000    2.000 
#    0.000    3.750    2.750   10.500    0.000    0.000 
#    0.000    0.000    0.000    0.000    0.000    0.000 
#
# Total GULP energy -89182.119832 kJ/mol
# GULP energy per Si atom -5573.882490 kJ/mol
# Density = 1.854953 g / cm^3
# Si number density = 18.591842 Si / 1000 Ang^3
#
#
#
# Elastic Constant Matrix: (Units=GPa)
#
#
# Indices 1 2 3 4 5 6 
#
# 1 140.4169 50.5232 44.1537 1.4306 28.1252 14.7505
# 2 50.5232 66.3450 21.3396 4.6211 4.9441 12.9726
# 3 44.1537 21.3396 81.5463 0.0081 32.3820 8.4851
# 4 1.4306 4.6211 0.0081 20.8285 4.3881 -0.7687
# 5 28.1252 4.9441 32.3820 4.3881 21.0589 0.8328
# 6 14.7505 12.9726 8.4851 -0.7687 0.8328 26.4509
#
#
#
# Elastic Compliance Matrix: (Units=1/GPa)
#
#
# Indices 1 2 3 4 5 6 
#
# 1 0.015464 -0.011550 0.007120 0.007740 -0.030341 -0.004063
# 2 -0.011550 0.027373 -0.013157 -0.012153 0.031925 -0.004122
# 3 0.007120 -0.013157 0.042691 0.018011 -0.075489 -0.008312
# 4 0.007740 -0.012153 0.018011 0.060182 -0.047684 -0.000883
# 5 -0.030341 0.031925 -0.075489 -0.047684 0.205830 0.017612
# 6 -0.004063 -0.004122 -0.008312 -0.000883 0.017612 0.044179
#
#
# Mechanical properties :
#
#
# Convention : Reuss Voigt Hill
#
# Bulk Modulus (GPa) = 19.85927 57.81567 38.83747
# Shear Modulus (GPa) = 11.16876 25.15377 18.16126
#
# Velocity S-wave (km/s) = 2.45365 3.68223 3.12884
# Velocity P-wave (km/s) = 4.32806 7.01736 5.82990
#
# Compressibility (1/GPa) = 0.05035433
#
# Stress axis : x y z
#
# Youngs Moduli (GPa) = 64.66779 36.53207 23.42439
#
# Poissons Ratio (x) = 0.42193 -0.16678
# Poissons Ratio (y) = 0.74689 0.30819
# Poissons Ratio (z) = -0.46043 0.48065
#
# Static dielectric constant tensor:
#      x y z
#    x 1.628410 -0.004460 0.018600 
#    y -0.004460 1.681000 0.006540 
#    z 0.018600 0.006540 1.661100 
# 
# From -- ./inp_files/452549.got.cif
#   From: 2010.05.17/outbox.cif.g08.bks.cpg/sg2_227_cif.got.tgz:452549.got - 2010.06.03 11:33:40.
