data_PCOD9019476
_publ_section_title
;
Structure prediction by ZEFSAII (Michael W. Deem and Ramdas Pophale) SiO2 
 PCOD9019476
Probable space group: P -1
;
_chemical_formula_sum "Si O2"
_cell_formula_units_Z 16
_cell_length_a 8.288218
_cell_length_b 11.753798
_cell_length_c 9.267046
_cell_angle_alpha 73.431828
_cell_angle_beta 60.525657
_cell_angle_gamma 57.483153
_cell_volume 662.465300
_symmetry_space_group_name_H-M "P -1"
_symmetry_group_IT_number 2
_symmetry_cell_setting 'triclinic'
loop_
_space_group_symop_operation_xyz
x,y,z
-x,-y,-z
loop_
_atom_site_type_symbol
_atom_site_label
_atom_site_fract_x
_atom_site_fract_y
_atom_site_fract_z
Si Si1 0.371298 0.077732 0.773421
Si Si2 0.027817 0.850913 0.563451
Si Si3 0.724233 0.514879 0.738222
Si Si4 0.675118 0.533940 0.092337
Si Si5 0.168079 0.270607 0.528146
Si Si6 0.767026 0.124761 0.034862
Si Si7 0.393585 0.797547 0.243650
Si Si8 0.034935 0.753281 0.911766
O O1 0.312145 0.156844 0.620463
O O2 0.568091 0.082971 0.755685
O O3 0.385436 0.931137 0.817989
O O4 0.175712 0.166991 0.933303
O O5 0.263670 0.762071 0.428946
O O6 0.013202 0.826644 0.745293
O O7 0.885900 0.806337 0.546768
O O8 0.000000 0.000000 0.500000
O O9 0.531420 0.487465 0.791607
O O10 0.732540 0.636591 0.604852
O O11 0.945036 0.378376 0.660874
O O12 0.702302 0.550387 0.904762
O O13 0.615053 0.667939 0.159739
O O14 0.882652 0.402891 0.099162
O O15 0.779730 0.241646 0.076017
O O16 0.723659 0.160894 0.873494
O O17 0.000000 0.000000 0.000000
#
# Coordination Sequence:
#
# PCOD9019476 Si02
#       8
#     2   2   2   2   2   2   2   2
#     4  11  24  44  69 103 139 179 234 281 340 418
#     4  12  26  47  68 101 141 183 233 287 346 409
#     4  10  22  41  72 100 134 183 231 283 335 419
#     4  11  23  43  70 101 143 175 236 282 348 412
#     4  11  23  45  70  99 137 183 230 280 349 396
#     4  10  21  44  72  92 132 185 229 277 340 408
#     4  12  26  44  70 103 139 181 230 288 346 407
#     4  11  24  43  71 101 136 190 230 278 352 406
#
# _framework density 24.15221
#
# number of rings (size 3 to 8) (size 9 to 14) (size 15 to 20)
#    0.000    1.000    2.500    5.625    3.500    3.000 
#    2.250    1.250    0.000    0.000    0.000    0.000 
#    0.000    0.000    0.000    0.000    0.000    0.000 
#
# Total GULP energy -89661.052853 kJ/mol
# GULP energy per Si atom -5603.815803 kJ/mol
# Density = 2.409724 g / cm^3
# Si number density = 24.152210 Si / 1000 Ang^3
#
#
#
# Elastic Constant Matrix: (Units=GPa)
#
#
# Indices 1 2 3 4 5 6 
#
# 1 99.1604 1.6332 44.5947 -3.5570 2.3307 23.1821
# 2 1.6332 71.0211 6.8046 8.2525 -9.0304 5.5199
# 3 44.5947 6.8046 118.5002 -18.2519 -3.9891 6.7340
# 4 -3.5570 8.2525 -18.2519 37.4163 -0.8434 -1.4804
# 5 2.3307 -9.0304 -3.9891 -0.8434 32.5149 -1.6061
# 6 23.1821 5.5199 6.7340 -1.4804 -1.6061 42.2240
#
#
#
# Elastic Compliance Matrix: (Units=1/GPa)
#
#
# Indices 1 2 3 4 5 6 
#
# 1 0.014085 0.000695 -0.005261 -0.001704 -0.001858 -0.007115
# 2 0.000695 0.015332 -0.001516 -0.004054 0.003811 -0.002141
# 3 -0.005261 -0.001516 0.011310 0.005447 0.001561 0.001533
# 4 -0.001704 -0.004054 0.005447 0.030194 0.000531 0.001676
# 5 -0.001858 0.003811 0.001561 0.000531 0.032227 0.001517
# 6 -0.007115 -0.002141 0.001533 0.001676 0.001517 0.027742
#
#
# Mechanical properties :
#
#
# Convention : Reuss Voigt Hill
#
# Bulk Modulus (GPa) = 35.01144 43.86073 39.43609
# Shear Modulus (GPa) = 32.77060 38.14099 35.45579
#
# Velocity S-wave (km/s) = 3.68752 3.97822 3.83562
# Velocity P-wave (km/s) = 5.71472 6.26906 5.99830
#
# Compressibility (1/GPa) = 0.02856209
#
# Stress axis : x y z
#
# Youngs Moduli (GPa) = 70.99578 65.22420 88.41535
#
# Poissons Ratio (x) = -0.04533 0.46518
# Poissons Ratio (y) = -0.04934 0.13407
# Poissons Ratio (z) = 0.37353 0.09890
#
# Static dielectric constant tensor:
#      x y z
#    x 1.926320 -0.008840 -0.060830 
#    y -0.008840 1.971230 0.048010 
#    z -0.060830 0.048010 1.885980 
# 
# From -- ./inp_files/185696.got.cif
#   From: 2010.05.17/outbox.cif.g08.bks.cpg/sg2_93_cif.got.tgz:185696.got - 2010.06.03 11:33:40.
