data_PCOD9019444
_publ_section_title
;
Structure prediction by ZEFSAII (Michael W. Deem and Ramdas Pophale) SiO2 
 PCOD9019444
Probable space group: P -1
;
_chemical_formula_sum "Si O2"
_cell_formula_units_Z 16
_cell_length_a 11.948391
_cell_length_b 12.460334
_cell_length_c 12.103348
_cell_angle_alpha 79.152136
_cell_angle_beta 138.228207
_cell_angle_gamma 67.372823
_cell_volume 703.302027
_symmetry_space_group_name_H-M "P -1"
_symmetry_group_IT_number 2
_symmetry_cell_setting 'triclinic'
loop_
_space_group_symop_operation_xyz
x,y,z
-x,-y,-z
loop_
_atom_site_type_symbol
_atom_site_label
_atom_site_fract_x
_atom_site_fract_y
_atom_site_fract_z
Si Si1 0.760495 0.050540 0.258591
Si Si2 0.088704 0.795969 0.936965
Si Si3 0.312246 0.065247 0.202210
Si Si4 0.964026 0.933236 0.185667
Si Si5 0.037531 0.433669 0.885804
Si Si6 0.859944 0.539544 0.275139
Si Si7 0.625610 0.571125 0.728499
Si Si8 0.875219 0.808875 0.559657
O O1 0.730387 0.961804 0.332947
O O2 0.471269 0.267397 0.000495
O O3 0.000000 0.000000 0.500000
O O4 0.847062 0.971920 0.214034
O O5 0.799847 0.923731 0.767317
O O6 0.043335 0.793214 0.775190
O O7 0.157138 0.887123 0.979498
O O8 0.307089 0.593104 0.184316
O O9 0.631187 0.877485 0.437990
O O10 0.247092 0.228173 0.120011
O O11 0.121268 0.112056 0.957024
O O12 0.301555 0.764801 0.472321
O O13 0.023459 0.447667 0.741960
O O14 0.744071 0.559221 0.704275
O O15 0.177465 0.472107 0.026882
O O16 0.000000 0.500000 0.500000
O O17 0.936566 0.376483 0.329530
#
# Coordination Sequence:
#
# PCOD9019444 Si02
#       8
#     2   2   2   2   2   2   2   2
#     4  12  27  49  71 102 145 190 237 292 348 426
#     4  11  24  44  70 106 134 184 240 283 349 429
#     4  11  25  44  70 106 145 181 228 301 357 420
#     4  12  26  45  69 100 150 185 226 295 363 412
#     4  10  21  44  72 102 139 179 241 292 353 418
#     4  12  27  45  72 107 140 186 239 294 352 420
#     4  10  23  45  72 102 135 185 234 297 349 421
#     4  12  25  46  76  98 139 189 245 285 349 423
#
# _framework density 22.749827
#
# number of rings (size 3 to 8) (size 9 to 14) (size 15 to 20)
#    0.000    0.750    3.750    3.000    3.500    4.500 
#    4.500    0.000    0.000    0.000    0.000    0.000 
#    0.000    0.000    0.000    0.000    0.000    0.000 
#
# Total GULP energy -89649.567084 kJ/mol
# GULP energy per Si atom -5603.097943 kJ/mol
# Density = 2.269805 g / cm^3
# Si number density = 22.749827 Si / 1000 Ang^3
#
#
#
# Elastic Constant Matrix: (Units=GPa)
#
#
# Indices 1 2 3 4 5 6 
#
# 1 85.9342 27.5830 19.0995 9.0716 -15.2348 -29.8172
# 2 27.5830 91.6124 45.7709 -15.5475 5.4936 -19.7978
# 3 19.0995 45.7709 43.2601 0.7068 -19.1314 -17.9706
# 4 9.0716 -15.5475 0.7068 26.3203 -6.4603 -1.9652
# 5 -15.2348 5.4936 -19.1314 -6.4603 16.6621 -4.2054
# 6 -29.8172 -19.7978 -17.9706 -1.9652 -4.2054 43.4250
#
#
#
# Elastic Compliance Matrix: (Units=1/GPa)
#
#
# Indices 1 2 3 4 5 6 
#
# 1 0.010855 0.008330 -0.021798 -0.002851 -0.018885 0.000273
# 2 0.008330 0.000052 0.023046 0.008399 0.042304 0.019757
# 3 -0.021798 0.023046 -0.034617 0.002239 -0.072905 -0.025745
# 4 -0.002851 0.008399 0.002239 0.048747 0.017794 0.006728
# 5 -0.018885 0.042304 -0.072905 0.017794 -0.055174 -0.028389
# 6 0.000273 0.019757 -0.025745 0.006728 -0.028389 0.019124
#
#
# Mechanical properties :
#
#
# Convention : Reuss Voigt Hill
#
# Bulk Modulus (GPa) = -219.62845 45.07929 -87.27458
# Shear Modulus (GPa) = -157.79215 25.83838 -65.97689
#
# Velocity S-wave (km/s) = -8.33728 3.37376 -5.39110
# Velocity P-wave (km/s) = 13.76338 5.91900 8.78624
#
# Compressibility (1/GPa) = -0.00455314
#
# Stress axis : x y z
#
# Youngs Moduli (GPa) = 92.11956 19382.15194 -28.88747
#
# Poissons Ratio (x) = -161.44624 -0.62968
# Poissons Ratio (y) = -0.76732 0.66575
# Poissons Ratio (z) = 2.00798 -446.68864
#
# Static dielectric constant tensor:
#      x y z
#    x 1.839230 0.009000 -0.007690 
#    y 0.009000 1.820980 -0.006540 
#    z -0.007690 -0.006540 1.808970 
# 
# From -- ./inp_files/307718.got.cif
#   From: 2010.05.17/outbox.cif.g08.bks.cpg/sg2_154_cif.got.tgz:307718.got - 2010.06.03 11:33:40.
