data_PCOD9019056
_publ_section_title
;
Structure prediction by ZEFSAII (Michael W. Deem and Ramdas Pophale) SiO2 
 PCOD9019056
Probable space group: P -1
;
_chemical_formula_sum "Si O2"
_cell_formula_units_Z 13
_cell_length_a 15.656819
_cell_length_b 11.590115
_cell_length_c 14.643642
_cell_angle_alpha 27.694394
_cell_angle_beta 27.912418
_cell_angle_gamma 31.002689
_cell_volume 542.969210
_symmetry_space_group_name_H-M "P -1"
_symmetry_group_IT_number 2
_symmetry_cell_setting 'triclinic'
loop_
_space_group_symop_operation_xyz
x,y,z
-x,-y,-z
loop_
_atom_site_type_symbol
_atom_site_label
_atom_site_fract_x
_atom_site_fract_y
_atom_site_fract_z
Si Si1 0.153466 0.459068 0.964004
Si Si2 0.500859 0.197883 0.707355
Si Si3 0.409410 0.746597 0.601343
Si Si4 0.275397 0.552809 0.362946
Si Si5 0.500000 0.500000 0.000000
Si Si6 0.778502 0.009007 0.206231
Si Si7 0.068600 0.154515 0.404789
O O1 0.333153 0.210975 0.928276
O O2 0.241632 0.683764 0.748096
O O3 0.060695 0.416964 0.175438
O O4 0.000000 0.500000 0.000000
O O5 0.500000 0.500000 0.500000
O O6 0.477131 0.148739 0.656496
O O7 0.708410 0.995891 0.678681
O O8 0.557644 0.482427 0.693201
O O9 0.309845 0.933542 0.647633
O O10 0.077738 0.779905 0.419141
O O11 0.237971 0.274290 0.601866
O O12 0.351692 0.583985 0.169694
O O13 0.353890 0.751719 0.899277
O O14 0.000000 0.000000 0.000000
O O15 0.000000 0.000000 0.500000
#
# Coordination Sequence:
#
# PCOD9019056 Si02
#       7
#     2   2   2   2   1   2   2
#     4  11  22  42  69 101 141 186 244 298 368 441
#     4  10  22  40  65  95 136 180 232 294 360 437
#     4  10  21  44  68 100 141 188 232 305 369 429
#     4  11  25  49  72 110 152 190 256 310 367 457
#     4  10  24  48  76 108 148 210 246 306 384 430
#     4  11  25  47  76 108 155 190 257 313 372 452
#     4  12  24  43  68 102 141 187 244 300 372 443
#
# _framework density 23.942423999999999
#
# number of rings (size 3 to 8) (size 9 to 14) (size 15 to 20)
#    0.000    1.231    0.000    7.846    2.154    0.615 
#   22.154    0.000    0.000    0.000    0.000    0.000 
#    0.000    0.000    0.000    0.000    0.000    0.000 
#
# Total GULP energy -72425.781372 kJ/mol
# GULP energy per Si atom -5571.213952 kJ/mol
# Density = 2.388793 g / cm^3
# Si number density = 23.942424 Si / 1000 Ang^3
#
#
#
# Elastic Constant Matrix: (Units=GPa)
#
#
# Indices 1 2 3 4 5 6 
#
# 1 133.6144 64.7501 42.0073 15.6455 25.6303 0.6841
# 2 64.7501 149.5522 27.2812 40.9689 8.8281 7.2128
# 3 42.0073 27.2812 78.8064 18.9997 17.9406 14.1813
# 4 15.6455 40.9689 18.9997 46.0018 14.3110 11.6499
# 5 25.6303 8.8281 17.9406 14.3110 50.6253 13.6140
# 6 0.6841 7.2128 14.1813 11.6499 13.6140 30.2235
#
#
#
# Elastic Compliance Matrix: (Units=1/GPa)
#
#
# Indices 1 2 3 4 5 6 
#
# 1 0.012249 -0.005107 -0.005053 0.003037 -0.005638 0.004681
# 2 -0.005107 0.011192 0.000458 -0.009268 0.003272 -0.000672
# 3 -0.005053 0.000458 0.017535 -0.004068 -0.000906 -0.006247
# 4 0.003037 -0.009268 -0.004068 0.034232 -0.006484 -0.006223
# 5 -0.005638 0.003272 -0.000906 -0.006484 0.026830 -0.009814
# 6 0.004681 -0.000672 -0.006247 -0.006223 -0.009814 0.042892
#
#
# Mechanical properties :
#
#
# Convention : Reuss Voigt Hill
#
# Bulk Modulus (GPa) = 46.35236 70.00558 58.17897
# Shear Modulus (GPa) = 29.15029 40.56575 34.85802
#
# Velocity S-wave (km/s) = 3.49308 4.12066 3.81978
# Velocity P-wave (km/s) = 5.97250 7.20711 6.61865
#
# Compressibility (1/GPa) = 0.02157387
#
# Stress axis : x y z
#
# Youngs Moduli (GPa) = 81.63656 89.34772 57.02792
#
# Poissons Ratio (x) = 0.45628 0.28815
# Poissons Ratio (y) = 0.41690 -0.02612
# Poissons Ratio (z) = 0.41249 -0.04093
#
# Static dielectric constant tensor:
#      x y z
#    x 1.953310 0.025710 -0.013080 
#    y 0.025710 1.928180 0.005100 
#    z -0.013080 0.005100 2.039530 
# 
# From -- ./inp_files/531459.got.cif
#   From: 2010.05.17/outbox.cif.g08.bks.cpg/sg2_266_cif.got.tgz:531459.got - 2010.06.03 11:33:40.
