data_PCOD9019431
_publ_section_title
;
Structure prediction by ZEFSAII (Michael W. Deem and Ramdas Pophale) SiO2 
 PCOD9019431
Probable space group: P -1
;
_chemical_formula_sum "Si O2"
_cell_formula_units_Z 16
_cell_length_a 11.169145
_cell_length_b 15.397261
_cell_length_c 16.803688
_cell_angle_alpha 25.815175
_cell_angle_beta 31.962360
_cell_angle_gamma 48.659983
_cell_volume 595.671592
_symmetry_space_group_name_H-M "P -1"
_symmetry_group_IT_number 2
_symmetry_cell_setting 'triclinic'
loop_
_space_group_symop_operation_xyz
x,y,z
-x,-y,-z
loop_
_atom_site_type_symbol
_atom_site_label
_atom_site_fract_x
_atom_site_fract_y
_atom_site_fract_z
Si Si1 0.718969 0.825943 0.330989
Si Si2 0.068969 0.072095 0.186518
Si Si3 0.672020 0.212024 0.975097
Si Si4 0.794857 0.785413 0.834944
Si Si5 0.563312 0.291051 0.647849
Si Si6 0.432262 0.207184 0.373196
Si Si7 0.953728 0.498419 0.892007
Si Si8 0.834308 0.438566 0.535030
O O1 0.677416 0.807183 0.463814
O O2 0.684376 0.589327 0.512868
O O3 0.573173 0.957250 0.267791
O O4 0.000000 0.000000 0.000000
O O5 0.212352 0.127869 0.144117
O O6 0.279155 0.100624 0.978254
O O7 0.805436 0.852358 0.502726
O O8 0.994055 0.277235 0.056317
O O9 0.813589 0.285266 0.749241
O O10 0.874512 0.377315 0.786826
O O11 0.446568 0.269568 0.037636
O O12 0.871247 0.585905 0.945074
O O13 0.000000 0.000000 0.500000
O O14 0.500000 0.500000 0.500000
O O15 0.719009 0.317135 0.619299
O O16 0.773552 0.314928 0.445149
O O17 0.500000 0.000000 0.500000
O O18 0.705530 0.422277 0.037644
#
# Coordination Sequence:
#
# PCOD9019431 Si02
#       8
#     2   2   2   2   2   2   2   2
#     4  10  23  40  74 102 133 188 244 286 356 423
#     4  10  23  45  73 101 142 182 237 297 355 427
#     4  10  23  40  67 101 139 178 239 295 340 434
#     4  12  26  45  66 104 144 186 231 302 363 426
#     4  10  22  41  74 101 138 184 240 295 358 422
#     4  10  23  42  71 106 139 181 238 295 352 426
#     4  10  24  45  73 100 136 194 238 284 367 431
#     4  10  21  44  72 101 135 189 242 294 346 432
#
# _framework density 26.860439
#
# number of rings (size 3 to 8) (size 9 to 14) (size 15 to 20)
#    0.000    1.750    1.250    1.125   14.000    2.000 
#    2.250    6.875    0.000    0.000    0.000    0.000 
#    0.000    0.000    0.000    0.000    0.000    0.000 
#
# Total GULP energy -89462.162241 kJ/mol
# GULP energy per Si atom -5591.385140 kJ/mol
# Density = 2.679930 g / cm^3
# Si number density = 26.860439 Si / 1000 Ang^3
#
#
#
# Elastic Constant Matrix: (Units=GPa)
#
#
# Indices 1 2 3 4 5 6 
#
# 1 89.9916 25.0248 28.3161 -7.3794 -12.9310 -21.6211
# 2 25.0248 105.5976 38.0657 0.4114 -3.7717 -5.8159
# 3 28.3161 38.0657 85.6499 12.6831 -22.9050 -13.7693
# 4 -7.3794 0.4114 12.6831 46.2816 -13.2234 2.0159
# 5 -12.9310 -3.7717 -22.9050 -13.2234 47.3042 1.5783
# 6 -21.6211 -5.8159 -13.7693 2.0159 1.5783 38.9478
#
#
#
# Elastic Compliance Matrix: (Units=1/GPa)
#
#
# Indices 1 2 3 4 5 6 
#
# 1 0.014943 -0.002150 -0.002520 0.003808 0.003533 0.006743
# 2 -0.002150 0.011760 -0.005342 0.000483 -0.002059 -0.001268
# 3 -0.002520 -0.005342 0.017755 -0.003581 0.006348 0.004009
# 4 0.003808 0.000483 -0.003581 0.025037 0.006366 -0.000634
# 5 0.003533 -0.002059 0.006348 0.006366 0.026711 0.002486
# 6 0.006743 -0.001268 0.004009 -0.000634 0.002486 0.030579
#
#
# Mechanical properties :
#
#
# Convention : Reuss Voigt Hill
#
# Bulk Modulus (GPa) = 40.92593 51.56135 46.24364
# Shear Modulus (GPa) = 32.26806 39.16224 35.71515
#
# Velocity S-wave (km/s) = 3.46977 3.82251 3.65040
# Velocity P-wave (km/s) = 5.59661 6.22252 5.91784
#
# Compressibility (1/GPa) = 0.02443439
#
# Stress axis : x y z
#
# Youngs Moduli (GPa) = 66.92178 85.03575 56.32359
#
# Poissons Ratio (x) = 0.18284 0.14191
# Poissons Ratio (y) = 0.14390 0.30086
# Poissons Ratio (z) = 0.16861 0.45423
#
# Static dielectric constant tensor:
#      x y z
#    x 2.115210 -0.048020 -0.020220 
#    y -0.048020 2.138350 -0.037660 
#    z -0.020220 -0.037660 2.058070 
# 
# From -- ./inp_files/569929.got.cif
#   From: 2010.05.17/outbox.cif.g08.bks.cpg/sg2_285_cif.got.tgz:569929.got - 2010.06.03 11:33:40.
