data_PCOD9019770
_publ_section_title
;
Structure prediction by ZEFSAII (Michael W. Deem and Ramdas Pophale) SiO2 
 PCOD9019770
Probable space group: P -1
;
_chemical_formula_sum "Si O2"
_cell_formula_units_Z 16
_cell_length_a 5.318839
_cell_length_b 18.671454
_cell_length_c 9.385700
_cell_angle_alpha 105.697399
_cell_angle_beta 45.440280
_cell_angle_gamma 90.370684
_cell_volume 616.100363
_symmetry_space_group_name_H-M "P -1"
_symmetry_group_IT_number 2
_symmetry_cell_setting 'triclinic'
loop_
_space_group_symop_operation_xyz
x,y,z
-x,-y,-z
loop_
_atom_site_type_symbol
_atom_site_label
_atom_site_fract_x
_atom_site_fract_y
_atom_site_fract_z
Si Si1 0.490116 0.674680 0.375899
Si Si2 0.593367 0.339433 0.182763
Si Si3 0.686647 0.612639 0.975346
Si Si4 0.727219 0.821806 0.425676
Si Si5 0.233721 0.217227 0.303374
Si Si6 0.852398 0.947786 0.247320
Si Si7 0.886570 0.918872 0.882105
Si Si8 0.177915 0.457055 0.606386
O O1 0.669885 0.746207 0.330802
O O2 0.719633 0.610267 0.353971
O O3 0.084701 0.718175 0.612425
O O4 0.458781 0.630104 0.219649
O O5 0.548366 0.339758 0.032066
O O6 0.554160 0.258765 0.216380
O O7 0.242068 0.409094 0.409353
O O8 0.951180 0.360610 0.110108
O O9 0.824091 0.523649 0.825538
O O10 0.917036 0.798078 0.489870
O O11 0.918954 0.870248 0.272746
O O12 0.321254 0.873063 0.664757
O O13 0.314655 0.138808 0.142484
O O14 0.500000 0.000000 0.500000
O O15 0.127746 0.002469 0.156428
O O16 0.793542 0.932676 0.094142
O O17 0.500000 0.500000 0.500000
#
# Coordination Sequence:
#
# PCOD9019770 Si02
#       8
#     2   2   2   2   2   2   2   2
#     4  11  24  43  62  99 136 175 233 293 350 413
#     4  11  24  43  67  98 135 181 235 284 358 423
#     4  11  26  42  68 100 134 184 236 299 354 417
#     4  10  22  39  63  96 136 174 224 286 344 414
#     4  11  23  41  65  94 137 183 225 284 346 422
#     4   9  19  42  68  95 135 173 226 281 342 415
#     4   9  21  41  67  96 130 182 221 281 344 418
#     4  10  21  45  68  92 131 183 231 290 352 421
#
# _framework density 25.969797
#
# number of rings (size 3 to 8) (size 9 to 14) (size 15 to 20)
#    0.000    1.750    1.250    2.250    5.250    1.500 
#    0.000    9.375    0.000    0.000    0.000    0.000 
#    0.000    0.000    0.000    0.000    0.000    0.000 
#
# Total GULP energy -89585.739912 kJ/mol
# GULP energy per Si atom -5599.108745 kJ/mol
# Density = 2.591069 g / cm^3
# Si number density = 25.969797 Si / 1000 Ang^3
#
#
#
# Elastic Constant Matrix: (Units=GPa)
#
#
# Indices 1 2 3 4 5 6 
#
# 1 94.4105 42.7101 33.0499 -9.4844 7.1418 9.9629
# 2 42.7101 158.1529 43.7317 -1.3947 -0.9132 10.4374
# 3 33.0499 43.7317 142.1403 9.6299 12.1700 4.4600
# 4 -9.4844 -1.3947 9.6299 47.6493 3.9301 8.6438
# 5 7.1418 -0.9132 12.1700 3.9301 49.2711 -3.8688
# 6 9.9629 10.4374 4.4600 8.6438 -3.8688 49.4072
#
#
#
# Elastic Compliance Matrix: (Units=1/GPa)
#
#
# Indices 1 2 3 4 5 6 
#
# 1 0.013463 -0.002809 -0.002265 0.003710 -0.001953 -0.002719
# 2 -0.002809 0.007627 -0.001751 0.000094 0.000908 -0.000832
# 3 -0.002265 -0.001751 0.008370 -0.002121 -0.001577 0.000319
# 4 0.003710 0.000094 -0.002121 0.023215 -0.002242 -0.004813
# 5 -0.001953 0.000908 -0.001577 -0.002242 0.021353 0.002409
# 6 -0.002719 -0.000832 0.000319 -0.004813 0.002409 0.021966
#
#
# Mechanical properties :
#
#
# Convention : Reuss Voigt Hill
#
# Bulk Modulus (GPa) = 63.25461 70.40967 66.83214
# Shear Modulus (GPa) = 43.51122 47.61297 45.56209
#
# Velocity S-wave (km/s) = 4.09767 4.28646 4.19313
# Velocity P-wave (km/s) = 6.84089 7.18814 7.01666
#
# Compressibility (1/GPa) = 0.01580912
#
# Stress axis : x y z
#
# Youngs Moduli (GPa) = 74.27850 131.11727 119.48027
#
# Poissons Ratio (x) = 0.36825 0.27062
# Poissons Ratio (y) = 0.20861 0.20927
# Poissons Ratio (z) = 0.16824 0.22965
#
# Static dielectric constant tensor:
#      x y z
#    x 2.049100 -0.011730 -0.061080 
#    y -0.011730 2.023490 -0.007190 
#    z -0.061080 -0.007190 2.078070 
# 
# From -- ./inp_files/139106.got.cif
#   From: 2010.05.17/outbox.cif.g08.bks.cpg/sg2_70_cif.got.tgz:139106.got - 2010.06.03 11:33:40.
