data_PCOD9019824
_publ_section_title
;
Structure prediction by ZEFSAII (Michael W. Deem and Ramdas Pophale) SiO2 
 PCOD9019824
Probable space group: P -1
;
_chemical_formula_sum "Si O2"
_cell_formula_units_Z 14
_cell_length_a 7.341711
_cell_length_b 10.384826
_cell_length_c 15.361059
_cell_angle_alpha 138.989790
_cell_angle_beta 63.047409
_cell_angle_gamma 88.588484
_cell_volume 533.740717
_symmetry_space_group_name_H-M "P -1"
_symmetry_group_IT_number 2
_symmetry_cell_setting 'triclinic'
loop_
_space_group_symop_operation_xyz
x,y,z
-x,-y,-z
loop_
_atom_site_type_symbol
_atom_site_label
_atom_site_fract_x
_atom_site_fract_y
_atom_site_fract_z
Si Si1 0.533428 0.059869 0.121181
Si Si2 0.137498 0.023928 0.727745
Si Si3 0.232526 0.766689 0.947060
Si Si4 0.721722 0.003376 0.496781
Si Si5 0.007579 0.458426 0.205764
Si Si6 0.586095 0.519108 0.084692
Si Si7 0.365635 0.366120 0.472735
O O1 0.702612 0.796474 0.999882
O O2 0.500000 0.000000 0.000000
O O3 0.708842 0.145791 0.105563
O O4 0.330153 0.271040 0.341354
O O5 0.182065 0.922920 0.568547
O O6 0.420220 0.877786 0.636604
O O7 0.984034 0.000234 0.825210
O O8 0.909269 0.329257 0.919233
O O9 0.156715 0.593192 0.845559
O O10 0.461119 0.597144 0.881463
O O11 0.948937 0.718386 0.331024
O O12 0.500000 0.000000 0.500000
O O13 0.583921 0.194379 0.703343
O O14 0.900418 0.476299 0.334409
O O15 0.500000 0.500000 0.000000
O O16 0.500000 0.500000 0.500000
#
# Coordination Sequence:
#
# PCOD9019824 Si02
#       7
#     2   2   2   2   2   2   2
#     4  12  27  47  68 102 141 175 225 297 344 391
#     4  10  23  42  69  99 133 179 226 277 332 403
#     4  10  21  45  69  96 136 179 231 268 338 408
#     4  12  23  42  70 105 134 168 234 280 328 407
#     4  12  24  44  72 103 133 180 236 278 331 417
#     4  10  24  43  66  99 141 178 218 275 346 404
#     4  12  23  41  75  96 127 184 231 277 335 403
#
# _framework density 26.229963000000001
#
# number of rings (size 3 to 8) (size 9 to 14) (size 15 to 20)
#    0.857    0.000    5.714    1.286    0.000    6.857 
#    2.571    0.000    0.000    0.000    0.000    0.000 
#    0.000    0.000    0.000    0.000    0.000    0.000 
#
# Total GULP energy -78091.872340 kJ/mol
# GULP energy per Si atom -5577.990881 kJ/mol
# Density = 2.617026 g / cm^3
# Si number density = 26.229963 Si / 1000 Ang^3
#
#
#
# Elastic Constant Matrix: (Units=GPa)
#
#
# Indices 1 2 3 4 5 6 
#
# 1 41.8813 14.3193 30.5521 2.5721 23.2661 -16.5753
# 2 14.3193 87.0659 47.0160 -6.9634 14.1188 -10.5058
# 3 30.5521 47.0160 171.7597 -27.6316 26.1114 -19.1636
# 4 2.5721 -6.9634 -27.6316 60.9033 -14.5283 -1.4104
# 5 23.2661 14.1188 26.1114 -14.5283 36.4497 -11.2563
# 6 -16.5753 -10.5058 -19.1636 -1.4104 -11.2563 37.5771
#
#
#
# Elastic Compliance Matrix: (Units=1/GPa)
#
#
# Indices 1 2 3 4 5 6 
#
# 1 0.047517 -0.000408 -0.004714 -0.010666 -0.028072 0.009632
# 2 -0.000408 0.013843 -0.003263 -0.000464 -0.002566 0.001240
# 3 -0.004714 -0.003263 0.008266 0.003671 0.000260 0.001439
# 4 -0.010666 -0.000464 0.003671 0.021781 0.013638 0.001941
# 5 -0.028072 -0.002566 0.000260 0.013638 0.052619 0.003306
# 6 0.009632 0.001240 0.001439 0.001941 0.003306 0.033005
#
#
# Mechanical properties :
#
#
# Convention : Reuss Voigt Hill
#
# Bulk Modulus (GPa) = 18.91914 53.83130 36.37522
# Shear Modulus (GPa) = 23.64971 40.90732 32.27852
#
# Velocity S-wave (km/s) = 3.00597 3.95342 3.51179
# Velocity P-wave (km/s) = 4.39048 6.43481 5.50831
#
# Compressibility (1/GPa) = 0.05285652
#
# Stress axis : x y z
#
# Youngs Moduli (GPa) = 21.04497 72.23689 120.98476
#
# Poissons Ratio (x) = 0.02946 0.57034
# Poissons Ratio (y) = 0.00858 0.39476
# Poissons Ratio (z) = 0.09921 0.23570
#
# Static dielectric constant tensor:
#      x y z
#    x 2.176690 0.066940 -0.037810 
#    y 0.066940 2.128490 0.033070 
#    z -0.037810 0.033070 2.104880 
# 
# From -- ./inp_files/498475.got.cif
#   From: 2010.05.17/outbox.cif.g08.bks.cpg/sg2_250_cif.got.tgz:498475.got - 2010.06.03 11:33:40.
