data_PCOD9019865
_publ_section_title
;
Structure prediction by ZEFSAII (Michael W. Deem and Ramdas Pophale) SiO2 
 PCOD9019865
Probable space group: P -1
;
_chemical_formula_sum "Si O2"
_cell_formula_units_Z 14
_cell_length_a 15.790454
_cell_length_b 15.522232
_cell_length_c 6.653401
_cell_angle_alpha 120.343993
_cell_angle_beta 133.404296
_cell_angle_gamma 30.936355
_cell_volume 593.405685
_symmetry_space_group_name_H-M "P -1"
_symmetry_group_IT_number 2
_symmetry_cell_setting 'triclinic'
loop_
_space_group_symop_operation_xyz
x,y,z
-x,-y,-z
loop_
_atom_site_type_symbol
_atom_site_label
_atom_site_fract_x
_atom_site_fract_y
_atom_site_fract_z
Si Si1 0.498046 0.619476 0.147192
Si Si2 0.908545 0.898352 0.279970
Si Si3 0.518972 0.894757 0.063324
Si Si4 0.102113 0.327942 0.379546
Si Si5 0.958745 0.003878 0.167627
Si Si6 0.888225 0.399127 0.457188
Si Si7 0.754144 0.566829 0.795076
O O1 0.668108 0.536637 0.168022
O O2 0.587225 0.604183 0.483040
O O3 0.500000 0.500000 0.000000
O O4 0.278404 0.811284 0.973367
O O5 0.985096 0.875539 0.155071
O O6 0.693732 0.995523 0.070187
O O7 0.908034 0.007655 0.512200
O O8 0.061865 0.725816 0.458033
O O9 0.660911 0.821370 0.400457
O O10 0.635359 0.730433 0.924308
O O11 0.500000 0.000000 0.000000
O O12 0.000000 0.500000 0.500000
O O13 0.061069 0.281669 0.441969
O O14 0.955679 0.396399 0.044281
O O15 0.000000 0.000000 0.000000
O O16 0.854945 0.520645 0.685267
#
# Coordination Sequence:
#
# PCOD9019865 Si02
#       7
#     2   2   2   2   2   2   2
#     4  10  21  45  70  97 131 177 225 285 341 406
#     4  11  24  44  65  98 139 175 227 286 346 397
#     4  11  22  42  70 101 140 184 223 285 342 413
#     4  10  22  41  67  96 139 182 227 277 341 403
#     4  11  24  44  69  96 134 178 226 291 345 403
#     4  10  22  44  65  97 141 171 230 283 328 422
#     4   9  23  41  66  98 132 183 226 272 344 408
#
# _framework density 23.592628999999999
#
# number of rings (size 3 to 8) (size 9 to 14) (size 15 to 20)
#    0.857    0.857    2.857    0.857    4.000    3.429 
#    2.571    3.571    0.000    0.000    0.000    0.000 
#    0.000    0.000    0.000    0.000    0.000    0.000 
#
# Total GULP energy -77971.806775 kJ/mol
# GULP energy per Si atom -5569.414770 kJ/mol
# Density = 2.353893 g / cm^3
# Si number density = 23.592629 Si / 1000 Ang^3
#
#
#
# Elastic Constant Matrix: (Units=GPa)
#
#
# Indices 1 2 3 4 5 6 
#
# 1 110.2446 14.3718 36.7207 -15.3532 10.0925 3.3224
# 2 14.3718 61.3451 29.3016 -15.8482 11.9487 5.6528
# 3 36.7207 29.3016 150.2707 -18.3890 21.2953 6.9822
# 4 -15.3532 -15.8482 -18.3890 44.2424 -9.0073 6.0024
# 5 10.0925 11.9487 21.2953 -9.0073 39.8823 -9.5679
# 6 3.3224 5.6528 6.9822 6.0024 -9.5679 38.1889
#
#
#
# Elastic Compliance Matrix: (Units=1/GPa)
#
#
# Indices 1 2 3 4 5 6 
#
# 1 0.010255 -0.000527 -0.001880 0.002512 -0.001142 -0.001151
# 2 -0.000527 0.020326 -0.002261 0.005861 -0.004530 -0.004605
# 3 -0.001880 -0.002261 0.008339 0.001591 -0.003454 -0.002142
# 4 0.002512 0.005861 0.001591 0.027286 0.001662 -0.005249
# 5 -0.001142 -0.004530 -0.003454 0.001662 0.031081 0.008927
# 6 -0.001151 -0.004605 -0.002142 -0.005249 0.008927 0.030421
#
#
# Mechanical properties :
#
#
# Convention : Reuss Voigt Hill
#
# Bulk Modulus (GPa) = 33.80460 53.62761 43.71611
# Shear Modulus (GPa) = 34.03572 40.56048 37.29810
#
# Velocity S-wave (km/s) = 3.80233 4.15082 3.98039
# Velocity P-wave (km/s) = 5.79970 6.76406 6.30036
#
# Compressibility (1/GPa) = 0.02958177
#
# Stress axis : x y z
#
# Youngs Moduli (GPa) = 97.51483 49.19900 119.92239
#
# Poissons Ratio (x) = 0.02592 0.22551
# Poissons Ratio (y) = 0.05137 0.27120
# Poissons Ratio (z) = 0.18337 0.11126
#
# Static dielectric constant tensor:
#      x y z
#    x 2.072770 0.014070 -0.010560 
#    y 0.014070 1.908850 0.037520 
#    z -0.010560 0.037520 1.977510 
# 
# From -- ./inp_files/98539.got.cif
#   From: 2010.05.17/outbox.cif.g08.bks.cpg/sg2_50_cif.got.tgz:98539.got - 2010.06.03 11:33:40.
