data_PCOD9019718
_publ_section_title
;
Structure prediction by ZEFSAII (Michael W. Deem and Ramdas Pophale) SiO2 
 PCOD9019718
Probable space group: P -1
;
_chemical_formula_sum "Si O2"
_cell_formula_units_Z 12
_cell_length_a 9.490374
_cell_length_b 10.700461
_cell_length_c 13.393909
_cell_angle_alpha 44.686567
_cell_angle_beta 144.734233
_cell_angle_gamma 137.661118
_cell_volume 508.335706
_symmetry_space_group_name_H-M "P -1"
_symmetry_group_IT_number 2
_symmetry_cell_setting 'triclinic'
loop_
_space_group_symop_operation_xyz
x,y,z
-x,-y,-z
loop_
_atom_site_type_symbol
_atom_site_label
_atom_site_fract_x
_atom_site_fract_y
_atom_site_fract_z
Si Si1 0.791750 0.005934 0.187399
Si Si2 0.021356 0.419243 0.168716
Si Si3 0.871878 0.970856 0.831984
Si Si4 0.970623 0.386380 0.651476
Si Si5 0.389319 0.420020 0.615188
Si Si6 0.446625 0.469941 0.121447
O O1 0.761281 0.810102 0.336702
O O2 0.934389 0.021702 0.153392
O O3 0.940889 0.192110 0.235503
O O4 0.500000 0.000000 0.000000
O O5 0.332904 0.515066 0.318252
O O6 0.797326 0.464119 0.073762
O O7 0.000000 0.500000 0.000000
O O8 0.803965 0.158641 0.671853
O O9 0.644537 0.758472 0.816230
O O10 0.000000 0.000000 0.000000
O O11 0.273347 0.417089 0.835476
O O12 0.000000 0.500000 0.500000
O O13 0.814547 0.478220 0.578325
O O14 0.483757 0.480848 0.749769
#
# Coordination Sequence:
#
# PCOD9019718 Si02
#       6
#     2   2   2   2   2   2
#     4  12  18  34  59  84 111 146 198 234 275 340
#     4  10  17  30  56  87 110 140 195 247 276 323
#     4  12  24  36  56  89 122 153 189 237 292 347
#     4  10  21  37  55  84 120 150 187 239 292 338
#     4  10  19  32  57  87 112 142 194 243 283 327
#     4  10  19  35  56  85 116 150 191 236 287 341
#
# _framework density 23.606445999999998
#
# number of rings (size 3 to 8) (size 9 to 14) (size 15 to 20)
#    0.000    1.333   10.000    0.000    0.000    4.667 
#    0.000    0.000    0.000    4.000    0.000    8.167 
#    0.000    0.000    0.000    0.000    0.000    0.000 
#
# Total GULP energy -67067.744502 kJ/mol
# GULP energy per Si atom -5588.978708 kJ/mol
# Density = 2.355272 g / cm^3
# Si number density = 23.606446 Si / 1000 Ang^3
#
#
#
# Elastic Constant Matrix: (Units=GPa)
#
#
# Indices 1 2 3 4 5 6 
#
# 1 154.5552 33.9699 45.5381 -1.9920 34.3712 -1.7970
# 2 33.9699 184.9067 40.8870 -48.5837 -3.0621 20.3197
# 3 45.5381 40.8870 121.9779 -2.7316 35.3341 -4.0711
# 4 -1.9920 -48.5837 -2.7316 43.0191 -5.7341 16.7587
# 5 34.3712 -3.0621 35.3341 -5.7341 37.0438 15.2723
# 6 -1.7970 20.3197 -4.0711 16.7587 15.2723 10.5891
#
#
#
# Elastic Compliance Matrix: (Units=1/GPa)
#
#
# Indices 1 2 3 4 5 6 
#
# 1 0.007265 0.000930 -0.002949 0.003554 -0.000710 -0.006286
# 2 0.000930 0.002409 0.001573 -0.003384 -0.008150 0.013250
# 3 -0.002949 0.001573 0.008469 0.006467 0.000289 -0.010914
# 4 0.003554 -0.003384 0.006467 0.007216 -0.019418 0.026168
# 5 -0.000710 -0.008150 0.000289 -0.019418 0.011310 0.030049
# 6 -0.006286 0.013250 -0.010914 0.026168 0.030049 -0.021006
#
#
# Mechanical properties :
#
#
# Convention : Reuss Voigt Hill
#
# Bulk Modulus (GPa) = 57.96693 78.02552 67.99623
# Shear Modulus (GPa) = 224.15914 40.86673 132.51293
#
# Velocity S-wave (km/s) = 9.75515 4.16524 7.50041
# Velocity P-wave (km/s) = 12.30824 7.50045 10.19190
#
# Compressibility (1/GPa) = 0.01725122
#
# Stress axis : x y z
#
# Youngs Moduli (GPa) = 137.64399 415.05549 118.08045
#
# Poissons Ratio (x) = -0.38604 0.34818
# Poissons Ratio (y) = -0.12802 -0.18569
# Poissons Ratio (z) = 0.40586 -0.65270
#
# Static dielectric constant tensor:
#      x y z
#    x 1.894820 0.009360 0.002390 
#    y 0.009360 1.847010 0.014250 
#    z 0.002390 0.014250 1.941820 
# 
# From -- ./inp_files/567903.got.cif
#   From: 2010.05.17/outbox.cif.g08.bks.cpg/sg2_284_cif.got.tgz:567903.got - 2010.06.03 11:33:40.
