data_PCOD9019321
_publ_section_title
;
Structure prediction by ZEFSAII (Michael W. Deem and Ramdas Pophale) SiO2 
 PCOD9019321
Probable space group: P -1
;
_chemical_formula_sum "Si O2"
_cell_formula_units_Z 16
_cell_length_a 13.371323
_cell_length_b 6.615858
_cell_length_c 8.969964
_cell_angle_alpha 98.829156
_cell_angle_beta 109.323416
_cell_angle_gamma 85.332941
_cell_volume 739.535325
_symmetry_space_group_name_H-M "P -1"
_symmetry_group_IT_number 2
_symmetry_cell_setting 'triclinic'
loop_
_space_group_symop_operation_xyz
x,y,z
-x,-y,-z
loop_
_atom_site_type_symbol
_atom_site_label
_atom_site_fract_x
_atom_site_fract_y
_atom_site_fract_z
Si Si1 0.696078 0.718934 0.802302
Si Si2 0.921079 0.443615 0.610604
Si Si3 0.608394 0.507087 0.460339
Si Si4 0.734104 0.160650 0.982250
Si Si5 0.116929 0.579021 0.080394
Si Si6 0.086475 0.174152 0.532404
Si Si7 0.754705 0.173289 0.349214
Si Si8 0.462390 0.543113 0.149812
O O1 0.683915 0.636143 0.617944
O O2 0.795320 0.600984 0.914005
O O3 0.588178 0.657320 0.825138
O O4 0.717961 0.950914 0.865894
O O5 0.877315 0.362926 0.735969
O O6 0.916570 0.688136 0.604875
O O7 0.847726 0.336181 0.439267
O O8 0.041065 0.350711 0.642976
O O9 0.500000 0.500000 0.500000
O O10 0.660689 0.287675 0.411414
O O11 0.564326 0.611377 0.300121
O O12 0.728654 0.154412 0.158663
O O13 0.845867 0.248895 0.994101
O O14 0.636854 0.300380 0.887337
O O15 0.000000 0.500000 0.000000
O O16 0.196660 0.047579 0.597531
O O17 0.000000 0.000000 0.500000
O O18 0.500000 0.500000 0.000000
#
# Coordination Sequence:
#
# PCOD9019321 Si02
#       8
#     2   2   2   2   2   2   2   2
#     4  10  24  45  64 100 139 178 237 281 341 422
#     4  10  22  44  64  96 134 182 228 281 342 404
#     4  10  21  45  71  96 140 182 223 281 351 414
#     4  11  26  43  68 104 138 181 239 285 347 416
#     4  11  26  43  68  94 146 186 224 291 357 404
#     4   9  22  38  68  94 130 169 235 281 331 403
#     4  11  22  43  69 100 134 180 228 282 339 413
#     4  10  21  44  70  98 139 178 222 291 352 408
#
# _framework density 21.635207000000001
#
# number of rings (size 3 to 8) (size 9 to 14) (size 15 to 20)
#    0.000    1.750    2.500    0.000    7.000    4.500 
#    0.000    0.000    0.000    0.000    0.000    0.000 
#    0.000    0.000    0.000    0.000    0.000    0.000 
#
# Total GULP energy -89127.518075 kJ/mol
# GULP energy per Si atom -5570.469880 kJ/mol
# Density = 2.158596 g / cm^3
# Si number density = 21.635207 Si / 1000 Ang^3
#
#
#
# Elastic Constant Matrix: (Units=GPa)
#
#
# Indices 1 2 3 4 5 6 
#
# 1 112.7000 50.0664 27.5499 5.1919 -3.9579 -17.5295
# 2 50.0664 122.9679 41.7630 2.5359 2.8428 -14.3091
# 3 27.5499 41.7630 108.1024 3.5944 5.3567 -2.8727
# 4 5.1919 2.5359 3.5944 19.2438 1.2290 2.3084
# 5 -3.9579 2.8428 5.3567 1.2290 42.0822 0.6775
# 6 -17.5295 -14.3091 -2.8727 2.3084 0.6775 29.0050
#
#
#
# Elastic Compliance Matrix: (Units=1/GPa)
#
#
# Indices 1 2 3 4 5 6 
#
# 1 0.011919 -0.003701 -0.001433 -0.003214 0.001559 0.005455
# 2 -0.003701 0.011098 -0.003224 -0.000169 -0.000730 0.002949
# 3 -0.001433 -0.003224 0.010923 -0.000997 -0.001258 -0.001266
# 4 -0.003214 -0.000169 -0.000997 0.053910 -0.001636 -0.006377
# 5 0.001559 -0.000730 -0.001258 -0.001636 0.024167 0.000024
# 6 0.005455 0.002949 -0.001266 -0.006377 0.000024 0.039610
#
#
# Mechanical properties :
#
#
# Convention : Reuss Voigt Hill
#
# Bulk Modulus (GPa) = 58.06110 64.72544 61.39327
# Shear Modulus (GPa) = 28.72188 33.02560 30.87374
#
# Velocity S-wave (km/s) = 3.64751 3.91125 3.78168
# Velocity P-wave (km/s) = 6.68085 7.09781 6.89248
#
# Compressibility (1/GPa) = 0.01722323
#
# Stress axis : x y z
#
# Youngs Moduli (GPa) = 83.90005 90.10983 91.54959
#
# Poissons Ratio (x) = 0.33350 0.13120
# Poissons Ratio (y) = 0.31052 0.29515
# Poissons Ratio (z) = 0.12024 0.29051
#
# Static dielectric constant tensor:
#      x y z
#    x 1.855390 0.012390 -0.033740 
#    y 0.012390 1.800750 -0.019960 
#    z -0.033740 -0.019960 1.870290 
# 
# From -- ./inp_files/289061.got.cif
#   From: 2010.05.17/outbox.cif.g08.bks.cpg/sg2_145_cif.got.tgz:289061.got - 2010.06.03 11:33:40.
