data_PCOD9019922
_publ_section_title
;
Structure prediction by ZEFSAII (Michael W. Deem and Ramdas Pophale) SiO2 
 PCOD9019922
Probable space group: P -1
;
_chemical_formula_sum "Si O2"
_cell_formula_units_Z 14
_cell_length_a 5.475206
_cell_length_b 12.909824
_cell_length_c 15.057443
_cell_angle_alpha 145.998529
_cell_angle_beta 85.450298
_cell_angle_gamma 107.440439
_cell_volume 538.527598
_symmetry_space_group_name_H-M "P -1"
_symmetry_group_IT_number 2
_symmetry_cell_setting 'triclinic'
loop_
_space_group_symop_operation_xyz
x,y,z
-x,-y,-z
loop_
_atom_site_type_symbol
_atom_site_label
_atom_site_fract_x
_atom_site_fract_y
_atom_site_fract_z
Si Si1 0.707216 0.312430 0.443465
Si Si2 0.759379 0.598433 0.402493
Si Si3 0.485302 0.121157 0.872622
Si Si4 0.867315 0.752926 0.312354
Si Si5 0.240884 0.281166 0.250383
Si Si6 0.423552 0.828825 0.300724
Si Si7 0.005093 0.826597 0.005494
O O1 0.416951 0.280213 0.471958
O O2 0.648881 0.109299 0.246647
O O3 0.780582 0.538562 0.562445
O O4 0.942404 0.330508 0.517472
O O5 0.789785 0.642100 0.329093
O O6 0.551392 0.368836 0.271299
O O7 0.779663 0.222426 0.980257
O O8 0.272743 0.214990 0.965443
O O9 0.505324 0.094471 0.747467
O O10 0.600918 0.706056 0.230418
O O11 0.102678 0.709032 0.230046
O O12 0.000000 0.000000 0.500000
O O13 0.141345 0.067314 0.148073
O O14 0.078590 0.274657 0.160485
O O15 0.500000 0.000000 0.500000
#
# Coordination Sequence:
#
# PCOD9019922 Si02
#       7
#     2   2   2   2   2   2   2
#     4  10  21  37  63  91 128 157 207 261 314 361
#     4  10  20  36  63  95 121 160 216 251 304 377
#     4  12  24  40  65 100 127 158 214 277 306 358
#     4  10  17  30  57  86 118 153 198 251 300 371
#     4   9  26  43  67  87 129 180 210 242 318 392
#     4  10  20  34  58  89 123 159 198 252 317 377
#     4  11  26  43  65  90 131 172 213 251 315 381
#
# _framework density 25.996811999999998
#
# number of rings (size 3 to 8) (size 9 to 14) (size 15 to 20)
#    0.857    0.857    0.000    6.000    4.000    2.286 
#    0.000    0.000    0.000    5.143    0.000    0.000 
#    0.000    0.000    0.000    0.000    0.000    0.000 
#
# Total GULP energy -78313.520594 kJ/mol
# GULP energy per Si atom -5593.822900 kJ/mol
# Density = 2.593764 g / cm^3
# Si number density = 25.996812 Si / 1000 Ang^3
#
#
#
# Elastic Constant Matrix: (Units=GPa)
#
#
# Indices 1 2 3 4 5 6 
#
# 1 263.2569 47.0415 44.7928 -16.6010 28.1515 -11.8560
# 2 47.0415 104.6895 40.8091 -21.6334 6.9291 2.8251
# 3 44.7928 40.8091 72.0620 -6.0390 9.3184 -6.0651
# 4 -16.6010 -21.6334 -6.0390 38.9910 -8.1831 8.5343
# 5 28.1515 6.9291 9.3184 -8.1831 33.2749 -17.4140
# 6 -11.8560 2.8251 -6.0651 8.5343 -17.4140 36.5043
#
#
#
# Elastic Compliance Matrix: (Units=1/GPa)
#
#
# Indices 1 2 3 4 5 6 
#
# 1 0.004670 -0.001025 -0.001887 0.000526 -0.003295 -0.000413
# 2 -0.001025 0.014565 -0.007289 0.007393 -0.000811 -0.004787
# 3 -0.001887 -0.007289 0.019383 -0.002825 -0.001337 0.003195
# 4 0.000526 0.007393 -0.002825 0.031664 0.003017 -0.006834
# 5 -0.003295 -0.000811 -0.001337 0.003017 0.044131 0.019117
# 6 -0.000413 -0.004787 0.003195 -0.006834 0.019117 0.038879
#
#
# Mechanical properties :
#
#
# Convention : Reuss Voigt Hill
#
# Bulk Modulus (GPa) = 54.89966 78.36614 66.63290
# Shear Modulus (GPa) = 27.81421 42.24504 35.02963
#
# Velocity S-wave (km/s) = 3.27449 4.03551 3.67476
# Velocity P-wave (km/s) = 5.95484 7.20582 6.60999
#
# Compressibility (1/GPa) = 0.01821505
#
# Stress axis : x y z
#
# Youngs Moduli (GPa) = 214.14505 68.65947 51.59239
#
# Poissons Ratio (x) = 0.07037 0.09734
# Poissons Ratio (y) = 0.21947 0.37608
# Poissons Ratio (z) = 0.40404 0.50048
#
# Static dielectric constant tensor:
#      x y z
#    x 2.045770 0.023790 0.007040 
#    y 0.023790 2.006650 0.031290 
#    z 0.007040 0.031290 2.085080 
# 
# From -- ./inp_files/288878.got.cif
#   From: 2010.05.17/outbox.cif.g08.bks.cpg/sg2_145_cif.got.tgz:288878.got - 2010.06.03 11:33:40.
