data_PCOD9019674
_publ_section_title
;
Structure prediction by ZEFSAII (Michael W. Deem and Ramdas Pophale) SiO2 
 PCOD9019674
Probable space group: P -1
;
_chemical_formula_sum "Si O2"
_cell_formula_units_Z 14
_cell_length_a 13.839001
_cell_length_b 8.948397
_cell_length_c 15.814305
_cell_angle_alpha 49.785215
_cell_angle_beta 21.970678
_cell_angle_gamma 49.189821
_cell_volume 549.124299
_symmetry_space_group_name_H-M "P -1"
_symmetry_group_IT_number 2
_symmetry_cell_setting 'triclinic'
loop_
_space_group_symop_operation_xyz
x,y,z
-x,-y,-z
loop_
_atom_site_type_symbol
_atom_site_label
_atom_site_fract_x
_atom_site_fract_y
_atom_site_fract_z
Si Si1 0.556023 0.912360 0.272400
Si Si2 0.493507 0.443926 0.928770
Si Si3 0.773363 0.841754 0.833981
Si Si4 0.449125 0.228693 0.489868
Si Si5 0.903780 0.194377 0.881342
Si Si6 0.758721 0.576450 0.104075
Si Si7 0.982908 0.832542 0.403603
O O1 0.495767 0.795043 0.446454
O O2 0.579945 0.761278 0.230764
O O3 0.332369 0.109071 0.366348
O O4 0.833136 0.982239 0.040980
O O5 0.292332 0.289296 0.142757
O O6 0.787690 0.356881 0.686940
O O7 0.500000 0.500000 0.000000
O O8 0.338368 0.647094 0.942644
O O9 0.828040 0.681899 0.923994
O O10 0.500000 0.000000 0.000000
O O11 0.970524 0.988976 0.637493
O O12 0.608423 0.396869 0.272466
O O13 0.147930 0.280263 0.687069
O O14 0.500000 0.000000 0.500000
O O15 0.935056 0.164577 0.764332
O O16 0.000000 0.500000 0.000000
#
# Coordination Sequence:
#
# PCOD9019674 Si02
#       7
#     2   2   2   2   2   2   2
#     4  12  25  44  72 100 148 197 238 304 366 433
#     4   9  22  40  70 101 140 190 235 304 360 424
#     4  10  22  45  73 104 146 190 243 302 362 442
#     4  12  26  44  68 107 147 189 247 305 363 440
#     4  11  23  43  69 102 146 185 245 299 367 423
#     4  12  27  46  75 109 146 198 248 298 373 441
#     4  10  21  45  66 103 144 184 245 300 358 440
#
# _framework density 25.495135999999999
#
# number of rings (size 3 to 8) (size 9 to 14) (size 15 to 20)
#    0.000    1.143    2.857    2.571    6.000    0.571 
#    0.000   10.000    0.000    0.000    0.000    0.000 
#    0.000    0.000    0.000    0.000    0.000    0.000 
#
# Total GULP energy -78064.359007 kJ/mol
# GULP energy per Si atom -5576.025643 kJ/mol
# Density = 2.543711 g / cm^3
# Si number density = 25.495136 Si / 1000 Ang^3
#
#
#
# Elastic Constant Matrix: (Units=GPa)
#
#
# Indices 1 2 3 4 5 6 
#
# 1 108.4318 20.7997 13.9660 1.9984 -18.0382 23.3081
# 2 20.7997 133.3117 46.3728 8.8116 -21.2577 25.2035
# 3 13.9660 46.3728 75.6863 -2.4883 -48.2783 11.6436
# 4 1.9984 8.8116 -2.4883 43.9232 8.0427 -7.7783
# 5 -18.0382 -21.2577 -48.2783 8.0427 47.6804 -2.5972
# 6 23.3081 25.2035 11.6436 -7.7783 -2.5972 50.3611
#
#
#
# Elastic Compliance Matrix: (Units=1/GPa)
#
#
# Indices 1 2 3 4 5 6 
#
# 1 0.011668 -0.000766 0.005283 -0.002929 0.009579 -0.006197
# 2 -0.000766 0.010810 -0.008349 -0.002589 -0.003689 -0.003716
# 3 0.005283 -0.008349 0.049988 -0.006256 0.049498 -0.008238
# 4 -0.002929 -0.002589 -0.006256 0.026731 -0.012693 0.007572
# 5 0.009579 -0.003689 0.049498 -0.012693 0.074550 -0.012147
# 6 -0.006197 -0.003716 -0.008238 0.007572 -0.012147 0.027032
#
#
# Mechanical properties :
#
#
# Convention : Reuss Voigt Hill
#
# Bulk Modulus (GPa) = 15.43118 53.30077 34.36597
# Shear Modulus (GPa) = 21.73514 44.14569 32.94041
#
# Velocity S-wave (km/s) = 2.92296 4.16568 3.59838
# Velocity P-wave (km/s) = 4.17820 6.63995 5.54735
#
# Compressibility (1/GPa) = 0.06480387
#
# Stress axis : x y z
#
# Youngs Moduli (GPa) = 85.70151 92.50555 20.00491
#
# Poissons Ratio (x) = 0.07083 -0.10569
# Poissons Ratio (y) = 0.06562 0.16702
# Poissons Ratio (z) = -0.45279 0.77232
#
# Static dielectric constant tensor:
#      x y z
#    x -18.268430 -12.434660 33.555960 
#    y -12.434660 -5.496440 20.565670 
#    z 33.555960 20.565670 -53.506350 
# 
# From -- ./inp_files/52943.got.cif
#   From: 2010.05.17/outbox.cif.g08.bks.cpg/sg2_27_cif.got.tgz:52943.got - 2010.06.03 11:33:40.
