data_PCOD9019657
_publ_section_title
;
Structure prediction by ZEFSAII (Michael W. Deem and Ramdas Pophale) SiO2 
 PCOD9019657
Probable space group: P -1
;
_chemical_formula_sum "Si O2"
_cell_formula_units_Z 16
_cell_length_a 9.641028
_cell_length_b 15.942036
_cell_length_c 14.398820
_cell_angle_alpha 27.526294
_cell_angle_beta 94.213156
_cell_angle_gamma 114.664064
_cell_volume 658.094798
_symmetry_space_group_name_H-M "P -1"
_symmetry_group_IT_number 2
_symmetry_cell_setting 'triclinic'
loop_
_space_group_symop_operation_xyz
x,y,z
-x,-y,-z
loop_
_atom_site_type_symbol
_atom_site_label
_atom_site_fract_x
_atom_site_fract_y
_atom_site_fract_z
Si Si1 0.075119 0.834539 0.588467
Si Si2 0.712537 0.587121 0.937933
Si Si3 0.366596 0.003190 0.273563
Si Si4 0.861511 0.690648 0.420653
Si Si5 0.407249 0.395145 0.356536
Si Si6 0.788751 0.685720 0.217514
Si Si7 0.391180 0.059449 0.549743
Si Si8 0.042004 0.518146 0.594193
O O1 0.165151 0.826683 0.509133
O O2 0.832466 0.612146 0.833089
O O3 0.132419 0.106154 0.313300
O O4 0.214760 0.883856 0.631427
O O5 0.500000 0.500000 0.000000
O O6 0.623257 0.341688 0.239552
O O7 0.550146 0.055162 0.273560
O O8 0.262945 0.813440 0.361546
O O9 0.468299 0.303825 0.971175
O O10 0.779208 0.720223 0.473648
O O11 0.734331 0.594045 0.412863
O O12 0.866355 0.486277 0.652580
O O13 0.094316 0.004585 0.094302
O O14 0.580456 0.468893 0.357792
O O15 0.330984 0.173709 0.496091
O O16 0.952609 0.691275 0.186568
O O17 0.000000 0.500000 0.500000
#
# Coordination Sequence:
#
# PCOD9019657 Si02
#       8
#     2   2   2   2   2   2   2   2
#     4  10  22  42  68  96 136 181 219 277 340 395
#     4   9  20  42  70  98 130 173 225 277 333 395
#     4  12  24  43  67  98 138 180 229 279 338 409
#     4  10  23  41  70  96 128 179 222 279 341 406
#     4  12  24  41  67 101 132 174 229 278 334 401
#     4  10  21  45  65  93 135 173 225 279 340 400
#     4  11  24  43  64 100 141 176 225 281 330 405
#     4  10  22  43  66  96 136 172 220 285 340 400
#
# _framework density 24.312607
#
# number of rings (size 3 to 8) (size 9 to 14) (size 15 to 20)
#    0.000    1.500    3.750    0.750    0.000    5.500 
#    2.250    1.250    0.000    0.000    0.000    0.000 
#    0.000    0.000    0.000    0.000    0.000    0.000 
#
# Total GULP energy -89358.289690 kJ/mol
# GULP energy per Si atom -5584.893106 kJ/mol
# Density = 2.425727 g / cm^3
# Si number density = 24.312607 Si / 1000 Ang^3
#
#
#
# Elastic Constant Matrix: (Units=GPa)
#
#
# Indices 1 2 3 4 5 6 
#
# 1 248.6362 77.1603 94.7936 73.5323 71.5744 18.2748
# 2 77.1603 143.4478 40.0592 8.4616 12.1527 4.3377
# 3 94.7936 40.0592 61.5877 41.3472 37.3752 1.5953
# 4 73.5323 8.4616 41.3472 62.2343 20.6086 8.5276
# 5 71.5744 12.1527 37.3752 20.6086 54.9773 16.2470
# 6 18.2748 4.3377 1.5953 8.5276 16.2470 50.5927
#
#
#
# Elastic Compliance Matrix: (Units=1/GPa)
#
#
# Indices 1 2 3 4 5 6 
#
# 1 0.011803 -0.003178 -0.007967 -0.005866 -0.006890 -0.000539
# 2 -0.003178 0.011327 -0.013565 0.008878 0.008609 -0.003656
# 3 -0.007967 -0.013565 0.079010 -0.032620 -0.033364 0.017762
# 4 -0.005866 0.008878 -0.032620 0.039512 0.015801 -0.009348
# 5 -0.006890 0.008609 -0.033364 0.015801 0.046375 -0.014753
# 6 -0.000539 -0.003656 0.017762 -0.009348 -0.014753 0.026027
#
#
# Mechanical properties :
#
#
# Convention : Reuss Voigt Hill
#
# Bulk Modulus (GPa) = 18.96857 97.52200 58.24528
# Shear Modulus (GPa) = 17.79061 49.67142 33.73101
#
# Velocity S-wave (km/s) = 2.70801 4.52489 3.72881
# Velocity P-wave (km/s) = 4.19484 8.21574 6.52284
#
# Compressibility (1/GPa) = 0.05271879
#
# Stress axis : x y z
#
# Youngs Moduli (GPa) = 84.72140 88.28852 12.65669
#
# Poissons Ratio (x) = 0.28060 0.10084
# Poissons Ratio (y) = 0.26926 0.17169
# Poissons Ratio (z) = 0.67497 1.19765
#
# Static dielectric constant tensor:
#      x y z
#    x 1.964440 0.026380 0.013340 
#    y 0.026380 1.973200 0.010210 
#    z 0.013340 0.010210 1.971470 
# 
# From -- ./inp_files/504988.got.cif
#   From: 2010.05.17/outbox.cif.g08.bks.cpg/sg2_253_cif.got.tgz:504988.got - 2010.06.03 11:33:40.
