data_PCOD9019788
_publ_section_title
;
Structure prediction by ZEFSAII (Michael W. Deem and Ramdas Pophale) SiO2 
 PCOD9019788
Probable space group: P -1
;
_chemical_formula_sum "Si O2"
_cell_formula_units_Z 16
_cell_length_a 11.854516
_cell_length_b 9.441403
_cell_length_c 8.853115
_cell_angle_alpha 46.793853
_cell_angle_beta 74.845852
_cell_angle_gamma 72.660577
_cell_volume 687.070329
_symmetry_space_group_name_H-M "P -1"
_symmetry_group_IT_number 2
_symmetry_cell_setting 'triclinic'
loop_
_space_group_symop_operation_xyz
x,y,z
-x,-y,-z
loop_
_atom_site_type_symbol
_atom_site_label
_atom_site_fract_x
_atom_site_fract_y
_atom_site_fract_z
Si Si1 0.366598 0.277386 0.837640
Si Si2 0.774917 0.663974 0.864329
Si Si3 0.874477 0.000274 0.231316
Si Si4 0.253547 0.887069 0.527027
Si Si5 0.021979 0.716419 0.635129
Si Si6 0.157630 0.378006 0.643830
Si Si7 0.186640 0.642674 0.179695
Si Si8 0.362812 0.809764 0.226915
O O1 0.295837 0.360560 0.653181
O O2 0.503336 0.293642 0.776192
O O3 0.291375 0.380698 0.929238
O O4 0.358614 0.044443 0.028192
O O5 0.754666 0.509890 0.855983
O O6 0.915677 0.675513 0.810881
O O7 0.727707 0.888849 0.672280
O O8 0.853949 0.843358 0.227656
O O9 0.963443 0.867217 0.413186
O O10 0.756260 0.099391 0.295740
O O11 0.904244 0.188319 0.995757
O O12 0.125755 0.820753 0.589711
O O13 0.330052 0.781293 0.436463
O O14 0.082706 0.505918 0.704014
O O15 0.127756 0.505283 0.411454
O O16 0.272482 0.739866 0.189565
#
# Coordination Sequence:
#
# PCOD9019788 Si02
#       8
#     2   2   2   2   2   2   2   2
#     4  10  24  46  69  96 137 175 230 278 334 396
#     4  10  23  42  66 102 133 176 221 278 331 410
#     4  11  24  43  65 101 142 176 217 285 332 401
#     4  10  21  45  68  97 138 174 225 275 338 401
#     4  11  23  44  69  97 140 176 224 275 338 404
#     4  12  24  44  67 102 136 180 224 276 335 408
#     4  12  24  42  69 102 136 178 228 268 345 397
#     4  10  22  46  72  97 130 182 224 280 337 399
#
# _framework density 23.287282999999999
#
# number of rings (size 3 to 8) (size 9 to 14) (size 15 to 20)
#    0.000    1.250    5.000    1.875    1.750    2.000 
#    4.500    1.875    0.000    0.000    0.000    0.000 
#    0.000    0.000    0.000    0.000    0.000    0.000 
#
# Total GULP energy -89265.809640 kJ/mol
# GULP energy per Si atom -5579.113102 kJ/mol
# Density = 2.323428 g / cm^3
# Si number density = 23.287283 Si / 1000 Ang^3
#
#
#
# Elastic Constant Matrix: (Units=GPa)
#
#
# Indices 1 2 3 4 5 6 
#
# 1 79.0561 38.7359 20.1580 8.9389 -7.6611 -15.9798
# 2 38.7359 163.6780 36.1679 2.0860 -6.4708 1.6431
# 3 20.1580 36.1679 98.1152 3.1657 1.6890 -16.2454
# 4 8.9389 2.0860 3.1657 25.6870 1.7267 -15.1509
# 5 -7.6611 -6.4708 1.6890 1.7267 14.9829 0.7197
# 6 -15.9798 1.6431 -16.2454 -15.1509 0.7197 28.3053
#
#
#
# Elastic Compliance Matrix: (Units=1/GPa)
#
#
# Indices 1 2 3 4 5 6 
#
# 1 0.017228 -0.003703 -0.000802 -0.000843 0.006973 0.008852
# 2 -0.003703 0.007838 -0.003029 -0.002482 0.002392 -0.005673
# 3 -0.000802 -0.003029 0.013049 0.005147 -0.004266 0.010076
# 4 -0.000843 -0.002482 0.005147 0.060235 -0.010713 0.035136
# 5 0.006973 0.002392 -0.004266 -0.010713 0.073357 -0.006250
# 6 0.008852 -0.005673 0.010076 0.035136 -0.006250 0.065405
#
#
# Mechanical properties :
#
#
# Convention : Reuss Voigt Hill
#
# Bulk Modulus (GPa) = 43.38634 58.99699 51.19167
# Shear Modulus (GPa) = 19.24093 30.18086 24.71090
#
# Velocity S-wave (km/s) = 2.87756 3.60394 3.26104
# Velocity P-wave (km/s) = 5.45086 6.53508 6.01744
#
# Compressibility (1/GPa) = 0.02304873
#
# Stress axis : x y z
#
# Youngs Moduli (GPa) = 58.04421 127.57926 76.63358
#
# Poissons Ratio (x) = 0.47236 0.06145
# Poissons Ratio (y) = 0.21491 0.23213
# Poissons Ratio (z) = 0.04654 0.38645
#
# Static dielectric constant tensor:
#      x y z
#    x 1.847460 -0.012710 -0.000070 
#    y -0.012710 1.962760 0.032950 
#    z -0.000070 0.032950 1.906210 
# 
# From -- ./inp_files/241988.got.cif
#   From: 2010.05.17/outbox.cif.g08.bks.cpg/sg2_121_cif.got.tgz:241988.got - 2010.06.03 11:33:40.
