data_PCOD9019481
_publ_section_title
;
Structure prediction by ZEFSAII (Michael W. Deem and Ramdas Pophale) SiO2 
 PCOD9019481
Probable space group: P -1
;
_chemical_formula_sum "Si O2"
_cell_formula_units_Z 16
_cell_length_a 12.475170
_cell_length_b 11.218979
_cell_length_c 9.092229
_cell_angle_alpha 97.315248
_cell_angle_beta 33.553571
_cell_angle_gamma 91.612026
_cell_volume 690.533168
_symmetry_space_group_name_H-M "P -1"
_symmetry_group_IT_number 2
_symmetry_cell_setting 'triclinic'
loop_
_space_group_symop_operation_xyz
x,y,z
-x,-y,-z
loop_
_atom_site_type_symbol
_atom_site_label
_atom_site_fract_x
_atom_site_fract_y
_atom_site_fract_z
Si Si1 0.762927 0.692875 0.825654
Si Si2 0.281001 0.495695 0.934846
Si Si3 0.342170 0.826593 0.441489
Si Si4 0.989244 0.916081 0.640160
Si Si5 0.707554 0.711493 0.308514
Si Si6 0.374568 0.394527 0.336619
Si Si7 0.209774 0.025006 0.833102
Si Si8 0.160623 0.622017 0.795815
O O1 0.909460 0.791425 0.669595
O O2 0.722068 0.638351 0.706821
O O3 0.838041 0.584159 0.836366
O O4 0.548961 0.760765 0.134117
O O5 0.394885 0.384135 0.686764
O O6 0.414917 0.560363 0.902865
O O7 0.202832 0.593739 0.916084
O O8 0.234435 0.736020 0.650326
O O9 0.195140 0.879001 0.485991
O O10 0.362203 0.934178 0.550380
O O11 0.833191 0.984942 0.946646
O O12 0.000000 0.000000 0.500000
O O13 0.615354 0.715585 0.575708
O O14 0.739463 0.840584 0.231099
O O15 0.928162 0.643744 0.053654
O O16 0.247845 0.507341 0.580558
O O17 0.000000 0.000000 0.000000
#
# Coordination Sequence:
#
# PCOD9019481 Si02
#       8
#     2   2   2   2   2   2   2   2
#     4  12  26  47  68 101 150 182 223 292 351 404
#     4  11  22  42  66  99 138 177 228 282 340 415
#     4  11  25  46  73 102 139 186 234 280 347 413
#     4  11  26  49  70 102 143 178 231 293 340 412
#     4  11  21  43  70 101 132 182 236 288 341 409
#     4  11  25  40  66  98 144 180 222 286 347 409
#     4  10  21  44  72  95 136 179 234 290 335 405
#     4  11  21  42  71 104 134 179 235 286 340 418
#
# _framework density 23.170501999999999
#
# number of rings (size 3 to 8) (size 9 to 14) (size 15 to 20)
#    0.000    1.000    5.000    3.375    3.500    1.000 
#    6.750    3.125    0.000    0.000    0.000    0.000 
#    0.000    0.000    0.000    0.000    0.000    0.000 
#
# Total GULP energy -89414.057508 kJ/mol
# GULP energy per Si atom -5588.378594 kJ/mol
# Density = 2.311776 g / cm^3
# Si number density = 23.170502 Si / 1000 Ang^3
#
#
#
# Elastic Constant Matrix: (Units=GPa)
#
#
# Indices 1 2 3 4 5 6 
#
# 1 159.5081 63.3360 21.4285 -9.7339 24.3034 -5.6635
# 2 63.3360 122.9709 33.4296 -35.5947 17.3596 -11.2437
# 3 21.4285 33.4296 34.6790 -7.1572 4.6122 -8.7322
# 4 -9.7339 -35.5947 -7.1572 41.0595 -6.4331 11.1999
# 5 24.3034 17.3596 4.6122 -6.4331 48.9030 -1.3104
# 6 -5.6635 -11.2437 -8.7322 11.1999 -1.3104 44.5159
#
#
#
# Elastic Compliance Matrix: (Units=1/GPa)
#
#
# Indices 1 2 3 4 5 6 
#
# 1 0.008432 -0.004332 -0.001088 -0.002478 -0.002868 0.000304
# 2 -0.004332 0.016951 -0.011429 0.011899 -0.001263 -0.001542
# 3 -0.001088 -0.011429 0.041093 -0.004654 0.000276 0.006215
# 4 -0.002478 0.011899 -0.004654 0.035510 0.001928 -0.007100
# 5 -0.002868 -0.001263 0.000276 0.001928 0.022538 -0.000451
# 6 0.000304 -0.001542 0.006215 -0.007100 -0.000451 0.025105
#
#
# Mechanical properties :
#
#
# Convention : Reuss Voigt Hill
#
# Bulk Modulus (GPa) = 30.50710 61.50514 46.00612
# Shear Modulus (GPa) = 25.73971 40.15993 32.94982
#
# Velocity S-wave (km/s) = 3.33661 4.16773 3.77511
# Velocity P-wave (km/s) = 5.29517 7.05423 6.23703
#
# Compressibility (1/GPa) = 0.03277925
#
# Stress axis : x y z
#
# Youngs Moduli (GPa) = 118.59559 58.99189 24.33530
#
# Poissons Ratio (x) = 0.25554 0.02647
# Poissons Ratio (y) = 0.51373 0.27812
# Poissons Ratio (z) = 0.12902 0.67420
#
# Static dielectric constant tensor:
#      x y z
#    x 1.936550 0.014250 -0.055170 
#    y 0.014250 1.951030 -0.012670 
#    z -0.055170 -0.012670 1.926160 
# 
# From -- ./inp_files/253881.got.cif
#   From: 2010.05.17/outbox.cif.g08.bks.cpg/sg2_127_cif.got.tgz:253881.got - 2010.06.03 11:33:40.
