data_PCOD9019869
_publ_section_title
;
Structure prediction by ZEFSAII (Michael W. Deem and Ramdas Pophale) SiO2 
 PCOD9019869
Probable space group: P -1
;
_chemical_formula_sum "Si O2"
_cell_formula_units_Z 16
_cell_length_a 11.987196
_cell_length_b 17.315107
_cell_length_c 9.004554
_cell_angle_alpha 52.637285
_cell_angle_beta 51.451857
_cell_angle_gamma 29.639087
_cell_volume 712.509839
_symmetry_space_group_name_H-M "P -1"
_symmetry_group_IT_number 2
_symmetry_cell_setting 'triclinic'
loop_
_space_group_symop_operation_xyz
x,y,z
-x,-y,-z
loop_
_atom_site_type_symbol
_atom_site_label
_atom_site_fract_x
_atom_site_fract_y
_atom_site_fract_z
Si Si1 0.612302 0.865915 0.681793
Si Si2 0.816588 0.229518 0.972441
Si Si3 0.698164 0.344183 0.251139
Si Si4 0.547342 0.218856 0.646653
Si Si5 0.779214 0.352282 0.583838
Si Si6 0.939930 0.479018 0.232235
Si Si7 0.286113 0.876705 0.049178
Si Si8 0.873187 0.872612 0.669458
O O1 0.722611 0.869344 0.721436
O O2 0.823963 0.675671 0.694631
O O3 0.500000 0.000000 0.500000
O O4 0.407588 0.907283 0.852989
O O5 0.890698 0.275573 0.743690
O O6 0.689208 0.222752 0.974608
O O7 0.688709 0.346169 0.080119
O O8 0.019104 0.053156 0.077572
O O9 0.644515 0.261682 0.435226
O O10 0.494267 0.509072 0.317635
O O11 0.952209 0.245056 0.203447
O O12 0.269264 0.351765 0.709863
O O13 0.597746 0.206456 0.793290
O O14 0.697486 0.049208 0.659899
O O15 0.822390 0.434094 0.377934
O O16 0.933099 0.199616 0.530299
O O17 0.000000 0.500000 0.000000
#
# Coordination Sequence:
#
# PCOD9019869 Si02
#       8
#     2   2   2   2   2   2   2   2
#     4  11  25  44  72  97 139 187 232 282 353 416
#     4  11  24  40  69 101 140 180 231 286 350 406
#     4  11  23  41  69 103 136 176 238 290 343 409
#     4  11  23  40  69 103 133 179 239 286 336 416
#     4  10  23  42  68 102 140 182 228 289 351 408
#     4  10  21  45  70  97 139 181 230 283 341 414
#     4  11  23  41  67  98 140 184 228 285 347 411
#     4  11  23  42  70  98 138 181 232 286 345 409
#
# _framework density 22.455831
#
# number of rings (size 3 to 8) (size 9 to 14) (size 15 to 20)
#    0.000    1.250    2.500    3.375    5.250    2.500 
#    0.000    0.625    5.500    0.000    0.000    0.000 
#    0.000    0.000    0.000    0.000    0.000    0.000 
#
# Total GULP energy -89205.324485 kJ/mol
# GULP energy per Si atom -5575.332780 kJ/mol
# Density = 2.240472 g / cm^3
# Si number density = 22.455831 Si / 1000 Ang^3
#
#
#
# Elastic Constant Matrix: (Units=GPa)
#
#
# Indices 1 2 3 4 5 6 
#
# 1 81.2829 46.7745 35.5496 11.0474 8.1258 8.3569
# 2 46.7745 159.8479 37.5905 -0.7806 11.9642 -4.5967
# 3 35.5496 37.5905 129.8705 -9.7062 13.2224 4.6800
# 4 11.0474 -0.7806 -9.7062 35.3601 1.9877 12.4962
# 5 8.1258 11.9642 13.2224 1.9877 33.5202 5.8886
# 6 8.3569 -4.5967 4.6800 12.4962 5.8886 18.3072
#
#
#
# Elastic Compliance Matrix: (Units=1/GPa)
#
#
# Indices 1 2 3 4 5 6 
#
# 1 0.017673 -0.004450 -0.003736 -0.004931 -0.000080 -0.004838
# 2 -0.004450 0.008156 -0.001147 -0.000557 -0.002313 0.005496
# 3 -0.003736 -0.001147 0.009826 0.005405 -0.002163 -0.004088
# 4 -0.004931 -0.000557 0.005405 0.041031 0.001718 -0.027831
# 5 -0.000080 -0.002313 -0.002163 0.001718 0.033528 -0.011948
# 6 -0.004838 0.005496 -0.004088 -0.027831 -0.011948 0.082097
#
#
# Mechanical properties :
#
#
# Convention : Reuss Voigt Hill
#
# Bulk Modulus (GPa) = 58.85816 67.87006 63.36411
# Shear Modulus (GPa) = 23.07976 34.17663 28.62820
#
# Velocity S-wave (km/s) = 3.20939 3.90545 3.57440
# Velocity P-wave (km/s) = 6.32464 7.11520 6.73154
#
# Compressibility (1/GPa) = 0.01699000
#
# Stress axis : x y z
#
# Youngs Moduli (GPa) = 56.58364 122.60466 101.77025
#
# Poissons Ratio (x) = 0.54562 0.38017
# Poissons Ratio (y) = 0.25181 0.11672
# Poissons Ratio (z) = 0.21137 0.14061
#
# Static dielectric constant tensor:
#      x y z
#    x 1.844140 -0.018820 -0.004750 
#    y -0.018820 1.944140 -0.028930 
#    z -0.004750 -0.028930 1.853740 
# 
# From -- ./inp_files/278958.got.cif
#   From: 2010.05.17/outbox.cif.g08.bks.cpg/sg2_140_cif.got.tgz:278958.got - 2010.06.03 11:33:40.
