data_PCOD9019630
_publ_section_title
;
Structure prediction by ZEFSAII (Michael W. Deem and Ramdas Pophale) SiO2 
 PCOD9019630
Probable space group: P -1
;
_chemical_formula_sum "Si O2"
_cell_formula_units_Z 14
_cell_length_a 5.237884
_cell_length_b 7.283308
_cell_length_c 19.876202
_cell_angle_alpha 133.931415
_cell_angle_beta 72.556970
_cell_angle_gamma 105.778945
_cell_volume 518.703360
_symmetry_space_group_name_H-M "P -1"
_symmetry_group_IT_number 2
_symmetry_cell_setting 'triclinic'
loop_
_space_group_symop_operation_xyz
x,y,z
-x,-y,-z
loop_
_atom_site_type_symbol
_atom_site_label
_atom_site_fract_x
_atom_site_fract_y
_atom_site_fract_z
Si Si1 0.209780 0.819313 0.206814
Si Si2 0.291794 0.271158 0.098952
Si Si3 0.121219 0.356704 0.515138
Si Si4 0.640364 0.475448 0.702777
Si Si5 0.898246 0.863325 0.367649
Si Si6 0.506716 0.240442 0.344802
Si Si7 0.177984 0.771949 0.043151
O O1 0.153084 0.515608 0.145711
O O2 0.004787 0.940693 0.303932
O O3 0.201291 0.870085 0.142385
O O4 0.497643 0.947257 0.245499
O O5 0.416446 0.357059 0.184031
O O6 0.098814 0.013095 0.065717
O O7 0.532405 0.254884 0.021763
O O8 0.345352 0.362181 0.326516
O O9 0.375372 0.238753 0.429215
O O10 0.000000 0.500000 0.500000
O O11 0.236773 0.558348 0.612429
O O12 0.889862 0.325162 0.669054
O O13 0.391144 0.273591 0.655276
O O14 0.907558 0.110916 0.477351
O O15 0.000000 0.500000 0.000000
#
# Coordination Sequence:
#
# PCOD9019630 Si02
#       7
#     2   2   2   2   2   2   2
#     4  10  21  45  64 100 136 195 228 294 357 423
#     4  10  23  41  68 100 147 178 246 295 351 439
#     4  10  24  42  65  99 134 188 234 295 352 429
#     4  11  23  46  66 106 135 188 235 296 354 428
#     4  10  25  41  71  96 146 180 242 294 351 425
#     4  10  23  42  67  94 139 184 234 289 363 420
#     4  11  22  41  67 102 140 192 235 298 363 424
#
# _framework density 26.990379000000001
#
# number of rings (size 3 to 8) (size 9 to 14) (size 15 to 20)
#    0.000    1.714    1.429    1.286   10.000    1.714 
#    5.143    0.000    0.000    0.000    0.000    0.000 
#    0.000    0.000    0.000    0.000    0.000    0.000 
#
# Total GULP energy -78194.450802 kJ/mol
# GULP energy per Si atom -5585.317914 kJ/mol
# Density = 2.692895 g / cm^3
# Si number density = 26.990379 Si / 1000 Ang^3
#
#
#
# Elastic Constant Matrix: (Units=GPa)
#
#
# Indices 1 2 3 4 5 6 
#
# 1 84.8218 42.0483 26.3873 -2.3413 23.7165 6.2126
# 2 42.0483 208.1466 72.4301 -2.5435 13.9471 15.1464
# 3 26.3873 72.4301 132.1279 -11.2033 22.1868 13.2159
# 4 -2.3413 -2.5435 -11.2033 61.4619 0.9433 6.1957
# 5 23.7165 13.9471 22.1868 0.9433 38.4582 1.2035
# 6 6.2126 15.1464 13.2159 6.1957 1.2035 52.2717
#
#
#
# Elastic Compliance Matrix: (Units=1/GPa)
#
#
# Indices 1 2 3 4 5 6 
#
# 1 0.015537 -0.002422 -0.000176 0.000691 -0.008588 -0.000984
# 2 -0.002422 0.006365 -0.003131 -0.000340 0.001023 -0.000748
# 3 -0.000176 -0.003131 0.010483 0.002035 -0.004796 -0.001853
# 4 0.000691 -0.000340 0.002035 0.016930 -0.001815 -0.002463
# 5 -0.008588 0.001023 -0.004796 -0.001815 0.033695 0.001376
# 6 -0.000984 -0.000748 -0.001853 -0.002463 0.001376 0.020193
#
#
# Mechanical properties :
#
#
# Convention : Reuss Voigt Hill
#
# Bulk Modulus (GPa) = 47.78641 78.53641 63.16141
# Shear Modulus (GPa) = 41.10577 49.38708 45.24642
#
# Velocity S-wave (km/s) = 3.90677 4.28226 4.09882
# Velocity P-wave (km/s) = 6.17202 7.32198 6.77146
#
# Compressibility (1/GPa) = 0.02092645
#
# Stress axis : x y z
#
# Youngs Moduli (GPa) = 64.36201 157.11240 95.38972
#
# Poissons Ratio (x) = 0.38051 0.01681
# Poissons Ratio (y) = 0.15588 0.29869
# Poissons Ratio (z) = 0.01134 0.49197
#
# Static dielectric constant tensor:
#      x y z
#    x 2.184410 0.047920 -0.040740 
#    y 0.047920 2.253760 0.068550 
#    z -0.040740 0.068550 2.191220 
# 
# From -- ./inp_files/586328.got.cif
#   From: 2010.05.17/outbox.cif.g08.bks.cpg/sg2_294_cif.got.tgz:586328.got - 2010.06.03 11:33:40.
