data_PCOD9019349
_publ_section_title
;
Structure prediction by ZEFSAII (Michael W. Deem and Ramdas Pophale) SiO2 
 PCOD9019349
Probable space group: P -1
;
_chemical_formula_sum "Si O2"
_cell_formula_units_Z 14
_cell_length_a 8.331273
_cell_length_b 17.327077
_cell_length_c 15.288006
_cell_angle_alpha 156.275585
_cell_angle_beta 128.203717
_cell_angle_gamma 38.638727
_cell_volume 511.776625
_symmetry_space_group_name_H-M "P -1"
_symmetry_group_IT_number 2
_symmetry_cell_setting 'triclinic'
loop_
_space_group_symop_operation_xyz
x,y,z
-x,-y,-z
loop_
_atom_site_type_symbol
_atom_site_label
_atom_site_fract_x
_atom_site_fract_y
_atom_site_fract_z
Si Si1 0.722652 0.732125 0.702140
Si Si2 0.113065 0.615426 0.448872
Si Si3 0.229391 0.032139 0.708946
Si Si4 0.027172 0.904153 0.007740
Si Si5 0.350308 0.442834 0.980646
Si Si6 0.553880 0.747702 0.354762
Si Si7 0.342519 0.540752 0.262437
O O1 0.703612 0.581342 0.613027
O O2 0.464557 0.923387 0.747951
O O3 0.000000 0.500000 0.500000
O O4 0.803350 0.883220 0.929541
O O5 0.281048 0.507563 0.303399
O O6 0.849561 0.644114 0.376563
O O7 0.346479 0.970530 0.586346
O O8 0.166437 0.845863 0.506745
O O9 0.946781 0.327828 0.926409
O O10 0.702987 0.570779 0.950351
O O11 0.333364 0.617066 0.805405
O O12 0.997723 0.102125 0.268634
O O13 0.000000 0.000000 0.000000
O O14 0.513226 0.542603 0.139609
O O15 0.496278 0.203171 0.715627
#
# Coordination Sequence:
#
# PCOD9019349 Si02
#       7
#     2   2   2   2   2   2   2
#     4  12  22  49  78 107 149 193 240 303 360 444
#     4  12  27  46  75 111 147 192 239 301 373 427
#     4  11  22  45  75 105 148 192 243 302 365 430
#     4  12  25  47  75 106 148 194 240 300 370 425
#     4  10  24  46  76 106 143 199 244 302 365 427
#     4  10  21  44  71 101 143 186 244 291 360 430
#     4  11  25  45  69 108 151 185 248 305 351 445
#
# _framework density 27.355684
#
# number of rings (size 3 to 8) (size 9 to 14) (size 15 to 20)
#    0.000    0.857    4.286    2.571    0.000   10.857 
#    0.000   12.857    0.000    0.000    0.000    0.000 
#    0.000    0.000    0.000    0.000    0.000    0.000 
#
# Total GULP energy -78542.621260 kJ/mol
# GULP energy per Si atom -5610.187233 kJ/mol
# Density = 2.729342 g / cm^3
# Si number density = 27.355684 Si / 1000 Ang^3
#
#
#
# Elastic Constant Matrix: (Units=GPa)
#
#
# Indices 1 2 3 4 5 6 
#
# 1 116.3118 65.1016 64.3510 -25.3748 -9.4599 -2.6326
# 2 65.1016 163.8488 39.1424 -29.0972 -17.8043 -1.5092
# 3 64.3510 39.1424 111.5382 -35.6683 5.4632 -0.1691
# 4 -25.3748 -29.0972 -35.6683 40.4821 -7.6624 -9.8677
# 5 -9.4599 -17.8043 5.4632 -7.6624 48.8694 -14.6462
# 6 -2.6326 -1.5092 -0.1691 -9.8677 -14.6462 64.7513
#
#
#
# Elastic Compliance Matrix: (Units=1/GPa)
#
#
# Indices 1 2 3 4 5 6 
#
# 1 0.015261 -0.003742 -0.007161 0.001494 0.003055 0.001433
# 2 -0.003742 0.008903 0.000727 0.005883 0.003911 0.001838
# 3 -0.007161 0.000727 0.016225 0.010426 -0.000959 0.001140
# 4 0.001494 0.005883 0.010426 0.043371 0.010851 0.009289
# 5 0.003055 0.003911 -0.000959 0.010851 0.026654 0.007895
# 6 0.001433 0.001838 0.001140 0.009289 0.007895 0.018749
#
#
# Mechanical properties :
#
#
# Convention : Reuss Voigt Hill
#
# Bulk Modulus (GPa) = 49.91039 80.98763 65.44901
# Shear Modulus (GPa) = 32.01142 45.69412 38.85277
#
# Velocity S-wave (km/s) = 3.42452 4.09145 3.77275
# Velocity P-wave (km/s) = 5.82418 7.21038 6.55403
#
# Compressibility (1/GPa) = 0.02003591
#
# Stress axis : x y z
#
# Youngs Moduli (GPa) = 65.52603 112.32136 61.63489
#
# Poissons Ratio (x) = 0.42035 0.44138
# Poissons Ratio (y) = 0.24523 -0.04482
# Poissons Ratio (z) = 0.46924 -0.08167
#
# Static dielectric constant tensor:
#      x y z
#    x 2.142480 0.013820 0.032110 
#    y 0.013820 2.175510 -0.028140 
#    z 0.032110 -0.028140 2.112370 
# 
# From -- ./inp_files/503250.got.cif
#   From: 2010.05.17/outbox.cif.g08.bks.cpg/sg2_252_cif.got.tgz:503250.got - 2010.06.03 11:33:40.
