data_PCOD9019374
_publ_section_title
;
Structure prediction by ZEFSAII (Michael W. Deem and Ramdas Pophale) SiO2 
 PCOD9019374
Probable space group: P -1
;
_chemical_formula_sum "Si O2"
_cell_formula_units_Z 12
_cell_length_a 9.066372
_cell_length_b 13.427908
_cell_length_c 10.839213
_cell_angle_alpha 46.987831
_cell_angle_beta 152.503573
_cell_angle_gamma 133.397227
_cell_volume 432.160272
_symmetry_space_group_name_H-M "P -1"
_symmetry_group_IT_number 2
_symmetry_cell_setting 'triclinic'
loop_
_space_group_symop_operation_xyz
x,y,z
-x,-y,-z
loop_
_atom_site_type_symbol
_atom_site_label
_atom_site_fract_x
_atom_site_fract_y
_atom_site_fract_z
Si Si1 0.163881 0.907631 0.964392
Si Si2 0.935548 0.832419 0.106300
Si Si3 0.381102 0.530767 0.590419
Si Si4 0.302411 0.656330 0.684283
Si Si5 0.821257 0.070090 0.412351
Si Si6 0.464587 0.294781 0.696154
O O1 0.448547 0.037898 0.117372
O O2 0.863408 0.969207 0.643415
O O3 0.320397 0.821259 0.053618
O O4 0.067385 0.803417 0.094140
O O5 0.138454 0.775762 0.406710
O O6 0.000000 0.000000 0.000000
O O7 0.456068 0.597315 0.726351
O O8 0.544477 0.404259 0.775291
O O9 0.481881 0.630904 0.461289
O O10 0.987747 0.464115 0.371204
O O11 0.568346 0.736505 0.910816
O O12 0.078436 0.218412 0.490605
O O13 0.000000 0.000000 0.500000
#
# Coordination Sequence:
#
# PCOD9019374 Si02
#       6
#     2   2   2   2   2   2
#     4  11  23  44  69 107 138 179 230 301 346 410
#     4  12  27  46  79 101 140 184 238 295 356 412
#     4  10  24  45  75 100 147 192 232 286 344 426
#     4  11  26  52  70 106 141 186 240 287 345 423
#     4  10  22  40  68 101 144 173 224 295 352 402
#     4  10  21  44  71 107 139 188 234 284 356 415
#
# _framework density 27.767477
#
# number of rings (size 3 to 8) (size 9 to 14) (size 15 to 20)
#    0.000    1.333    1.667    3.500    7.000    2.667 
#    0.000    5.833    0.000    0.000    0.000    0.000 
#    0.000    0.000    0.000    0.000    0.000    0.000 
#
# Total GULP energy -67185.680417 kJ/mol
# GULP energy per Si atom -5598.806701 kJ/mol
# Density = 2.770428 g / cm^3
# Si number density = 27.767477 Si / 1000 Ang^3
#
#
#
# Elastic Constant Matrix: (Units=GPa)
#
#
# Indices 1 2 3 4 5 6 
#
# 1 156.5640 30.2184 13.6208 -16.8450 -12.6177 3.0583
# 2 30.2184 141.3064 26.0151 -28.5256 25.4404 -29.8534
# 3 13.6208 26.0151 98.3929 -16.2852 -6.1116 -5.7768
# 4 -16.8450 -28.5256 -16.2852 25.6962 9.8075 -1.6593
# 5 -12.6177 25.4404 -6.1116 9.8075 29.4628 -11.9005
# 6 3.0583 -29.8534 -5.7768 -1.6593 -11.9005 57.8359
#
#
#
# Elastic Compliance Matrix: (Units=1/GPa)
#
#
# Indices 1 2 3 4 5 6 
#
# 1 0.007325 -0.002731 -0.000061 -0.000340 0.005304 -0.000722
# 2 -0.002731 0.019805 -0.001219 0.029760 -0.026117 0.005725
# 3 -0.000061 -0.001219 0.011550 0.005179 0.002150 0.001119
# 4 -0.000340 0.029760 0.005179 0.095978 -0.053643 0.007613
# 5 0.005304 -0.026117 0.002150 -0.053643 0.077407 0.000842
# 6 -0.000722 0.005725 0.001119 0.007613 0.000842 0.020787
#
#
# Mechanical properties :
#
#
# Convention : Reuss Voigt Hill
#
# Bulk Modulus (GPa) = 32.61798 59.55244 46.08521
# Shear Modulus (GPa) = 19.91295 44.35960 32.13628
#
# Velocity S-wave (km/s) = 2.68084 4.00126 3.40565
# Velocity P-wave (km/s) = 4.62113 6.54524 5.66547
#
# Compressibility (1/GPa) = 0.03065794
#
# Stress axis : x y z
#
# Youngs Moduli (GPa) = 136.52636 50.49321 86.57701
#
# Poissons Ratio (x) = 0.13790 0.00528
# Poissons Ratio (y) = 0.37287 0.10551
# Poissons Ratio (z) = 0.00833 0.06154
#
# Static dielectric constant tensor:
#      x y z
#    x 2.231100 -0.045550 0.061180 
#    y -0.045550 2.190860 -0.022740 
#    z 0.061180 -0.022740 2.168390 
# 
# From -- ./inp_files/151159.got.cif
#   From: 2010.05.17/outbox.cif.g08.bks.cpg/sg2_76_cif.got.tgz:151159.got - 2010.06.03 11:33:40.
