data_PCOD9019311
_publ_section_title
;
Structure prediction by ZEFSAII (Michael W. Deem and Ramdas Pophale) SiO2 
 PCOD9019311
Probable space group: P -1
;
_chemical_formula_sum "Si O2"
_cell_formula_units_Z 16
_cell_length_a 19.694409
_cell_length_b 5.386185
_cell_length_c 17.006668
_cell_angle_alpha 85.308958
_cell_angle_beta 158.728032
_cell_angle_gamma 98.794838
_cell_volume 637.461633
_symmetry_space_group_name_H-M "P -1"
_symmetry_group_IT_number 2
_symmetry_cell_setting 'triclinic'
loop_
_space_group_symop_operation_xyz
x,y,z
-x,-y,-z
loop_
_atom_site_type_symbol
_atom_site_label
_atom_site_fract_x
_atom_site_fract_y
_atom_site_fract_z
Si Si1 0.631800 0.888420 0.471880
Si Si2 0.824995 0.142018 0.812172
Si Si3 0.328393 0.825985 0.647178
Si Si4 0.972901 0.597137 0.840741
Si Si5 0.986205 0.988083 0.352710
Si Si6 0.830019 0.639829 0.330616
Si Si7 0.549530 0.382102 0.926386
Si Si8 0.778471 0.346924 0.029263
O O1 0.807365 0.752895 0.643280
O O2 0.651041 0.965423 0.582518
O O3 0.663038 0.124439 0.438681
O O4 0.425561 0.721572 0.232824
O O5 0.881006 0.383631 0.809138
O O6 0.842437 0.233447 0.918274
O O7 0.000000 0.000000 0.000000
O O8 0.413355 0.579464 0.760828
O O9 0.122998 0.820775 0.465441
O O10 0.458202 0.089328 0.815477
O O11 0.061966 0.503901 0.861285
O O12 0.130934 0.219794 0.548035
O O13 0.863793 0.101996 0.153138
O O14 0.851262 0.861218 0.281802
O O15 0.000000 0.500000 0.500000
O O16 0.643701 0.428481 0.112484
O O17 0.723947 0.459468 0.049448
#
# Coordination Sequence:
#
# PCOD9019311 Si02
#       8
#     2   2   2   2   2   2   2   2
#     4  10  22  40  68  99 141 172 228 287 343 411
#     4   9  21  42  65  99 137 179 224 280 343 419
#     4  11  26  45  71 105 140 182 236 298 350 419
#     4  10  21  44  70  97 136 180 229 280 349 413
#     4  11  25  45  70 102 138 187 236 289 360 417
#     4  11  24  44  68  95 143 187 233 294 353 421
#     4  11  26  46  68 103 143 179 239 296 352 421
#     4  11  23  45  69 103 135 182 233 289 349 412
#
# _framework density 25.099547000000001
#
# number of rings (size 3 to 8) (size 9 to 14) (size 15 to 20)
#    0.000    1.500    2.500    1.500    7.000    2.500 
#    9.000    5.625    0.000    0.000    0.000    0.000 
#    0.000    0.000    0.000    0.000    0.000    0.000 
#
# Total GULP energy -89495.820840 kJ/mol
# GULP energy per Si atom -5593.488803 kJ/mol
# Density = 2.504242 g / cm^3
# Si number density = 25.099547 Si / 1000 Ang^3
#
#
#
# Elastic Constant Matrix: (Units=GPa)
#
#
# Indices 1 2 3 4 5 6 
#
# 1 95.4134 4.4226 31.2248 3.9798 18.7045 -25.7753
# 2 4.4226 72.7074 28.8844 -4.5360 0.2504 -8.0069
# 3 31.2248 28.8844 132.4353 1.5206 -15.1098 -12.7521
# 4 3.9798 -4.5360 1.5206 46.7643 -17.2302 -7.4589
# 5 18.7045 0.2504 -15.1098 -17.2302 43.6634 1.1125
# 6 -25.7753 -8.0069 -12.7521 -7.4589 1.1125 38.4007
#
#
#
# Elastic Compliance Matrix: (Units=1/GPa)
#
#
# Indices 1 2 3 4 5 6 
#
# 1 0.016632 0.001661 -0.004484 -0.003344 -0.010252 0.009669
# 2 0.001661 0.015584 -0.003652 0.001464 -0.001576 0.003482
# 3 -0.004484 -0.003652 0.010067 0.001948 0.006200 -0.000229
# 4 -0.003344 0.001464 0.001948 0.026980 0.012654 0.003582
# 5 -0.010252 -0.001576 0.006200 0.012654 0.034536 -0.003694
# 6 0.009669 0.003482 -0.000229 0.003582 -0.003694 0.033984
#
#
# Mechanical properties :
#
#
# Convention : Reuss Voigt Hill
#
# Bulk Modulus (GPa) = 34.09006 47.73549 40.91278
# Shear Modulus (GPa) = 31.15042 41.50064 36.32553
#
# Velocity S-wave (km/s) = 3.52671 4.07066 3.80841
# Velocity P-wave (km/s) = 5.49500 6.41510 5.97279
#
# Compressibility (1/GPa) = 0.02933407
#
# Stress axis : x y z
#
# Youngs Moduli (GPa) = 60.12367 64.16991 99.32953
#
# Poissons Ratio (x) = -0.10660 0.44540
# Poissons Ratio (y) = -0.09988 0.36273
# Poissons Ratio (z) = 0.26960 0.23434
#
# Static dielectric constant tensor:
#      x y z
#    x 1.926020 -0.135390 0.042430 
#    y -0.135390 1.830650 0.204210 
#    z 0.042430 0.204210 1.949890 
# 
# From -- ./inp_files/576797.got.cif
#   From: 2010.05.17/outbox.cif.g08.bks.cpg/sg2_289_cif.got.tgz:576797.got - 2010.06.03 11:33:40.
