data_PCOD9019963
_publ_section_title
;
Structure prediction by ZEFSAII (Michael W. Deem and Ramdas Pophale) SiO2 
 PCOD9019963
Probable space group: P -1
;
_chemical_formula_sum "Si O2"
_cell_formula_units_Z 16
_cell_length_a 4.938495
_cell_length_b 8.793001
_cell_length_c 19.235647
_cell_angle_alpha 54.153710
_cell_angle_beta 63.453831
_cell_angle_gamma 66.237742
_cell_volume 594.101365
_symmetry_space_group_name_H-M "P -1"
_symmetry_group_IT_number 2
_symmetry_cell_setting 'triclinic'
loop_
_space_group_symop_operation_xyz
x,y,z
-x,-y,-z
loop_
_atom_site_type_symbol
_atom_site_label
_atom_site_fract_x
_atom_site_fract_y
_atom_site_fract_z
Si Si1 0.357724 0.616412 0.379461
Si Si2 0.405301 0.125902 0.357127
Si Si3 0.943809 0.351177 0.445694
Si Si4 0.864900 0.290948 0.834155
Si Si5 0.256653 0.177347 0.952882
Si Si6 0.034013 0.684010 0.754693
Si Si7 0.293753 0.060995 0.743701
Si Si8 0.074154 0.699053 0.906264
O O1 0.643931 0.440484 0.410782
O O2 0.183368 0.675799 0.456254
O O3 0.486509 0.800547 0.289899
O O4 0.130351 0.523311 0.383676
O O5 0.616489 0.285671 0.296975
O O6 0.178904 0.165960 0.438653
O O7 0.162459 0.153509 0.314167
O O8 0.654213 0.947442 0.344220
O O9 0.060603 0.178680 0.905747
O O10 0.967617 0.493373 0.777162
O O11 0.971071 0.167163 0.786547
O O12 0.493837 0.325156 0.877623
O O13 0.029293 0.199537 0.036826
O O14 0.500000 0.000000 0.000000
O O15 0.942821 0.691568 0.844775
O O16 0.320363 0.837294 0.821644
O O17 0.000000 0.500000 0.000000
#
# Coordination Sequence:
#
# PCOD9019963 Si02
#       8
#     2   2   2   2   2   2   2   2
#     4  10  23  43  73 104 134 172 218 266 328 399
#     4  11  24  41  66  99 137 171 215 268 333 390
#     4  10  21  45  74 102 135 174 213 263 332 411
#     4  12  25  42  66  90 125 171 223 276 334 387
#     4  12  26  43  65  91 122 171 226 283 331 387
#     4  11  25  43  66  95 130 176 221 277 328 394
#     4  11  26  42  67 100 136 173 222 280 324 391
#     4  11  25  47  66  94 134 180 230 278 334 388
#
# _framework density 26.931433999999999
#
# number of rings (size 3 to 8) (size 9 to 14) (size 15 to 20)
#    0.000    1.000    2.500    3.375    3.500    5.000 
#    0.000    0.000    0.000    8.250    0.000    0.000 
#    0.000    0.000    0.000    0.000    0.000    0.000 
#
# Total GULP energy -89146.702946 kJ/mol
# GULP energy per Si atom -5571.668934 kJ/mol
# Density = 2.687014 g / cm^3
# Si number density = 26.931434 Si / 1000 Ang^3
#
#
#
# Elastic Constant Matrix: (Units=GPa)
#
#
# Indices 1 2 3 4 5 6 
#
# 1 119.2039 7.9791 34.4065 -1.2311 0.4335 15.8592
# 2 7.9791 87.3824 31.4604 19.9874 -9.4620 22.2053
# 3 34.4065 31.4604 92.2447 14.1808 -22.9903 9.2735
# 4 -1.2311 19.9874 14.1808 77.7487 9.6119 -9.9670
# 5 0.4335 -9.4620 -22.9903 9.6119 45.2284 -6.3921
# 6 15.8592 22.2053 9.2735 -9.9670 -6.3921 27.1394
#
#
#
# Elastic Compliance Matrix: (Units=1/GPa)
#
#
# Indices 1 2 3 4 5 6 
#
# 1 0.010563 0.002244 -0.004728 -0.000088 -0.003025 -0.007138
# 2 0.002244 0.018697 -0.004377 -0.006256 0.000552 -0.017281
# 3 -0.004728 -0.004377 0.016421 -0.002756 0.008299 0.001676
# 4 -0.000088 -0.006256 -0.002756 0.016998 -0.004733 0.011240
# 5 -0.003025 0.000552 0.008299 -0.004733 0.027949 0.003325
# 6 -0.007138 -0.017281 0.001676 0.011240 0.003325 0.059496
#
#
# Mechanical properties :
#
#
# Convention : Reuss Voigt Hill
#
# Bulk Modulus (GPa) = 31.28974 49.61367 40.45171
# Shear Modulus (GPa) = 28.65349 45.02228 36.83789
#
# Velocity S-wave (km/s) = 3.26535 4.09312 3.70244
# Velocity P-wave (km/s) = 5.08529 6.38752 5.77324
#
# Compressibility (1/GPa) = 0.03195936
#
# Stress axis : x y z
#
# Youngs Moduli (GPa) = 94.66740 53.48369 60.89876
#
# Poissons Ratio (x) = -0.12004 0.28794
# Poissons Ratio (y) = -0.21247 0.26656
# Poissons Ratio (z) = 0.44761 0.23411
#
# Static dielectric constant tensor:
#      x y z
#    x 2.051160 -0.076640 -0.029170 
#    y -0.076640 2.397520 -0.137760 
#    z -0.029170 -0.137760 2.224420 
# 
# From -- ./inp_files/581851.got.cif
#   From: 2010.05.17/outbox.cif.g08.bks.cpg/sg2_291_cif.got.tgz:581851.got - 2010.06.03 11:33:40.
