data_PCOD9019219
_publ_section_title
;
Structure prediction by ZEFSAII (Michael W. Deem and Ramdas Pophale) SiO2 
 PCOD9019219
Probable space group: P -1
;
_chemical_formula_sum "Si O2"
_cell_formula_units_Z 14
_cell_length_a 10.722026
_cell_length_b 8.130798
_cell_length_c 9.529783
_cell_angle_alpha 130.792541
_cell_angle_beta 68.000999
_cell_angle_gamma 116.249285
_cell_volume 559.611031
_symmetry_space_group_name_H-M "P -1"
_symmetry_group_IT_number 2
_symmetry_cell_setting 'triclinic'
loop_
_space_group_symop_operation_xyz
x,y,z
-x,-y,-z
loop_
_atom_site_type_symbol
_atom_site_label
_atom_site_fract_x
_atom_site_fract_y
_atom_site_fract_z
Si Si1 0.891935 0.544856 0.229907
Si Si2 0.992200 0.218150 0.209382
Si Si3 0.487679 0.702850 0.424736
Si Si4 0.753644 0.697871 0.637451
Si Si5 0.574564 0.988528 0.820028
Si Si6 0.257840 0.936934 0.554491
Si Si7 0.821566 0.220317 0.810706
O O1 0.979634 0.409854 0.212331
O O2 0.790526 0.609393 0.423569
O O3 0.006991 0.755726 0.232763
O O4 0.824692 0.383354 0.041408
O O5 0.851590 0.137121 0.315340
O O6 0.126465 0.299930 0.300919
O O7 0.000000 0.000000 0.000000
O O8 0.402086 0.440537 0.325222
O O9 0.502752 0.808978 0.635502
O O10 0.375197 0.807624 0.458756
O O11 0.642861 0.802254 0.351358
O O12 0.734245 0.951518 0.765630
O O13 0.648153 0.226924 0.856458
O O14 0.500000 0.000000 0.000000
O O15 0.176626 0.861558 0.403585
#
# Coordination Sequence:
#
# PCOD9019219 Si02
#       7
#     2   2   2   2   2   2   2
#     4  11  22  42  69  99 135 166 226 274 329 391
#     4  12  25  43  69 101 135 176 217 272 337 394
#     4  10  22  41  70  93 132 179 219 270 330 387
#     4  12  23  42  73  97 132 177 223 275 330 390
#     4  11  25  43  65  96 139 177 222 268 336 396
#     4  10  21  44  69  96 137 174 216 275 332 391
#     4  10  22  42  66  99 131 175 215 281 325 389
#
# _framework density 25.017375000000001
#
# number of rings (size 3 to 8) (size 9 to 14) (size 15 to 20)
#    0.000    1.143    2.857    3.429    2.000    0.571 
#   12.857    0.714    0.000    0.000    0.000    0.000 
#    0.000    0.000    0.000    0.000    0.000    0.000 
#
# Total GULP energy -77987.327965 kJ/mol
# GULP energy per Si atom -5570.523426 kJ/mol
# Density = 2.496043 g / cm^3
# Si number density = 25.017375 Si / 1000 Ang^3
#
#
#
# Elastic Constant Matrix: (Units=GPa)
#
#
# Indices 1 2 3 4 5 6 
#
# 1 101.0864 33.5139 39.3733 9.3282 29.4291 2.2883
# 2 33.5139 94.7932 15.9990 16.0640 15.0736 31.5307
# 3 39.3733 15.9990 105.5112 0.1656 7.5806 16.4683
# 4 9.3282 16.0640 0.1656 42.1761 7.2089 3.1311
# 5 29.4291 15.0736 7.5806 7.2089 32.8784 3.3466
# 6 2.2883 31.5307 16.4683 3.1311 3.3466 56.2960
#
#
#
# Elastic Compliance Matrix: (Units=1/GPa)
#
#
# Indices 1 2 3 4 5 6 
#
# 1 0.016994 -0.004479 -0.005427 -0.000241 -0.012275 0.004149
# 2 -0.004479 0.015816 0.000734 -0.004121 -0.001636 -0.008565
# 3 -0.005427 0.000734 0.011843 0.000816 0.002001 -0.003819
# 4 -0.000241 -0.004121 0.000816 0.025924 -0.003855 0.000866
# 5 -0.012275 -0.001636 0.002001 -0.003855 0.042689 -0.001493
# 6 0.004149 -0.008565 -0.003819 0.000866 -0.001493 0.023549
#
#
# Mechanical properties :
#
#
# Convention : Reuss Voigt Hill
#
# Bulk Modulus (GPa) = 38.01223 53.24034 45.62629
# Shear Modulus (GPa) = 30.50090 40.43706 35.46898
#
# Velocity S-wave (km/s) = 3.49548 4.02476 3.76942
# Velocity P-wave (km/s) = 5.61413 6.55178 6.10099
#
# Compressibility (1/GPa) = 0.02630732
#
# Stress axis : x y z
#
# Youngs Moduli (GPa) = 58.84581 63.22590 84.43956
#
# Poissons Ratio (x) = 0.28320 0.45829
# Poissons Ratio (y) = 0.26358 -0.06198
# Poissons Ratio (z) = 0.31938 -0.04641
#
# Static dielectric constant tensor:
#      x y z
#    x 2.047640 -0.061470 -0.095240 
#    y -0.061470 2.334690 0.074030 
#    z -0.095240 0.074030 1.938960 
# 
# From -- ./inp_files/223794.got.cif
#   From: 2010.05.17/outbox.cif.g08.bks.cpg/sg2_112_cif.got.tgz:223794.got - 2010.06.03 11:33:40.
