data_PCOD9019396
_publ_section_title
;
Structure prediction by ZEFSAII (Michael W. Deem and Ramdas Pophale) SiO2 
 PCOD9019396
Probable space group: P -1
;
_chemical_formula_sum "Si O2"
_cell_formula_units_Z 16
_cell_length_a 10.208963
_cell_length_b 14.144296
_cell_length_c 5.644753
_cell_angle_alpha 119.403949
_cell_angle_beta 87.398734
_cell_angle_gamma 78.073813
_cell_volume 684.378693
_symmetry_space_group_name_H-M "P -1"
_symmetry_group_IT_number 2
_symmetry_cell_setting 'triclinic'
loop_
_space_group_symop_operation_xyz
x,y,z
-x,-y,-z
loop_
_atom_site_type_symbol
_atom_site_label
_atom_site_fract_x
_atom_site_fract_y
_atom_site_fract_z
Si Si1 0.097123 0.927144 0.102435
Si Si2 0.601821 0.927632 0.211193
Si Si3 0.105002 0.676547 0.262162
Si Si4 0.882375 0.861177 0.334108
Si Si5 0.386597 0.677882 0.241274
Si Si6 0.127231 0.548029 0.597199
Si Si7 0.391236 0.858002 0.823315
Si Si8 0.407781 0.458118 0.270567
O O1 0.000345 0.855793 0.126302
O O2 0.130809 0.018877 0.392076
O O3 0.244984 0.853173 0.926125
O O4 0.000000 0.000000 0.000000
O O5 0.739337 0.857249 0.234707
O O6 0.500000 0.000000 0.500000
O O7 0.641108 0.020685 0.155352
O O8 0.512397 0.862034 0.993638
O O9 0.227716 0.736052 0.279822
O O10 0.121163 0.632631 0.478358
O O11 0.954100 0.758813 0.369152
O O12 0.120712 0.594019 0.926177
O O13 0.438046 0.754122 0.516051
O O14 0.378050 0.556413 0.193402
O O15 0.493591 0.651260 0.988332
O O16 0.270287 0.457006 0.415512
O O17 0.000000 0.500000 0.500000
O O18 0.500000 0.500000 0.500000
#
# Coordination Sequence:
#
# PCOD9019396 Si02
#       8
#     2   2   2   2   2   2   2   2
#     4  11  22  39  68  95 134 181 231 289 352 412
#     4  11  24  46  61  94 146 187 229 293 354 422
#     4  11  25  44  76 107 143 187 244 299 352 442
#     4  11  25  41  66 102 137 181 238 292 352 424
#     4  10  23  42  70 105 132 178 245 297 356 422
#     4  11  25  49  73 105 149 187 234 296 373 432
#     4  11  24  42  70  95 137 190 237 296 354 428
#     4  10  21  44  71  97 137 177 227 302 356 424
#
# _framework density 23.378869000000002
#
# number of rings (size 3 to 8) (size 9 to 14) (size 15 to 20)
#    0.000    1.250    3.750    1.125    7.000    1.000 
#    4.500    0.000    0.000    0.000    0.000    0.000 
#    0.000    0.000    0.000    0.000    0.000    0.000 
#
# Total GULP energy -89387.342504 kJ/mol
# GULP energy per Si atom -5586.708907 kJ/mol
# Density = 2.332566 g / cm^3
# Si number density = 23.378869 Si / 1000 Ang^3
#
#
#
# Elastic Constant Matrix: (Units=GPa)
#
#
# Indices 1 2 3 4 5 6 
#
# 1 175.2417 -1.2899 61.4011 7.4487 3.4975 -23.0438
# 2 -1.2899 36.7401 -13.2419 -12.2710 -6.6321 -6.0226
# 3 61.4011 -13.2419 157.4543 13.8373 10.2968 1.8024
# 4 7.4487 -12.2710 13.8373 26.5982 -4.2389 1.9948
# 5 3.4975 -6.6321 10.2968 -4.2389 42.7064 -2.4931
# 6 -23.0438 -6.0226 1.8024 1.9948 -2.4931 34.8571
#
#
#
# Elastic Compliance Matrix: (Units=1/GPa)
#
#
# Indices 1 2 3 4 5 6 
#
# 1 0.007430 -0.000249 -0.002903 -0.001028 0.000248 0.005096
# 2 -0.000249 0.035317 0.001080 0.016541 0.007205 0.005451
# 3 -0.002903 0.001080 0.007988 -0.002996 -0.001941 -0.002113
# 4 -0.001028 0.016541 -0.002996 0.048367 0.008185 0.000151
# 5 0.000248 0.007205 -0.001941 0.008185 0.025964 0.002898
# 6 0.005096 0.005451 -0.002113 0.000151 0.002898 0.033307
#
#
# Mechanical properties :
#
#
# Convention : Reuss Voigt Hill
#
# Bulk Modulus (GPa) = 21.46231 51.46386 36.46308
# Shear Modulus (GPa) = 28.08238 42.33679 35.20959
#
# Velocity S-wave (km/s) = 3.46957 4.26008 3.88499
# Velocity P-wave (km/s) = 5.02501 6.80136 5.97952
#
# Compressibility (1/GPa) = 0.04659332
#
# Stress axis : x y z
#
# Youngs Moduli (GPa) = 134.58083 28.31477 125.18443
#
# Poissons Ratio (x) = 0.00704 0.36338
# Poissons Ratio (y) = 0.03345 -0.13519
# Poissons Ratio (z) = 0.39065 -0.03058
#
# Static dielectric constant tensor:
#      x y z
#    x 1.838730 -0.043080 -0.049050 
#    y -0.043080 2.219860 -0.016000 
#    z -0.049050 -0.016000 1.903070 
# 
# From -- ./inp_files/49322.got.cif
#   From: 2010.05.17/outbox.cif.g08.bks.cpg/sg2_25_cif.got.tgz:49322.got - 2010.06.03 11:33:40.
