data_PCOD9019880
_publ_section_title
;
Structure prediction by ZEFSAII (Michael W. Deem and Ramdas Pophale) SiO2 
 PCOD9019880
Probable space group: P -1
;
_chemical_formula_sum "Si O2"
_cell_formula_units_Z 16
_cell_length_a 5.844135
_cell_length_b 8.877090
_cell_length_c 25.799664
_cell_angle_alpha 44.967590
_cell_angle_beta 82.199507
_cell_angle_gamma 57.936255
_cell_volume 734.509218
_symmetry_space_group_name_H-M "P -1"
_symmetry_group_IT_number 2
_symmetry_cell_setting 'triclinic'
loop_
_space_group_symop_operation_xyz
x,y,z
-x,-y,-z
loop_
_atom_site_type_symbol
_atom_site_label
_atom_site_fract_x
_atom_site_fract_y
_atom_site_fract_z
Si Si1 0.287852 0.927972 0.385780
Si Si2 0.762169 0.772396 0.973092
Si Si3 0.875471 0.856140 0.062708
Si Si4 0.073665 0.515432 0.238033
Si Si5 0.779589 0.617413 0.525052
Si Si6 0.193872 0.917521 0.565073
Si Si7 0.624487 0.227297 0.792253
Si Si8 0.687165 0.302035 0.666858
O O1 0.267806 0.193971 0.320009
O O2 0.966279 0.032784 0.387530
O O3 0.482882 0.730468 0.475463
O O4 0.382300 0.787553 0.361262
O O5 0.415896 0.909012 0.952596
O O6 0.754491 0.005363 0.887875
O O7 0.824759 0.747923 0.038505
O O8 0.000000 0.500000 0.000000
O O9 0.063290 0.606895 0.157212
O O10 0.000000 0.000000 0.000000
O O11 0.729593 0.636161 0.231233
O O12 0.237589 0.616069 0.238157
O O13 0.890801 0.377206 0.620657
O O14 0.000000 0.500000 0.500000
O O15 0.729983 0.877650 0.486296
O O16 0.432032 0.597518 0.626597
O O17 0.000000 0.000000 0.500000
O O18 0.756731 0.108562 0.759532
#
# Coordination Sequence:
#
# PCOD9019880 Si02
#       8
#     2   2   2   2   2   2   2   2
#     4  12  26  44  66  98 133 180 231 291 342 424
#     4  10  23  43  72 104 145 183 242 288 356 428
#     4  10  21  45  71 102 139 192 228 295 354 422
#     4  11  25  46  73 100 147 180 239 287 355 416
#     4  12  25  44  68  96 132 181 234 288 344 423
#     4  12  24  43  68  92 129 177 225 284 354 401
#     4  11  25  46  70 106 141 187 230 296 348 422
#     4  12  25  43  66  98 134 175 233 285 353 409
#
# _framework density 21.783251
#
# number of rings (size 3 to 8) (size 9 to 14) (size 15 to 20)
#    0.000    0.750    5.000    2.250    3.500    1.500 
#    0.000    1.250    0.000    0.000    0.000    0.000 
#    0.000    0.000    0.000    0.000    0.000    0.000 
#
# Total GULP energy -89079.337480 kJ/mol
# GULP energy per Si atom -5567.458593 kJ/mol
# Density = 2.173367 g / cm^3
# Si number density = 21.783251 Si / 1000 Ang^3
#
#
#
# Elastic Constant Matrix: (Units=GPa)
#
#
# Indices 1 2 3 4 5 6 
#
# 1 83.4887 43.3943 23.6316 0.6726 -19.4931 8.8373
# 2 43.3943 129.0711 22.9094 10.1188 -4.9971 -3.9514
# 3 23.6316 22.9094 91.6893 28.0206 -18.1198 -2.0346
# 4 0.6726 10.1188 28.0206 46.4471 2.2315 -3.7649
# 5 -19.4931 -4.9971 -18.1198 2.2315 42.1111 5.8824
# 6 8.8373 -3.9514 -2.0346 -3.7649 5.8824 38.7855
#
#
#
# Elastic Compliance Matrix: (Units=1/GPa)
#
#
# Indices 1 2 3 4 5 6 
#
# 1 0.017854 -0.005598 -0.002370 0.001577 0.007295 -0.005716
# 2 -0.005598 0.009897 -0.001053 -0.001138 -0.002151 0.002444
# 3 -0.002370 -0.001053 0.015974 -0.009724 0.006254 -0.000622
# 4 0.001577 -0.001138 -0.009724 0.028090 -0.005436 0.002566
# 5 0.007295 -0.002151 0.006254 -0.005436 0.030790 -0.006751
# 6 -0.005716 0.002444 -0.000622 0.002566 -0.006751 0.028575
#
#
# Mechanical properties :
#
#
# Convention : Reuss Voigt Hill
#
# Bulk Modulus (GPa) = 38.93598 53.79107 46.36352
# Shear Modulus (GPa) = 31.68896 39.75634 35.72265
#
# Velocity S-wave (km/s) = 3.81824 4.27674 4.05398
# Velocity P-wave (km/s) = 6.11160 7.00962 6.57596
#
# Compressibility (1/GPa) = 0.02568319
#
# Stress axis : x y z
#
# Youngs Moduli (GPa) = 56.01054 101.03573 62.60164
#
# Poissons Ratio (x) = 0.56560 0.14836
# Poissons Ratio (y) = 0.31355 0.06593
# Poissons Ratio (z) = 0.13274 0.10640
#
# Static dielectric constant tensor:
#      x y z
#    x 2.109820 -0.110570 0.060960 
#    y -0.110570 1.840640 -0.033880 
#    z 0.060960 -0.033880 1.902460 
# 
# From -- ./inp_files/336496.got.cif
#   From: 2010.05.17/outbox.cif.g08.bks.cpg/sg2_169_cif.got.tgz:336496.got - 2010.06.03 11:33:40.
