data_PCOD9019031
_publ_section_title
;
Structure prediction by ZEFSAII (Michael W. Deem and Ramdas Pophale) SiO2 
 PCOD9019031
Probable space group: P -1
;
_chemical_formula_sum "Si O2"
_cell_formula_units_Z 16
_cell_length_a 9.138820
_cell_length_b 5.507767
_cell_length_c 17.712373
_cell_angle_alpha 84.615113
_cell_angle_beta 134.144960
_cell_angle_gamma 98.379622
_cell_volume 632.886986
_symmetry_space_group_name_H-M "P -1"
_symmetry_group_IT_number 2
_symmetry_cell_setting 'triclinic'
loop_
_space_group_symop_operation_xyz
x,y,z
-x,-y,-z
loop_
_atom_site_type_symbol
_atom_site_label
_atom_site_fract_x
_atom_site_fract_y
_atom_site_fract_z
Si Si1 0.580709 0.955786 0.652422
Si Si2 0.721175 0.651050 0.593048
Si Si3 0.703218 0.102464 0.989693
Si Si4 0.828026 0.793109 0.472144
Si Si5 0.187855 0.786635 0.138836
Si Si6 0.544593 0.414198 0.115636
Si Si7 0.054007 0.562047 0.833370
Si Si8 0.572345 0.473366 0.290898
O O1 0.680253 0.912717 0.608724
O O2 0.472588 0.695142 0.648109
O O3 0.394491 0.118828 0.588659
O O4 0.742995 0.024864 0.775195
O O5 0.500000 0.500000 0.500000
O O6 0.864735 0.673494 0.569754
O O7 0.850312 0.538956 0.709672
O O8 0.818721 0.108427 0.950381
O O9 0.575408 0.342430 0.937022
O O10 0.568042 0.838971 0.952873
O O11 0.866709 0.168559 0.113009
O O12 0.780258 0.630770 0.385352
O O13 0.000000 0.000000 0.500000
O O14 0.379877 0.626213 0.209007
O O15 0.995213 0.610796 0.106284
O O16 0.758248 0.494475 0.149020
O O17 0.584281 0.344084 0.218904
#
# Coordination Sequence:
#
# PCOD9019031 Si02
#       8
#     2   2   2   2   2   2   2   2
#     4  11  21  43  71  91 138 187 234 292 371 425
#     4  12  25  46  67  98 143 185 237 300 363 425
#     4  11  25  49  74 107 151 195 235 300 373 441
#     4  11  26  41  68 102 135 184 248 303 362 429
#     4  10  22  43  69 103 133 184 240 292 358 441
#     4  11  26  47  76 107 151 191 238 303 374 436
#     4  12  26  44  72 108 141 186 247 302 359 440
#     4  10  21  44  67  96 138 185 230 296 365 430
#
# _framework density 25.280971999999998
#
# number of rings (size 3 to 8) (size 9 to 14) (size 15 to 20)
#    0.000    1.000    3.750    2.250    1.750    4.500 
#    0.000    2.500    0.000    0.000    0.000    0.000 
#    0.000    0.000    0.000    0.000    0.000    0.000 
#
# Total GULP energy -89470.465675 kJ/mol
# GULP energy per Si atom -5591.904105 kJ/mol
# Density = 2.522343 g / cm^3
# Si number density = 25.280972 Si / 1000 Ang^3
#
#
#
# Elastic Constant Matrix: (Units=GPa)
#
#
# Indices 1 2 3 4 5 6 
#
# 1 141.3330 28.3685 55.8376 11.5462 -4.7863 17.5867
# 2 28.3685 77.0213 27.7212 21.7475 10.1261 6.7782
# 3 55.8376 27.7212 111.9864 25.3458 -11.3858 -1.3260
# 4 11.5462 21.7475 25.3458 54.7203 1.3535 2.2297
# 5 -4.7863 10.1261 -11.3858 1.3535 41.6634 -0.6706
# 6 17.5867 6.7782 -1.3260 2.2297 -0.6706 47.8175
#
#
#
# Elastic Compliance Matrix: (Units=1/GPa)
#
#
# Indices 1 2 3 4 5 6 
#
# 1 0.009615 -0.001904 -0.004560 0.000974 0.000234 -0.003435
# 2 -0.001904 0.016784 -0.002618 -0.004870 -0.004881 -0.001593
# 3 -0.004560 -0.002618 0.013266 -0.004348 0.003922 0.002674
# 4 0.000974 -0.004870 -0.004348 0.022068 -0.000623 -0.000826
# 5 0.000234 -0.004881 0.003922 -0.000623 0.026325 0.001113
# 6 -0.003435 -0.001593 0.002674 -0.000826 0.001113 0.022530
#
#
# Mechanical properties :
#
#
# Convention : Reuss Voigt Hill
#
# Bulk Modulus (GPa) = 46.51036 61.57724 54.04380
# Shear Modulus (GPa) = 36.78639 43.40111 40.09375
#
# Velocity S-wave (km/s) = 3.81872 4.14786 3.98669
# Velocity P-wave (km/s) = 6.15474 6.88111 6.52804
#
# Compressibility (1/GPa) = 0.02150059
#
# Stress axis : x y z
#
# Youngs Moduli (GPa) = 104.00365 59.58037 75.38012
#
# Poissons Ratio (x) = 0.11342 0.34376
# Poissons Ratio (y) = 0.19799 0.19737
# Poissons Ratio (z) = 0.47429 0.15600
#
# Static dielectric constant tensor:
#      x y z
#    x 1.950990 -0.043290 0.001060 
#    y -0.043290 2.098770 -0.028660 
#    z 0.001060 -0.028660 2.058360 
# 
# From -- ./inp_files/77727.got.cif
#   From: 2010.05.17/outbox.cif.g08.bks.cpg/sg2_39_cif.got.tgz:77727.got - 2010.06.03 11:33:40.
