data_PCOD9019680
_publ_section_title
;
Structure prediction by ZEFSAII (Michael W. Deem and Ramdas Pophale) SiO2 
 PCOD9019680
Probable space group: P -1
;
_chemical_formula_sum "Si O2"
_cell_formula_units_Z 14
_cell_length_a 11.874075
_cell_length_b 8.805212
_cell_length_c 18.047879
_cell_angle_alpha 141.421790
_cell_angle_beta 130.702373
_cell_angle_gamma 80.381601
_cell_volume 614.431876
_symmetry_space_group_name_H-M "P -1"
_symmetry_group_IT_number 2
_symmetry_cell_setting 'triclinic'
loop_
_space_group_symop_operation_xyz
x,y,z
-x,-y,-z
loop_
_atom_site_type_symbol
_atom_site_label
_atom_site_fract_x
_atom_site_fract_y
_atom_site_fract_z
Si Si1 0.513053 0.577401 0.193269
Si Si2 0.947281 0.827802 0.205543
Si Si3 0.590111 0.379938 0.672010
Si Si4 0.728042 0.735396 0.620037
Si Si5 0.879982 0.699445 0.397550
Si Si6 0.861369 0.388460 0.595077
Si Si7 0.047060 0.726751 0.955398
O O1 0.446382 0.528390 0.231272
O O2 0.628184 0.454799 0.182391
O O3 0.692624 0.996697 0.409960
O O4 0.298595 0.375415 0.978412
O O5 0.962332 0.561692 0.130405
O O6 0.059658 0.987231 0.235151
O O7 0.069689 0.126476 0.434678
O O8 0.455985 0.359830 0.544263
O O9 0.834933 0.626712 0.848159
O O10 0.500000 0.000000 0.500000
O O11 0.721693 0.443339 0.524405
O O12 0.763495 0.923246 0.783268
O O13 0.988090 0.565983 0.383192
O O14 0.000000 0.000000 0.500000
O O15 0.026540 0.678331 0.839809
#
# Coordination Sequence:
#
# PCOD9019680 Si02
#       7
#     2   2   2   2   2   2   2
#     4  11  22  42  68  95 120 170 220 255 308 380
#     4  12  22  41  72  95 117 173 221 256 305 381
#     4  12  20  41  66  91 125 168 216 255 308 381
#     4  12  25  40  65  99 129 165 209 265 323 366
#     4  10  21  45  66  90 130 166 216 257 309 380
#     4  11  25  44  61  95 138 165 200 271 323 364
#     4  12  23  42  65  95 130 168 212 258 313 389
#
# _framework density 22.785276
#
# number of rings (size 3 to 8) (size 9 to 14) (size 15 to 20)
#    0.000    0.571    8.571    1.714    0.000    3.429 
#    2.571    0.714    0.000    0.000    0.000    0.000 
#    0.000    0.000    0.000    0.000    0.000    0.000 
#
# Total GULP energy -78344.274109 kJ/mol
# GULP energy per Si atom -5596.019579 kJ/mol
# Density = 2.273342 g / cm^3
# Si number density = 22.785276 Si / 1000 Ang^3
#
#
#
# Elastic Constant Matrix: (Units=GPa)
#
#
# Indices 1 2 3 4 5 6 
#
# 1 112.6416 31.7662 19.5948 -7.9017 14.6104 -26.2776
# 2 31.7662 101.6894 39.6175 -21.8603 1.7571 -21.0750
# 3 19.5948 39.6175 67.2584 -37.3660 15.9211 -18.1640
# 4 -7.9017 -21.8603 -37.3660 34.6098 -10.6689 9.9999
# 5 14.6104 1.7571 15.9211 -10.6689 31.1555 -11.6545
# 6 -26.2776 -21.0750 -18.1640 9.9999 -11.6545 27.2776
#
#
#
# Elastic Compliance Matrix: (Units=1/GPa)
#
#
# Indices 1 2 3 4 5 6 
#
# 1 0.011897 -0.002082 -0.000673 -0.002821 -0.002594 0.009330
# 2 -0.002082 0.014935 -0.007180 0.001250 0.006948 0.007263
# 3 -0.000673 -0.007180 0.044412 0.039574 -0.006076 0.006274
# 4 -0.002821 0.001250 0.039574 0.073633 0.006366 0.000327
# 5 -0.002594 0.006948 -0.006076 0.006366 0.043912 0.015251
# 6 0.009330 0.007263 0.006274 0.000327 0.015251 0.061834
#
#
# Mechanical properties :
#
#
# Convention : Reuss Voigt Hill
#
# Bulk Modulus (GPa) = 19.46503 51.50516 35.48510
# Shear Modulus (GPa) = 17.38428 31.31598 24.35013
#
# Velocity S-wave (km/s) = 2.76517 3.71131 3.27261
# Velocity P-wave (km/s) = 4.33085 6.40459 5.46694
#
# Compressibility (1/GPa) = 0.05137418
#
# Stress axis : x y z
#
# Youngs Moduli (GPa) = 84.05423 66.95544 22.51665
#
# Poissons Ratio (x) = 0.13942 0.01516
# Poissons Ratio (y) = 0.17502 0.16166
# Poissons Ratio (z) = 0.05658 0.48071
#
# Static dielectric constant tensor:
#      x y z
#    x 1.843870 -0.004800 0.019600 
#    y -0.004800 1.853350 0.028250 
#    z 0.019600 0.028250 1.858480 
# 
# From -- ./inp_files/236893.got.cif
#   From: 2010.05.17/outbox.cif.g08.bks.cpg/sg2_119_cif.got.tgz:236893.got - 2010.06.03 11:33:40.
