data_PCOD9019642
_publ_section_title
;
Structure prediction by ZEFSAII (Michael W. Deem and Ramdas Pophale) SiO2 
 PCOD9019642
Probable space group: P -1
;
_chemical_formula_sum "Si O2"
_cell_formula_units_Z 16
_cell_length_a 20.691535
_cell_length_b 9.616378
_cell_length_c 9.121799
_cell_angle_alpha 76.245271
_cell_angle_beta 55.288653
_cell_angle_gamma 121.762266
_cell_volume 810.831222
_symmetry_space_group_name_H-M "P -1"
_symmetry_group_IT_number 2
_symmetry_cell_setting 'triclinic'
loop_
_space_group_symop_operation_xyz
x,y,z
-x,-y,-z
loop_
_atom_site_type_symbol
_atom_site_label
_atom_site_fract_x
_atom_site_fract_y
_atom_site_fract_z
Si Si1 0.376872 0.253011 0.126547
Si Si2 0.615285 0.124520 0.034071
Si Si3 0.922083 0.702492 0.520422
Si Si4 0.648373 0.096046 0.653848
Si Si5 0.088097 0.517932 0.971844
Si Si6 0.585434 0.760602 0.246821
Si Si7 0.094687 0.994530 0.527237
Si Si8 0.904192 0.276952 0.803320
O O1 0.329515 0.040284 0.326442
O O2 0.251865 0.173293 0.278933
O O3 0.500000 0.500000 0.000000
O O4 0.435183 0.297795 0.882918
O O5 0.494519 0.063088 0.197497
O O6 0.562176 0.900717 0.245227
O O7 0.766644 0.404725 0.828231
O O8 0.645807 0.139981 0.816953
O O9 0.020636 0.859173 0.498559
O O10 0.002114 0.723960 0.293467
O O11 0.906107 0.843061 0.463212
O O12 0.777180 0.335101 0.326260
O O13 0.117206 0.647695 0.053181
O O14 0.000000 0.500000 0.000000
O O15 0.992097 0.237528 0.196802
O O16 0.500000 0.500000 0.500000
O O17 0.750656 0.000172 0.014250
O O18 0.000000 0.500000 0.500000
#
# Coordination Sequence:
#
# PCOD9019642 Si02
#       8
#     2   2   2   2   2   2   2   2
#     4  11  22  42  64  87 132 175 215 267 340 397
#     4  10  21  45  64  94 136 180 213 273 350 392
#     4  11  22  41  69  92 128 179 224 267 333 398
#     4  10  23  40  67  94 130 176 221 269 331 407
#     4  12  23  40  69 101 130 172 230 273 322 395
#     4  11  24  39  64 100 130 173 225 274 330 401
#     4  11  23  40  64 101 126 169 227 276 324 397
#     4  12  22  44  68  92 134 186 220 263 341 404
#
# _framework density 19.732838000000001
#
# number of rings (size 3 to 8) (size 9 to 14) (size 15 to 20)
#    0.000    1.000    5.000    1.500    1.750    1.000 
#    0.000    3.750    0.000    0.000    0.000    0.000 
#    0.000    0.000    0.000    0.000    0.000    0.000 
#
# Total GULP energy -89209.397001 kJ/mol
# GULP energy per Si atom -5575.587313 kJ/mol
# Density = 1.968793 g / cm^3
# Si number density = 19.732838 Si / 1000 Ang^3
#
#
#
# Elastic Constant Matrix: (Units=GPa)
#
#
# Indices 1 2 3 4 5 6 
#
# 1 111.8639 34.4225 24.5500 -13.2099 -14.0770 -15.8042
# 2 34.4225 77.0528 23.4780 -23.2568 -0.6925 -5.6649
# 3 24.5500 23.4780 72.3048 -14.1853 1.2223 1.1491
# 4 -13.2099 -23.2568 -14.1853 28.0896 -5.4451 -5.7413
# 5 -14.0770 -0.6925 1.2223 -5.4451 40.2470 -6.5629
# 6 -15.8042 -5.6649 1.1491 -5.7413 -6.5629 42.0810
#
#
#
# Elastic Compliance Matrix: (Units=1/GPa)
#
#
# Indices 1 2 3 4 5 6 
#
# 1 0.012548 -0.002959 -0.002611 0.004508 0.005995 0.005936
# 2 -0.002959 0.019948 -0.002624 0.015023 0.002076 0.004019
# 3 -0.002611 -0.002624 0.016479 0.004437 -0.001078 -0.001347
# 4 0.004508 0.015023 0.004437 0.057356 0.011618 0.013231
# 5 0.005995 0.002076 -0.001078 0.011618 0.030023 0.008828
# 6 0.005936 0.004019 -0.001347 0.013231 0.008828 0.029753
#
#
# Mechanical properties :
#
#
# Convention : Reuss Voigt Hill
#
# Bulk Modulus (GPa) = 30.68745 47.34694 39.01719
# Shear Modulus (GPa) = 25.85859 34.00159 29.93009
#
# Velocity S-wave (km/s) = 3.62392 4.15552 3.89879
# Velocity P-wave (km/s) = 5.75288 6.86080 6.33112
#
# Compressibility (1/GPa) = 0.03258661
#
# Stress axis : x y z
#
# Youngs Moduli (GPa) = 79.69087 50.12947 60.68296
#
# Poissons Ratio (x) = 0.14836 0.15844
# Poissons Ratio (y) = 0.23584 0.15924
# Poissons Ratio (z) = 0.20807 0.13155
#
# Static dielectric constant tensor:
#      x y z
#    x 1.712630 -0.069310 0.050280 
#    y -0.069310 1.723690 -0.005240 
#    z 0.050280 -0.005240 1.654640 
# 
# From -- ./inp_files/343525.got.cif
#   From: 2010.05.17/outbox.cif.g08.bks.cpg/sg2_172_cif.got.tgz:343525.got - 2010.06.03 11:33:40.
