data_PCOD9019083
_publ_section_title
;
Structure prediction by ZEFSAII (Michael W. Deem and Ramdas Pophale) SiO2 
 PCOD9019083
Probable space group: P -1
;
_chemical_formula_sum "Si O2"
_cell_formula_units_Z 14
_cell_length_a 11.130642
_cell_length_b 9.919748
_cell_length_c 10.563208
_cell_angle_alpha 73.891975
_cell_angle_beta 66.065900
_cell_angle_gamma 124.764752
_cell_volume 644.057998
_symmetry_space_group_name_H-M "P -1"
_symmetry_group_IT_number 2
_symmetry_cell_setting 'triclinic'
loop_
_space_group_symop_operation_xyz
x,y,z
-x,-y,-z
loop_
_atom_site_type_symbol
_atom_site_label
_atom_site_fract_x
_atom_site_fract_y
_atom_site_fract_z
Si Si1 0.895668 0.883800 0.939131
Si Si2 0.069512 0.900006 0.523887
Si Si3 0.621631 0.407091 0.576645
Si Si4 0.936681 0.309804 0.652351
Si Si5 0.338435 0.493491 0.036409
Si Si6 0.330253 0.229028 0.517876
Si Si7 0.578414 0.874322 0.018339
O O1 0.751770 0.895976 0.963744
O O2 0.754224 0.628554 0.030827
O O3 0.096753 0.044621 0.721772
O O4 0.000000 0.000000 0.000000
O O5 0.091560 0.830483 0.406801
O O6 0.291773 0.100010 0.447065
O O7 0.000000 0.000000 0.500000
O O8 0.874092 0.679021 0.744144
O O9 0.856297 0.565038 0.393644
O O10 0.473894 0.282404 0.550522
O O11 0.607846 0.558198 0.590387
O O12 0.556169 0.254361 0.761965
O O13 0.000000 0.500000 0.500000
O O14 0.722682 0.131040 0.869581
O O15 0.457071 0.727545 0.980807
O O16 0.500000 0.500000 0.000000
#
# Coordination Sequence:
#
# PCOD9019083 Si02
#       7
#     2   2   2   2   2   2   2
#     4  10  17  30  54  94 126 149 189 252 309 357
#     4  11  18  38  62  88 125 156 201 251 300 359
#     4  11  21  38  60  92 121 158 200 251 305 358
#     4  12  26  42  61  88 123 163 209 254 300 361
#     4   9  18  29  54  87 117 152 195 242 301 352
#     4  10  20  34  62  93 126 151 196 256 307 352
#     4  11  20  37  57  83 120 157 204 246 301 362
#
# _framework density 21.737172999999999
#
# number of rings (size 3 to 8) (size 9 to 14) (size 15 to 20)
#    0.000    1.429    5.714    1.714    0.000    1.714 
#    0.000    0.714    0.000    0.857    0.000    0.000 
#    0.000    0.000    0.000    0.000    0.000    0.000 
#
# Total GULP energy -78102.589621 kJ/mol
# GULP energy per Si atom -5578.756401 kJ/mol
# Density = 2.168770 g / cm^3
# Si number density = 21.737173 Si / 1000 Ang^3
#
#
#
# Elastic Constant Matrix: (Units=GPa)
#
#
# Indices 1 2 3 4 5 6 
#
# 1 44.6245 35.8428 18.2259 -12.1883 -0.1779 18.5547
# 2 35.8428 121.4897 25.3534 -14.1298 2.0900 36.7761
# 3 18.2259 25.3534 105.8489 -20.3302 -1.3006 9.4430
# 4 -12.1883 -14.1298 -20.3302 31.7799 -0.5423 -6.4100
# 5 -0.1779 2.0900 -1.3006 -0.5423 31.4145 -7.4740
# 6 18.5547 36.7761 9.4430 -6.4100 -7.4740 35.7784
#
#
#
# Elastic Compliance Matrix: (Units=1/GPa)
#
#
# Indices 1 2 3 4 5 6 
#
# 1 0.034068 -0.005548 -0.002281 0.006987 -0.001913 -0.010511
# 2 -0.005548 0.013798 -0.001199 0.000832 -0.003750 -0.011624
# 3 -0.002281 -0.001199 0.011213 0.005916 0.000796 0.000682
# 4 0.006987 0.000832 0.005916 0.038544 0.001158 0.001108
# 5 -0.001913 -0.003750 0.000796 0.001158 0.035017 0.012159
# 6 -0.010511 -0.011624 0.000682 0.001108 0.012159 0.047907
#
#
# Mechanical properties :
#
#
# Convention : Reuss Voigt Hill
#
# Bulk Modulus (GPa) = 24.37654 47.86746 36.12200
# Shear Modulus (GPa) = 23.55421 32.63060 28.09241
#
# Velocity S-wave (km/s) = 3.29537 3.87866 3.59885
# Velocity P-wave (km/s) = 5.07127 6.49057 5.82432
#
# Compressibility (1/GPa) = 0.04102305
#
# Stress axis : x y z
#
# Youngs Moduli (GPa) = 29.35297 72.47485 89.18513
#
# Poissons Ratio (x) = 0.40206 0.20344
# Poissons Ratio (y) = 0.16284 0.10694
# Poissons Ratio (z) = 0.06696 0.08690
#
# Static dielectric constant tensor:
#      x y z
#    x 1.790610 0.017570 0.018380 
#    y 0.017570 1.902490 0.005190 
#    z 0.018380 0.005190 1.907200 
# 
# From -- ./inp_files/279568.got.cif
#   From: 2010.05.17/outbox.cif.g08.bks.cpg/sg2_140_cif.got.tgz:279568.got - 2010.06.03 11:33:40.
