data_PCOD9019078
_publ_section_title
;
Structure prediction by ZEFSAII (Michael W. Deem and Ramdas Pophale) SiO2 
 PCOD9019078
Probable space group: P -1
;
_chemical_formula_sum "Si O2"
_cell_formula_units_Z 16
_cell_length_a 11.727388
_cell_length_b 9.787671
_cell_length_c 7.628012
_cell_angle_alpha 73.447392
_cell_angle_beta 97.082527
_cell_angle_gamma 68.073726
_cell_volume 752.157122
_symmetry_space_group_name_H-M "P -1"
_symmetry_group_IT_number 2
_symmetry_cell_setting 'triclinic'
loop_
_space_group_symop_operation_xyz
x,y,z
-x,-y,-z
loop_
_atom_site_type_symbol
_atom_site_label
_atom_site_fract_x
_atom_site_fract_y
_atom_site_fract_z
Si Si1 0.984278 0.868211 0.660930
Si Si2 0.944416 0.688684 0.396974
Si Si3 0.497755 0.349563 0.468649
Si Si4 0.697937 0.637835 0.819775
Si Si5 0.254258 0.897318 0.272214
Si Si6 0.339577 0.175674 0.590130
Si Si7 0.579150 0.933136 0.868048
Si Si8 0.886101 0.282735 0.899043
O O1 0.990996 0.741826 0.563973
O O2 0.849419 0.964633 0.688662
O O3 0.000000 0.000000 0.500000
O O4 0.070761 0.800816 0.873816
O O5 0.789206 0.779396 0.340706
O O6 0.000000 0.500000 0.500000
O O7 0.005140 0.729375 0.218586
O O8 0.500000 0.500000 0.500000
O O9 0.425880 0.383194 0.259095
O O10 0.640919 0.221613 0.533743
O O11 0.412903 0.287365 0.595836
O O12 0.708261 0.764518 0.637916
O O13 0.660342 0.744507 0.945728
O O14 0.811167 0.468191 0.868582
O O15 0.195522 0.798490 0.183429
O O16 0.328760 0.980344 0.153880
O O17 0.458035 0.002420 0.682798
O O18 0.500000 0.000000 0.000000
#
# Coordination Sequence:
#
# PCOD9019078 Si02
#       8
#     2   2   2   2   2   2   2   2
#     4  12  29  47  72 107 144 196 249 300 361 426
#     4  12  25  46  71 109 147 191 244 294 363 431
#     4   9  18  38  72  97 132 184 227 294 363 411
#     4  10  21  44  68 104 141 181 241 291 365 426
#     4  11  23  46  71 101 145 187 244 299 361 432
#     4   9  21  39  68  97 142 178 238 287 352 420
#     4  11  25  41  69 107 140 187 237 299 361 425
#     4  12  26  48  74 106 149 195 241 300 362 438
#
# _framework density 21.272151999999998
#
# number of rings (size 3 to 8) (size 9 to 14) (size 15 to 20)
#    0.750    0.500    3.750    1.500    3.500    1.500 
#    0.000    1.875    0.000    0.000    0.000    0.000 
#    0.000    0.000    0.000    0.000    0.000    0.000 
#
# Total GULP energy -89095.832073 kJ/mol
# GULP energy per Si atom -5568.489505 kJ/mol
# Density = 2.122374 g / cm^3
# Si number density = 21.272152 Si / 1000 Ang^3
#
#
#
# Elastic Constant Matrix: (Units=GPa)
#
#
# Indices 1 2 3 4 5 6 
#
# 1 114.6274 42.7727 34.7839 7.5615 -7.2490 -4.4543
# 2 42.7727 106.9132 12.8338 20.2803 -9.8606 -4.8652
# 3 34.7839 12.8338 95.0816 11.3299 -6.4064 -9.7146
# 4 7.5615 20.2803 11.3299 27.4078 -7.3804 2.6474
# 5 -7.2490 -9.8606 -6.4064 -7.3804 21.2092 -0.0571
# 6 -4.4543 -4.8652 -9.7146 2.6474 -0.0571 36.7821
#
#
#
# Elastic Compliance Matrix: (Units=1/GPa)
#
#
# Indices 1 2 3 4 5 6 
#
# 1 0.011457 -0.004407 -0.003783 0.002087 0.001450 -0.000343
# 2 -0.004407 0.012851 0.001233 -0.008497 0.001889 0.002106
# 3 -0.003783 0.001233 0.012790 -0.005120 0.001371 0.003454
# 4 0.002087 -0.008497 -0.005120 0.048074 0.011930 -0.005665
# 5 0.001450 0.001889 0.001371 0.011930 0.053089 0.000011
# 6 -0.000343 0.002106 0.003454 -0.005665 0.000011 0.028744
#
#
# Mechanical properties :
#
#
# Convention : Reuss Voigt Hill
#
# Bulk Modulus (GPa) = 43.13421 55.26700 49.20061
# Shear Modulus (GPa) = 26.50461 32.16193 29.33327
#
# Velocity S-wave (km/s) = 3.53367 3.89257 3.71745
# Velocity P-wave (km/s) = 6.08033 6.80001 6.45021
#
# Compressibility (1/GPa) = 0.02318345
#
# Stress axis : x y z
#
# Youngs Moduli (GPa) = 87.28289 77.81761 78.18595
#
# Poissons Ratio (x) = 0.34297 0.29574
# Poissons Ratio (y) = 0.38469 -0.09639
# Poissons Ratio (z) = 0.33015 -0.09594
#
# Static dielectric constant tensor:
#      x y z
#    x 1.902020 -0.007170 0.190570 
#    y -0.007170 1.831450 0.014990 
#    z 0.190570 0.014990 2.125370 
# 
# From -- ./inp_files/238456.got.cif
#   From: 2010.05.17/outbox.cif.g08.bks.cpg/sg2_120_cif.got.tgz:238456.got - 2010.06.03 11:33:40.
