data_PCOD9019029
_publ_section_title
;
Structure prediction by ZEFSAII (Michael W. Deem and Ramdas Pophale) SiO2 
 PCOD9019029
Probable space group: P -1
;
_chemical_formula_sum "Si O2"
_cell_formula_units_Z 16
_cell_length_a 9.102353
_cell_length_b 15.177393
_cell_length_c 12.082599
_cell_angle_alpha 121.108957
_cell_angle_beta 139.951289
_cell_angle_gamma 38.281254
_cell_volume 650.363674
_symmetry_space_group_name_H-M "P -1"
_symmetry_group_IT_number 2
_symmetry_cell_setting 'triclinic'
loop_
_space_group_symop_operation_xyz
x,y,z
-x,-y,-z
loop_
_atom_site_type_symbol
_atom_site_label
_atom_site_fract_x
_atom_site_fract_y
_atom_site_fract_z
Si Si1 0.804775 0.165862 0.450580
Si Si2 0.304284 0.034481 0.295869
Si Si3 0.807388 0.741462 0.271471
Si Si4 0.784208 0.784778 0.049213
Si Si5 0.997270 0.715091 0.875924
Si Si6 0.865171 0.053631 0.186273
Si Si7 0.385808 0.745728 0.380567
Si Si8 0.308598 0.414587 0.757311
O O1 0.725533 0.163947 0.278615
O O2 0.534327 0.262726 0.451057
O O3 0.978811 0.221766 0.575470
O O4 0.000000 0.000000 0.500000
O O5 0.252124 0.147480 0.259004
O O6 0.955836 0.100980 0.172402
O O7 0.500000 0.000000 0.500000
O O8 0.478733 0.892774 0.231427
O O9 0.820644 0.699062 0.123440
O O10 0.860974 0.627104 0.306869
O O11 0.076846 0.769731 0.226969
O O12 0.421407 0.938383 0.977056
O O13 0.849713 0.738805 0.928154
O O14 0.143805 0.571527 0.803060
O O15 0.308524 0.691848 0.059399
O O16 0.209920 0.897530 0.318448
O O17 0.656859 0.616396 0.373898
#
# Coordination Sequence:
#
# PCOD9019029 Si02
#       8
#     2   2   2   2   2   2   2   2
#     4   9  20  35  57  92 127 171 200 265 328 380
#     4  12  25  40  63  97 134 170 217 270 327 386
#     4  11  22  39  67  95 128 166 222 271 315 384
#     4  10  23  36  61 100 126 164 218 272 328 378
#     4  10  25  42  65  97 134 174 214 268 336 385
#     4  11  20  35  59  90 132 162 210 268 327 374
#     4   9  19  35  61  93 126 164 210 264 320 388
#     4  10  21  44  67  96 131 172 218 271 325 388
#
# _framework density 24.601618999999999
#
# number of rings (size 3 to 8) (size 9 to 14) (size 15 to 20)
#    0.000    1.750    2.500    1.125    8.750    1.500 
#    0.000    3.125    0.000    1.500    0.000    0.000 
#    0.000    0.000    0.000    0.000    0.000    0.000 
#
# Total GULP energy -89179.101633 kJ/mol
# GULP energy per Si atom -5573.693852 kJ/mol
# Density = 2.454562 g / cm^3
# Si number density = 24.601619 Si / 1000 Ang^3
#
#
#
# Elastic Constant Matrix: (Units=GPa)
#
#
# Indices 1 2 3 4 5 6 
#
# 1 184.2023 42.8590 35.4515 19.1287 -7.1327 -2.6353
# 2 42.8590 87.7945 22.9301 13.1726 -13.8723 -3.6861
# 3 35.4515 22.9301 72.2788 11.4882 -9.7633 -13.3326
# 4 19.1287 13.1726 11.4882 27.9121 -11.3980 3.1991
# 5 -7.1327 -13.8723 -9.7633 -11.3980 53.5050 8.2331
# 6 -2.6353 -3.6861 -13.3326 3.1991 8.2331 35.2192
#
#
#
# Elastic Compliance Matrix: (Units=1/GPa)
#
#
# Indices 1 2 3 4 5 6 
#
# 1 0.006667 -0.002377 -0.002193 -0.002813 -0.000702 -0.000161
# 2 -0.002377 0.014010 -0.002470 -0.003086 0.002188 0.000122
# 3 -0.002193 -0.002470 0.017820 -0.005392 0.000127 0.006783
# 4 -0.002813 -0.003086 -0.005392 0.046137 0.009036 -0.008878
# 5 -0.000702 0.002188 0.000127 0.009036 0.021994 -0.005738
# 6 -0.000161 0.000122 0.006783 -0.008878 -0.005738 0.033110
#
#
# Mechanical properties :
#
#
# Convention : Reuss Voigt Hill
#
# Bulk Modulus (GPa) = 40.95718 60.75078 50.85398
# Shear Modulus (GPa) = 30.87235 39.52958 35.20096
#
# Velocity S-wave (km/s) = 3.54629 4.01282 3.78675
# Velocity P-wave (km/s) = 5.78381 6.79836 6.31151
#
# Compressibility (1/GPa) = 0.02441574
#
# Stress axis : x y z
#
# Youngs Moduli (GPa) = 150.00066 71.37826 56.11708
#
# Poissons Ratio (x) = 0.16970 0.12307
# Poissons Ratio (y) = 0.35661 0.13860
# Poissons Ratio (z) = 0.32897 0.17629
#
# Static dielectric constant tensor:
#      x y z
#    x 2.011250 0.068650 0.073190 
#    y 0.068650 1.964880 0.021230 
#    z 0.073190 0.021230 2.225100 
# 
# From -- ./inp_files/399331.got.cif
#   From: 2010.05.17/outbox.cif.g08.bks.cpg/sg2_200_cif.got.tgz:399331.got - 2010.06.03 11:33:40.
