data_PCOD9019503
_publ_section_title
;
Structure prediction by ZEFSAII (Michael W. Deem and Ramdas Pophale) SiO2 
 PCOD9019503
Probable space group: P -1
;
_chemical_formula_sum "Si O2"
_cell_formula_units_Z 12
_cell_length_a 14.377028
_cell_length_b 6.123002
_cell_length_c 14.361935
_cell_angle_alpha 61.694908
_cell_angle_beta 31.434654
_cell_angle_gamma 49.266765
_cell_volume 488.597430
_symmetry_space_group_name_H-M "P -1"
_symmetry_group_IT_number 2
_symmetry_cell_setting 'triclinic'
loop_
_space_group_symop_operation_xyz
x,y,z
-x,-y,-z
loop_
_atom_site_type_symbol
_atom_site_label
_atom_site_fract_x
_atom_site_fract_y
_atom_site_fract_z
Si Si1 0.714507 0.753663 0.652606
Si Si2 0.806835 0.339743 0.079867
Si Si3 0.961851 0.108898 0.617218
Si Si4 0.389193 0.315852 0.436915
Si Si5 0.343978 0.384739 0.657286
Si Si6 0.330629 0.123162 0.031609
O O1 0.829794 0.463703 0.677386
O O2 0.739089 0.599010 0.564896
O O3 0.812018 0.956323 0.527719
O O4 0.478092 0.956484 0.850095
O O5 0.584421 0.358909 0.259262
O O6 0.796000 0.495948 0.155662
O O7 0.794727 0.530993 0.961557
O O8 0.000000 0.000000 0.000000
O O9 0.828817 0.984060 0.797190
O O10 0.000000 0.000000 0.500000
O O11 0.247915 0.451075 0.622325
O O12 0.504994 0.964581 0.403698
O O13 0.500000 0.500000 0.500000
O O14 0.500000 0.000000 0.000000
#
# Coordination Sequence:
#
# PCOD9019503 Si02
#       6
#     2   2   2   2   2   2
#     4  11  24  47  75 107 153 194 253 319 390 449
#     4  11  25  47  71 111 155 200 257 317 381 454
#     4  11  25  46  72 115 149 191 260 316 380 464
#     4  10  21  44  73 100 141 203 252 311 380 455
#     4   9  20  43  68 101 134 196 255 299 374 450
#     4  12  24  49  79 108 153 204 249 315 389 454
#
# _framework density 24.560096000000001
#
# number of rings (size 3 to 8) (size 9 to 14) (size 15 to 20)
#    0.000    1.333    3.333    1.500    0.000    0.667 
#   12.000    1.667    0.000    0.000    0.000    0.000 
#    0.000    0.000    0.000    0.000    0.000    0.000 
#
# Total GULP energy -66993.662174 kJ/mol
# GULP energy per Si atom -5582.805181 kJ/mol
# Density = 2.450420 g / cm^3
# Si number density = 24.560096 Si / 1000 Ang^3
#
#
#
# Elastic Constant Matrix: (Units=GPa)
#
#
# Indices 1 2 3 4 5 6 
#
# 1 147.3803 37.6851 66.4479 -7.0324 9.7500 10.6904
# 2 37.6851 158.1730 63.7888 -16.2431 -12.9082 -15.4491
# 3 66.4479 63.7888 111.6611 -29.4055 -13.4290 -2.4952
# 4 -7.0324 -16.2431 -29.4055 50.5448 13.8299 -2.4182
# 5 9.7500 -12.9082 -13.4290 13.8299 42.7313 -1.1050
# 6 10.6904 -15.4491 -2.4952 -2.4182 -1.1050 36.5419
#
#
#
# Elastic Compliance Matrix: (Units=1/GPa)
#
#
# Indices 1 2 3 4 5 6 
#
# 1 0.010629 -0.000628 -0.007066 -0.001841 -0.004346 -0.004111
# 2 -0.000628 0.008694 -0.004347 -0.000065 0.001518 0.003604
# 3 -0.007066 -0.004347 0.018029 0.007197 0.003689 0.002048
# 4 -0.001841 -0.000065 0.007197 0.025310 -0.005464 0.002512
# 5 -0.004346 0.001518 0.003689 -0.005464 0.027848 0.002646
# 6 -0.004111 0.003604 0.002048 0.002512 0.002646 0.030478
#
#
# Mechanical properties :
#
#
# Convention : Reuss Voigt Hill
#
# Bulk Modulus (GPa) = 75.35910 83.67310 79.51610
# Shear Modulus (GPa) = 33.44615 42.58312 38.01463
#
# Velocity S-wave (km/s) = 3.69427 4.16845 3.93850
# Velocity P-wave (km/s) = 6.99622 7.57038 7.28895
#
# Compressibility (1/GPa) = 0.01326980
#
# Stress axis : x y z
#
# Youngs Moduli (GPa) = 94.07859 115.02022 55.46744
#
# Poissons Ratio (x) = 0.07225 0.39193
# Poissons Ratio (y) = 0.05910 0.24112
# Poissons Ratio (z) = 0.66476 0.49999
#
# Static dielectric constant tensor:
#      x y z
#    x 2.221250 -0.243020 0.025290 
#    y -0.243020 2.130310 -0.014340 
#    z 0.025290 -0.014340 1.909160 
# 
# From -- ./inp_files/424394.got.cif
#   From: 2010.05.17/outbox.cif.g08.bks.cpg/sg2_213_cif.got.tgz:424394.got - 2010.06.03 11:33:40.
