data_PCOD9019914
_publ_section_title
;
Structure prediction by ZEFSAII (Michael W. Deem and Ramdas Pophale) SiO2 
 PCOD9019914
Probable space group: P -1
;
_chemical_formula_sum "Si O2"
_cell_formula_units_Z 12
_cell_length_a 6.744427
_cell_length_b 13.193646
_cell_length_c 13.876118
_cell_angle_alpha 141.770114
_cell_angle_beta 75.008591
_cell_angle_gamma 129.489611
_cell_volume 509.171267
_symmetry_space_group_name_H-M "P -1"
_symmetry_group_IT_number 2
_symmetry_cell_setting 'triclinic'
loop_
_space_group_symop_operation_xyz
x,y,z
-x,-y,-z
loop_
_atom_site_type_symbol
_atom_site_label
_atom_site_fract_x
_atom_site_fract_y
_atom_site_fract_z
Si Si1 0.330869 0.510599 0.157806
Si Si2 0.274260 0.239974 0.376033
Si Si3 0.231500 0.110638 0.966859
Si Si4 0.087173 0.998524 0.575686
Si Si5 0.537747 0.946886 0.543150
Si Si6 0.321113 0.892161 0.138124
O O1 0.348341 0.352628 0.095937
O O2 0.329856 0.663543 0.347119
O O3 0.637412 0.721178 0.218610
O O4 0.029871 0.340702 0.007565
O O5 0.500000 0.500000 0.500000
O O6 0.171183 0.206438 0.473049
O O7 0.381894 0.113650 0.261631
O O8 0.972145 0.077553 0.232996
O O9 0.495958 0.135294 0.966008
O O10 0.000000 0.000000 0.000000
O O11 0.314630 0.957705 0.524590
O O12 0.871676 0.026529 0.567400
O O13 0.586422 0.060263 0.725647
#
# Coordination Sequence:
#
# PCOD9019914 Si02
#       6
#     2   2   2   2   2   2
#     4   9  25  46  71 106 152 185 249 310 373 431
#     4  11  25  47  73 111 147 195 250 302 375 447
#     4  11  27  48  70 105 151 202 244 307 381 437
#     4  10  21  45  72 106 149 185 241 310 364 430
#     4  10  22  44  72 111 139 189 250 298 378 435
#     4  11  24  49  74 108 146 196 254 306 371 449
#
# _framework density 23.567709000000001
#
# number of rings (size 3 to 8) (size 9 to 14) (size 15 to 20)
#    1.000    0.667    1.667    1.000    4.667    8.000 
#    6.000    0.000    0.000    0.000    0.000    0.000 
#    0.000    0.000    0.000    0.000    0.000    0.000 
#
# Total GULP energy -66929.882475 kJ/mol
# GULP energy per Si atom -5577.490206 kJ/mol
# Density = 2.351407 g / cm^3
# Si number density = 23.567709 Si / 1000 Ang^3
#
#
#
# Elastic Constant Matrix: (Units=GPa)
#
#
# Indices 1 2 3 4 5 6 
#
# 1 207.4297 68.0664 69.7731 14.4460 0.2666 21.5055
# 2 68.0664 150.5663 52.0799 17.6189 -7.1301 12.5163
# 3 69.7731 52.0799 153.3274 27.3500 -0.0233 -4.5723
# 4 14.4460 17.6189 27.3500 41.9402 -13.8419 -9.9562
# 5 0.2666 -7.1301 -0.0233 -13.8419 36.6082 -19.0394
# 6 21.5055 12.5163 -4.5723 -9.9562 -19.0394 37.5055
#
#
#
# Elastic Compliance Matrix: (Units=1/GPa)
#
#
# Indices 1 2 3 4 5 6 
#
# 1 0.007281 -0.001609 -0.002217 -0.004482 -0.006405 -0.008349
# 2 -0.001609 0.008601 -0.001697 -0.003410 -0.001623 -0.003884
# 3 -0.002217 -0.001697 0.008975 -0.004728 -0.001663 0.000832
# 4 -0.004482 -0.003410 -0.004728 0.050330 0.036649 0.035097
# 5 -0.006405 -0.001623 -0.001663 0.036649 0.065286 0.046882
# 6 -0.008349 -0.003884 0.000832 0.035097 0.046882 0.065964
#
#
# Mechanical properties :
#
#
# Convention : Reuss Voigt Hill
#
# Bulk Modulus (GPa) = 72.40948 99.01803 85.71375
# Shear Modulus (GPa) = 22.51376 44.63771 33.57573
#
# Velocity S-wave (km/s) = 3.09411 4.35676 3.77855
# Velocity P-wave (km/s) = 6.59965 8.21060 7.44880
#
# Compressibility (1/GPa) = 0.01381035
#
# Stress axis : x y z
#
# Youngs Moduli (GPa) = 137.35022 116.26406 111.41881
#
# Poissons Ratio (x) = 0.18711 0.24702
# Poissons Ratio (y) = 0.22104 0.18907
# Poissons Ratio (z) = 0.30451 0.19729
#
# Static dielectric constant tensor:
#      x y z
#    x 2.031680 -0.032520 0.010840 
#    y -0.032520 1.987440 -0.090750 
#    z 0.010840 -0.090750 1.825590 
# 
# From -- ./inp_files/104215.got.cif
#   From: 2010.05.17/outbox.cif.g08.bks.cpg/sg2_53_cif.got.tgz:104215.got - 2010.06.03 11:33:40.
