data_PCOD9019139
_publ_section_title
;
Structure prediction by ZEFSAII (Michael W. Deem and Ramdas Pophale) SiO2 
 PCOD9019139
Probable space group: P -1
;
_chemical_formula_sum "Si O2"
_cell_formula_units_Z 16
_cell_length_a 8.335927
_cell_length_b 12.226484
_cell_length_c 15.286045
_cell_angle_alpha 49.429527
_cell_angle_beta 38.673723
_cell_angle_gamma 48.646401
_cell_volume 700.064459
_symmetry_space_group_name_H-M "P -1"
_symmetry_group_IT_number 2
_symmetry_cell_setting 'triclinic'
loop_
_space_group_symop_operation_xyz
x,y,z
-x,-y,-z
loop_
_atom_site_type_symbol
_atom_site_label
_atom_site_fract_x
_atom_site_fract_y
_atom_site_fract_z
Si Si1 0.745849 0.254082 0.448298
Si Si2 0.888023 0.949955 0.449546
Si Si3 0.157436 0.329668 0.112872
Si Si4 0.735129 0.685684 0.587000
Si Si5 0.413011 0.999242 0.136986
Si Si6 0.861730 0.613448 0.368759
Si Si7 0.959231 0.840125 0.075548
Si Si8 0.211338 0.640344 0.910346
O O1 0.939451 0.158800 0.490913
O O2 0.445956 0.356827 0.547525
O O3 0.910149 0.342760 0.277100
O O4 0.720047 0.114812 0.471382
O O5 0.714703 0.855605 0.531328
O O6 0.123959 0.972119 0.276618
O O7 0.367242 0.161326 0.119406
O O8 0.043973 0.332119 0.060835
O O9 0.271643 0.467389 0.006388
O O10 0.834150 0.655973 0.460939
O O11 0.454604 0.657127 0.740260
O O12 0.953276 0.561959 0.619258
O O13 0.650381 0.879169 0.151429
O O14 0.500000 0.000000 0.000000
O O15 0.987099 0.723133 0.204251
O O16 0.145703 0.755356 0.959472
O O17 0.000000 0.000000 0.000000
#
# Coordination Sequence:
#
# PCOD9019139 Si02
#       8
#     2   2   2   2   2   2   2   2
#     4  10  21  44  68  98 129 177 228 282 340 405
#     4  10  24  41  69  99 133 175 228 282 341 410
#     4  10  23  43  74  97 138 181 239 283 338 428
#     4  11  27  45  71  99 139 185 230 285 346 413
#     4  11  23  44  69 103 136 184 232 282 350 410
#     4  11  26  47  64 102 139 179 233 280 347 408
#     4  12  29  45  70 106 146 181 232 294 349 414
#     4  11  25  46  68 104 137 190 229 284 356 406
#
# _framework density 22.855038
#
# number of rings (size 3 to 8) (size 9 to 14) (size 15 to 20)
#    0.000    1.250    3.750    0.000    7.000    3.500 
#    0.000    0.000    0.000    0.000    0.000    0.000 
#    0.000    0.000    0.000    0.000    0.000    0.000 
#
# Total GULP energy -89540.733999 kJ/mol
# GULP energy per Si atom -5596.295875 kJ/mol
# Density = 2.280302 g / cm^3
# Si number density = 22.855038 Si / 1000 Ang^3
#
#
#
# Elastic Constant Matrix: (Units=GPa)
#
#
# Indices 1 2 3 4 5 6 
#
# 1 40.6097 26.0830 15.6496 -6.8620 3.5540 -1.8815
# 2 26.0830 78.9991 39.5575 -14.1593 -2.6437 5.3059
# 3 15.6496 39.5575 98.8566 -17.7801 20.2114 15.4747
# 4 -6.8620 -14.1593 -17.7801 35.4242 1.4098 -5.5917
# 5 3.5540 -2.6437 20.2114 1.4098 29.7431 -5.4389
# 6 -1.8815 5.3059 15.4747 -5.5917 -5.4389 44.5830
#
#
#
# Elastic Compliance Matrix: (Units=1/GPa)
#
#
# Indices 1 2 3 4 5 6 
#
# 1 0.032325 -0.010599 0.000186 0.002671 -0.004632 0.002331
# 2 -0.010599 0.020915 -0.008379 0.001951 0.008966 0.001310
# 3 0.000186 -0.008379 0.018472 0.005518 -0.014772 -0.006517
# 4 0.002671 0.001951 0.005518 0.032729 -0.005183 0.001438
# 5 -0.004632 0.008966 -0.014772 -0.005183 0.046889 0.008935
# 6 0.002331 0.001310 -0.006517 0.001438 0.008935 0.025905
#
#
# Mechanical properties :
#
#
# Convention : Reuss Voigt Hill
#
# Bulk Modulus (GPa) = 29.30029 42.33842 35.81936
# Shear Modulus (GPa) = 22.10497 31.09507 26.60002
#
# Velocity S-wave (km/s) = 3.11333 3.69254 3.41524
# Velocity P-wave (km/s) = 5.07658 6.06175 5.59091
#
# Compressibility (1/GPa) = 0.03412935
#
# Stress axis : x y z
#
# Youngs Moduli (GPa) = 30.93590 47.81250 54.13739
#
# Poissons Ratio (x) = 0.50675 -0.01009
# Poissons Ratio (y) = 0.32788 0.45360
# Poissons Ratio (z) = -0.00576 0.40060
#
# Static dielectric constant tensor:
#      x y z
#    x 1.902720 -0.007370 0.017950 
#    y -0.007370 1.850000 -0.013840 
#    z 0.017950 -0.013840 1.814950 
# 
# From -- ./inp_files/190011.got.cif
#   From: 2010.05.17/outbox.cif.g08.bks.cpg/sg2_96_cif.got.tgz:190011.got - 2010.06.03 11:33:40.
