data_PCOD9019859
_publ_section_title
;
Structure prediction by ZEFSAII (Michael W. Deem and Ramdas Pophale) SiO2 
 PCOD9019859
Probable space group: P -1
;
_chemical_formula_sum "Si O2"
_cell_formula_units_Z 14
_cell_length_a 10.655957
_cell_length_b 11.804101
_cell_length_c 13.861421
_cell_angle_alpha 33.156866
_cell_angle_beta 134.126219
_cell_angle_gamma 127.221609
_cell_volume 683.425430
_symmetry_space_group_name_H-M "P -1"
_symmetry_group_IT_number 2
_symmetry_cell_setting 'triclinic'
loop_
_space_group_symop_operation_xyz
x,y,z
-x,-y,-z
loop_
_atom_site_type_symbol
_atom_site_label
_atom_site_fract_x
_atom_site_fract_y
_atom_site_fract_z
Si Si1 0.019129 0.547566 0.275062
Si Si2 0.155984 0.143781 0.932093
Si Si3 0.456289 0.951865 0.748311
Si Si4 0.928709 0.146795 0.078794
Si Si5 0.917895 0.082736 0.498105
Si Si6 0.580920 0.207082 0.946347
Si Si7 0.573330 0.422243 0.493181
O O1 0.221019 0.604651 0.367704
O O2 0.900422 0.623632 0.245091
O O3 0.002134 0.309263 0.407171
O O4 0.973935 0.689577 0.057418
O O5 0.149408 0.049217 0.887974
O O6 0.344030 0.117638 0.101216
O O7 0.000000 0.000000 0.000000
O O8 0.291337 0.894328 0.633894
O O9 0.477348 0.200649 0.580867
O O10 0.394798 0.857876 0.885095
O O11 0.764442 0.257722 0.956106
O O12 0.036896 0.066534 0.283132
O O13 0.000000 0.000000 0.500000
O O14 0.464494 0.401987 0.729903
O O15 0.500000 0.000000 0.000000
O O16 0.500000 0.500000 0.500000
#
# Coordination Sequence:
#
# PCOD9019859 Si02
#       7
#     2   2   2   2   2   2   2
#     4  11  24  43  67  95 134 172 218 266 324 391
#     4  10  21  45  70  92 128 176 222 268 313 386
#     4  12  24  42  63  98 134 164 219 277 314 388
#     4  11  22  42  68  95 134 170 214 273 322 386
#     4  12  27  41  65 101 138 168 211 272 338 382
#     4  12  20  35  65 101 125 161 223 273 318 369
#     4  12  20  36  67  95 122 169 219 269 321 371
#
# _framework density 20.485045
#
# number of rings (size 3 to 8) (size 9 to 14) (size 15 to 20)
#    0.000    0.571    8.571    1.714    0.000    2.857 
#    0.000    2.857    0.000    0.000    0.000    0.000 
#    0.000    0.000    0.000    0.000    0.000    0.000 
#
# Total GULP energy -78163.159253 kJ/mol
# GULP energy per Si atom -5583.082804 kJ/mol
# Density = 2.043842 g / cm^3
# Si number density = 20.485045 Si / 1000 Ang^3
#
#
#
# Elastic Constant Matrix: (Units=GPa)
#
#
# Indices 1 2 3 4 5 6 
#
# 1 58.7620 3.2718 13.1839 9.7589 17.6447 0.9606
# 2 3.2718 27.3329 5.9993 5.8023 -5.4519 3.5027
# 3 13.1839 5.9993 107.3661 19.0877 -12.8550 -15.7912
# 4 9.7589 5.8023 19.0877 44.4892 4.0704 8.3067
# 5 17.6447 -5.4519 -12.8550 4.0704 37.6610 -1.3158
# 6 0.9606 3.5027 -15.7912 8.3067 -1.3158 20.8489
#
#
#
# Elastic Compliance Matrix: (Units=1/GPa)
#
#
# Indices 1 2 3 4 5 6 
#
# 1 0.022176 -0.003473 -0.004636 -0.000416 -0.012590 -0.004578
# 2 -0.003473 0.040175 -0.001117 -0.003630 0.007261 -0.005531
# 3 -0.004636 -0.001117 0.014895 -0.008966 0.008615 0.015799
# 4 -0.000416 -0.003630 -0.008966 0.031121 -0.007420 -0.019029
# 5 -0.012590 0.007261 0.008615 -0.007420 0.037637 0.011217
# 6 -0.004578 -0.005531 0.015799 -0.019029 0.011217 0.069360
#
#
# Mechanical properties :
#
#
# Convention : Reuss Voigt Hill
#
# Bulk Modulus (GPa) = 17.00896 26.48565 21.74730
# Shear Modulus (GPa) = 19.73071 32.00021 25.86546
#
# Velocity S-wave (km/s) = 3.10688 3.95666 3.55724
# Velocity P-wave (km/s) = 4.60341 5.81643 5.24510
#
# Compressibility (1/GPa) = 0.05879256
#
# Stress axis : x y z
#
# Youngs Moduli (GPa) = 45.09477 24.89138 67.13779
#
# Poissons Ratio (x) = 0.08645 0.31124
# Poissons Ratio (y) = 0.15662 0.07500
# Poissons Ratio (z) = 0.20905 0.02781
#
# Static dielectric constant tensor:
#      x y z
#    x 1.761970 -0.021990 0.013410 
#    y -0.021990 1.712990 0.000350 
#    z 0.013410 0.000350 1.776960 
# 
# From -- ./inp_files/184637.got.cif
#   From: 2010.05.17/outbox.cif.g08.bks.cpg/sg2_93_cif.got.tgz:184637.got - 2010.06.03 11:33:40.
