data_PCOD9019062
_publ_section_title
;
Structure prediction by ZEFSAII (Michael W. Deem and Ramdas Pophale) SiO2 
 PCOD9019062
Probable space group: P -1
;
_chemical_formula_sum "Si O2"
_cell_formula_units_Z 15
_cell_length_a 5.304978
_cell_length_b 6.792526
_cell_length_c 22.885953
_cell_angle_alpha 107.820614
_cell_angle_beta 82.215714
_cell_angle_gamma 133.423891
_cell_volume 566.857448
_symmetry_space_group_name_H-M "P -1"
_symmetry_group_IT_number 2
_symmetry_cell_setting 'triclinic'
loop_
_space_group_symop_operation_xyz
x,y,z
-x,-y,-z
loop_
_atom_site_type_symbol
_atom_site_label
_atom_site_fract_x
_atom_site_fract_y
_atom_site_fract_z
Si Si1 0.446947 0.253110 0.611984
Si Si2 0.414521 0.690572 0.513958
Si Si3 0.153496 0.305877 0.802322
Si Si4 0.455140 0.284461 0.279134
Si Si5 0.233998 0.768656 0.641657
Si Si6 0.790337 0.834085 0.084512
Si Si7 0.940583 0.573304 0.899839
Si Si8 0.000000 0.500000 0.000000
O O1 0.379244 0.144363 0.537460
O O2 0.440272 0.487044 0.654220
O O3 0.862611 0.449357 0.623298
O O4 0.211830 0.988022 0.637857
O O5 0.500000 0.500000 0.500000
O O6 0.490417 0.827277 0.587504
O O7 0.000000 0.500000 0.500000
O O8 0.425375 0.550075 0.770320
O O9 0.273430 0.265223 0.854732
O O10 0.935769 0.388491 0.836224
O O11 0.924673 0.010336 0.749471
O O12 0.635333 0.183180 0.292596
O O13 0.379615 0.644877 0.062399
O O14 0.994325 0.162854 0.101726
O O15 0.971048 0.745349 0.039352
O O16 0.230669 0.676740 0.947652
#
# Coordination Sequence:
#
# PCOD9019062 Si02
#       8
#     2   2   2   2   2   2   2   1
#     4  11  24  42  65  95 128 171 219 278 344 409
#     4  10  21  44  68 101 137 179 228 292 360 437
#     4  11  26  41  64  95 128 171 224 268 318 401
#     4  12  24  43  64  93 128 170 222 276 324 392
#     4  11  24  42  65  95 128 171 219 278 344 409
#     4  11  24  43  67  95 132 172 210 266 326 383
#     4  11  24  43  67  95 132 172 210 266 326 383
#     4  10  24  42  68 104 128 164 220 260 320 390
#
# _framework density 26.461676000000001
#
# number of rings (size 3 to 8) (size 9 to 14) (size 15 to 20)
#    0.000    1.067    1.333    4.400    0.000   10.667 
#    0.000    2.667    0.000    0.000    0.000    0.000 
#    0.000    0.000    0.000    0.000    0.000    0.000 
#
# Total GULP energy -83596.929759 kJ/mol
# GULP energy per Si atom -5573.128651 kJ/mol
# Density = 2.640145 g / cm^3
# Si number density = 26.461676 Si / 1000 Ang^3
#
#
#
# Elastic Constant Matrix: (Units=GPa)
#
#
# Indices 1 2 3 4 5 6 
#
# 1 69.6144 35.9311 22.3913 11.1455 -22.6482 -12.9025
# 2 35.9311 165.1437 45.7936 1.8288 -10.7639 -15.9218
# 3 22.3913 45.7936 115.8110 -10.8910 -17.0899 -11.3688
# 4 11.1455 1.8288 -10.8910 41.0893 -12.7717 4.7451
# 5 -22.6482 -10.7639 -17.0899 -12.7717 43.3540 2.6031
# 6 -12.9025 -15.9218 -11.3688 4.7451 2.6031 35.5109
#
#
#
# Elastic Compliance Matrix: (Units=1/GPa)
#
#
# Indices 1 2 3 4 5 6 
#
# 1 0.020654 -0.002979 -0.001469 -0.004044 0.007940 0.005657
# 2 -0.002979 0.007479 -0.002420 -0.000651 -0.000944 0.001653
# 3 -0.001469 -0.002420 0.011044 0.004656 0.004298 0.000980
# 4 -0.004044 -0.000651 0.004656 0.029963 0.008683 -0.004911
# 5 0.007940 -0.000944 0.004298 0.008683 0.031208 0.000390
# 6 0.005657 0.001653 0.000980 -0.004911 0.000390 0.031898
#
#
# Mechanical properties :
#
#
# Convention : Reuss Voigt Hill
#
# Bulk Modulus (GPa) = 39.30417 62.08899 50.69658
# Shear Modulus (GPa) = 32.37029 40.42105 36.39567
#
# Velocity S-wave (km/s) = 3.50135 3.91261 3.71268
# Velocity P-wave (km/s) = 5.58851 6.62767 6.13015
#
# Compressibility (1/GPa) = 0.02544259
#
# Stress axis : x y z
#
# Youngs Moduli (GPa) = 48.41693 133.69957 90.54763
#
# Poissons Ratio (x) = 0.39826 0.13299
# Poissons Ratio (y) = 0.14422 0.21911
# Poissons Ratio (z) = 0.07111 0.32353
#
# Static dielectric constant tensor:
#      x y z
#    x -0.202710 -0.267250 -1.119950 
#    y -0.267250 1.986810 -0.161260 
#    z -1.119950 -0.161260 1.479550 
# 
# From -- ./inp_files/13181.got.cif
#   From: 2010.05.17/outbox.cif.g08.bks.cpg/sg2_7_cif.got.tgz:13181.got - 2010.06.03 11:33:40.
