data_PCOD9019194
_publ_section_title
;
Structure prediction by ZEFSAII (Michael W. Deem and Ramdas Pophale) SiO2 
 PCOD9019194
Probable space group: P -1
;
_chemical_formula_sum "Si O2"
_cell_formula_units_Z 16
_cell_length_a 9.553573
_cell_length_b 11.309804
_cell_length_c 16.294922
_cell_angle_alpha 40.584051
_cell_angle_beta 71.651088
_cell_angle_gamma 42.767634
_cell_volume 649.842167
_symmetry_space_group_name_H-M "P -1"
_symmetry_group_IT_number 2
_symmetry_cell_setting 'triclinic'
loop_
_space_group_symop_operation_xyz
x,y,z
-x,-y,-z
loop_
_atom_site_type_symbol
_atom_site_label
_atom_site_fract_x
_atom_site_fract_y
_atom_site_fract_z
Si Si1 0.402279 0.892818 0.080097
Si Si2 0.055567 0.695791 0.933702
Si Si3 0.028162 0.761375 0.138563
Si Si4 0.265590 0.249952 0.626877
Si Si5 0.252731 0.625037 0.498927
Si Si6 0.080768 0.752422 0.704204
Si Si7 0.247005 0.246516 0.264334
Si Si8 0.098729 0.045623 0.768833
O O1 0.633245 0.528023 0.225951
O O2 0.220444 0.036200 0.115618
O O3 0.500000 0.000000 0.000000
O O4 0.233210 0.046903 0.949295
O O5 0.072563 0.698492 0.831345
O O6 0.177127 0.759598 0.914779
O O7 0.180515 0.395317 0.108269
O O8 0.220315 0.441733 0.227132
O O9 0.065287 0.722576 0.248088
O O10 0.000000 0.000000 0.000000
O O11 0.285048 0.373462 0.633980
O O12 0.000000 0.500000 0.500000
O O13 0.310954 0.987626 0.764005
O O14 0.482814 0.101737 0.606141
O O15 0.500000 0.500000 0.500000
O O16 0.073837 0.795271 0.362622
O O17 0.086073 0.901032 0.448804
O O18 0.944809 0.723101 0.697993
#
# Coordination Sequence:
#
# PCOD9019194 Si02
#       8
#     2   2   2   2   2   2   2   2
#     4  11  22  38  62  99 139 167 212 265 328 408
#     4  10  22  39  62 102 131 163 217 268 334 411
#     4  11  22  40  60  95 145 167 199 272 337 407
#     4  10  23  41  64  94 122 169 232 265 316 391
#     4  10  21  44  69  89 124 172 232 281 311 381
#     4  11  22  39  70  95 127 180 215 275 338 382
#     4  11  21  38  65  91 133 170 212 265 337 382
#     4  10  22  42  63  95 130 171 209 271 344 384
#
# _framework density 24.621362999999999
#
# number of rings (size 3 to 8) (size 9 to 14) (size 15 to 20)
#    0.000    1.500    6.250    0.375    1.750    3.500 
#    0.000    2.500    2.750    3.750    0.000    0.000 
#    0.000    0.000    0.000    0.000    0.000    0.000 
#
# Total GULP energy -89253.809517 kJ/mol
# GULP energy per Si atom -5578.363095 kJ/mol
# Density = 2.456532 g / cm^3
# Si number density = 24.621363 Si / 1000 Ang^3
#
#
#
# Elastic Constant Matrix: (Units=GPa)
#
#
# Indices 1 2 3 4 5 6 
#
# 1 156.8270 15.9405 22.5534 -18.4651 -31.9871 5.7595
# 2 15.9405 88.8640 27.1154 -25.5458 15.1605 3.3859
# 3 22.5534 27.1154 75.3423 -26.6664 -7.1146 -3.7616
# 4 -18.4651 -25.5458 -26.6664 49.9515 -4.7327 2.5566
# 5 -31.9871 15.1605 -7.1146 -4.7327 23.4320 -9.2053
# 6 5.7595 3.3859 -3.7616 2.5566 -9.2053 40.9568
#
#
#
# Elastic Compliance Matrix: (Units=1/GPa)
#
#
# Indices 1 2 3 4 5 6 
#
# 1 0.011611 -0.005487 0.002521 0.004780 0.022641 0.003843
# 2 -0.005487 0.019600 -0.007386 0.002069 -0.024840 -0.007239
# 3 0.002521 -0.007386 0.020646 0.009653 0.018698 0.005752
# 4 0.004780 0.002069 0.009653 0.029307 0.014627 0.001501
# 5 0.022641 -0.024840 0.018698 0.014627 0.107666 0.023873
# 6 0.003843 -0.007239 0.005752 0.001501 0.023873 0.030274
#
#
# Mechanical properties :
#
#
# Convention : Reuss Voigt Hill
#
# Bulk Modulus (GPa) = 32.10013 50.25022 41.17517
# Shear Modulus (GPa) = 19.98456 39.89633 29.94044
#
# Velocity S-wave (km/s) = 2.85208 4.02978 3.49095
# Velocity P-wave (km/s) = 4.88995 6.48889 5.74532
#
# Compressibility (1/GPa) = 0.03115253
#
# Stress axis : x y z
#
# Youngs Moduli (GPa) = 86.12207 51.02153 48.43559
#
# Poissons Ratio (x) = 0.27995 -0.12209
# Poissons Ratio (y) = 0.47255 0.35775
# Poissons Ratio (z) = -0.21709 0.37685
#
# Static dielectric constant tensor:
#      x y z
#    x 2.608590 -0.551040 -0.186340 
#    y -0.551040 2.375610 0.089660 
#    z -0.186340 0.089660 2.132970 
# 
# From -- ./inp_files/304624.got.cif
#   From: 2010.05.17/outbox.cif.g08.bks.cpg/sg2_153_cif.got.tgz:304624.got - 2010.06.03 11:33:40.
