data_PCOD9019564
_publ_section_title
;
Structure prediction by ZEFSAII (Michael W. Deem and Ramdas Pophale) SiO2 
 PCOD9019564
Probable space group: P -1
;
_chemical_formula_sum "Si O2"
_cell_formula_units_Z 14
_cell_length_a 5.342166
_cell_length_b 21.007809
_cell_length_c 5.334782
_cell_angle_alpha 119.993802
_cell_angle_beta 86.877760
_cell_angle_gamma 88.685855
_cell_volume 516.886973
_symmetry_space_group_name_H-M "P -1"
_symmetry_group_IT_number 2
_symmetry_cell_setting 'triclinic'
loop_
_space_group_symop_operation_xyz
x,y,z
-x,-y,-z
loop_
_atom_site_type_symbol
_atom_site_label
_atom_site_fract_x
_atom_site_fract_y
_atom_site_fract_z
Si Si1 0.131824 0.611662 0.293476
Si Si2 0.561424 0.086078 0.173348
Si Si3 0.489069 0.322434 0.977375
Si Si4 0.744064 0.049396 0.587418
Si Si5 0.207058 0.468608 0.229099
Si Si6 0.863758 0.249229 0.164541
Si Si7 0.129236 0.205597 0.565572
O O1 0.280315 0.658641 0.177719
O O2 0.305810 0.543714 0.259497
O O3 0.044649 0.667481 0.629009
O O4 0.917641 0.573467 0.077900
O O5 0.747306 0.090019 0.403729
O O6 0.317829 0.136596 0.351321
O O7 0.683852 0.101119 0.929504
O O8 0.500000 0.000000 0.000000
O O9 0.304147 0.275331 0.728118
O O10 0.382969 0.404268 0.213662
O O11 0.588827 0.271547 0.105395
O O12 0.500000 0.000000 0.500000
O O13 0.000000 0.000000 0.500000
O O14 0.000000 0.500000 0.500000
O O15 0.937583 0.215107 0.362677
O O16 0.010168 0.205528 0.849018
#
# Coordination Sequence:
#
# PCOD9019564 Si02
#       7
#     2   2   2   2   2   2   2
#     4  11  24  44  70 108 140 191 247 298 376 432
#     4  10  23  48  74 109 147 199 247 320 384 459
#     4  12  25  46  72 105 147 193 253 300 384 443
#     4  10  21  44  74 111 152 195 245 315 387 462
#     4  11  24  45  73 106 147 192 244 314 368 447
#     4  12  26  49  71 108 146 199 245 308 370 457
#     4  12  27  50  74 105 155 192 255 306 382 450
#
# _framework density 27.085225000000001
#
# number of rings (size 3 to 8) (size 9 to 14) (size 15 to 20)
#    0.000    0.857    2.857    3.429    2.000    4.571 
#   15.429    0.000    0.000    0.000    0.000    0.000 
#    0.000    0.000    0.000    0.000    0.000    0.000 
#
# Total GULP energy -78424.555013 kJ/mol
# GULP energy per Si atom -5601.753930 kJ/mol
# Density = 2.702358 g / cm^3
# Si number density = 27.085225 Si / 1000 Ang^3
#
#
#
# Elastic Constant Matrix: (Units=GPa)
#
#
# Indices 1 2 3 4 5 6 
#
# 1 97.7637 48.6450 65.1372 -6.1111 5.2095 -29.2987
# 2 48.6450 164.7970 76.8181 -9.4134 -12.6630 -33.2665
# 3 65.1372 76.8181 249.0339 -5.9322 -7.3970 -33.2320
# 4 -6.1111 -9.4134 -5.9322 66.4304 -7.1804 -7.4179
# 5 5.2095 -12.6630 -7.3970 -7.1804 68.3268 19.1405
# 6 -29.2987 -33.2665 -33.2320 -7.4179 19.1405 58.6550
#
#
#
# Elastic Compliance Matrix: (Units=1/GPa)
#
#
# Indices 1 2 3 4 5 6 
#
# 1 0.015113 -0.002252 -0.002517 0.001158 -0.003433 0.006113
# 2 -0.002252 0.008072 -0.001520 0.001175 0.000945 0.002432
# 3 -0.002517 -0.001520 0.005260 0.000140 0.000273 0.000789
# 4 0.001158 0.001175 0.000140 0.015778 0.000961 0.003006
# 5 -0.003433 0.000945 0.000273 0.000961 0.017011 -0.006453
# 6 0.006113 0.002432 0.000789 0.003006 -0.006453 0.024415
#
#
# Mechanical properties :
#
#
# Convention : Reuss Voigt Hill
#
# Bulk Modulus (GPa) = 63.02441 99.19947 81.11194
# Shear Modulus (GPa) = 48.30159 60.08206 54.19182
#
# Velocity S-wave (km/s) = 4.22752 4.71495 4.47787
# Velocity P-wave (km/s) = 6.86649 8.14527 7.53306
#
# Compressibility (1/GPa) = 0.01586687
#
# Stress axis : x y z
#
# Youngs Moduli (GPa) = 66.16624 123.88340 190.12704
#
# Poissons Ratio (x) = 0.27892 0.47859
# Poissons Ratio (y) = 0.14897 0.28908
# Poissons Ratio (z) = 0.16655 0.18836
#
# Static dielectric constant tensor:
#      x y z
#    x 2.064400 -0.033950 -0.029460 
#    y -0.033950 2.174980 -0.037600 
#    z -0.029460 -0.037600 2.102150 
# 
# From -- ./inp_files/13793.got.cif
#   From: 2010.05.17/outbox.cif.g08.bks.cpg/sg2_7_cif.got.tgz:13793.got - 2010.06.03 11:33:40.
