data_PCOD9019939
_publ_section_title
;
Structure prediction by ZEFSAII (Michael W. Deem and Ramdas Pophale) SiO2 
 PCOD9019939
Probable space group: P -1
;
_chemical_formula_sum "Si O2"
_cell_formula_units_Z 14
_cell_length_a 27.833053
_cell_length_b 9.130671
_cell_length_c 9.492722
_cell_angle_alpha 45.748274
_cell_angle_beta 28.419516
_cell_angle_gamma 33.976773
_cell_volume 637.121164
_symmetry_space_group_name_H-M "P -1"
_symmetry_group_IT_number 2
_symmetry_cell_setting 'triclinic'
loop_
_space_group_symop_operation_xyz
x,y,z
-x,-y,-z
loop_
_atom_site_type_symbol
_atom_site_label
_atom_site_fract_x
_atom_site_fract_y
_atom_site_fract_z
Si Si1 0.862236 0.588817 0.245002
Si Si2 0.099710 0.560212 0.209467
Si Si3 0.722289 0.723869 0.807589
Si Si4 0.635157 0.295186 0.702709
Si Si5 0.866835 0.132857 0.409887
Si Si6 0.747955 0.923782 0.043750
Si Si7 0.537795 0.602936 0.459929
O O1 0.766767 0.687921 0.556902
O O2 0.876932 0.347751 0.298029
O O3 0.803339 0.815561 0.128681
O O4 0.000000 0.500000 0.000000
O O5 0.154833 0.503892 0.261870
O O6 0.000000 0.500000 0.500000
O O7 0.215614 0.325997 0.971205
O O8 0.011825 0.861509 0.186666
O O9 0.672509 0.008107 0.797008
O O10 0.385578 0.307769 0.866008
O O11 0.756602 0.250972 0.494924
O O12 0.617367 0.395620 0.521068
O O13 0.500000 0.500000 0.000000
O O14 0.812007 0.043171 0.729595
O O15 0.594800 0.149015 0.294373
O O16 0.500000 0.500000 0.500000
#
# Coordination Sequence:
#
# PCOD9019939 Si02
#       7
#     2   2   2   2   2   2   2
#     4  12  29  47  74 108 146 196 242 296 374 434
#     4  10  21  45  73 103 143 183 239 303 354 416
#     4  12  27  48  74 106 150 190 244 307 361 433
#     4  12  26  47  79 110 142 196 249 293 366 435
#     4  11  25  47  78 107 150 184 247 307 357 435
#     4  11  24  47  73 107 147 187 246 300 360 430
#     4  12  28  47  73 109 152 194 241 300 371 435
#
# _framework density 21.973842000000001
#
# number of rings (size 3 to 8) (size 9 to 14) (size 15 to 20)
#    0.000    0.571    4.286    3.429    4.000    7.429 
#    0.000    0.000    0.000    0.000    0.000    0.000 
#    0.000    0.000    0.000    0.000    0.000    0.000 
#
# Total GULP energy -78400.850863 kJ/mol
# GULP energy per Si atom -5600.060776 kJ/mol
# Density = 2.192383 g / cm^3
# Si number density = 21.973842 Si / 1000 Ang^3
#
#
#
# Elastic Constant Matrix: (Units=GPa)
#
#
# Indices 1 2 3 4 5 6 
#
# 1 156.6057 76.9511 49.9858 -14.7734 -3.8077 -9.2404
# 2 76.9511 141.4464 57.8727 0.8871 -10.3678 -7.8295
# 3 49.9858 57.8727 119.8955 -15.1544 -6.5114 -1.2012
# 4 -14.7734 0.8871 -15.1544 45.9797 0.6241 6.4500
# 5 -3.8077 -10.3678 -6.5114 0.6241 43.3978 -13.6174
# 6 -9.2404 -7.8295 -1.2012 6.4500 -13.6174 52.2143
#
#
#
# Elastic Compliance Matrix: (Units=1/GPa)
#
#
# Indices 1 2 3 4 5 6 
#
# 1 0.009308 -0.004503 -0.001398 0.002546 -0.000337 0.000538
# 2 -0.004503 0.011408 -0.003892 -0.003240 0.002371 0.001843
# 3 -0.001398 -0.003892 0.011246 0.003458 0.000296 -0.000922
# 4 0.002546 -0.003240 0.003458 0.024254 -0.001423 -0.003323
# 5 -0.000337 0.002371 0.000296 -0.001423 0.025915 0.007237
# 6 0.000538 0.001843 -0.000922 -0.003323 0.007237 0.021800
#
#
# Mechanical properties :
#
#
# Convention : Reuss Voigt Hill
#
# Bulk Modulus (GPa) = 80.79761 87.50742 84.15252
# Shear Modulus (GPa) = 39.17218 43.86088 41.51653
#
# Velocity S-wave (km/s) = 4.22675 4.47256 4.35139
# Velocity P-wave (km/s) = 7.78911 8.15976 7.97659
#
# Compressibility (1/GPa) = 0.01237660
#
# Stress axis : x y z
#
# Youngs Moduli (GPa) = 107.43587 87.66021 88.92152
#
# Poissons Ratio (x) = 0.39469 0.12434
# Poissons Ratio (y) = 0.48373 0.34604
# Poissons Ratio (z) = 0.15023 0.34113
#
# Static dielectric constant tensor:
#      x y z
#    x 1.784610 -0.010740 0.054810 
#    y -0.010740 1.798570 -0.004510 
#    z 0.054810 -0.004510 1.781040 
# 
# From -- ./inp_files/356347.got.cif
#   From: 2010.05.17/outbox.cif.g08.bks.cpg/sg2_179_cif.got.tgz:356347.got - 2010.06.03 11:33:40.
