data_PCOD9019811
_publ_section_title
;
Structure prediction by ZEFSAII (Michael W. Deem and Ramdas Pophale) SiO2 
 PCOD9019811
Probable space group: P -1
;
_chemical_formula_sum "Si O2"
_cell_formula_units_Z 12
_cell_length_a 9.244983
_cell_length_b 10.951328
_cell_length_c 4.936599
_cell_angle_alpha 98.374171
_cell_angle_beta 71.489503
_cell_angle_gamma 73.463360
_cell_volume 438.766174
_symmetry_space_group_name_H-M "P -1"
_symmetry_group_IT_number 2
_symmetry_cell_setting 'triclinic'
loop_
_space_group_symop_operation_xyz
x,y,z
-x,-y,-z
loop_
_atom_site_type_symbol
_atom_site_label
_atom_site_fract_x
_atom_site_fract_y
_atom_site_fract_z
Si Si1 0.682374 0.586600 0.685247
Si Si2 0.315618 0.731025 0.853548
Si Si3 0.589866 0.064033 0.764229
Si Si4 0.065306 0.614030 0.885190
Si Si5 0.878827 0.044259 0.335032
Si Si6 0.721354 0.734007 0.216507
O O1 0.495172 0.617949 0.716645
O O2 0.818983 0.451886 0.459743
O O3 0.732303 0.691969 0.508902
O O4 0.688338 0.621710 0.006239
O O5 0.181038 0.670661 0.007728
O O6 0.239031 0.808126 0.644810
O O7 0.340917 0.842827 0.064722
O O8 0.744620 0.979127 0.469534
O O9 0.447267 0.149237 0.682782
O O10 0.500000 0.000000 0.000000
O O11 0.000000 0.500000 0.000000
O O12 0.892566 0.732193 0.992694
O O13 0.000000 0.000000 0.500000
O O14 0.000000 0.000000 0.000000
#
# Coordination Sequence:
#
# PCOD9019811 Si02
#       6
#     2   2   2   2   2   2
#     4  10  21  45  69 102 142 188 237 294 360 431
#     4  11  24  48  73 105 150 194 244 305 370 438
#     4  11  26  50  76 111 149 196 249 308 371 444
#     4  10  23  45  72 109 143 193 244 302 363 442
#     4  12  26  50  75 111 147 197 249 310 371 444
#     4  10  22  44  69 104 142 187 238 298 360 432
#
# _framework density 27.349421
#
# number of rings (size 3 to 8) (size 9 to 14) (size 15 to 20)
#    0.000    1.333    3.333    1.000    2.333    0.667 
#   24.000    7.500    0.000    0.000    0.000    0.000 
#    0.000    0.000    0.000    0.000    0.000    0.000 
#
# Total GULP energy -67078.495878 kJ/mol
# GULP energy per Si atom -5589.874657 kJ/mol
# Density = 2.728717 g / cm^3
# Si number density = 27.349421 Si / 1000 Ang^3
#
#
#
# Elastic Constant Matrix: (Units=GPa)
#
#
# Indices 1 2 3 4 5 6 
#
# 1 249.5148 51.7716 79.7416 5.8900 -48.6684 -0.0516
# 2 51.7716 60.4413 43.2056 -11.7987 -9.2907 8.4003
# 3 79.7416 43.2056 150.0147 -5.9179 -22.8170 -6.9178
# 4 5.8900 -11.7987 -5.9179 47.8818 -13.3317 -6.6030
# 5 -48.6684 -9.2907 -22.8170 -13.3317 67.9570 8.7908
# 6 -0.0516 8.4003 -6.9178 -6.6030 8.7908 57.1678
#
#
#
# Elastic Compliance Matrix: (Units=1/GPa)
#
#
# Indices 1 2 3 4 5 6 
#
# 1 0.005896 -0.003523 -0.001715 -0.001006 0.003002 -0.000262
# 2 -0.003523 0.024994 -0.005162 0.005645 0.000755 -0.003765
# 3 -0.001715 -0.005162 0.009339 0.000646 0.001097 0.001793
# 4 -0.001006 0.005645 0.000646 0.023995 0.004810 0.001280
# 5 0.003002 0.000755 0.001097 0.004810 0.018575 -0.002276
# 6 -0.000262 -0.003765 0.001793 0.001280 -0.002276 0.018760
#
#
# Mechanical properties :
#
#
# Convention : Reuss Voigt Hill
#
# Bulk Modulus (GPa) = 51.46667 89.93426 70.70046
# Shear Modulus (GPa) = 38.80963 53.61810 46.21387
#
# Velocity S-wave (km/s) = 3.77109 4.43254 4.11512
# Velocity P-wave (km/s) = 6.14984 7.69099 6.96318
#
# Compressibility (1/GPa) = 0.01943005
#
# Stress axis : x y z
#
# Youngs Moduli (GPa) = 169.60936 40.00983 107.07756
#
# Poissons Ratio (x) = 0.14096 0.18359
# Poissons Ratio (y) = 0.59754 0.55271
# Poissons Ratio (z) = 0.29080 0.20652
#
# Static dielectric constant tensor:
#      x y z
#    x 2.098300 0.030460 0.004650 
#    y 0.030460 2.402120 0.092980 
#    z 0.004650 0.092980 2.194470 
# 
# From -- ./inp_files/24933.got.cif
#   From: 2010.05.17/outbox.cif.g08.bks.cpg/sg2_13_cif.got.tgz:24933.got - 2010.06.03 11:33:40.
