data_PCOD9019469
_publ_section_title
;
Structure prediction by ZEFSAII (Michael W. Deem and Ramdas Pophale) SiO2 
 PCOD9019469
Probable space group: P -1
;
_chemical_formula_sum "Si O2"
_cell_formula_units_Z 14
_cell_length_a 21.221852
_cell_length_b 11.519015
_cell_length_c 11.568951
_cell_angle_alpha 130.453928
_cell_angle_beta 23.434635
_cell_angle_gamma 142.422788
_cell_volume 649.147240
_symmetry_space_group_name_H-M "P -1"
_symmetry_group_IT_number 2
_symmetry_cell_setting 'triclinic'
loop_
_space_group_symop_operation_xyz
x,y,z
-x,-y,-z
loop_
_atom_site_type_symbol
_atom_site_label
_atom_site_fract_x
_atom_site_fract_y
_atom_site_fract_z
Si Si1 0.241375 0.218207 0.536931
Si Si2 0.964566 0.877241 0.595507
Si Si3 0.490574 0.593729 0.193847
Si Si4 0.514690 0.874088 0.801424
Si Si5 0.140074 0.655682 0.116818
Si Si6 0.881295 0.185730 0.209634
Si Si7 0.232382 0.717981 0.747326
O O1 0.339912 0.415128 0.422357
O O2 0.419765 0.238942 0.316768
O O3 0.122189 0.032098 0.528624
O O4 0.067600 0.181193 0.888616
O O5 0.010342 0.729306 0.397640
O O6 0.000000 0.000000 0.500000
O O7 0.723642 0.747298 0.949496
O O8 0.392576 0.699136 0.409268
O O9 0.500000 0.500000 0.000000
O O10 0.701173 0.029937 0.499965
O O11 0.300418 0.730084 0.998713
O O12 0.500000 0.000000 0.000000
O O13 0.986078 0.414670 0.211220
O O14 0.272238 0.762045 0.844433
O O15 0.789230 0.148589 0.210720
O O16 0.000000 0.500000 0.000000
#
# Coordination Sequence:
#
# PCOD9019469 Si02
#       7
#     2   2   2   2   2   2   2
#     4  12  26  49  67 105 144 184 242 289 350 427
#     4  12  26  41  71 107 143 180 233 291 359 414
#     4  12  24  42  74 106 146 182 225 298 362 414
#     4  12  29  47  71 104 144 192 242 289 347 425
#     4  11  25  48  71 105 141 187 236 292 360 420
#     4  11  26  47  75 100 147 182 236 300 352 423
#     4  10  21  44  72 108 134 176 234 291 356 415
#
# _framework density 21.566756999999999
#
# number of rings (size 3 to 8) (size 9 to 14) (size 15 to 20)
#    0.000    0.571    5.714    3.000    8.000    2.857 
#    0.000    0.000    0.000    0.000    0.000    0.000 
#    0.000    0.000    0.000    0.000    0.000    0.000 
#
# Total GULP energy -78389.478392 kJ/mol
# GULP energy per Si atom -5599.248457 kJ/mol
# Density = 2.151767 g / cm^3
# Si number density = 21.566757 Si / 1000 Ang^3
#
#
#
# Elastic Constant Matrix: (Units=GPa)
#
#
# Indices 1 2 3 4 5 6 
#
# 1 73.5548 -3.6654 -3.1088 1.7226 -23.5507 5.1400
# 2 -3.6654 53.8302 -4.1138 9.3820 -9.9676 3.9242
# 3 -3.1088 -4.1138 91.1890 17.1280 -14.5491 -2.2977
# 4 1.7226 9.3820 17.1280 44.2425 -11.3947 -5.4693
# 5 -23.5507 -9.9676 -14.5491 -11.3947 44.1431 -3.2115
# 6 5.1400 3.9242 -2.2977 -5.4693 -3.2115 28.1153
#
#
#
# Elastic Compliance Matrix: (Units=1/GPa)
#
#
# Indices 1 2 3 4 5 6 
#
# 1 0.017474 0.003504 0.002389 0.000152 0.010778 -0.002228
# 2 0.003504 0.021231 0.002831 -0.004591 0.006152 -0.003563
# 3 0.002389 0.002831 0.012791 -0.004366 0.004998 -0.000065
# 4 0.000152 -0.004591 -0.004366 0.027338 0.005111 0.006158
# 5 0.010778 0.006152 0.004998 0.005111 0.032929 0.002335
# 6 -0.002228 -0.003563 -0.000065 0.006158 0.002335 0.037932
#
#
# Mechanical properties :
#
#
# Convention : Reuss Voigt Hill
#
# Bulk Modulus (GPa) = 14.50450 21.86644 18.18547
# Shear Modulus (GPa) = 32.21058 38.59765 35.40412
#
# Velocity S-wave (km/s) = 3.86881 4.23505 4.05607
# Velocity P-wave (km/s) = 5.16691 5.83740 5.51236
#
# Compressibility (1/GPa) = 0.06894414
#
# Stress axis : x y z
#
# Youngs Moduli (GPa) = 57.22806 47.10116 78.17832
#
# Poissons Ratio (x) = -0.16504 -0.18674
# Poissons Ratio (y) = -0.20053 -0.22135
# Poissons Ratio (z) = -0.13670 -0.13336
#
# Static dielectric constant tensor:
#      x y z
#    x 1.818870 0.018290 -0.011660 
#    y 0.018290 1.778360 0.005020 
#    z -0.011660 0.005020 1.776670 
# 
# From -- ./inp_files/258471.got.cif
#   From: 2010.05.17/outbox.cif.g08.bks.cpg/sg2_130_cif.got.tgz:258471.got - 2010.06.03 11:33:40.
