data_PCOD9019363
_publ_section_title
;
Structure prediction by ZEFSAII (Michael W. Deem and Ramdas Pophale) SiO2 
 PCOD9019363
Probable space group: P -1
;
_chemical_formula_sum "Si O2"
_cell_formula_units_Z 11
_cell_length_a 13.468162
_cell_length_b 7.934678
_cell_length_c 8.997650
_cell_angle_alpha 71.778087
_cell_angle_beta 28.628044
_cell_angle_gamma 61.383915
_cell_volume 390.938660
_symmetry_space_group_name_H-M "P -1"
_symmetry_group_IT_number 2
_symmetry_cell_setting 'triclinic'
loop_
_space_group_symop_operation_xyz
x,y,z
-x,-y,-z
loop_
_atom_site_type_symbol
_atom_site_label
_atom_site_fract_x
_atom_site_fract_y
_atom_site_fract_z
Si Si1 0.500000 0.000000 0.000000
Si Si2 0.023576 0.988006 0.227530
Si Si3 0.967737 0.724159 0.607182
Si Si4 0.740199 0.554626 0.285319
Si Si5 0.614410 0.635809 0.757211
Si Si6 0.666833 0.169702 0.420184
O O1 0.712340 0.802737 0.856862
O O2 0.480820 0.852824 0.936938
O O3 0.083497 0.796376 0.301455
O O4 0.011581 0.159112 0.305267
O O5 0.183555 0.957442 0.881713
O O6 0.762944 0.047290 0.482236
O O7 0.113985 0.493155 0.518012
O O8 0.605031 0.639283 0.591680
O O9 0.728095 0.354178 0.308598
O O10 0.600556 0.725716 0.303189
O O11 0.000000 0.500000 0.000000
O O12 0.500000 0.500000 0.000000
#
# Coordination Sequence:
#
# PCOD9019363 Si02
#       6
#     1   2   2   2   2   2
#     4  12  28  42  74 114 146 202 254 316 384 458
#     4  10  21  44  71 103 145 202 253 307 383 460
#     4  11  23  44  71 108 150 191 258 318 377 450
#     4  11  25  45  72 111 154 200 258 317 385 463
#     4  12  26  51  77 111 156 201 256 327 381 459
#     4  10  22  44  72 101 150 205 248 312 393 455
#
# _framework density 28.137404
#
# number of rings (size 3 to 8) (size 9 to 14) (size 15 to 20)
#    0.000    1.091    1.818    4.909    2.545    1.455 
#    3.273    1.818    0.000    0.000    0.000    0.000 
#    0.000    0.000    0.000    0.000    0.000    0.000 
#
# Total GULP energy -61599.227763 kJ/mol
# GULP energy per Si atom -5599.929797 kJ/mol
# Density = 2.807336 g / cm^3
# Si number density = 28.137404 Si / 1000 Ang^3
#
#
#
# Elastic Constant Matrix: (Units=GPa)
#
#
# Indices 1 2 3 4 5 6 
#
# 1 178.8200 40.8523 73.4657 12.7226 -0.4033 -30.5459
# 2 40.8523 98.5575 15.5517 25.9590 22.7736 -0.3352
# 3 73.4657 15.5517 96.5429 17.9402 -2.6637 6.6167
# 4 12.7226 25.9590 17.9402 53.8548 3.1070 3.1855
# 5 -0.4033 22.7736 -2.6637 3.1070 86.2573 11.4343
# 6 -30.5459 -0.3352 6.6167 3.1855 11.4343 74.3405
#
#
#
# Elastic Compliance Matrix: (Units=1/GPa)
#
#
# Indices 1 2 3 4 5 6 
#
# 1 0.010375 -0.003443 -0.007968 0.001573 0.000007 0.004888
# 2 -0.003443 0.013683 0.001499 -0.006050 -0.003268 -0.000724
# 3 -0.007968 0.001499 0.017346 -0.004389 0.000892 -0.004760
# 4 0.001573 -0.006050 -0.004389 0.022540 0.000665 -0.000058
# 5 0.000007 -0.003268 0.000892 0.000665 0.012735 -0.002079
# 6 0.004888 -0.000724 -0.004760 -0.000058 -0.002079 0.016203
#
#
# Mechanical properties :
#
#
# Convention : Reuss Voigt Hill
#
# Bulk Modulus (GPa) = 46.33428 70.40664 58.37046
# Shear Modulus (GPa) = 41.70175 59.16057 50.43116
#
# Velocity S-wave (km/s) = 3.85395 4.59034 4.23817
# Velocity P-wave (km/s) = 6.02551 7.29190 6.68874
#
# Compressibility (1/GPa) = 0.02158229
#
# Stress axis : x y z
#
# Youngs Moduli (GPa) = 96.38323 73.08303 57.64971
#
# Poissons Ratio (x) = 0.25159 0.45934
# Poissons Ratio (y) = 0.33180 -0.08643
# Poissons Ratio (z) = 0.76796 -0.10957
#
# Static dielectric constant tensor:
#      x y z
#    x 2.832630 0.503170 -0.281290 
#    y 0.503170 2.403710 -0.111170 
#    z -0.281290 -0.111170 2.196940 
# 
# From -- ./inp_files/243785.got.cif
#   From: 2010.05.17/outbox.cif.g08.bks.cpg/sg2_122_cif.got.tgz:243785.got - 2010.06.03 11:33:40.
