data_PCOD9019280
_publ_section_title
;
Structure prediction by ZEFSAII (Michael W. Deem and Ramdas Pophale) SiO2 
 PCOD9019280
Probable space group: P -1
;
_chemical_formula_sum "Si O2"
_cell_formula_units_Z 16
_cell_length_a 10.985308
_cell_length_b 16.835198
_cell_length_c 10.038737
_cell_angle_alpha 146.504305
_cell_angle_beta 45.062901
_cell_angle_gamma 138.448035
_cell_volume 662.228426
_symmetry_space_group_name_H-M "P -1"
_symmetry_group_IT_number 2
_symmetry_cell_setting 'triclinic'
loop_
_space_group_symop_operation_xyz
x,y,z
-x,-y,-z
loop_
_atom_site_type_symbol
_atom_site_label
_atom_site_fract_x
_atom_site_fract_y
_atom_site_fract_z
Si Si1 0.634787 0.183386 0.181966
Si Si2 0.546776 0.567938 0.267414
Si Si3 0.377097 0.891293 0.626666
Si Si4 0.364131 0.743335 0.003729
Si Si5 0.001833 0.983165 0.635623
Si Si6 0.899925 0.245208 0.589780
Si Si7 0.330710 0.274838 0.878211
Si Si8 0.713395 0.698110 0.576862
O O1 0.539411 0.303998 0.457964
O O2 0.719808 0.173498 0.246049
O O3 0.726757 0.245777 0.054631
O O4 0.500000 0.000000 0.000000
O O5 0.650107 0.617903 0.116688
O O6 0.690174 0.603980 0.326848
O O7 0.393508 0.391482 0.117561
O O8 0.221031 0.845517 0.569058
O O9 0.522024 0.808445 0.366703
O O10 0.501589 0.078592 0.801371
O O11 0.210564 0.664717 0.126786
O O12 0.514149 0.668063 0.751961
O O13 0.120808 0.144000 0.844350
O O14 0.105267 0.873806 0.452588
O O15 0.000000 0.000000 0.500000
O O16 0.799917 0.881190 0.714173
O O17 0.122420 0.323896 0.497561
#
# Coordination Sequence:
#
# PCOD9019280 Si02
#       8
#     2   2   2   2   2   2   2   2
#     4   8  17  30  54  83 110 146 201 234 278 348
#     4   9  17  31  53  84 112 151 193 240 284 346
#     4  10  18  32  51  85 113 149 190 240 295 345
#     4  10  18  33  58  82 113 151 191 241 290 339
#     4  10  19  33  54  84 116 145 195 241 281 340
#     4  10  21  33  56  85 118 145 196 247 291 337
#     4  10  17  30  55  81 116 151 191 235 296 345
#     4   9  20  35  54  82 114 146 197 240 282 346
#
# _framework density 24.160847
#
# number of rings (size 3 to 8) (size 9 to 14) (size 15 to 20)
#    0.750    1.750    2.500    0.375    0.000    1.500 
#    0.000    0.625    0.000    6.000    0.000   21.000 
#    0.000    0.000    0.000    0.000    0.000    0.000 
#
# Total GULP energy -89195.437458 kJ/mol
# GULP energy per Si atom -5574.714841 kJ/mol
# Density = 2.410586 g / cm^3
# Si number density = 24.160847 Si / 1000 Ang^3
#
#
#
# Elastic Constant Matrix: (Units=GPa)
#
#
# Indices 1 2 3 4 5 6 
#
# 1 137.2921 23.3162 48.9405 -4.6094 24.7523 12.3857
# 2 23.3162 64.3649 19.9397 0.7258 5.2180 6.8630
# 3 48.9405 19.9397 115.5565 11.7635 4.2923 11.1936
# 4 -4.6094 0.7258 11.7635 42.8095 -1.8330 1.6732
# 5 24.7523 5.2180 4.2923 -1.8330 43.2180 1.9153
# 6 12.3857 6.8630 11.1936 1.6732 1.9153 27.7400
#
#
#
# Elastic Compliance Matrix: (Units=1/GPa)
#
#
# Indices 1 2 3 4 5 6 
#
# 1 0.010122 -0.001872 -0.003760 0.002031 -0.005009 -0.002316
# 2 -0.001872 0.017134 -0.001897 0.000101 -0.000689 -0.002596
# 3 -0.003760 -0.001897 0.011075 -0.003277 0.001242 -0.002209
# 4 0.002031 0.000101 -0.003277 0.024530 0.000239 -0.001106
# 5 -0.005009 -0.000689 0.001242 0.000239 0.025973 0.000098
# 6 -0.002316 -0.002596 -0.002209 -0.001106 0.000098 0.038677
#
#
# Mechanical properties :
#
#
# Convention : Reuss Voigt Hill
#
# Bulk Modulus (GPa) = 42.96864 55.73404 49.35134
# Shear Modulus (GPa) = 33.26094 37.75463 35.50778
#
# Velocity S-wave (km/s) = 3.71434 3.95731 3.83775
# Velocity P-wave (km/s) = 6.01815 6.63313 6.33311
#
# Compressibility (1/GPa) = 0.02327278
#
# Stress axis : x y z
#
# Youngs Moduli (GPa) = 98.79209 58.36466 90.29277
#
# Poissons Ratio (x) = 0.10925 0.33953
# Poissons Ratio (y) = 0.18492 0.17128
# Poissons Ratio (z) = 0.37150 0.11072
#
# Static dielectric constant tensor:
#      x y z
#    x 2.003730 -0.002700 -0.051320 
#    y -0.002700 1.993460 -0.002670 
#    z -0.051320 -0.002670 1.936060 
# 
# From -- ./inp_files/439046.got.cif
#   From: 2010.05.17/outbox.cif.g08.bks.cpg/sg2_220_cif.got.tgz:439046.got - 2010.06.03 11:33:40.
