data_PCOD9019391
_publ_section_title
;
Structure prediction by ZEFSAII (Michael W. Deem and Ramdas Pophale) SiO2 
 PCOD9019391
Probable space group: P -1
;
_chemical_formula_sum "Si O2"
_cell_formula_units_Z 16
_cell_length_a 12.171020
_cell_length_b 9.244417
_cell_length_c 15.480783
_cell_angle_alpha 77.070322
_cell_angle_beta 26.691600
_cell_angle_gamma 91.082361
_cell_volume 660.496029
_symmetry_space_group_name_H-M "P -1"
_symmetry_group_IT_number 2
_symmetry_cell_setting 'triclinic'
loop_
_space_group_symop_operation_xyz
x,y,z
-x,-y,-z
loop_
_atom_site_type_symbol
_atom_site_label
_atom_site_fract_x
_atom_site_fract_y
_atom_site_fract_z
Si Si1 0.437986 0.596351 0.954375
Si Si2 0.366003 0.254292 0.669810
Si Si3 0.952724 0.152442 0.542409
Si Si4 0.209833 0.367748 0.995945
Si Si5 0.885060 0.266191 0.747005
Si Si6 0.201001 0.862148 0.821393
Si Si7 0.302640 0.662836 0.396408
Si Si8 0.447102 0.308735 0.413484
O O1 0.728205 0.692724 0.685120
O O2 0.197839 0.453364 0.081590
O O3 0.500000 0.500000 0.000000
O O4 0.359954 0.736904 0.022896
O O5 0.575144 0.323898 0.595172
O O6 0.487629 0.348926 0.481581
O O7 0.297146 0.059897 0.728908
O O8 0.063647 0.232014 0.913928
O O9 0.797431 0.147807 0.740586
O O10 0.808767 0.207825 0.562183
O O11 0.000000 0.000000 0.500000
O O12 0.433445 0.300846 0.855170
O O13 0.355955 0.523906 0.803753
O O14 0.929661 0.221619 0.168730
O O15 0.054728 0.470258 0.576923
O O16 0.118553 0.240213 0.636080
O O17 0.451953 0.824035 0.666262
#
# Coordination Sequence:
#
# PCOD9019391 Si02
#       8
#     2   2   2   2   2   2   2   2
#     4  12  24  45  72  98 133 185 234 277 337 411
#     4  10  24  41  68 100 136 185 220 278 342 401
#     4  12  26  47  72 102 137 173 224 293 345 395
#     4  10  23  42  68 102 131 183 227 283 330 405
#     4  11  25  43  70 103 133 180 231 276 338 412
#     4  10  23  43  62 100 141 177 223 277 340 402
#     4  10  21  44  71  96 136 180 227 272 341 413
#     4  11  23  41  67  95 141 174 227 275 333 405
#
# _framework density 24.224218
#
# number of rings (size 3 to 8) (size 9 to 14) (size 15 to 20)
#    0.000    1.250    3.750    1.875    5.250    5.000 
#    6.750    0.000    0.000    0.000    0.000    0.000 
#    0.000    0.000    0.000    0.000    0.000    0.000 
#
# Total GULP energy -89559.056386 kJ/mol
# GULP energy per Si atom -5597.441024 kJ/mol
# Density = 2.416908 g / cm^3
# Si number density = 24.224218 Si / 1000 Ang^3
#
#
#
# Elastic Constant Matrix: (Units=GPa)
#
#
# Indices 1 2 3 4 5 6 
#
# 1 98.5128 66.9642 19.9338 26.8200 11.6737 9.0800
# 2 66.9642 112.3153 28.5586 33.9384 13.5537 -3.5215
# 3 19.9338 28.5586 93.8931 30.5544 -1.8992 -8.1383
# 4 26.8200 33.9384 30.5544 44.0860 1.6943 -13.4082
# 5 11.6737 13.5537 -1.8992 1.6943 24.0763 19.0307
# 6 9.0800 -3.5215 -8.1383 -13.4082 19.0307 43.3684
#
#
#
# Elastic Compliance Matrix: (Units=1/GPa)
#
#
# Indices 1 2 3 4 5 6 
#
# 1 0.019225 -0.010225 0.000646 -0.007011 0.003728 -0.008538
# 2 -0.010225 0.018128 -0.001599 -0.004271 -0.010178 0.006459
# 3 0.000646 -0.001599 0.014083 -0.009903 0.004494 -0.002656
# 4 -0.007011 -0.004271 -0.009903 0.043006 -0.012143 0.017888
# 5 0.003728 -0.010178 0.004494 -0.012143 0.076915 -0.038269
# 6 -0.008538 0.006459 -0.002656 0.017888 -0.038269 0.047195
#
#
# Mechanical properties :
#
#
# Convention : Reuss Voigt Hill
#
# Bulk Modulus (GPa) = 34.39033 59.51494 46.95264
# Shear Modulus (GPa) = 19.95187 34.92377 27.43782
#
# Velocity S-wave (km/s) = 2.87301 3.80108 3.36915
# Velocity P-wave (km/s) = 5.02326 6.62465 5.87873
#
# Compressibility (1/GPa) = 0.02907794
#
# Stress axis : x y z
#
# Youngs Moduli (GPa) = 52.01538 55.16357 71.00811
#
# Poissons Ratio (x) = 0.56407 -0.04584
# Poissons Ratio (y) = 0.53188 0.11355
# Poissons Ratio (z) = -0.03358 0.08822
#
# Static dielectric constant tensor:
#      x y z
#    x 1.921650 -0.002410 0.019330 
#    y -0.002410 1.917250 0.020300 
#    z 0.019330 0.020300 1.971100 
# 
# From -- ./inp_files/299677.got.cif
#   From: 2010.05.17/outbox.cif.g08.bks.cpg/sg2_150_cif.got.tgz:299677.got - 2010.06.03 11:33:40.
