data_PCOD9019833
_publ_section_title
;
Structure prediction by ZEFSAII (Michael W. Deem and Ramdas Pophale) SiO2 
 PCOD9019833
Probable space group: P -1
;
_chemical_formula_sum "Si O2"
_cell_formula_units_Z 16
_cell_length_a 8.345531
_cell_length_b 7.030949
_cell_length_c 32.449459
_cell_angle_alpha 142.722269
_cell_angle_beta 141.495091
_cell_angle_gamma 55.876276
_cell_volume 708.305678
_symmetry_space_group_name_H-M "P -1"
_symmetry_group_IT_number 2
_symmetry_cell_setting 'triclinic'
loop_
_space_group_symop_operation_xyz
x,y,z
-x,-y,-z
loop_
_atom_site_type_symbol
_atom_site_label
_atom_site_fract_x
_atom_site_fract_y
_atom_site_fract_z
Si Si1 0.658452 0.643604 0.096569
Si Si2 0.958453 0.400860 0.427273
Si Si3 0.393587 0.496869 0.313385
Si Si4 0.905330 0.786034 0.872848
Si Si5 0.602382 0.330686 0.192604
Si Si6 0.112557 0.776832 0.376405
Si Si7 0.351279 0.802859 0.518742
Si Si8 0.385577 0.283770 0.049826
O O1 0.466760 0.574240 0.085349
O O2 0.902976 0.464810 0.120971
O O3 0.733441 0.016818 0.170088
O O4 0.500000 0.500000 0.000000
O O5 0.653630 0.345637 0.346076
O O6 0.000000 0.500000 0.500000
O O7 0.100965 0.681811 0.475744
O O8 0.088282 0.084195 0.396797
O O9 0.200796 0.290741 0.207572
O O10 0.251825 0.545233 0.336208
O O11 0.488804 0.856281 0.377061
O O12 0.661773 0.728455 0.844540
O O13 0.085518 0.132545 0.971073
O O14 0.816162 0.621833 0.300022
O O15 0.526741 0.358948 0.134603
O O16 0.267410 0.849326 0.462523
O O17 0.500000 0.500000 0.500000
O O18 0.500000 0.000000 0.000000
#
# Coordination Sequence:
#
# PCOD9019833 Si02
#       8
#     2   2   2   2   2   2   2   2
#     4  11  24  45  74  96 138 187 223 281 353 404
#     4  12  26  47  73 100 142 185 236 288 348 413
#     4  12  26  46  73 103 141 185 233 287 352 413
#     4  11  26  44  69 106 137 177 235 282 344 416
#     4  12  26  45  70 103 139 177 232 286 342 413
#     4  12  27  47  71 105 140 184 235 288 349 416
#     4  12  25  46  73 102 142 184 231 291 349 410
#     4  10  21  45  69  98 137 174 225 280 334 410
#
# _framework density 22.589116000000001
#
# number of rings (size 3 to 8) (size 9 to 14) (size 15 to 20)
#    0.000    0.500    5.000    4.125    3.500    4.500 
#    0.000    0.000    0.000    0.000    0.000    0.000 
#    0.000    0.000    0.000    0.000    0.000    0.000 
#
# Total GULP energy -89585.746052 kJ/mol
# GULP energy per Si atom -5599.109128 kJ/mol
# Density = 2.253770 g / cm^3
# Si number density = 22.589116 Si / 1000 Ang^3
#
#
#
# Elastic Constant Matrix: (Units=GPa)
#
#
# Indices 1 2 3 4 5 6 
#
# 1 82.1713 11.1348 -16.4283 -10.8665 12.7037 7.6161
# 2 11.1348 111.3133 21.4455 -6.8727 7.9710 1.6293
# 3 -16.4283 21.4455 70.2988 -11.7248 10.7536 -1.1850
# 4 -10.8665 -6.8727 -11.7248 38.9288 7.3672 8.7957
# 5 12.7037 7.9710 10.7536 7.3672 36.7718 -2.9439
# 6 7.6161 1.6293 -1.1850 8.7957 -2.9439 39.6201
#
#
#
# Elastic Compliance Matrix: (Units=1/GPa)
#
#
# Indices 1 2 3 4 5 6 
#
# 1 0.017557 -0.001791 0.007884 0.010344 -0.010547 -0.006145
# 2 -0.001791 0.009872 -0.003253 0.000464 -0.000688 -0.000313
# 3 0.007884 -0.003253 0.020356 0.010609 -0.010410 -0.003902
# 4 0.010344 0.000464 0.010609 0.037216 -0.015120 -0.011076
# 5 -0.010547 -0.000688 -0.010410 -0.015120 0.037694 0.007902
# 6 -0.006145 -0.000313 -0.003902 -0.011076 0.007902 0.029363
#
#
# Mechanical properties :
#
#
# Convention : Reuss Voigt Hill
#
# Bulk Modulus (GPa) = 18.70380 32.89859 25.80119
# Shear Modulus (GPa) = 30.45080 39.57289 35.01184
#
# Velocity S-wave (km/s) = 3.67554 4.19006 3.94120
# Velocity P-wave (km/s) = 5.12940 6.16476 5.67076
#
# Compressibility (1/GPa) = 0.05346508
#
# Stress axis : x y z
#
# Youngs Moduli (GPa) = 56.95783 101.29627 49.12583
#
# Poissons Ratio (x) = 0.18146 -0.38733
# Poissons Ratio (y) = 0.10203 0.15980
# Poissons Ratio (z) = -0.44908 0.32951
#
# Static dielectric constant tensor:
#      x y z
#    x 1.871960 -0.012090 0.041430 
#    y -0.012090 1.860660 0.049770 
#    z 0.041430 0.049770 1.804400 
# 
# From -- ./inp_files/622261.got.cif
#   From: 2010.05.17/outbox.cif.g08.bks.cpg/sg2_312_cif.got.tgz:622261.got - 2010.06.03 11:33:40.
