data_PCOD9019337
_publ_section_title
;
Structure prediction by ZEFSAII (Michael W. Deem and Ramdas Pophale) SiO2 
 PCOD9019337
Probable space group: P -1
;
_chemical_formula_sum "Si O2"
_cell_formula_units_Z 16
_cell_length_a 9.686446
_cell_length_b 13.582939
_cell_length_c 10.824892
_cell_angle_alpha 145.115389
_cell_angle_beta 110.732195
_cell_angle_gamma 76.905810
_cell_volume 756.365576
_symmetry_space_group_name_H-M "P -1"
_symmetry_group_IT_number 2
_symmetry_cell_setting 'triclinic'
loop_
_space_group_symop_operation_xyz
x,y,z
-x,-y,-z
loop_
_atom_site_type_symbol
_atom_site_label
_atom_site_fract_x
_atom_site_fract_y
_atom_site_fract_z
Si Si1 0.886483 0.190821 0.911309
Si Si2 0.438901 0.794920 0.261722
Si Si3 0.873588 0.778583 0.490074
Si Si4 0.919072 0.664942 0.108503
Si Si5 0.420776 0.946957 0.047652
Si Si6 0.567822 0.694637 0.434220
Si Si7 0.418969 0.343178 0.063472
Si Si8 0.074059 0.820853 0.820613
O O1 0.721990 0.236958 0.882226
O O2 0.983042 0.235559 0.866141
O O3 0.864971 0.983753 0.707016
O O4 0.947529 0.267422 0.141372
O O5 0.439040 0.717373 0.317909
O O6 0.500000 0.000000 0.500000
O O7 0.545366 0.698584 0.110125
O O8 0.906244 0.749529 0.326958
O O9 0.717887 0.683158 0.392546
O O10 0.996135 0.736070 0.585874
O O11 0.754480 0.637055 0.968386
O O12 0.000000 0.500000 0.000000
O O13 0.411461 0.126642 0.301409
O O14 0.523157 0.818056 0.013668
O O15 0.250836 0.859096 0.893970
O O16 0.500000 0.000000 0.000000
O O17 0.516957 0.521821 0.315769
O O18 0.000000 0.000000 0.000000
#
# Coordination Sequence:
#
# PCOD9019337 Si02
#       8
#     2   2   2   2   2   2   2   2
#     4  11  22  42  72  99 138 183 236 286 356 428
#     4  12  19  41  75 103 132 181 240 286 355 422
#     4  11  23  42  72 104 135 189 236 289 356 426
#     4  12  28  44  64 110 150 180 236 305 358 414
#     4  12  27  47  75 105 142 190 241 297 358 426
#     4  12  24  44  74 106 140 182 244 292 358 436
#     4  12  26  45  73 104 143 189 236 298 360 421
#     4  10  21  44  71 100 136 187 236 282 356 431
#
# _framework density 21.153791999999999
#
# number of rings (size 3 to 8) (size 9 to 14) (size 15 to 20)
#    0.000    0.500    7.500    1.500    5.250    2.500 
#    0.000    2.500    0.000    0.000    0.000    0.000 
#    0.000    0.000    0.000    0.000    0.000    0.000 
#
# Total GULP energy -89365.214937 kJ/mol
# GULP energy per Si atom -5585.325934 kJ/mol
# Density = 2.110565 g / cm^3
# Si number density = 21.153792 Si / 1000 Ang^3
#
#
#
# Elastic Constant Matrix: (Units=GPa)
#
#
# Indices 1 2 3 4 5 6 
#
# 1 123.6263 48.9376 26.6855 -9.4387 8.2878 -1.7200
# 2 48.9376 43.9435 63.5024 -42.8752 -5.5178 12.5754
# 3 26.6855 63.5024 50.0257 8.3193 13.0353 -2.1962
# 4 -9.4387 -42.8752 8.3193 34.0855 -7.8534 -1.3551
# 5 8.2878 -5.5178 13.0353 -7.8534 17.5685 -5.4872
# 6 -1.7200 12.5754 -2.1962 -1.3551 -5.4872 39.3531
#
#
#
# Elastic Compliance Matrix: (Units=1/GPa)
#
#
# Indices 1 2 3 4 5 6 
#
# 1 0.009630 -0.000673 -0.004900 0.003142 0.000453 0.000534
# 2 -0.000673 -0.003835 0.010562 -0.010762 -0.013689 -0.000494
# 3 -0.004900 0.010562 0.005483 0.011959 0.006283 -0.001995
# 4 0.003142 -0.010762 0.011959 0.012261 -0.007107 0.003675
# 5 0.000453 -0.013689 0.006283 -0.007107 0.048067 0.011202
# 6 0.000534 -0.000494 -0.001995 0.003675 0.011202 0.027169
#
#
# Mechanical properties :
#
#
# Convention : Reuss Voigt Hill
#
# Bulk Modulus (GPa) = 47.04645 55.09406 51.07026
# Shear Modulus (GPa) = 52.14715 23.43276 37.78995
#
# Velocity S-wave (km/s) = 4.97041 3.33187 4.23121
# Velocity P-wave (km/s) = 7.43158 6.39554 6.93294
#
# Compressibility (1/GPa) = 0.02125559
#
# Stress axis : x y z
#
# Youngs Moduli (GPa) = 103.84364 -260.75066 182.38362
#
# Poissons Ratio (x) = -0.17537 0.89376
# Poissons Ratio (y) = 0.06984 -1.92632
# Poissons Ratio (z) = 0.50888 2.75403
#
# Static dielectric constant tensor:
#      x y z
#    x -6.777840 0.431780 3.439860 
#    y 0.431780 1.782970 -0.173080 
#    z 3.439860 -0.173080 0.450470 
# 
# From -- ./inp_files/400145.got.cif
#   From: 2010.05.17/outbox.cif.g08.bks.cpg/sg2_201_cif.got.tgz:400145.got - 2010.06.03 11:33:40.
