data_PCOD9019500
_publ_section_title
;
Structure prediction by ZEFSAII (Michael W. Deem and Ramdas Pophale) SiO2 
 PCOD9019500
Probable space group: P -1
;
_chemical_formula_sum "Si O2"
_cell_formula_units_Z 12
_cell_length_a 21.547945
_cell_length_b 7.347959
_cell_length_c 4.937580
_cell_angle_alpha 56.885835
_cell_angle_beta 116.903742
_cell_angle_gamma 125.131011
_cell_volume 524.529113
_symmetry_space_group_name_H-M "P -1"
_symmetry_group_IT_number 2
_symmetry_cell_setting 'triclinic'
loop_
_space_group_symop_operation_xyz
x,y,z
-x,-y,-z
loop_
_atom_site_type_symbol
_atom_site_label
_atom_site_fract_x
_atom_site_fract_y
_atom_site_fract_z
Si Si1 0.016629 0.305133 0.522288
Si Si2 0.098055 0.236999 0.244173
Si Si3 0.474413 0.176593 0.471087
Si Si4 0.727644 0.408137 0.599975
Si Si5 0.672397 0.080317 0.281269
Si Si6 0.381081 0.375333 0.734395
O O1 0.055880 0.354188 0.264582
O O2 0.076548 0.260535 0.873455
O O3 0.000000 0.500000 0.500000
O O4 0.059741 0.949340 0.454508
O O5 0.188262 0.378695 0.364527
O O6 0.304512 0.731898 0.069613
O O7 0.551991 0.420135 0.479169
O O8 0.500000 0.000000 0.500000
O O9 0.418257 0.028965 0.722702
O O10 0.422004 0.262016 0.108990
O O11 0.724213 0.213422 0.530705
O O12 0.666167 0.504027 0.304620
O O13 0.678566 0.841994 0.387880
#
# Coordination Sequence:
#
# PCOD9019500 Si02
#       6
#     2   2   2   2   2   2
#     4  10  21  44  73 100 130 175 220 260 321 394
#     4  10  23  42  67 103 135 171 217 270 320 395
#     4  11  23  47  69  94 130 179 236 289 324 398
#     4  12  27  43  67  99 144 172 218 280 340 397
#     4  12  25  46  63  99 133 178 225 279 338 395
#     4  11  25  43  70  96 129 182 231 279 344 386
#
# _framework density 22.877662000000001
#
# number of rings (size 3 to 8) (size 9 to 14) (size 15 to 20)
#    0.000    1.000    3.333    2.000    2.333    5.333 
#    0.000    0.000    0.000    0.000    0.000    0.000 
#    0.000    0.000    0.000    0.000    0.000    0.000 
#
# Total GULP energy -67141.364883 kJ/mol
# GULP energy per Si atom -5595.113740 kJ/mol
# Density = 2.282559 g / cm^3
# Si number density = 22.877662 Si / 1000 Ang^3
#
#
#
# Elastic Constant Matrix: (Units=GPa)
#
#
# Indices 1 2 3 4 5 6 
#
# 1 64.6552 52.2415 27.3844 -12.7917 -6.9107 -4.6639
# 2 52.2415 167.8806 31.3144 3.9808 4.8807 11.5764
# 3 27.3844 31.3144 75.6765 1.7000 -20.7996 12.0060
# 4 -12.7917 3.9808 1.7000 28.0451 -8.8192 0.8359
# 5 -6.9107 4.8807 -20.7996 -8.8192 27.0467 8.2615
# 6 -4.6639 11.5764 12.0060 0.8359 8.2615 38.7006
#
#
#
# Elastic Compliance Matrix: (Units=1/GPa)
#
#
# Indices 1 2 3 4 5 6 
#
# 1 0.030874 -0.009597 -0.006093 0.018488 0.009086 0.006143
# 2 -0.009597 0.009965 -0.002604 -0.008283 -0.008549 -0.001326
# 3 -0.006093 -0.002604 0.024735 0.003698 0.022995 -0.012618
# 4 0.018488 -0.008283 0.003698 0.053855 0.027698 -0.003518
# 5 0.009086 -0.008549 0.022995 0.027698 0.073598 -0.019791
# 6 0.006143 -0.001326 -0.012618 -0.003518 -0.019791 0.035191
#
#
# Mechanical properties :
#
#
# Convention : Reuss Voigt Hill
#
# Bulk Modulus (GPa) = 34.49939 58.89922 46.69931
# Shear Modulus (GPa) = 18.21699 31.90995 25.06347
#
# Velocity S-wave (km/s) = 2.82490 3.73876 3.31349
# Velocity P-wave (km/s) = 5.07472 6.66626 5.92418
#
# Compressibility (1/GPa) = 0.02898602
#
# Stress axis : x y z
#
# Youngs Moduli (GPa) = 32.38990 100.35070 40.42787
#
# Poissons Ratio (x) = 0.96306 0.24634
# Poissons Ratio (y) = 0.31084 0.10527
# Poissons Ratio (z) = 0.19736 0.26130
#
# Static dielectric constant tensor:
#      x y z
#    x 1.836920 -0.024460 -0.004710 
#    y -0.024460 1.839390 -0.008940 
#    z -0.004710 -0.008940 1.863340 
# 
# From -- ./inp_files/115321.got.cif
#   From: 2010.05.17/outbox.cif.g08.bks.cpg/sg2_58_cif.got.tgz:115321.got - 2010.06.03 11:33:40.
