data_PCOD9019790
_publ_section_title
;
Structure prediction by ZEFSAII (Michael W. Deem and Ramdas Pophale) SiO2 
 PCOD9019790
Probable space group: P -1
;
_chemical_formula_sum "Si O2"
_cell_formula_units_Z 14
_cell_length_a 8.919144
_cell_length_b 8.050925
_cell_length_c 13.804430
_cell_angle_alpha 40.495885
_cell_angle_beta 107.810024
_cell_angle_gamma 89.232175
_cell_volume 562.269665
_symmetry_space_group_name_H-M "P -1"
_symmetry_group_IT_number 2
_symmetry_cell_setting 'triclinic'
loop_
_space_group_symop_operation_xyz
x,y,z
-x,-y,-z
loop_
_atom_site_type_symbol
_atom_site_label
_atom_site_fract_x
_atom_site_fract_y
_atom_site_fract_z
Si Si1 0.041810 0.093852 0.362792
Si Si2 0.520078 0.788933 0.346452
Si Si3 0.988818 0.404185 0.759994
Si Si4 0.523293 0.338110 0.180052
Si Si5 0.280251 0.521136 0.661754
Si Si6 0.136662 0.643911 0.963822
Si Si7 0.152284 0.969489 0.145657
O O1 0.088660 0.347753 0.288745
O O2 0.875297 0.228368 0.203019
O O3 0.193175 0.833323 0.460684
O O4 0.000000 0.000000 0.500000
O O5 0.500000 0.500000 0.500000
O O6 0.608063 0.703577 0.295148
O O7 0.319160 0.994786 0.207049
O O8 0.588241 0.000568 0.323597
O O9 0.113204 0.461509 0.683692
O O10 0.827524 0.347247 0.717564
O O11 0.112657 0.141395 0.962922
O O12 0.623994 0.435088 0.241091
O O13 0.500000 0.500000 0.000000
O O14 0.323487 0.465265 0.117812
O O15 0.027073 0.909427 0.887191
O O16 0.000000 0.500000 0.000000
#
# Coordination Sequence:
#
# PCOD9019790 Si02
#       7
#     2   2   2   2   2   2   2
#     4  10  21  45  68  97 140 184 234 288 354 431
#     4  12  28  48  69 109 153 185 243 306 370 437
#     4  10  23  44  70 101 136 186 241 288 351 442
#     4  12  28  48  76 108 145 192 245 304 364 440
#     4  11  27  46  75 105 149 190 238 306 377 423
#     4  12  23  45  72 100 142 188 243 294 358 435
#     4  11  24  42  70 101 140 184 239 292 353 437
#
# _framework density 24.899084999999999
#
# number of rings (size 3 to 8) (size 9 to 14) (size 15 to 20)
#    0.000    0.857    2.857    3.429    8.000    1.714 
#    0.000    2.143    0.000    0.000    0.000    0.000 
#    0.000    0.000    0.000    0.000    0.000    0.000 
#
# Total GULP energy -78036.522611 kJ/mol
# GULP energy per Si atom -5574.037329 kJ/mol
# Density = 2.484241 g / cm^3
# Si number density = 24.899085 Si / 1000 Ang^3
#
#
#
# Elastic Constant Matrix: (Units=GPa)
#
#
# Indices 1 2 3 4 5 6 
#
# 1 81.6043 11.5435 12.8881 1.1120 2.2432 -6.0876
# 2 11.5435 95.0031 8.5045 -9.1733 2.0332 -4.1064
# 3 12.8881 8.5045 58.0556 1.9843 2.9607 0.3525
# 4 1.1120 -9.1733 1.9843 36.8917 -0.4915 1.3701
# 5 2.2432 2.0332 2.9607 -0.4915 42.1560 1.9624
# 6 -6.0876 -4.1064 0.3525 1.3701 1.9624 44.7383
#
#
#
# Elastic Compliance Matrix: (Units=1/GPa)
#
#
# Indices 1 2 3 4 5 6 
#
# 1 0.013012 -0.001320 -0.002656 -0.000648 -0.000529 0.001713
# 2 -0.001320 0.011130 -0.001421 0.002850 -0.000370 0.000782
# 3 -0.002656 -0.001421 0.018122 -0.001241 -0.001052 -0.000550
# 4 -0.000648 0.002850 -0.001241 0.027931 0.000342 -0.000687
# 5 -0.000529 -0.000370 -0.001052 0.000342 0.023899 -0.001156
# 6 0.001713 0.000782 -0.000550 -0.000687 -0.001156 0.022733
#
#
# Mechanical properties :
#
#
# Convention : Reuss Voigt Hill
#
# Bulk Modulus (GPa) = 31.77683 33.39277 32.58480
# Shear Modulus (GPa) = 36.20228 38.20565 37.20396
#
# Velocity S-wave (km/s) = 3.81722 3.92142 3.86967
# Velocity P-wave (km/s) = 5.67611 5.82612 5.75160
#
# Compressibility (1/GPa) = 0.03146947
#
# Stress axis : x y z
#
# Youngs Moduli (GPa) = 76.85348 89.84327 55.18132
#
# Poissons Ratio (x) = 0.11863 0.14658
# Poissons Ratio (y) = 0.10148 0.07839
# Poissons Ratio (z) = 0.20415 0.12764
#
# Static dielectric constant tensor:
#      x y z
#    x 2.036260 -0.003150 -0.077800 
#    y -0.003150 2.427610 -0.046640 
#    z -0.077800 -0.046640 2.164330 
# 
# From -- ./inp_files/494346.got.cif
#   From: 2010.05.17/outbox.cif.g08.bks.cpg/sg2_248_cif.got.tgz:494346.got - 2010.06.03 11:33:40.
