data_PCOD9019068
_publ_section_title
;
Structure prediction by ZEFSAII (Michael W. Deem and Ramdas Pophale) SiO2 
 PCOD9019068
Probable space group: P -1
;
_chemical_formula_sum "Si O2"
_cell_formula_units_Z 14
_cell_length_a 11.512199
_cell_length_b 11.122208
_cell_length_c 16.981328
_cell_angle_alpha 62.753269
_cell_angle_beta 161.824059
_cell_angle_gamma 115.743502
_cell_volume 602.987333
_symmetry_space_group_name_H-M "P -1"
_symmetry_group_IT_number 2
_symmetry_cell_setting 'triclinic'
loop_
_space_group_symop_operation_xyz
x,y,z
-x,-y,-z
loop_
_atom_site_type_symbol
_atom_site_label
_atom_site_fract_x
_atom_site_fract_y
_atom_site_fract_z
Si Si1 0.324265 0.333761 0.463170
Si Si2 0.908681 0.936173 0.262099
Si Si3 0.151815 0.206319 0.026259
Si Si4 0.201955 0.094946 0.541683
Si Si5 0.640805 0.563840 0.706220
Si Si6 0.033418 0.962729 0.903186
Si Si7 0.819525 0.361472 0.458350
O O1 0.063863 0.236713 0.376709
O O2 0.393310 0.465566 0.520758
O O3 0.198593 0.341957 0.288983
O O4 0.740998 0.270630 0.744818
O O5 0.921850 0.773381 0.328959
O O6 0.197180 0.003524 0.488297
O O7 0.500000 0.000000 0.000000
O O8 0.040717 0.986632 0.246401
O O9 0.475597 0.315428 0.194363
O O10 0.126206 0.095344 0.974913
O O11 0.217440 0.132296 0.175374
O O12 0.584579 0.122194 0.824820
O O13 0.000000 0.000000 0.500000
O O14 0.369452 0.615607 0.584475
O O15 0.000000 0.500000 0.000000
O O16 0.000000 0.500000 0.500000
#
# Coordination Sequence:
#
# PCOD9019068 Si02
#       7
#     2   2   2   2   2   2   2
#     4  10  24  42  72 102 136 192 240 292 364 426
#     4  12  26  45  72 105 143 190 241 293 372 423
#     4  10  21  44  68 101 145 183 236 304 360 422
#     4  11  23  41  67 103 140 179 237 298 357 427
#     4  11  24  47  72 102 143 189 244 290 354 442
#     4  10  22  41  70 101 138 181 240 299 352 427
#     4  12  28  45  71 106 149 192 237 297 367 436
#
# _framework density 23.217735999999999
#
# number of rings (size 3 to 8) (size 9 to 14) (size 15 to 20)
#    0.000    1.143    4.286    0.857    4.000    1.714 
#    0.000    1.429    0.000    0.000    0.000    0.000 
#    0.000    0.000    0.000    0.000    0.000    0.000 
#
# Total GULP energy -78096.327196 kJ/mol
# GULP energy per Si atom -5578.309085 kJ/mol
# Density = 2.316489 g / cm^3
# Si number density = 23.217736 Si / 1000 Ang^3
#
#
#
# Elastic Constant Matrix: (Units=GPa)
#
#
# Indices 1 2 3 4 5 6 
#
# 1 124.9450 39.4744 20.7444 -5.8366 -37.0725 12.6186
# 2 39.4744 110.2718 11.0335 5.2317 -16.0978 18.8069
# 3 20.7444 11.0335 81.1851 -14.8749 -15.5915 5.5520
# 4 -5.8366 5.2317 -14.8749 38.6914 2.8786 4.0210
# 5 -37.0725 -16.0978 -15.5915 2.8786 36.2244 -9.6232
# 6 12.6186 18.8069 5.5520 4.0210 -9.6232 43.9996
#
#
#
# Elastic Compliance Matrix: (Units=1/GPa)
#
#
# Indices 1 2 3 4 5 6 
#
# 1 0.012300 -0.002811 -0.000407 0.001252 0.011072 0.000033
# 2 -0.002811 0.010952 -0.000705 -0.001891 0.000932 -0.003410
# 3 -0.000407 -0.000705 0.014484 0.005327 0.004859 -0.000834
# 4 0.001252 -0.001891 0.005327 0.028664 -0.000318 -0.002912
# 5 0.011072 0.000932 0.004859 -0.000318 0.042853 0.005215
# 6 0.000033 -0.003410 -0.000834 -0.002912 0.005215 0.025687
#
#
# Mechanical properties :
#
#
# Convention : Reuss Voigt Hill
#
# Bulk Modulus (GPa) = 33.45547 50.98960 42.22253
# Shear Modulus (GPa) = 32.73331 40.12641 36.42986
#
# Velocity S-wave (km/s) = 3.75886 4.16175 3.96542
# Velocity P-wave (km/s) = 5.76883 6.71586 6.26028
#
# Compressibility (1/GPa) = 0.02989048
#
# Stress axis : x y z
#
# Youngs Moduli (GPa) = 81.30332 91.30368 69.04346
#
# Poissons Ratio (x) = 0.25663 0.02812
# Poissons Ratio (y) = 0.22852 0.04865
# Poissons Ratio (z) = 0.03311 0.06433
#
# Static dielectric constant tensor:
#      x y z
#    x 1.780770 -0.096750 0.016630 
#    y -0.096750 1.829780 -0.073420 
#    z 0.016630 -0.073420 1.927930 
# 
# From -- ./inp_files/281740.got.cif
#   From: 2010.05.17/outbox.cif.g08.bks.cpg/sg2_141_cif.got.tgz:281740.got - 2010.06.03 11:33:40.
