data_PCOD9019619
_publ_section_title
;
Structure prediction by ZEFSAII (Michael W. Deem and Ramdas Pophale) SiO2 
 PCOD9019619
Probable space group: P -1
;
_chemical_formula_sum "Si O2"
_cell_formula_units_Z 12
_cell_length_a 19.359297
_cell_length_b 12.855095
_cell_length_c 4.941793
_cell_angle_alpha 114.574681
_cell_angle_beta 99.385115
_cell_angle_gamma 26.848221
_cell_volume 435.571291
_symmetry_space_group_name_H-M "P -1"
_symmetry_group_IT_number 2
_symmetry_cell_setting 'triclinic'
loop_
_space_group_symop_operation_xyz
x,y,z
-x,-y,-z
loop_
_atom_site_type_symbol
_atom_site_label
_atom_site_fract_x
_atom_site_fract_y
_atom_site_fract_z
Si Si1 0.301923 0.920697 0.880480
Si Si2 0.042540 0.759036 0.892877
Si Si3 0.210160 0.900909 0.311211
Si Si4 0.268515 0.231741 0.277815
Si Si5 0.339164 0.330677 0.034995
Si Si6 0.323089 0.573967 0.633282
O O1 0.213957 0.974718 0.651938
O O2 0.508576 0.619759 0.608144
O O3 0.270337 0.900595 0.115024
O O4 0.234946 0.150993 0.098993
O O5 0.110918 0.524079 0.668013
O O6 0.200843 0.569096 0.970016
O O7 0.984760 0.850418 0.634370
O O8 0.866459 0.093522 0.236831
O O9 0.327200 0.614408 0.989845
O O10 0.303725 0.259643 0.068609
O O11 0.458691 0.957587 0.252039
O O12 0.331722 0.431166 0.390399
#
# Coordination Sequence:
#
# PCOD9019619 Si02
#       6
#     2   2   2   2   2   2
#     4  11  23  47  66  99 132 177 218 261 332 393
#     4  10  23  38  66  98 127 171 217 278 323 384
#     4  10  25  41  72  95 136 169 222 267 325 390
#     4  10  24  40  67  91 131 177 214 277 321 397
#     4  10  21  45  61  94 132 169 229 259 342 380
#     4   9  22  42  67  96 128 174 217 280 316 390
#
# _framework density 27.550025999999999
#
# number of rings (size 3 to 8) (size 9 to 14) (size 15 to 20)
#    1.000    1.000    0.000    2.000    4.667    2.000 
#   15.000    0.000    0.000    0.000    0.000    0.000 
#    0.000    0.000    0.000    0.000    0.000    0.000 
#
# Total GULP energy -66948.570508 kJ/mol
# GULP energy per Si atom -5579.047542 kJ/mol
# Density = 2.748732 g / cm^3
# Si number density = 27.550026 Si / 1000 Ang^3
#
#
#
# Elastic Constant Matrix: (Units=GPa)
#
#
# Indices 1 2 3 4 5 6 
#
# 1 141.2883 -8.3104 48.6873 -9.9014 37.3117 6.2360
# 2 -8.3104 93.4958 37.0026 6.6769 -5.8574 -18.6137
# 3 48.6873 37.0026 178.3064 11.1564 27.6732 14.2980
# 4 -9.9014 6.6769 11.1564 62.4810 -6.2313 3.9368
# 5 37.3117 -5.8574 27.6732 -6.2313 49.5463 11.6354
# 6 6.2360 -18.6137 14.2980 3.9368 11.6354 24.4261
#
#
#
# Elastic Compliance Matrix: (Units=1/GPa)
#
#
# Indices 1 2 3 4 5 6 
#
# 1 0.009604 0.001998 -0.002376 0.000890 -0.006341 0.003339
# 2 0.001998 0.015826 -0.004834 -0.001514 -0.000629 0.014924
# 3 -0.002376 -0.004834 0.008164 -0.001078 -0.001884 -0.006785
# 4 0.000890 -0.001514 -0.001078 0.017120 0.003074 -0.004974
# 5 -0.006341 -0.000629 -0.001884 0.003074 0.029177 -0.012151
# 6 0.003339 0.014924 -0.006785 -0.004974 -0.012151 0.062021
#
#
# Mechanical properties :
#
#
# Convention : Reuss Voigt Hill
#
# Bulk Modulus (GPa) = 43.16064 63.09437 53.12751
# Shear Modulus (GPa) = 31.23822 49.67141 40.45482
#
# Velocity S-wave (km/s) = 3.37096 4.25073 3.83614
# Velocity P-wave (km/s) = 5.55440 6.85879 6.24077
#
# Compressibility (1/GPa) = 0.02316926
#
# Stress axis : x y z
#
# Youngs Moduli (GPa) = 104.12760 63.18585 122.48360
#
# Poissons Ratio (x) = -0.12624 0.29105
# Poissons Ratio (y) = -0.20804 0.59212
# Poissons Ratio (z) = 0.24743 0.30546
#
# Static dielectric constant tensor:
#      x y z
#    x 2.268120 -0.054180 -0.151770 
#    y -0.054180 2.244170 0.036190 
#    z -0.151770 0.036190 2.232930 
# 
# From -- ./inp_files/62691.got.cif
#   From: 2010.05.17/outbox.cif.g08.bks.cpg/sg2_32_cif.got.tgz:62691.got - 2010.06.03 11:33:40.
