data_PCOD9019709
_publ_section_title
;
Structure prediction by ZEFSAII (Michael W. Deem and Ramdas Pophale) SiO2 
 PCOD9019709
Probable space group: P -1
;
_chemical_formula_sum "Si O2"
_cell_formula_units_Z 14
_cell_length_a 8.259083
_cell_length_b 7.098617
_cell_length_c 16.057443
_cell_angle_alpha 55.294022
_cell_angle_beta 75.810189
_cell_angle_gamma 55.815257
_cell_volume 636.332206
_symmetry_space_group_name_H-M "P -1"
_symmetry_group_IT_number 2
_symmetry_cell_setting 'triclinic'
loop_
_space_group_symop_operation_xyz
x,y,z
-x,-y,-z
loop_
_atom_site_type_symbol
_atom_site_label
_atom_site_fract_x
_atom_site_fract_y
_atom_site_fract_z
Si Si1 0.713458 0.938968 0.289155
Si Si2 0.494040 0.247456 0.391326
Si Si3 0.854580 0.765964 0.848857
Si Si4 0.303301 0.586845 0.556540
Si Si5 0.113164 0.801504 0.360610
Si Si6 0.894811 0.857950 0.008312
Si Si7 0.553137 0.195633 0.076384
O O1 0.696845 0.677729 0.352967
O O2 0.911505 0.858091 0.333179
O O3 0.535819 0.168890 0.309571
O O4 0.700300 0.051924 0.171182
O O5 0.668157 0.276840 0.400899
O O6 0.290305 0.524001 0.366871
O O7 0.500000 0.000000 0.500000
O O8 0.640626 0.809961 0.878192
O O9 0.004579 0.448536 0.894819
O O10 0.856451 0.957107 0.730072
O O11 0.912656 0.839832 0.910959
O O12 0.500000 0.500000 0.500000
O O13 0.131510 0.758711 0.468542
O O14 0.668892 0.033312 0.020888
O O15 0.000000 0.000000 0.000000
O O16 0.500000 0.500000 0.000000
#
# Coordination Sequence:
#
# PCOD9019709 Si02
#       7
#     2   2   2   2   2   2   2
#     4  12  26  45  68 103 139 182 234 282 350 411
#     4  11  24  44  73  98 141 185 224 284 350 412
#     4  11  26  45  73 101 140 184 232 289 351 409
#     4  10  21  45  67 101 137 172 228 280 341 416
#     4  11  25  44  71 104 139 178 232 287 341 422
#     4  11  24  48  70 102 139 180 237 292 345 413
#     4  12  26  45  73 102 140 186 233 288 349 413
#
# _framework density 22.001086999999998
#
# number of rings (size 3 to 8) (size 9 to 14) (size 15 to 20)
#    0.000    0.857    4.286    3.429    4.000    4.000 
#    0.000    0.000    0.000    0.000    0.000    0.000 
#    0.000    0.000    0.000    0.000    0.000    0.000 
#
# Total GULP energy -78383.591945 kJ/mol
# GULP energy per Si atom -5598.827996 kJ/mol
# Density = 2.195101 g / cm^3
# Si number density = 22.001087 Si / 1000 Ang^3
#
#
#
# Elastic Constant Matrix: (Units=GPa)
#
#
# Indices 1 2 3 4 5 6 
#
# 1 93.9207 25.7983 0.4311 -14.4646 1.7175 18.0088
# 2 25.7983 131.9682 40.7850 -14.8573 -2.9339 9.6336
# 3 0.4311 40.7850 103.6332 -21.8558 0.3789 16.4993
# 4 -14.4646 -14.8573 -21.8558 26.5712 1.7932 4.7532
# 5 1.7175 -2.9339 0.3789 1.7932 32.6345 -1.3628
# 6 18.0088 9.6336 16.4993 4.7532 -1.3628 44.3425
#
#
#
# Elastic Compliance Matrix: (Units=1/GPa)
#
#
# Indices 1 2 3 4 5 6 
#
# 1 0.014960 -0.002447 0.004962 0.012576 -0.002124 -0.008804
# 2 -0.002447 0.009234 -0.003480 0.000865 0.000961 0.000219
# 3 0.004962 -0.003480 0.015634 0.015318 -0.001964 -0.008779
# 4 0.012576 0.000865 0.015318 0.061055 -0.004855 -0.017689
# 5 -0.002124 0.000961 -0.001964 -0.004855 0.031250 0.002865
# 6 -0.008804 0.000219 -0.008779 -0.017689 0.002865 0.031330
#
#
# Mechanical properties :
#
#
# Convention : Reuss Voigt Hill
#
# Bulk Modulus (GPa) = 26.38599 51.50565 38.94582
# Shear Modulus (GPa) = 28.08587 38.21016 33.14801
#
# Velocity S-wave (km/s) = 3.57678 4.17194 3.88577
# Velocity P-wave (km/s) = 5.39230 6.83141 6.15407
#
# Compressibility (1/GPa) = 0.03789890
#
# Stress axis : x y z
#
# Youngs Moduli (GPa) = 66.84334 108.29390 63.96497
#
# Poissons Ratio (x) = 0.26499 -0.31742
# Poissons Ratio (y) = 0.16356 0.22260
# Poissons Ratio (z) = -0.33170 0.37686
#
# Static dielectric constant tensor:
#      x y z
#    x 1.820330 0.039530 0.073880 
#    y 0.039530 1.463640 -0.276420 
#    z 0.073880 -0.276420 1.489720 
# 
# From -- ./inp_files/488086.got.cif
#   From: 2010.05.17/outbox.cif.g08.bks.cpg/sg2_245_cif.got.tgz:488086.got - 2010.06.03 11:33:40.
