data_PCOD9019407
_publ_section_title
;
Structure prediction by ZEFSAII (Michael W. Deem and Ramdas Pophale) SiO2 
 PCOD9019407
Probable space group: P -1
;
_chemical_formula_sum "Si O2"
_cell_formula_units_Z 14
_cell_length_a 6.180592
_cell_length_b 11.783884
_cell_length_c 12.065753
_cell_angle_alpha 49.652743
_cell_angle_beta 71.272822
_cell_angle_gamma 65.563403
_cell_volume 607.945012
_symmetry_space_group_name_H-M "P -1"
_symmetry_group_IT_number 2
_symmetry_cell_setting 'triclinic'
loop_
_space_group_symop_operation_xyz
x,y,z
-x,-y,-z
loop_
_atom_site_type_symbol
_atom_site_label
_atom_site_fract_x
_atom_site_fract_y
_atom_site_fract_z
Si Si1 0.682025 0.600649 0.400048
Si Si2 0.855955 0.634447 0.597601
Si Si3 0.933067 0.219351 0.246362
Si Si4 0.811368 0.175180 0.038872
Si Si5 0.686784 0.906931 0.116242
Si Si6 0.234528 0.060407 0.461691
Si Si7 0.517394 0.497807 0.130937
O O1 0.500000 0.500000 0.500000
O O2 0.771434 0.629756 0.488629
O O3 0.584037 0.770106 0.259802
O O4 0.900191 0.502216 0.351979
O O5 0.891625 0.798561 0.523333
O O6 0.655642 0.595805 0.731261
O O7 0.881842 0.193535 0.143368
O O8 0.786358 0.397871 0.181696
O O9 0.202554 0.150974 0.290435
O O10 0.837137 0.099863 0.412702
O O11 0.728713 0.021611 0.131839
O O12 0.601193 0.322072 0.934791
O O13 0.051310 0.160123 0.938799
O O14 0.500000 0.000000 0.000000
O O15 0.500000 0.000000 0.500000
O O16 0.500000 0.500000 0.000000
#
# Coordination Sequence:
#
# PCOD9019407 Si02
#       7
#     2   2   2   2   2   2   2
#     4  11  27  44  70  99 136 189 236 292 348 413
#     4  11  24  44  68  98 138 178 238 291 349 409
#     4  10  23  41  67 102 130 185 221 287 357 420
#     4  10  23  45  68  98 146 170 242 286 355 416
#     4  11  25  43  70 101 137 190 232 297 349 413
#     4  11  23  40  66  97 141 175 227 285 353 425
#     4  10  21  44  71  98 135 184 225 291 347 419
#
# _framework density 23.028400000000001
#
# number of rings (size 3 to 8) (size 9 to 14) (size 15 to 20)
#    0.000    1.429    2.857    0.857    4.000    4.571 
#    0.000    1.429    0.000    0.000    0.000    0.000 
#    0.000    0.000    0.000    0.000    0.000    0.000 
#
# Total GULP energy -78182.414009 kJ/mol
# GULP energy per Si atom -5584.458143 kJ/mol
# Density = 2.297599 g / cm^3
# Si number density = 23.028400 Si / 1000 Ang^3
#
#
#
# Elastic Constant Matrix: (Units=GPa)
#
#
# Indices 1 2 3 4 5 6 
#
# 1 42.9808 38.8558 32.7029 -12.7421 17.7730 5.3212
# 2 38.8558 130.0475 53.3186 -19.5069 16.9591 9.1774
# 3 32.7029 53.3186 108.8067 -32.2664 20.6211 -4.2210
# 4 -12.7421 -19.5069 -32.2664 43.8260 -3.1033 3.2444
# 5 17.7730 16.9591 20.6211 -3.1033 41.1009 -4.3446
# 6 5.3212 9.1774 -4.2210 3.2444 -4.3446 38.8737
#
#
#
# Elastic Compliance Matrix: (Units=1/GPa)
#
#
# Indices 1 2 3 4 5 6 
#
# 1 0.041237 -0.007414 -0.005370 0.004318 -0.012410 -0.006225
# 2 -0.007414 0.011512 -0.003270 0.000713 -0.000075 -0.002126
# 3 -0.005370 -0.003270 0.015478 0.007988 -0.003263 0.002156
# 4 0.004318 0.000713 0.007988 0.030188 -0.004194 -0.002880
# 5 -0.012410 -0.000075 -0.003263 -0.004194 0.031602 0.005244
# 6 -0.006225 -0.002126 0.002156 -0.002880 0.005244 0.028139
#
#
# Mechanical properties :
#
#
# Convention : Reuss Voigt Hill
#
# Bulk Modulus (GPa) = 27.68603 59.06551 43.37577
# Shear Modulus (GPa) = 24.71541 35.22399 29.96970
#
# Velocity S-wave (km/s) = 3.27962 3.91524 3.61144
# Velocity P-wave (km/s) = 5.13710 6.79290 6.02218
#
# Compressibility (1/GPa) = 0.03611929
#
# Stress axis : x y z
#
# Youngs Moduli (GPa) = 24.25003 86.86684 64.60847
#
# Poissons Ratio (x) = 0.64401 0.34697
# Poissons Ratio (y) = 0.17978 0.21125
# Poissons Ratio (z) = 0.13023 0.28403
#
# Static dielectric constant tensor:
#      x y z
#    x 2.293410 0.038390 0.040190 
#    y 0.038390 1.918060 -0.021500 
#    z 0.040190 -0.021500 1.841620 
# 
# From -- ./inp_files/69297.got.cif
#   From: 2010.05.17/outbox.cif.g08.bks.cpg/sg2_35_cif.got.tgz:69297.got - 2010.06.03 11:33:40.
