data_PCOD9019551
_publ_section_title
;
Structure prediction by ZEFSAII (Michael W. Deem and Ramdas Pophale) SiO2 
 PCOD9019551
Probable space group: P -1
;
_chemical_formula_sum "Si O2"
_cell_formula_units_Z 16
_cell_length_a 17.771456
_cell_length_b 5.136602
_cell_length_c 8.334549
_cell_angle_alpha 92.618423
_cell_angle_beta 56.908341
_cell_angle_gamma 102.848728
_cell_volume 618.775240
_symmetry_space_group_name_H-M "P -1"
_symmetry_group_IT_number 2
_symmetry_cell_setting 'triclinic'
loop_
_space_group_symop_operation_xyz
x,y,z
-x,-y,-z
loop_
_atom_site_type_symbol
_atom_site_label
_atom_site_fract_x
_atom_site_fract_y
_atom_site_fract_z
Si Si1 0.739531 0.439388 0.375148
Si Si2 0.189018 0.303235 0.182525
Si Si3 0.005949 0.429557 0.302270
Si Si4 0.443605 0.223261 0.933881
Si Si5 0.285397 0.838751 0.946836
Si Si6 0.548206 0.622803 0.604564
Si Si7 0.103817 0.163681 0.633881
Si Si8 0.630302 0.077281 0.703975
O O1 0.738316 0.284069 0.205625
O O2 0.643082 0.526670 0.501732
O O3 0.822424 0.695642 0.315634
O O4 0.728844 0.246486 0.539694
O O5 0.151302 0.232976 0.404500
O O6 0.106107 0.366992 0.173673
O O7 0.264757 0.585052 0.085684
O O8 0.224887 0.053347 0.065463
O O9 0.979676 0.681485 0.254483
O O10 0.000000 0.500000 0.500000
O O11 0.935160 0.154394 0.325600
O O12 0.471224 0.508072 0.824641
O O13 0.389707 0.011287 0.859262
O O14 0.547308 0.204544 0.860980
O O15 0.374162 0.152320 0.163538
O O16 0.500000 0.500000 0.500000
O O17 0.584992 0.936241 0.589645
#
# Coordination Sequence:
#
# PCOD9019551 Si02
#       8
#     2   2   2   2   2   2   2   2
#     4  11  27  41  63 103 133 186 226 284 345 403
#     4  11  24  43  69 100 133 178 225 284 342 413
#     4  10  21  44  74 104 133 174 226 282 347 411
#     4  10  23  40  63  98 122 186 230 296 334 398
#     4  12  26  41  65  98 145 176 231 277 349 408
#     4  11  23  40  67  89 139 181 233 277 348 405
#     4  11  23  43  76 101 135 175 232 284 337 411
#     4  10  22  42  65  88 136 169 247 281 341 398
#
# _framework density 25.857531000000002
#
# number of rings (size 3 to 8) (size 9 to 14) (size 15 to 20)
#    0.000    1.250    0.000    6.375    8.750    2.000 
#    0.000    3.750    0.000    0.000    0.000    0.000 
#    0.000    0.000    0.000    0.000    0.000    0.000 
#
# Total GULP energy -89468.881498 kJ/mol
# GULP energy per Si atom -5591.805094 kJ/mol
# Density = 2.579868 g / cm^3
# Si number density = 25.857531 Si / 1000 Ang^3
#
#
#
# Elastic Constant Matrix: (Units=GPa)
#
#
# Indices 1 2 3 4 5 6 
#
# 1 90.9524 15.1047 23.6931 24.4639 -22.1710 16.2774
# 2 15.1047 134.5553 29.0188 27.2057 -3.7696 21.3674
# 3 23.6931 29.0188 82.5073 26.6722 -0.2474 -4.8510
# 4 24.4639 27.2057 26.6722 44.0961 3.3135 -1.1188
# 5 -22.1710 -3.7696 -0.2474 3.3135 37.6002 9.5505
# 6 16.2774 21.3674 -4.8510 -1.1188 9.5505 47.2330
#
#
#
# Elastic Compliance Matrix: (Units=1/GPa)
#
#
# Indices 1 2 3 4 5 6 
#
# 1 0.021949 0.003869 -0.003924 -0.013891 0.018005 -0.013687
# 2 0.003869 0.010540 -0.002800 -0.007601 0.005964 -0.007775
# 3 -0.003924 -0.002800 0.016316 -0.005600 -0.003216 0.004812
# 4 -0.013891 -0.007601 -0.005600 0.039922 -0.015486 0.011727
# 5 0.018005 0.005964 -0.003216 -0.015486 0.043844 -0.018465
# 6 -0.013687 -0.007775 0.004812 0.011727 -0.018465 0.033911
#
#
# Mechanical properties :
#
#
# Convention : Reuss Voigt Hill
#
# Bulk Modulus (GPa) = 23.20508 49.29425 36.24966
# Shear Modulus (GPa) = 26.80138 41.79910 34.30024
#
# Velocity S-wave (km/s) = 3.22297 4.02495 3.64608
# Velocity P-wave (km/s) = 4.77951 6.38009 5.63690
#
# Compressibility (1/GPa) = 0.04309402
#
# Stress axis : x y z
#
# Youngs Moduli (GPa) = 45.55985 94.87624 61.29115
#
# Poissons Ratio (x) = -0.36705 0.24051
# Poissons Ratio (y) = -0.17626 0.17162
# Poissons Ratio (z) = 0.17878 0.26567
#
# Static dielectric constant tensor:
#      x y z
#    x 2.131530 -0.074260 0.035480 
#    y -0.074260 2.084840 0.009360 
#    z 0.035480 0.009360 2.083320 
# 
# From -- ./inp_files/340538.got.cif
#   From: 2010.05.17/outbox.cif.g08.bks.cpg/sg2_171_cif.got.tgz:340538.got - 2010.06.03 11:33:40.
