data_PCOD9019959
_publ_section_title
;
Structure prediction by ZEFSAII (Michael W. Deem and Ramdas Pophale) SiO2 
 PCOD9019959
Probable space group: P -1
;
_chemical_formula_sum "Si O2"
_cell_formula_units_Z 16
_cell_length_a 18.724946
_cell_length_b 10.980571
_cell_length_c 7.989751
_cell_angle_alpha 36.947919
_cell_angle_beta 126.015610
_cell_angle_gamma 138.043554
_cell_volume 660.097123
_symmetry_space_group_name_H-M "P -1"
_symmetry_group_IT_number 2
_symmetry_cell_setting 'triclinic'
loop_
_space_group_symop_operation_xyz
x,y,z
-x,-y,-z
loop_
_atom_site_type_symbol
_atom_site_label
_atom_site_fract_x
_atom_site_fract_y
_atom_site_fract_z
Si Si1 0.422809 0.596061 0.273794
Si Si2 0.517020 0.081590 0.669957
Si Si3 0.388754 0.253741 0.141050
Si Si4 0.282713 0.813020 0.318746
Si Si5 0.754315 0.863189 0.630955
Si Si6 0.898949 0.226424 0.684204
Si Si7 0.982082 0.188278 0.179621
Si Si8 0.830205 0.295482 0.052145
O O1 0.500000 0.500000 0.500000
O O2 0.433052 0.736028 0.303994
O O3 0.301250 0.369609 0.313480
O O4 0.472326 0.808325 0.968246
O O5 0.419592 0.088076 0.462678
O O6 0.611815 0.188439 0.546911
O O7 0.312697 0.266313 0.150508
O O8 0.331414 0.106359 0.055968
O O9 0.500000 0.500000 0.000000
O O10 0.198064 0.745105 0.425647
O O11 0.219617 0.676590 0.214388
O O12 0.869150 0.054987 0.667706
O O13 0.743635 0.065244 0.297257
O O14 0.000000 0.500000 0.500000
O O15 0.923930 0.117121 0.998502
O O16 0.908841 0.224305 0.164988
O O17 0.095515 0.449697 0.030592
O O18 0.000000 0.000000 0.500000
#
# Coordination Sequence:
#
# PCOD9019959 Si02
#       8
#     2   2   2   2   2   2   2   2
#     4  11  23  42  69 102 140 178 235 292 345 412
#     4  11  24  43  69  98 140 185 232 288 348 419
#     4  11  24  43  66  98 145 186 227 288 349 415
#     4  10  23  40  67 102 134 181 233 281 353 416
#     4  11  22  41  74  99 136 192 230 284 355 413
#     4  10  21  45  74 100 142 185 228 297 355 416
#     4  10  22  45  69  96 133 181 228 290 353 412
#     4  10  22  41  68  96 137 172 228 292 346 410
#
# _framework density 24.238855999999998
#
# number of rings (size 3 to 8) (size 9 to 14) (size 15 to 20)
#    0.000    1.500    2.500    1.875    3.500    1.000 
#    6.750    1.875    0.000    0.000    0.000    0.000 
#    0.000    0.000    0.000    0.000    0.000    0.000 
#
# Total GULP energy -89273.221896 kJ/mol
# GULP energy per Si atom -5579.576368 kJ/mol
# Density = 2.418369 g / cm^3
# Si number density = 24.238856 Si / 1000 Ang^3
#
#
#
# Elastic Constant Matrix: (Units=GPa)
#
#
# Indices 1 2 3 4 5 6 
#
# 1 58.5940 13.1355 3.4574 -8.6784 -11.1227 16.1456
# 2 13.1355 170.1941 21.5100 -14.1451 -4.6783 -6.3446
# 3 3.4574 21.5100 97.2859 -9.3440 0.3074 5.1457
# 4 -8.6784 -14.1451 -9.3440 39.7111 5.3858 -10.4930
# 5 -11.1227 -4.6783 0.3074 5.3858 28.0984 2.8692
# 6 16.1456 -6.3446 5.1457 -10.4930 2.8692 38.6570
#
#
#
# Elastic Compliance Matrix: (Units=1/GPa)
#
#
# Indices 1 2 3 4 5 6 
#
# 1 0.022100 -0.001825 0.000150 0.000245 0.009436 -0.010184
# 2 -0.001825 0.006463 -0.001278 0.002353 -0.000355 0.002658
# 3 0.000150 -0.001278 0.010800 0.001882 -0.000513 -0.001161
# 4 0.000245 0.002353 0.001882 0.029590 -0.006073 0.008516
# 5 0.009436 -0.000355 -0.000513 -0.006073 0.041318 -0.008646
# 6 -0.010184 0.002658 -0.001161 0.008516 -0.008646 0.033666
#
#
# Mechanical properties :
#
#
# Convention : Reuss Voigt Hill
#
# Bulk Modulus (GPa) = 29.88693 44.69774 37.29234
# Shear Modulus (GPa) = 31.05695 40.49136 35.77416
#
# Velocity S-wave (km/s) = 3.58339 4.09163 3.84591
# Velocity P-wave (km/s) = 5.42935 6.38768 5.92791
#
# Compressibility (1/GPa) = 0.03345945
#
# Stress axis : x y z
#
# Youngs Moduli (GPa) = 45.24806 154.73084 92.59352
#
# Poissons Ratio (x) = 0.28233 -0.01392
# Poissons Ratio (y) = 0.08256 0.11829
# Poissons Ratio (z) = -0.00680 0.19768
#
# Static dielectric constant tensor:
#      x y z
#    x 1.999520 0.007120 -0.011010 
#    y 0.007120 2.010550 0.020130 
#    z -0.011010 0.020130 1.948330 
# 
# From -- ./inp_files/81642.got.cif
#   From: 2010.05.17/outbox.cif.g08.bks.cpg/sg2_41_cif.got.tgz:81642.got - 2010.06.03 11:33:40.
