data_PCOD9019849
_publ_section_title
;
Structure prediction by ZEFSAII (Michael W. Deem and Ramdas Pophale) SiO2 
 PCOD9019849
Probable space group: P -1
;
_chemical_formula_sum "Si O2"
_cell_formula_units_Z 14
_cell_length_a 10.143478
_cell_length_b 9.133054
_cell_length_c 12.662340
_cell_angle_alpha 106.452823
_cell_angle_beta 145.589995
_cell_angle_gamma 84.022682
_cell_volume 617.335884
_symmetry_space_group_name_H-M "P -1"
_symmetry_group_IT_number 2
_symmetry_cell_setting 'triclinic'
loop_
_space_group_symop_operation_xyz
x,y,z
-x,-y,-z
loop_
_atom_site_type_symbol
_atom_site_label
_atom_site_fract_x
_atom_site_fract_y
_atom_site_fract_z
Si Si1 0.028460 0.325110 0.978376
Si Si2 0.811702 0.186526 0.033323
Si Si3 0.804636 0.771013 0.524298
Si Si4 0.571692 0.824618 0.767088
Si Si5 0.067732 0.897151 0.429371
Si Si6 0.442586 0.816667 0.447205
Si Si7 0.366834 0.333578 0.829899
O O1 0.841589 0.244502 0.748656
O O2 0.926725 0.244475 0.007027
O O3 0.000000 0.500000 0.000000
O O4 0.291890 0.300732 0.123625
O O5 0.995724 0.246421 0.262757
O O6 0.571237 0.243632 0.912876
O O7 0.732307 0.996958 0.937000
O O8 0.551037 0.730287 0.409028
O O9 0.781750 0.674010 0.380516
O O10 0.854998 0.959544 0.573094
O O11 0.294802 0.829566 0.601924
O O12 0.571293 0.796510 0.635764
O O13 0.824956 0.761424 0.231594
O O14 0.000000 0.000000 0.500000
O O15 0.500000 0.000000 0.500000
O O16 0.500000 0.500000 0.000000
#
# Coordination Sequence:
#
# PCOD9019849 Si02
#       7
#     2   2   2   2   2   2   2
#     4  12  27  43  68 109 148 185 232 296 362 419
#     4  12  23  45  74 104 142 191 241 286 359 425
#     4  11  22  42  73 103 135 183 245 295 337 425
#     4  12  23  43  77 106 138 192 237 290 355 424
#     4  10  21  45  70 103 139 180 246 291 332 426
#     4  12  20  42  72 102 140 181 237 288 354 426
#     4  11  25  48  68 100 150 188 230 297 357 417
#
# _framework density 22.678090000000001
#
# number of rings (size 3 to 8) (size 9 to 14) (size 15 to 20)
#    0.000    0.571    8.571    1.286    0.000    2.857 
#    2.571    0.000    0.000    0.000    0.000    0.000 
#    0.000    0.000    0.000    0.000    0.000    0.000 
#
# Total GULP energy -78185.843033 kJ/mol
# GULP energy per Si atom -5584.703074 kJ/mol
# Density = 2.262647 g / cm^3
# Si number density = 22.678090 Si / 1000 Ang^3
#
#
#
# Elastic Constant Matrix: (Units=GPa)
#
#
# Indices 1 2 3 4 5 6 
#
# 1 76.6742 0.7931 7.2641 -0.1404 9.6964 -7.0009
# 2 0.7931 82.4022 33.8068 9.2419 10.7583 -22.7134
# 3 7.2641 33.8068 135.5698 -5.0249 -5.5896 2.7396
# 4 -0.1404 9.2419 -5.0249 48.9248 -10.4372 3.2300
# 5 9.6964 10.7583 -5.5896 -10.4372 49.4445 -4.3651
# 6 -7.0009 -22.7134 2.7396 3.2300 -4.3651 16.4697
#
#
#
# Elastic Compliance Matrix: (Units=1/GPa)
#
#
# Indices 1 2 3 4 5 6 
#
# 1 0.015087 0.005952 -0.002870 -0.003188 -0.003956 0.014675
# 2 0.005952 0.031798 -0.009970 -0.011793 -0.007431 0.048385
# 3 -0.002870 -0.009970 0.010677 0.004820 0.003476 -0.016769
# 4 -0.003188 -0.011793 0.004820 0.026147 0.007348 -0.021601
# 5 -0.003956 -0.007431 0.003476 0.007348 0.023889 -0.007617
# 6 0.014675 0.048385 -0.016769 -0.021601 -0.007617 0.138690
#
#
# Mechanical properties :
#
#
# Convention : Reuss Voigt Hill
#
# Bulk Modulus (GPa) = 22.83867 42.04157 32.44012
# Shear Modulus (GPa) = 18.20433 39.81996 29.01214
#
# Velocity S-wave (km/s) = 2.83632 4.19487 3.58061
# Velocity P-wave (km/s) = 4.56278 6.48392 5.60625
#
# Compressibility (1/GPa) = 0.04378538
#
# Stress axis : x y z
#
# Youngs Moduli (GPa) = 66.28256 31.44846 93.65921
#
# Poissons Ratio (x) = -0.18717 0.26883
# Poissons Ratio (y) = -0.39448 0.93374
# Poissons Ratio (z) = 0.19025 0.31353
#
# Static dielectric constant tensor:
#      x y z
#    x 1.950800 -0.013990 0.032150 
#    y -0.013990 1.907110 -0.003840 
#    z 0.032150 -0.003840 1.844630 
# 
# From -- ./inp_files/296925.got.cif
#   From: 2010.05.17/outbox.cif.g08.bks.cpg/sg2_149_cif.got.tgz:296925.got - 2010.06.03 11:33:40.
