data_PCOD9019335
_publ_section_title
;
Structure prediction by ZEFSAII (Michael W. Deem and Ramdas Pophale) SiO2 
 PCOD9019335
Probable space group: P -1
;
_chemical_formula_sum "Si O2"
_cell_formula_units_Z 14
_cell_length_a 9.536396
_cell_length_b 7.798114
_cell_length_c 16.174253
_cell_angle_alpha 63.552608
_cell_angle_beta 143.977788
_cell_angle_gamma 103.552111
_cell_volume 614.975500
_symmetry_space_group_name_H-M "P -1"
_symmetry_group_IT_number 2
_symmetry_cell_setting 'triclinic'
loop_
_space_group_symop_operation_xyz
x,y,z
-x,-y,-z
loop_
_atom_site_type_symbol
_atom_site_label
_atom_site_fract_x
_atom_site_fract_y
_atom_site_fract_z
Si Si1 0.369974 0.944270 0.867297
Si Si2 0.120278 0.593343 0.791684
Si Si3 0.937975 0.275982 0.561988
Si Si4 0.314027 0.491627 0.735896
Si Si5 0.195309 0.422679 0.040991
Si Si6 0.632760 0.601455 0.472834
Si Si7 0.703721 0.012150 0.855389
O O1 0.080265 0.065554 0.706850
O O2 0.306707 0.733667 0.864502
O O3 0.552981 0.986028 0.873104
O O4 0.500000 0.000000 0.000000
O O5 0.239568 0.460436 0.799782
O O6 0.848981 0.679418 0.605803
O O7 0.102010 0.474384 0.892012
O O8 0.808154 0.293211 0.407279
O O9 0.759254 0.421518 0.508983
O O10 0.183560 0.356893 0.649051
O O11 0.597832 0.458506 0.871127
O O12 0.301854 0.189886 0.151570
O O13 0.000000 0.500000 0.000000
O O14 0.500000 0.500000 0.500000
O O15 0.442994 0.783593 0.299958
O O16 0.000000 0.000000 0.000000
#
# Coordination Sequence:
#
# PCOD9019335 Si02
#       7
#     2   2   2   2   2   2   2
#     4  12  27  45  76 112 150 192 254 306 361 447
#     4  11  25  46  74 105 143 198 248 299 370 431
#     4  10  24  42  76 104 142 191 250 299 362 433
#     4  10  21  44  70  99 140 189 247 293 360 425
#     4  12  28  44  71 105 151 191 242 303 370 437
#     4  11  27  50  76 106 152 195 245 310 374 440
#     4  12  29  48  73 108 151 194 241 308 375 431
#
# _framework density 22.765132999999999
#
# number of rings (size 3 to 8) (size 9 to 14) (size 15 to 20)
#    0.000    0.857    1.429    4.714   16.000    1.143 
#    0.000    1.429    0.000    0.000    0.000    0.000 
#    0.000    0.000    0.000    0.000    0.000    0.000 
#
# Total GULP energy -78043.292160 kJ/mol
# GULP energy per Si atom -5574.520869 kJ/mol
# Density = 2.271332 g / cm^3
# Si number density = 22.765133 Si / 1000 Ang^3
#
#
#
# Elastic Constant Matrix: (Units=GPa)
#
#
# Indices 1 2 3 4 5 6 
#
# 1 187.2192 30.8303 53.8704 -5.4404 6.2158 -0.2045
# 2 30.8303 57.7425 13.0165 -0.5241 7.4025 4.9357
# 3 53.8704 13.0165 140.4947 -1.6122 11.3772 -2.3016
# 4 -5.4404 -0.5241 -1.6122 39.0117 2.8447 13.1801
# 5 6.2158 7.4025 11.3772 2.8447 36.9940 0.8935
# 6 -0.2045 4.9357 -2.3016 13.1801 0.8935 35.8457
#
#
#
# Elastic Compliance Matrix: (Units=1/GPa)
#
#
# Indices 1 2 3 4 5 6 
#
# 1 0.006486 -0.002976 -0.002212 0.000756 0.000127 0.000024
# 2 -0.002976 0.019709 -0.000454 0.001116 -0.003315 -0.003088
# 3 -0.002212 -0.000454 0.008186 -0.000043 -0.002067 0.000643
# 4 0.000756 0.001116 -0.000043 0.029637 -0.002351 -0.010991
# 5 0.000127 -0.003315 -0.002067 -0.002351 0.028478 0.000479
# 6 0.000024 -0.003088 0.000643 -0.010991 0.000479 0.032393
#
#
# Mechanical properties :
#
#
# Convention : Reuss Voigt Hill
#
# Bulk Modulus (GPa) = 43.29931 64.54340 53.92135
# Shear Modulus (GPa) = 34.75344 41.55290 38.15317
#
# Velocity S-wave (km/s) = 3.91142 4.27697 4.09828
# Velocity P-wave (km/s) = 6.28174 7.26660 6.79204
#
# Compressibility (1/GPa) = 0.02309506
#
# Stress axis : x y z
#
# Youngs Moduli (GPa) = 154.18528 50.73948 122.16681
#
# Poissons Ratio (x) = 0.15098 0.27028
# Poissons Ratio (y) = 0.45880 0.05550
# Poissons Ratio (z) = 0.34112 0.02305
#
# Static dielectric constant tensor:
#      x y z
#    x 1.842590 0.019570 -0.044150 
#    y 0.019570 2.033690 -0.192860 
#    z -0.044150 -0.192860 2.106550 
# 
# From -- ./inp_files/494547.got.cif
#   From: 2010.05.17/outbox.cif.g08.bks.cpg/sg2_248_cif.got.tgz:494547.got - 2010.06.03 11:33:40.
