data_PCOD9019723
_publ_section_title
;
Structure prediction by ZEFSAII (Michael W. Deem and Ramdas Pophale) SiO2 
 PCOD9019723
Probable space group: P -1
;
_chemical_formula_sum "Si O2"
_cell_formula_units_Z 14
_cell_length_a 13.397520
_cell_length_b 6.038345
_cell_length_c 15.386164
_cell_angle_alpha 106.246173
_cell_angle_beta 30.758912
_cell_angle_gamma 117.814154
_cell_volume 542.449597
_symmetry_space_group_name_H-M "P -1"
_symmetry_group_IT_number 2
_symmetry_cell_setting 'triclinic'
loop_
_space_group_symop_operation_xyz
x,y,z
-x,-y,-z
loop_
_atom_site_type_symbol
_atom_site_label
_atom_site_fract_x
_atom_site_fract_y
_atom_site_fract_z
Si Si1 0.615277 0.509902 0.595091
Si Si2 0.942108 0.115473 0.439650
Si Si3 0.098905 0.743890 0.708673
Si Si4 0.414190 0.771413 0.233479
Si Si5 0.340805 0.114385 0.097140
Si Si6 0.828846 0.281792 0.960881
Si Si7 0.851973 0.801108 0.164014
O O1 0.774161 0.812755 0.521094
O O2 0.733077 0.378152 0.433205
O O3 0.583132 0.374854 0.698227
O O4 0.374352 0.424710 0.727082
O O5 0.187503 0.165203 0.285075
O O6 0.966489 0.245487 0.340533
O O7 0.820310 0.234768 0.604665
O O8 0.888473 0.556660 0.903717
O O9 0.197567 0.023870 0.709900
O O10 0.511683 0.693488 0.068546
O O11 0.587284 0.078271 0.150574
O O12 0.157679 0.883321 0.150058
O O13 0.500000 0.000000 0.000000
O O14 0.001394 0.305751 0.907219
O O15 0.000000 0.000000 0.000000
#
# Coordination Sequence:
#
# PCOD9019723 Si02
#       7
#     2   2   2   2   2   2   2
#     4  11  22  40  61  90 127 164 208 248 299 367
#     4  11  23  41  67  89 128 163 201 258 309 362
#     4  11  22  40  61  87 130 161 209 248 308 357
#     4   9  22  39  64  92 124 162 202 253 305 365
#     4  10  21  45  67  90 123 158 205 259 312 370
#     4  10  22  42  59  92 126 159 209 255 297 369
#     4  12  23  36  61  91 126 169 205 246 305 359
#
# _framework density 25.808851000000001
#
# number of rings (size 3 to 8) (size 9 to 14) (size 15 to 20)
#    0.857    0.571    4.286    0.429    2.000    5.714 
#    0.000    1.429    0.000    0.000    0.000    0.000 
#    0.000    0.000    0.000    0.000    0.000    0.000 
#
# Total GULP energy -78320.225402 kJ/mol
# GULP energy per Si atom -5594.301814 kJ/mol
# Density = 2.575011 g / cm^3
# Si number density = 25.808851 Si / 1000 Ang^3
#
#
#
# Elastic Constant Matrix: (Units=GPa)
#
#
# Indices 1 2 3 4 5 6 
#
# 1 96.8060 20.7676 55.5959 -6.9583 -3.8448 -14.1107
# 2 20.7676 78.5539 51.4916 -25.0445 -3.0578 16.9430
# 3 55.5959 51.4916 175.0886 2.3824 -27.1901 -3.9235
# 4 -6.9583 -25.0445 2.3824 60.3561 -4.1957 11.5123
# 5 -3.8448 -3.0578 -27.1901 -4.1957 40.4709 -0.1469
# 6 -14.1107 16.9430 -3.9235 11.5123 -0.1469 43.9332
#
#
#
# Elastic Compliance Matrix: (Units=1/GPa)
#
#
# Indices 1 2 3 4 5 6 
#
# 1 0.013645 -0.002436 -0.003716 -0.000357 -0.001403 0.005079
# 2 -0.002436 0.025833 -0.007667 0.013449 -0.002090 -0.014961
# 3 -0.003716 -0.007667 0.010136 -0.004362 0.005439 0.003830
# 4 -0.000357 0.013449 -0.004362 0.024636 0.000562 -0.012145
# 5 -0.001403 -0.002090 0.005439 0.000562 0.028133 0.000788
# 6 0.005079 -0.014961 0.003830 -0.012145 0.000788 0.033690
#
#
# Mechanical properties :
#
#
# Convention : Reuss Voigt Hill
#
# Bulk Modulus (GPa) = 45.50060 67.35097 56.42578
# Shear Modulus (GPa) = 29.23385 43.79162 36.51273
#
# Velocity S-wave (km/s) = 3.36922 4.12365 3.76538
# Velocity P-wave (km/s) = 5.72745 6.98752 6.38862
#
# Compressibility (1/GPa) = 0.02197773
#
# Stress axis : x y z
#
# Youngs Moduli (GPa) = 73.28515 38.71032 98.66171
#
# Poissons Ratio (x) = 0.09430 0.36658
# Poissons Ratio (y) = 0.17852 0.75639
# Poissons Ratio (z) = 0.27229 0.29677
#
# Static dielectric constant tensor:
#      x y z
#    x 1.966680 -0.011120 0.000270 
#    y -0.011120 2.142130 0.092340 
#    z 0.000270 0.092340 2.093820 
# 
# From -- ./inp_files/225637.got.cif
#   From: 2010.05.17/outbox.cif.g08.bks.cpg/sg2_113_cif.got.tgz:225637.got - 2010.06.03 11:33:40.
