data_PCOD9019989
_publ_section_title
;
Structure prediction by ZEFSAII (Michael W. Deem and Ramdas Pophale) SiO2 
 PCOD9019989
Probable space group: P -1
;
_chemical_formula_sum "Si O2"
_cell_formula_units_Z 14
_cell_length_a 9.119688
_cell_length_b 9.411253
_cell_length_c 8.804740
_cell_angle_alpha 98.898532
_cell_angle_beta 102.198207
_cell_angle_gamma 45.965499
_cell_volume 530.983259
_symmetry_space_group_name_H-M "P -1"
_symmetry_group_IT_number 2
_symmetry_cell_setting 'triclinic'
loop_
_space_group_symop_operation_xyz
x,y,z
-x,-y,-z
loop_
_atom_site_type_symbol
_atom_site_label
_atom_site_fract_x
_atom_site_fract_y
_atom_site_fract_z
Si Si1 0.846394 0.522170 0.855729
Si Si2 0.253016 0.784487 0.582809
Si Si3 0.968909 0.747817 0.644824
Si Si4 0.597298 0.048182 0.195127
Si Si5 0.190421 0.323125 0.661275
Si Si6 0.375726 0.615579 0.241139
Si Si7 0.801420 0.028220 0.931109
O O1 0.774791 0.408871 0.862386
O O2 0.974253 0.422695 0.711745
O O3 0.638351 0.749694 0.830491
O O4 0.000000 0.500000 0.000000
O O5 0.043699 0.843366 0.593587
O O6 0.303707 0.714429 0.408966
O O7 0.414743 0.604302 0.707386
O O8 0.289563 0.926014 0.651968
O O9 0.163621 0.510829 0.668622
O O10 0.811321 0.755550 0.513235
O O11 0.875224 0.860783 0.799964
O O12 0.636416 0.859381 0.224607
O O13 0.712254 0.013155 0.059043
O O14 0.364852 0.755890 0.148359
O O15 0.000000 0.000000 0.000000
#
# Coordination Sequence:
#
# PCOD9019989 Si02
#       7
#     2   2   2   2   2   2   2
#     4  11  26  45  74 103 150 195 241 295 367 439
#     4  10  21  45  76 103 138 189 250 302 356 431
#     4  11  25  46  72 107 146 193 243 302 362 434
#     4  11  26  47  75 110 145 196 242 299 374 429
#     4  11  26  49  72 103 148 197 244 300 361 439
#     4  10  23  43  72 106 141 187 248 304 359 427
#     4  12  25  42  73 112 147 188 238 304 373 434
#
# _framework density 26.366178000000001
#
# number of rings (size 3 to 8) (size 9 to 14) (size 15 to 20)
#    0.000    1.143    2.857    1.714    4.000    5.143 
#    2.571    1.429    0.000    0.000    0.000    0.000 
#    0.000    0.000    0.000    0.000    0.000    0.000 
#
# Total GULP energy -78552.303883 kJ/mol
# GULP energy per Si atom -5610.878849 kJ/mol
# Density = 2.630617 g / cm^3
# Si number density = 26.366178 Si / 1000 Ang^3
#
#
#
# Elastic Constant Matrix: (Units=GPa)
#
#
# Indices 1 2 3 4 5 6 
#
# 1 82.5864 23.6946 36.5214 2.2544 27.0647 10.5749
# 2 23.6946 145.1695 46.2355 -18.3464 25.6842 9.5358
# 3 36.5214 46.2355 134.8152 12.4016 23.9871 -5.0010
# 4 2.2544 -18.3464 12.4016 51.9651 0.0468 2.3964
# 5 27.0647 25.6842 23.9871 0.0468 28.3705 1.7765
# 6 10.5749 9.5358 -5.0010 2.3964 1.7765 55.6979
#
#
#
# Elastic Compliance Matrix: (Units=1/GPa)
#
#
# Indices 1 2 3 4 5 6 
#
# 1 0.018800 0.000936 -0.002671 0.000327 -0.016307 -0.003463
# 2 0.000936 0.009491 -0.002694 0.004051 -0.007090 -0.001993
# 3 -0.002671 -0.002694 0.010108 -0.003343 -0.003688 0.002137
# 4 0.000327 0.004051 -0.003343 0.021548 -0.001067 -0.001949
# 5 -0.016307 -0.007090 -0.003688 -0.001067 0.060211 0.002104
# 6 -0.003463 -0.001993 0.002137 -0.001949 0.002104 0.019161
#
#
# Mechanical properties :
#
#
# Convention : Reuss Voigt Hill
#
# Bulk Modulus (GPa) = 33.85061 63.94159 48.89610
# Shear Modulus (GPa) = 31.64085 44.28134 37.96109
#
# Velocity S-wave (km/s) = 3.46794 4.10259 3.79854
# Velocity P-wave (km/s) = 5.37606 6.83708 6.15011
#
# Compressibility (1/GPa) = 0.02954156
#
# Stress axis : x y z
#
# Youngs Moduli (GPa) = 53.19203 105.36455 98.93284
#
# Poissons Ratio (x) = -0.09864 0.26424
# Poissons Ratio (y) = -0.04980 0.26650
# Poissons Ratio (z) = 0.14207 0.28382
#
# Static dielectric constant tensor:
#      x y z
#    x 2.038380 -0.012760 0.042040 
#    y -0.012760 2.085370 -0.042260 
#    z 0.042040 -0.042260 2.043860 
# 
# From -- ./inp_files/240579.got.cif
#   From: 2010.05.17/outbox.cif.g08.bks.cpg/sg2_121_cif.got.tgz:240579.got - 2010.06.03 11:33:40.
