data_PCOD9019994
_publ_section_title
;
Structure prediction by ZEFSAII (Michael W. Deem and Ramdas Pophale) SiO2 
 PCOD9019994
Probable space group: P -1
;
_chemical_formula_sum "Si O2"
_cell_formula_units_Z 11
_cell_length_a 7.960059
_cell_length_b 13.733282
_cell_length_c 10.554922
_cell_angle_alpha 149.537540
_cell_angle_beta 125.699608
_cell_angle_gamma 44.008616
_cell_volume 404.237147
_symmetry_space_group_name_H-M "P -1"
_symmetry_group_IT_number 2
_symmetry_cell_setting 'triclinic'
loop_
_space_group_symop_operation_xyz
x,y,z
-x,-y,-z
loop_
_atom_site_type_symbol
_atom_site_label
_atom_site_fract_x
_atom_site_fract_y
_atom_site_fract_z
Si Si1 0.489973 0.196076 0.602126
Si Si2 0.500000 0.000000 0.000000
Si Si3 0.373500 0.776664 0.833857
Si Si4 0.609696 0.529873 0.905068
Si Si5 0.118166 0.148928 0.759714
Si Si6 0.923819 0.726765 0.645621
O O1 0.515252 0.360544 0.698911
O O2 0.222757 0.250305 0.519354
O O3 0.677539 0.940449 0.359433
O O4 0.546105 0.264412 0.836575
O O5 0.504268 0.753829 0.735254
O O6 0.257801 0.101619 0.900590
O O7 0.564890 0.620257 0.846252
O O8 0.140567 0.762726 0.743374
O O9 0.276308 0.052412 0.108707
O O10 0.887198 0.397846 0.924038
O O11 0.000000 0.000000 0.500000
O O12 0.000000 0.500000 0.500000
#
# Coordination Sequence:
#
# PCOD9019994 Si02
#       6
#     2   1   2   2   2   2
#     4  10  21  45  76 110 155 199 258 326 397 462
#     4  12  26  50  70 110 168 200 256 332 376 476
#     4  11  26  46  76 115 153 211 266 314 403 474
#     4  10  23  44  78 114 153 204 261 328 392 471
#     4  10  24  47  76 111 159 204 261 325 395 468
#     4  11  23  44  75 110 153 201 263 320 391 475
#
# _framework density 27.211749999999999
#
# number of rings (size 3 to 8) (size 9 to 14) (size 15 to 20)
#    0.000    1.455    3.636    0.000    2.545    5.818 
#    3.273   10.000    0.000    0.000    0.000    0.000 
#    0.000    0.000    0.000    0.000    0.000    0.000 
#
# Total GULP energy -61375.948976 kJ/mol
# GULP energy per Si atom -5579.631725 kJ/mol
# Density = 2.714981 g / cm^3
# Si number density = 27.211750 Si / 1000 Ang^3
#
#
#
# Elastic Constant Matrix: (Units=GPa)
#
#
# Indices 1 2 3 4 5 6 
#
# 1 116.5579 82.0568 30.3532 4.6600 43.7896 10.4513
# 2 82.0568 198.6698 33.0318 -5.0014 18.9818 -3.0618
# 3 30.3532 33.0318 113.4784 4.0410 -3.8757 -6.9285
# 4 4.6600 -5.0014 4.0410 36.2059 -2.8106 11.3000
# 5 43.7896 18.9818 -3.8757 -2.8106 47.7324 2.0775
# 6 10.4513 -3.0618 -6.9285 11.3000 2.0775 62.2071
#
#
#
# Elastic Compliance Matrix: (Units=1/GPa)
#
#
# Indices 1 2 3 4 5 6 
#
# 1 0.021280 -0.006527 -0.004454 -0.003499 -0.017356 -0.003177
# 2 -0.006527 0.007563 -0.000358 0.001849 0.003018 0.000992
# 3 -0.004454 -0.000358 0.010421 -0.000842 0.004943 0.001879
# 4 -0.003499 0.001849 -0.000842 0.030346 0.004414 -0.005075
# 5 -0.017356 0.003018 0.004943 0.004414 0.036264 0.001602
# 6 -0.003177 0.000992 0.001879 -0.005075 0.001602 0.017736
#
#
# Mechanical properties :
#
#
# Convention : Reuss Voigt Hill
#
# Bulk Modulus (GPa) = 60.29390 79.95441 70.12415
# Shear Modulus (GPa) = 32.93469 48.11337 40.52403
#
# Velocity S-wave (km/s) = 3.48273 4.20945 3.86322
# Velocity P-wave (km/s) = 6.19499 7.28506 6.76203
#
# Compressibility (1/GPa) = 0.01658543
#
# Stress axis : x y z
#
# Youngs Moduli (GPa) = 46.99294 132.23114 95.95783
#
# Poissons Ratio (x) = 0.86314 0.42740
# Poissons Ratio (y) = 0.30675 0.03431
# Poissons Ratio (z) = 0.20931 0.04728
#
# Static dielectric constant tensor:
#      x y z
#    x 4.423090 0.390700 -0.690710 
#    y 0.390700 2.111030 -0.061990 
#    z -0.690710 -0.061990 2.487320 
# 
# From -- ./inp_files/167092.got.cif
#   From: 2010.05.17/outbox.cif.g08.bks.cpg/sg2_84_cif.got.tgz:167092.got - 2010.06.03 11:33:40.
