data_PCOD9019110
_publ_section_title
;
Structure prediction by ZEFSAII (Michael W. Deem and Ramdas Pophale) SiO2 
 PCOD9019110
Probable space group: P -1
;
_chemical_formula_sum "Si O2"
_cell_formula_units_Z 12
_cell_length_a 17.768749
_cell_length_b 15.478732
_cell_length_c 11.569544
_cell_angle_alpha 28.483306
_cell_angle_beta 152.058365
_cell_angle_gamma 157.716607
_cell_volume 530.423488
_symmetry_space_group_name_H-M "P -1"
_symmetry_group_IT_number 2
_symmetry_cell_setting 'triclinic'
loop_
_space_group_symop_operation_xyz
x,y,z
-x,-y,-z
loop_
_atom_site_type_symbol
_atom_site_label
_atom_site_fract_x
_atom_site_fract_y
_atom_site_fract_z
Si Si1 0.710951 0.036573 0.753612
Si Si2 0.598659 0.912835 0.009087
Si Si3 0.835465 0.244006 0.434039
Si Si4 0.076244 0.135162 0.736642
Si Si5 0.199982 0.394614 0.120776
Si Si6 0.027512 0.307310 0.242362
O O1 0.500000 0.000000 0.500000
O O2 0.842426 0.217397 0.610941
O O3 0.720478 0.024540 0.921106
O O4 0.725112 0.832190 0.983699
O O5 0.872888 0.714471 0.486285
O O6 0.447984 0.622814 0.157547
O O7 0.416393 0.934649 0.739383
O O8 0.970799 0.193175 0.614459
O O9 0.911770 0.500908 0.196872
O O10 0.902471 0.849854 0.798549
O O11 0.158576 0.360111 0.242041
O O12 0.217610 0.944987 0.813260
O O13 0.000000 0.500000 0.000000
#
# Coordination Sequence:
#
# PCOD9019110 Si02
#       6
#     2   2   2   2   2   2
#     4  10  21  44  68  94 143 174 226 285 324 401
#     4   9  22  45  64  99 138 176 220 277 335 393
#     4   9  22  44  65  99 136 179 223 274 331 401
#     4  12  23  41  71 101 135 181 228 270 344 401
#     4  10  23  42  66 101 135 182 211 285 332 393
#     4  12  23  44  69 100 140 177 223 281 336 405
#
# _framework density 22.623432000000001
#
# number of rings (size 3 to 8) (size 9 to 14) (size 15 to 20)
#    1.000    0.667    3.333    1.000    0.000    4.000 
#    3.000    0.833    0.000    0.000    0.000    0.000 
#    0.000    0.000    0.000    0.000    0.000    0.000 
#
# Total GULP energy -66856.323772 kJ/mol
# GULP energy per Si atom -5571.360314 kJ/mol
# Density = 2.257194 g / cm^3
# Si number density = 22.623432 Si / 1000 Ang^3
#
#
#
# Elastic Constant Matrix: (Units=GPa)
#
#
# Indices 1 2 3 4 5 6 
#
# 1 133.3934 33.4750 47.2558 -3.7460 8.9934 25.5650
# 2 33.4750 64.2225 18.2978 -16.9410 -1.3434 11.7745
# 3 47.2558 18.2978 153.5073 -5.5372 10.0872 13.2890
# 4 -3.7460 -16.9410 -5.5372 37.4314 -1.4724 -0.6745
# 5 8.9934 -1.3434 10.0872 -1.4724 30.1349 -5.7906
# 6 25.5650 11.7745 13.2890 -0.6745 -5.7906 23.6506
#
#
#
# Elastic Compliance Matrix: (Units=1/GPa)
#
#
# Indices 1 2 3 4 5 6 
#
# 1 0.011509 -0.003957 -0.001854 -0.001308 -0.005114 -0.010717
# 2 -0.003957 0.021209 -0.000647 0.009083 0.001784 -0.005221
# 3 -0.001854 -0.000647 0.007560 0.000498 -0.002464 -0.002510
# 4 -0.001308 0.009083 0.000498 0.030800 0.001733 -0.002085
# 5 -0.005114 0.001784 -0.002464 0.001733 0.038686 0.015545
# 6 -0.010717 -0.005221 -0.002510 -0.002085 0.015545 0.061623
#
#
# Mechanical properties :
#
#
# Convention : Reuss Voigt Hill
#
# Bulk Modulus (GPa) = 36.55191 61.02004 48.78598
# Shear Modulus (GPa) = 25.84989 35.04968 30.44979
#
# Velocity S-wave (km/s) = 3.38393 3.94034 3.67269
# Velocity P-wave (km/s) = 5.60889 6.90886 6.29254
#
# Compressibility (1/GPa) = 0.02735835
#
# Stress axis : x y z
#
# Youngs Moduli (GPa) = 86.89041 47.15064 132.28361
#
# Poissons Ratio (x) = 0.18660 0.24532
# Poissons Ratio (y) = 0.34386 0.08563
# Poissons Ratio (z) = 0.16114 0.03052
#
# Static dielectric constant tensor:
#      x y z
#    x 1.788160 0.046480 0.004150 
#    y 0.046480 0.242760 -0.369030 
#    z 0.004150 -0.369030 1.783520 
# 
# From -- ./inp_files/342324.got.cif
#   From: 2010.05.17/outbox.cif.g08.bks.cpg/sg2_172_cif.got.tgz:342324.got - 2010.06.03 11:33:40.
