data_PCOD9019654
_publ_section_title
;
Structure prediction by ZEFSAII (Michael W. Deem and Ramdas Pophale) SiO2 
 PCOD9019654
Probable space group: P -1
;
_chemical_formula_sum "Si O2"
_cell_formula_units_Z 14
_cell_length_a 5.476058
_cell_length_b 23.600631
_cell_length_c 10.647847
_cell_angle_alpha 151.484526
_cell_angle_beta 81.735396
_cell_angle_gamma 110.270633
_cell_volume 575.228782
_symmetry_space_group_name_H-M "P -1"
_symmetry_group_IT_number 2
_symmetry_cell_setting 'triclinic'
loop_
_space_group_symop_operation_xyz
x,y,z
-x,-y,-z
loop_
_atom_site_type_symbol
_atom_site_label
_atom_site_fract_x
_atom_site_fract_y
_atom_site_fract_z
Si Si1 0.431917 0.316979 0.092704
Si Si2 0.791562 0.767729 0.776900
Si Si3 0.465332 0.908100 0.443275
Si Si4 0.658831 0.438531 0.786712
Si Si5 0.234872 0.783424 0.604480
Si Si6 0.985099 0.627881 0.914427
Si Si7 0.710800 0.998373 0.134438
O O1 0.367470 0.177086 0.753300
O O2 0.310566 0.275160 0.158798
O O3 0.286070 0.394973 0.188591
O O4 0.769901 0.394282 0.212692
O O5 0.552942 0.668947 0.507044
O O6 0.058445 0.753060 0.685990
O O7 0.850021 0.920392 0.044817
O O8 0.500000 0.000000 0.500000
O O9 0.499444 0.987756 0.723571
O O10 0.149444 0.787962 0.236094
O O11 0.760807 0.352015 0.696428
O O12 0.891883 0.548035 0.894588
O O13 0.500000 0.500000 0.000000
O O14 0.120547 0.855101 0.654641
O O15 0.543977 0.897548 0.837398
#
# Coordination Sequence:
#
# PCOD9019654 Si02
#       7
#     2   2   2   2   2   2   2
#     4  10  25  44  70 107 141 185 232 292 358 419
#     4  11  24  42  73  99 140 183 236 300 354 431
#     4  10  22  41  70 104 145 183 232 293 354 425
#     4  11  28  47  68 100 138 192 244 294 352 424
#     4  10  25  42  73  95 143 184 243 294 357 422
#     4  10  26  46  70 105 144 187 237 291 352 425
#     4  10  21  45  65 108 136 185 232 298 361 418
#
# _framework density 24.338145000000001
#
# number of rings (size 3 to 8) (size 9 to 14) (size 15 to 20)
#    0.857    0.857    1.429    0.429   12.000    3.429 
#    0.000    0.000    0.000    0.000    0.000    0.000 
#    0.000    0.000    0.000    0.000    0.000    0.000 
#
# Total GULP energy -78228.589752 kJ/mol
# GULP energy per Si atom -5587.756411 kJ/mol
# Density = 2.428275 g / cm^3
# Si number density = 24.338145 Si / 1000 Ang^3
#
#
#
# Elastic Constant Matrix: (Units=GPa)
#
#
# Indices 1 2 3 4 5 6 
#
# 1 119.0348 46.3427 37.8452 5.1662 -30.8027 -0.2665
# 2 46.3427 155.8102 55.8673 11.8021 -32.8479 8.4135
# 3 37.8452 55.8673 119.1210 10.6604 -34.4358 -2.3661
# 4 5.1662 11.8021 10.6604 49.7882 2.3876 -3.0515
# 5 -30.8027 -32.8479 -34.4358 2.3876 39.4338 -3.3855
# 6 -0.2665 8.4135 -2.3661 -3.0515 -3.3855 30.1633
#
#
#
# Elastic Compliance Matrix: (Units=1/GPa)
#
#
# Indices 1 2 3 4 5 6 
#
# 1 0.011055 -0.001593 -0.000676 -0.000882 0.006872 0.001171
# 2 -0.001593 0.008842 -0.002396 -0.001753 0.003928 -0.002405
# 3 -0.000676 -0.002396 0.012519 -0.002315 0.008753 0.002393
# 4 -0.000882 -0.001753 -0.002315 0.021458 -0.005310 0.001874
# 5 0.006872 0.003928 0.008753 -0.005310 0.042296 0.003862
# 6 0.001171 -0.002405 0.002393 0.001874 0.003862 0.034645
#
#
# Mechanical properties :
#
#
# Convention : Reuss Voigt Hill
#
# Bulk Modulus (GPa) = 43.31905 74.89737 59.10821
# Shear Modulus (GPa) = 33.82039 40.80445 37.31242
#
# Velocity S-wave (km/s) = 3.73178 4.09903 3.91971
# Velocity P-wave (km/s) = 6.03372 7.29679 6.69511
#
# Compressibility (1/GPa) = 0.02308453
#
# Stress axis : x y z
#
# Youngs Moduli (GPa) = 90.45358 113.09874 79.88121
#
# Poissons Ratio (x) = 0.18021 0.05403
# Poissons Ratio (y) = 0.14413 0.19139
# Poissons Ratio (z) = 0.06118 0.27097
#
# Static dielectric constant tensor:
#      x y z
#    x 1.977920 -0.014090 0.054600 
#    y -0.014090 1.877930 -0.003260 
#    z 0.054600 -0.003260 2.013810 
# 
# From -- ./inp_files/371103.got.cif
#   From: 2010.05.17/outbox.cif.g08.bks.cpg/sg2_186_cif.got.tgz:371103.got - 2010.06.03 11:33:40.
