data_PCOD9019306
_publ_section_title
;
Structure prediction by ZEFSAII (Michael W. Deem and Ramdas Pophale) SiO2 
 PCOD9019306
Probable space group: P -1
;
_chemical_formula_sum "Si O2"
_cell_formula_units_Z 15
_cell_length_a 7.815239
_cell_length_b 7.378101
_cell_length_c 17.885046
_cell_angle_alpha 115.904584
_cell_angle_beta 37.232862
_cell_angle_gamma 117.336303
_cell_volume 549.407431
_symmetry_space_group_name_H-M "P -1"
_symmetry_group_IT_number 2
_symmetry_cell_setting 'triclinic'
loop_
_space_group_symop_operation_xyz
x,y,z
-x,-y,-z
loop_
_atom_site_type_symbol
_atom_site_label
_atom_site_fract_x
_atom_site_fract_y
_atom_site_fract_z
Si Si1 0.282295 0.769124 0.385000
Si Si2 0.585961 0.546964 0.345705
Si Si3 0.910754 0.208006 0.887439
Si Si4 0.153679 0.167593 0.563444
Si Si5 0.500000 0.500000 0.000000
Si Si6 0.440470 0.144645 0.236994
Si Si7 0.701415 0.741960 0.856811
Si Si8 0.750678 0.794595 0.095602
O O1 0.320139 0.628409 0.415396
O O2 0.979109 0.730727 0.441439
O O3 0.510615 0.750029 0.237540
O O4 0.330348 0.000893 0.442314
O O5 0.529517 0.308548 0.301368
O O6 0.859312 0.659082 0.221014
O O7 0.662381 0.658898 0.417887
O O8 0.982802 0.247150 0.955744
O O9 0.899311 0.965266 0.837896
O O10 0.591511 0.250791 0.988085
O O11 0.864692 0.020383 0.674491
O O12 0.234490 0.447856 0.154375
O O13 0.704352 0.651514 0.014759
O O14 0.388629 0.262311 0.199087
O O15 0.690802 0.011452 0.126026
#
# Coordination Sequence:
#
# PCOD9019306 Si02
#       8
#     2   2   2   2   1   2   2   2
#     4   9  21  42  69  99 137 172 230 269 335 390
#     4  11  22  41  68  98 134 184 216 274 333 399
#     4  10  22  42  65  90 133 167 221 268 332 390
#     4  10  21  44  70  96 138 180 213 291 319 391
#     4  12  26  40  68  88 132 172 220 270 340 382
#     4  11  24  44  66 101 135 169 232 262 333 404
#     4  11  23  40  62  96 126 170 217 272 326 402
#     4  10  23  44  62  98 130 173 219 279 321 405
#
# _framework density 27.302143999999998
#
# number of rings (size 3 to 8) (size 9 to 14) (size 15 to 20)
#    0.000    1.600    1.333    3.600    1.867    5.867 
#    2.400    6.000    0.000    0.000    0.000    0.000 
#    0.000    0.000    0.000    0.000    0.000    0.000 
#
# Total GULP energy -83785.989620 kJ/mol
# GULP energy per Si atom -5585.732641 kJ/mol
# Density = 2.724000 g / cm^3
# Si number density = 27.302144 Si / 1000 Ang^3
#
#
#
# Elastic Constant Matrix: (Units=GPa)
#
#
# Indices 1 2 3 4 5 6 
#
# 1 146.3565 68.9313 43.7932 27.7123 30.6955 22.6859
# 2 68.9313 133.2310 27.5644 7.2815 22.4674 -3.3500
# 3 43.7932 27.5644 62.1439 -6.8554 14.5454 5.5088
# 4 27.7123 7.2815 -6.8554 57.5700 5.3588 19.7541
# 5 30.6955 22.4674 14.5454 5.3588 43.6486 12.9984
# 6 22.6859 -3.3500 5.5088 19.7541 12.9984 52.3634
#
#
#
# Elastic Compliance Matrix: (Units=1/GPa)
#
#
# Indices 1 2 3 4 5 6 
#
# 1 0.013115 -0.004597 -0.006839 -0.005418 -0.003192 -0.002420
# 2 -0.004597 0.010731 -0.001181 -0.000257 -0.002947 0.003631
# 3 -0.006839 -0.001181 0.022949 0.006930 -0.002638 -0.001486
# 4 -0.005418 -0.000257 0.006930 0.023294 0.000986 -0.007430
# 5 -0.003192 -0.002947 -0.002638 0.000986 0.029266 -0.006165
# 6 -0.002420 0.003631 -0.001486 -0.007430 -0.006165 0.024868
#
#
# Mechanical properties :
#
#
# Convention : Reuss Voigt Hill
#
# Bulk Modulus (GPa) = 46.38071 69.14547 57.76309
# Shear Modulus (GPa) = 31.92015 44.14592 38.03303
#
# Velocity S-wave (km/s) = 3.42299 4.02548 3.73640
# Velocity P-wave (km/s) = 5.71378 6.85471 6.31008
#
# Compressibility (1/GPa) = 0.02156069
#
# Stress axis : x y z
#
# Youngs Moduli (GPa) = 76.25148 93.19175 43.57559
#
# Poissons Ratio (x) = 0.42838 0.29802
# Poissons Ratio (y) = 0.35051 0.05145
# Poissons Ratio (z) = 0.52149 0.11002
#
# Static dielectric constant tensor:
#      x y z
#    x 1.233920 0.845020 0.031590 
#    y 0.845020 1.307470 -0.174720 
#    z 0.031590 -0.174720 2.199110 
# 
# From -- ./inp_files/586873.got.cif
#   From: 2010.05.17/outbox.cif.g08.bks.cpg/sg2_294_cif.got.tgz:586873.got - 2010.06.03 11:33:40.
