data_PCOD9019660
_publ_section_title
;
Structure prediction by ZEFSAII (Michael W. Deem and Ramdas Pophale) SiO2 
 PCOD9019660
Probable space group: P -1
;
_chemical_formula_sum "Si O2"
_cell_formula_units_Z 16
_cell_length_a 8.135955
_cell_length_b 12.361596
_cell_length_c 12.225486
_cell_angle_alpha 78.491728
_cell_angle_beta 117.876417
_cell_angle_gamma 58.236851
_cell_volume 744.122321
_symmetry_space_group_name_H-M "P -1"
_symmetry_group_IT_number 2
_symmetry_cell_setting 'triclinic'
loop_
_space_group_symop_operation_xyz
x,y,z
-x,-y,-z
loop_
_atom_site_type_symbol
_atom_site_label
_atom_site_fract_x
_atom_site_fract_y
_atom_site_fract_z
Si Si1 0.201286 0.075255 0.510891
Si Si2 0.500998 0.822999 0.463368
Si Si3 0.350155 0.486505 0.367939
Si Si4 0.521939 0.636874 0.040572
Si Si5 0.056672 0.058164 0.107019
Si Si6 0.747204 0.754124 0.153849
Si Si7 0.506942 0.971214 0.832089
Si Si8 0.409199 0.628719 0.776850
O O1 0.297465 0.162264 0.506323
O O2 0.887100 0.202392 0.373289
O O3 0.348328 0.935215 0.498709
O O4 0.320988 0.992697 0.681953
O O5 0.627878 0.650444 0.559443
O O6 0.271200 0.910186 0.283047
O O7 0.500000 0.500000 0.500000
O O8 0.453219 0.444525 0.283218
O O9 0.047631 0.655387 0.241945
O O10 0.707159 0.641927 0.162474
O O11 0.602311 0.483847 0.142227
O O12 0.550654 0.636838 0.917680
O O13 0.216493 0.793769 0.947235
O O14 0.211199 0.104664 0.110360
O O15 0.000000 0.000000 0.000000
O O16 0.647734 0.853787 0.211952
O O17 0.557857 0.877434 0.973084
#
# Coordination Sequence:
#
# PCOD9019660 Si02
#       8
#     2   2   2   2   2   2   2   2
#     4  10  21  45  65  95 129 170 217 265 326 386
#     4  10  24  41  68  96 130 169 217 268 322 390
#     4  12  28  44  65  97 133 174 216 271 329 386
#     4  11  24  42  68  95 131 174 217 266 328 382
#     4  11  21  41  68  96 127 172 216 267 322 389
#     4  11  24  44  62  97 130 168 217 269 319 390
#     4  10  23  39  69  94 128 169 213 268 324 381
#     4  11  25  43  65  97 132 172 217 269 322 391
#
# _framework density 21.501840999999999
#
# number of rings (size 3 to 8) (size 9 to 14) (size 15 to 20)
#    0.000    1.250    2.500    2.250    5.250    2.000 
#    0.000    3.125    0.000    0.000    0.000    0.000 
#    0.000    0.000    0.000    0.000    0.000    0.000 
#
# Total GULP energy -89415.768447 kJ/mol
# GULP energy per Si atom -5588.485528 kJ/mol
# Density = 2.145290 g / cm^3
# Si number density = 21.501841 Si / 1000 Ang^3
#
#
#
# Elastic Constant Matrix: (Units=GPa)
#
#
# Indices 1 2 3 4 5 6 
#
# 1 18.7117 11.0954 -6.0761 0.7027 2.8366 -10.6856
# 2 11.0954 75.4711 25.4743 23.0964 2.1788 -3.3915
# 3 -6.0761 25.4743 87.4816 12.7524 -4.2751 -7.1956
# 4 0.7027 23.0964 12.7524 29.8517 -5.8651 -3.9703
# 5 2.8366 2.1788 -4.2751 -5.8651 30.7463 -4.3802
# 6 -10.6856 -3.3915 -7.1956 -3.9703 -4.3802 41.8609
#
#
#
# Elastic Compliance Matrix: (Units=1/GPa)
#
#
# Indices 1 2 3 4 5 6 
#
# 1 0.079268 -0.017413 0.010937 0.009901 0.000420 0.021687
# 2 -0.017413 0.022747 -0.006167 -0.016252 -0.004775 -0.005703
# 3 0.010937 -0.006167 0.014589 -0.000660 0.002036 0.004950
# 4 0.009901 -0.016252 -0.000660 0.049094 0.010487 0.006851
# 5 0.000420 -0.004775 0.002036 0.010487 0.035793 0.004810
# 6 0.021687 -0.005703 0.004950 0.006851 0.004810 0.030966
#
#
# Mechanical properties :
#
#
# Convention : Reuss Voigt Hill
#
# Bulk Modulus (GPa) = 10.95055 26.96127 18.95591
# Shear Modulus (GPa) = 17.35017 30.56985 23.96001
#
# Velocity S-wave (km/s) = 2.84371 3.77468 3.34177
# Velocity P-wave (km/s) = 3.98574 5.61817 4.87083
#
# Compressibility (1/GPa) = 0.09131965
#
# Stress axis : x y z
#
# Youngs Moduli (GPa) = 12.61537 43.96254 68.54364
#
# Poissons Ratio (x) = 0.76552 -0.74968
# Poissons Ratio (y) = 0.21967 0.42268
# Poissons Ratio (z) = -0.13798 0.27110
#
# Static dielectric constant tensor:
#      x y z
#    x 1.795000 0.022730 -0.021880 
#    y 0.022730 1.782850 0.021650 
#    z -0.021880 0.021650 1.757670 
# 
# From -- ./inp_files/392618.got.cif
#   From: 2010.05.17/outbox.cif.g08.bks.cpg/sg2_197_cif.got.tgz:392618.got - 2010.06.03 11:33:40.
