data_PCOD9019395
_publ_section_title
;
Structure prediction by ZEFSAII (Michael W. Deem and Ramdas Pophale) SiO2 
 PCOD9019395
Probable space group: P -1
;
_chemical_formula_sum "Si O2"
_cell_formula_units_Z 14
_cell_length_a 11.552660
_cell_length_b 8.716828
_cell_length_c 8.737220
_cell_angle_alpha 64.074604
_cell_angle_beta 51.678978
_cell_angle_gamma 80.161350
_cell_volume 614.530985
_symmetry_space_group_name_H-M "P -1"
_symmetry_group_IT_number 2
_symmetry_cell_setting 'triclinic'
loop_
_space_group_symop_operation_xyz
x,y,z
-x,-y,-z
loop_
_atom_site_type_symbol
_atom_site_label
_atom_site_fract_x
_atom_site_fract_y
_atom_site_fract_z
Si Si1 0.256525 0.994503 0.013809
Si Si2 0.043336 0.809433 0.047452
Si Si3 0.075057 0.279040 0.123311
Si Si4 0.086994 0.530413 0.572577
Si Si5 0.491277 0.840070 0.464954
Si Si6 0.608762 0.223918 0.759348
Si Si7 0.398493 0.474261 0.749210
O O1 0.179681 0.836116 0.042083
O O2 0.365098 0.922890 0.077176
O O3 0.138437 0.095333 0.155184
O O4 0.345832 0.130783 0.763018
O O5 0.917834 0.662181 0.275926
O O6 0.051517 0.749363 0.892194
O O7 0.000000 0.000000 0.000000
O O8 0.005546 0.354335 0.295097
O O9 0.222811 0.414603 0.902218
O O10 0.251506 0.629543 0.390427
O O11 0.000000 0.500000 0.500000
O O12 0.390767 0.834748 0.394493
O O13 0.436604 0.671429 0.684583
O O14 0.500000 0.000000 0.500000
O O15 0.465851 0.325077 0.851780
O O16 0.500000 0.500000 0.500000
#
# Coordination Sequence:
#
# PCOD9019395 Si02
#       7
#     2   2   2   2   2   2   2
#     4  11  23  45  67 102 137 178 225 282 341 397
#     4  10  23  42  69  96 134 177 227 277 335 399
#     4  11  24  44  73  96 139 181 228 280 338 402
#     4  12  26  46  67 103 136 180 231 278 339 405
#     4  11  25  41  70 103 134 175 231 275 337 406
#     4  11  24  46  71  92 145 178 221 283 337 402
#     4  10  21  44  71  97 132 179 227 275 339 405
#
# _framework density 22.781603
#
# number of rings (size 3 to 8) (size 9 to 14) (size 15 to 20)
#    0.000    1.143    4.286    2.571    6.000    0.571 
#    2.571    1.429    0.000    0.000    0.000    0.000 
#    0.000    0.000    0.000    0.000    0.000    0.000 
#
# Total GULP energy -78089.396577 kJ/mol
# GULP energy per Si atom -5577.814041 kJ/mol
# Density = 2.272975 g / cm^3
# Si number density = 22.781603 Si / 1000 Ang^3
#
#
#
# Elastic Constant Matrix: (Units=GPa)
#
#
# Indices 1 2 3 4 5 6 
#
# 1 145.1731 62.7922 17.0406 7.0897 12.7413 19.1928
# 2 62.7922 155.1536 28.4051 3.5028 12.6154 15.3126
# 3 17.0406 28.4051 38.4205 2.2155 -3.3321 3.4952
# 4 7.0897 3.5028 2.2155 35.9789 3.4333 5.2541
# 5 12.7413 12.6154 -3.3321 3.4333 35.2684 -8.6358
# 6 19.1928 15.3126 3.4952 5.2541 -8.6358 53.7938
#
#
#
# Elastic Compliance Matrix: (Units=1/GPa)
#
#
# Indices 1 2 3 4 5 6 
#
# 1 0.008959 -0.002745 -0.001921 -0.000695 -0.003032 -0.002709
# 2 -0.002745 0.009010 -0.005596 0.000582 -0.003258 -0.001802
# 3 -0.001921 -0.005596 0.031532 -0.001814 0.006195 0.001401
# 4 -0.000695 0.000582 -0.001814 0.028810 -0.003719 -0.003211
# 5 -0.003032 -0.003258 0.006195 -0.003719 0.033356 0.007325
# 6 -0.002709 -0.001802 0.001401 -0.003211 0.007325 0.021467
#
#
# Mechanical properties :
#
#
# Convention : Reuss Voigt Hill
#
# Bulk Modulus (GPa) = 34.50980 61.69141 48.10061
# Shear Modulus (GPa) = 30.61537 40.37551 35.49544
#
# Velocity S-wave (km/s) = 3.66985 4.21442 3.95153
# Velocity P-wave (km/s) = 5.75657 7.12882 6.47912
#
# Compressibility (1/GPa) = 0.02897728
#
# Stress axis : x y z
#
# Youngs Moduli (GPa) = 111.61735 110.98636 31.71419
#
# Poissons Ratio (x) = 0.30461 0.06092
# Poissons Ratio (y) = 0.30634 0.17748
# Poissons Ratio (z) = 0.21441 0.62111
#
# Static dielectric constant tensor:
#      x y z
#    x 1.918630 -0.027410 0.019380 
#    y -0.027410 1.951910 -0.027340 
#    z 0.019380 -0.027340 1.878340 
# 
# From -- ./inp_files/243337.got.cif
#   From: 2010.05.17/outbox.cif.g08.bks.cpg/sg2_122_cif.got.tgz:243337.got - 2010.06.03 11:33:40.
