data_PCOD9019050
_publ_section_title
;
Structure prediction by ZEFSAII (Michael W. Deem and Ramdas Pophale) SiO2 
 PCOD9019050
Probable space group: P -1
;
_chemical_formula_sum "Si O2"
_cell_formula_units_Z 14
_cell_length_a 13.795920
_cell_length_b 9.446356
_cell_length_c 7.461821
_cell_angle_alpha 60.836576
_cell_angle_beta 102.446454
_cell_angle_gamma 134.927059
_cell_volume 588.059893
_symmetry_space_group_name_H-M "P -1"
_symmetry_group_IT_number 2
_symmetry_cell_setting 'triclinic'
loop_
_space_group_symop_operation_xyz
x,y,z
-x,-y,-z
loop_
_atom_site_type_symbol
_atom_site_label
_atom_site_fract_x
_atom_site_fract_y
_atom_site_fract_z
Si Si1 0.796646 0.027007 0.069548
Si Si2 0.624867 0.781969 0.783322
Si Si3 0.717888 0.300294 0.845183
Si Si4 0.661576 0.155175 0.506763
Si Si5 0.099878 0.328445 0.843625
Si Si6 0.124178 0.195412 0.557250
Si Si7 0.648396 0.471448 0.968081
O O1 0.767193 0.182049 0.017384
O O2 0.955729 0.216112 0.941526
O O3 0.698782 0.865590 0.958474
O O4 0.791992 0.872964 0.305940
O O5 0.628005 0.620308 0.774741
O O6 0.694092 0.007094 0.567255
O O7 0.463588 0.641114 0.847210
O O8 0.667545 0.188981 0.700471
O O9 0.808960 0.567501 0.660012
O O10 0.620254 0.278122 0.963716
O O11 0.785411 0.401358 0.320066
O O12 0.500000 0.000000 0.500000
O O13 0.074708 0.205553 0.725255
O O14 0.193958 0.338062 0.014734
O O15 0.000000 0.000000 0.500000
#
# Coordination Sequence:
#
# PCOD9019050 Si02
#       7
#     2   2   2   2   2   2   2
#     4  11  24  46  68  99 137 182 222 274 341 401
#     4  10  23  41  73  94 134 179 229 264 351 396
#     4  10  26  43  68 102 139 168 234 279 326 402
#     4  10  21  44  67  99 136 176 222 278 333 401
#     4  11  23  42  73  95 137 176 227 274 335 404
#     4  11  24  42  68 101 141 173 222 280 337 393
#     4  11  22  44  69  99 131 179 225 280 327 408
#
# _framework density 23.807098
#
# number of rings (size 3 to 8) (size 9 to 14) (size 15 to 20)
#    0.000    1.429    2.857    1.286    2.000    9.714 
#    2.571    1.429    0.000    0.000    0.000    0.000 
#    0.000    0.000    0.000    0.000    0.000    0.000 
#
# Total GULP energy -78040.804666 kJ/mol
# GULP energy per Si atom -5574.343190 kJ/mol
# Density = 2.375291 g / cm^3
# Si number density = 23.807098 Si / 1000 Ang^3
#
#
#
# Elastic Constant Matrix: (Units=GPa)
#
#
# Indices 1 2 3 4 5 6 
#
# 1 130.8220 33.3197 31.1984 -23.4521 14.1262 -36.8947
# 2 33.3197 75.2390 23.8049 -25.4156 13.6538 -3.8254
# 3 31.1984 23.8049 88.9709 -27.2154 19.0084 -13.8945
# 4 -23.4521 -25.4156 -27.2154 41.4983 -9.9037 7.9036
# 5 14.1262 13.6538 19.0084 -9.9037 42.2893 -13.3570
# 6 -36.8947 -3.8254 -13.8945 7.9036 -13.3570 52.1250
#
#
#
# Elastic Compliance Matrix: (Units=1/GPa)
#
#
# Indices 1 2 3 4 5 6 
#
# 1 0.011201 -0.003616 -0.001388 0.002026 0.000795 0.007189
# 2 -0.003616 0.018521 -0.000881 0.008575 -0.003516 -0.003636
# 3 -0.001388 -0.000881 0.015278 0.007562 -0.004085 0.000832
# 4 0.002026 0.008575 0.007562 0.035951 0.001242 -0.001054
# 5 0.000795 -0.003516 -0.004085 0.001242 0.028656 0.006370
# 6 0.007189 -0.003636 0.000832 -0.001054 0.006370 0.026020
#
#
# Mechanical properties :
#
#
# Convention : Reuss Voigt Hill
#
# Bulk Modulus (GPa) = 30.09231 52.40868 41.25049
# Shear Modulus (GPa) = 31.55138 40.96311 36.25725
#
# Velocity S-wave (km/s) = 3.64441 4.15254 3.90675
# Velocity P-wave (km/s) = 5.51148 6.71217 6.14124
#
# Compressibility (1/GPa) = 0.03323108
#
# Stress axis : x y z
#
# Youngs Moduli (GPa) = 89.28079 53.99320 65.45360
#
# Poissons Ratio (x) = 0.19521 0.09082
# Poissons Ratio (y) = 0.32280 0.05767
# Poissons Ratio (z) = 0.12388 0.04757
#
# Static dielectric constant tensor:
#      x y z
#    x 1.990520 -0.013030 0.088560 
#    y -0.013030 1.897490 -0.029750 
#    z 0.088560 -0.029750 2.047830 
# 
# From -- ./inp_files/242608.got.cif
#   From: 2010.05.17/outbox.cif.g08.bks.cpg/sg2_122_cif.got.tgz:242608.got - 2010.06.03 11:33:40.
