data_PCOD9019447
_publ_section_title
;
Structure prediction by ZEFSAII (Michael W. Deem and Ramdas Pophale) SiO2 
 PCOD9019447
Probable space group: P -1
;
_chemical_formula_sum "Si O2"
_cell_formula_units_Z 14
_cell_length_a 5.243653
_cell_length_b 5.318019
_cell_length_c 21.693360
_cell_angle_alpha 107.010000
_cell_angle_beta 63.229060
_cell_angle_gamma 96.495544
_cell_volume 516.346723
_symmetry_space_group_name_H-M "P -1"
_symmetry_group_IT_number 2
_symmetry_cell_setting 'triclinic'
loop_
_space_group_symop_operation_xyz
x,y,z
-x,-y,-z
loop_
_atom_site_type_symbol
_atom_site_label
_atom_site_fract_x
_atom_site_fract_y
_atom_site_fract_z
Si Si1 0.896930 0.794708 0.905737
Si Si2 0.047175 0.650689 0.294222
Si Si3 0.215869 0.905963 0.416299
Si Si4 0.056242 0.915003 0.769596
Si Si5 0.342983 0.460819 0.449611
Si Si6 0.621503 0.646540 0.178889
Si Si7 0.250128 0.277138 0.956998
O O1 0.092739 0.531366 0.858194
O O2 0.830730 0.890129 0.850306
O O3 0.666087 0.755541 0.982841
O O4 0.103258 0.013248 0.928930
O O5 0.043010 0.781686 0.370856
O O6 0.010584 0.881389 0.263918
O O7 0.374895 0.549377 0.241973
O O8 0.887709 0.379741 0.281272
O O9 0.417000 0.685598 0.409352
O O10 0.383539 0.165763 0.399422
O O11 0.000000 0.000000 0.500000
O O12 0.316745 0.057974 0.785143
O O13 0.500000 0.500000 0.500000
O O14 0.000000 0.500000 0.500000
O O15 0.541791 0.640164 0.114854
O O16 0.000000 0.500000 0.000000
#
# Coordination Sequence:
#
# PCOD9019447 Si02
#       7
#     2   2   2   2   2   2   2
#     4   9  17  38  64  94 129 180 222 275 348 391
#     4  12  26  44  68  98 136 177 230 277 351 412
#     4  10  23  47  67  99 136 177 227 291 354 424
#     4  11  24  43  65  97 136 175 225 284 336 415
#     4  10  21  44  72 103 140 180 228 292 355 426
#     4  10  22  42  65  95 133 179 226 281 347 402
#     4   8  16  32  65  90 131 177 218 279 341 400
#
# _framework density 27.113562000000002
#
# number of rings (size 3 to 8) (size 9 to 14) (size 15 to 20)
#    0.000    2.000    1.429    1.286    4.000    0.000 
#   15.429    1.429    0.000    0.000    0.000    0.000 
#    0.000    0.000    0.000    0.000    0.000    0.000 
#
# Total GULP energy -78368.495179 kJ/mol
# GULP energy per Si atom -5597.749656 kJ/mol
# Density = 2.705185 g / cm^3
# Si number density = 27.113562 Si / 1000 Ang^3
#
#
#
# Elastic Constant Matrix: (Units=GPa)
#
#
# Indices 1 2 3 4 5 6 
#
# 1 92.3100 43.0781 50.0627 4.5114 18.0146 -4.6600
# 2 43.0781 227.7706 73.6361 17.1643 30.3362 -14.5613
# 3 50.0627 73.6361 199.8820 13.0437 41.2338 -2.1205
# 4 4.5114 17.1643 13.0437 49.0503 2.8952 16.2578
# 5 18.0146 30.3362 41.2338 2.8952 54.0469 -3.7021
# 6 -4.6600 -14.5613 -2.1205 16.2578 -3.7021 44.2890
#
#
#
# Elastic Compliance Matrix: (Units=1/GPa)
#
#
# Indices 1 2 3 4 5 6 
#
# 1 0.013182 -0.001426 -0.002404 -0.000220 -0.001697 0.000742
# 2 -0.001426 0.005558 -0.001229 -0.002162 -0.001434 0.002292
# 3 -0.002404 -0.001229 0.006880 -0.000849 -0.003735 -0.000328
# 4 -0.000220 -0.002162 -0.000849 0.024651 -0.000059 -0.009829
# 5 -0.001697 -0.001434 -0.003735 -0.000059 0.022801 0.001099
# 6 0.000742 0.002292 -0.000328 -0.009829 0.001099 0.027095
#
#
# Mechanical properties :
#
#
# Convention : Reuss Voigt Hill
#
# Bulk Modulus (GPa) = 64.50940 94.83516 79.67228
# Shear Modulus (GPa) = 43.30829 53.02295 48.16562
#
# Velocity S-wave (km/s) = 4.00095 4.42700 4.21936
# Velocity P-wave (km/s) = 6.72216 7.82202 7.29286
#
# Compressibility (1/GPa) = 0.01550162
#
# Stress axis : x y z
#
# Youngs Moduli (GPa) = 75.86379 179.92523 145.34233
#
# Poissons Ratio (x) = 0.25655 0.34940
# Poissons Ratio (y) = 0.10817 0.17866
# Poissons Ratio (z) = 0.18237 0.22117
#
# Static dielectric constant tensor:
#      x y z
#    x 1.970130 -0.071530 0.066960 
#    y -0.071530 2.166390 -0.012190 
#    z 0.066960 -0.012190 2.028860 
# 
# From -- ./inp_files/121602.got.cif
#   From: 2010.05.17/outbox.cif.g08.bks.cpg/sg2_61_cif.got.tgz:121602.got - 2010.06.03 11:33:40.
