data_PCOD9019862
_publ_section_title
;
Structure prediction by ZEFSAII (Michael W. Deem and Ramdas Pophale) SiO2 
 PCOD9019862
Probable space group: P -1
;
_chemical_formula_sum "Si O2"
_cell_formula_units_Z 14
_cell_length_a 13.577148
_cell_length_b 9.893703
_cell_length_c 12.614606
_cell_angle_alpha 112.577100
_cell_angle_beta 32.233258
_cell_angle_gamma 88.703353
_cell_volume 591.551092
_symmetry_space_group_name_H-M "P -1"
_symmetry_group_IT_number 2
_symmetry_cell_setting 'triclinic'
loop_
_space_group_symop_operation_xyz
x,y,z
-x,-y,-z
loop_
_atom_site_type_symbol
_atom_site_label
_atom_site_fract_x
_atom_site_fract_y
_atom_site_fract_z
Si Si1 0.043036 0.839569 0.490173
Si Si2 0.494816 0.067820 0.702857
Si Si3 0.737797 0.224075 0.506931
Si Si4 0.404279 0.503255 0.473959
Si Si5 0.962505 0.476080 0.648957
Si Si6 0.108904 0.094806 0.971472
Si Si7 0.508993 0.846301 0.805186
O O1 0.246421 0.760303 0.376591
O O2 0.128395 0.641651 0.297667
O O3 0.000000 0.000000 0.500000
O O4 0.752090 0.970431 0.838916
O O5 0.698222 0.073407 0.477733
O O6 0.590485 0.931902 0.679391
O O7 0.248127 0.305449 0.034466
O O8 0.395642 0.997620 0.691604
O O9 0.562980 0.407735 0.632628
O O10 0.017449 0.130035 0.187830
O O11 0.500000 0.500000 0.500000
O O12 0.089793 0.674187 0.824112
O O13 0.529673 0.280443 0.263888
O O14 0.247027 0.328634 0.396013
O O15 0.000000 0.500000 0.500000
O O16 0.000000 0.000000 0.000000
#
# Coordination Sequence:
#
# PCOD9019862 Si02
#       7
#     2   2   2   2   2   2   2
#     4  12  26  41  67 103 139 189 230 282 344 407
#     4  12  24  45  71  98 140 180 229 291 338 414
#     4  10  25  45  67 104 135 180 232 281 343 414
#     4  10  22  43  70  99 133 182 221 287 354 401
#     4  12  24  43  65  97 136 187 233 275 346 401
#     4  10  21  45  70  96 137 176 224 286 351 396
#     4  12  23  45  67  99 142 178 237 285 341 419
#
# _framework density 23.666595000000001
#
# number of rings (size 3 to 8) (size 9 to 14) (size 15 to 20)
#    0.857    0.000    4.286    3.000    4.000    1.143 
#    0.000    0.714    0.000    0.000    0.000    0.000 
#    0.000    0.000    0.000    0.000    0.000    0.000 
#
# Total GULP energy -78126.501091 kJ/mol
# GULP energy per Si atom -5580.464364 kJ/mol
# Density = 2.361273 g / cm^3
# Si number density = 23.666595 Si / 1000 Ang^3
#
#
#
# Elastic Constant Matrix: (Units=GPa)
#
#
# Indices 1 2 3 4 5 6 
#
# 1 144.8197 43.3619 10.3780 9.7627 -13.0018 -11.3503
# 2 43.3619 160.4212 8.9294 1.2306 4.4786 -14.3518
# 3 10.3780 8.9294 46.7618 9.6387 -9.1167 -16.9869
# 4 9.7627 1.2306 9.6387 45.7958 0.3715 0.6920
# 5 -13.0018 4.4786 -9.1167 0.3715 30.3616 11.5095
# 6 -11.3503 -14.3518 -16.9869 0.6920 11.5095 48.3861
#
#
#
# Elastic Compliance Matrix: (Units=1/GPa)
#
#
# Indices 1 2 3 4 5 6 
#
# 1 0.008046 -0.002223 -0.000200 -0.001647 0.003611 0.000322
# 2 -0.002223 0.007142 -0.000817 0.000448 -0.003023 0.002023
# 3 -0.000200 -0.000817 0.026635 -0.005702 0.005096 0.007931
# 4 -0.001647 0.000448 -0.005702 0.023423 -0.001966 -0.002123
# 5 0.003611 -0.003023 0.005096 -0.001966 0.039362 -0.007595
# 6 0.000322 0.002023 0.007931 -0.002123 -0.007595 0.025964
#
#
# Mechanical properties :
#
#
# Convention : Reuss Voigt Hill
#
# Bulk Modulus (GPa) = 28.29554 53.03792 40.66673
# Shear Modulus (GPa) = 33.59435 44.19757 38.89596
#
# Velocity S-wave (km/s) = 3.77169 4.32616 4.05840
# Velocity P-wave (km/s) = 5.56322 6.88573 6.25950
#
# Compressibility (1/GPa) = 0.03534126
#
# Stress axis : x y z
#
# Youngs Moduli (GPa) = 124.29154 140.01964 37.54398
#
# Poissons Ratio (x) = 0.31125 0.00753
# Poissons Ratio (y) = 0.27629 0.03069
# Poissons Ratio (z) = 0.02492 0.11445
#
# Static dielectric constant tensor:
#      x y z
#    x 1.990410 0.029070 0.047590 
#    y 0.029070 1.903900 0.015830 
#    z 0.047590 0.015830 1.954570 
# 
# From -- ./inp_files/528871.got.cif
#   From: 2010.05.17/outbox.cif.g08.bks.cpg/sg2_265_cif.got.tgz:528871.got - 2010.06.03 11:33:40.
