data_PCOD9019492
_publ_section_title
;
Structure prediction by ZEFSAII (Michael W. Deem and Ramdas Pophale) SiO2 
 PCOD9019492
Probable space group: P -1
;
_chemical_formula_sum "Si O2"
_cell_formula_units_Z 12
_cell_length_a 13.795713
_cell_length_b 11.490211
_cell_length_c 15.086159
_cell_angle_alpha 26.862912
_cell_angle_beta 153.371528
_cell_angle_gamma 147.990426
_cell_volume 469.021074
_symmetry_space_group_name_H-M "P -1"
_symmetry_group_IT_number 2
_symmetry_cell_setting 'triclinic'
loop_
_space_group_symop_operation_xyz
x,y,z
-x,-y,-z
loop_
_atom_site_type_symbol
_atom_site_label
_atom_site_fract_x
_atom_site_fract_y
_atom_site_fract_z
Si Si1 0.136243 0.453753 0.451054
Si Si2 0.151319 0.480807 0.248629
Si Si3 0.722683 0.663020 0.023881
Si Si4 0.664620 0.289354 0.929857
Si Si5 0.952659 0.948683 0.192595
Si Si6 0.420989 0.233312 0.352776
O O1 0.183984 0.370209 0.447455
O O2 0.155818 0.251339 0.682715
O O3 0.324883 0.724583 0.439393
O O4 0.891557 0.503807 0.227217
O O5 0.329792 0.554269 0.265459
O O6 0.925156 0.289199 0.155023
O O7 0.106603 0.769803 0.036913
O O8 0.869959 0.832925 0.107404
O O9 0.500000 0.500000 0.000000
O O10 0.625285 0.782488 0.778173
O O11 0.619281 0.487616 0.833188
O O12 0.500000 0.000000 0.000000
O O13 0.220929 0.005191 0.384096
#
# Coordination Sequence:
#
# PCOD9019492 Si02
#       6
#     2   2   2   2   2   2
#     4  12  25  45  70 105 138 182 232 279 347 411
#     4  10  24  44  70 102 139 177 231 282 339 408
#     4  12  25  46  71 100 145 181 227 290 340 406
#     4  10  21  44  72  98 139 181 222 290 341 396
#     4  11  24  45  69 103 141 182 229 282 340 410
#     4  11  25  45  69 105 137 181 236 276 349 412
#
# _framework density 25.585204999999998
#
# number of rings (size 3 to 8) (size 9 to 14) (size 15 to 20)
#    0.000    1.000    5.000    2.000    0.000    4.000 
#    0.000   11.667    0.000    0.000    0.000    0.000 
#    0.000    0.000    0.000    0.000    0.000    0.000 
#
# Total GULP energy -67181.684388 kJ/mol
# GULP energy per Si atom -5598.473699 kJ/mol
# Density = 2.552697 g / cm^3
# Si number density = 25.585205 Si / 1000 Ang^3
#
#
#
# Elastic Constant Matrix: (Units=GPa)
#
#
# Indices 1 2 3 4 5 6 
#
# 1 158.5143 74.5274 29.3352 5.4845 -31.9441 17.6875
# 2 74.5274 176.5636 22.4385 22.4274 -20.1147 16.1233
# 3 29.3352 22.4385 81.6381 21.4905 -32.6573 1.7421
# 4 5.4845 22.4274 21.4905 31.6426 -4.3967 7.9533
# 5 -31.9441 -20.1147 -32.6573 -4.3967 57.2858 11.0019
# 6 17.6875 16.1233 1.7421 7.9533 11.0019 54.0760
#
#
#
# Elastic Compliance Matrix: (Units=1/GPa)
#
#
# Indices 1 2 3 4 5 6 
#
# 1 0.009223 -0.003357 -0.001605 0.003229 0.003919 -0.003236
# 2 -0.003357 0.007826 0.000900 -0.005238 0.001126 -0.000723
# 3 -0.001605 0.000900 0.019763 -0.012266 0.009858 -0.000582
# 4 0.003229 -0.005238 -0.012266 0.043974 -0.002693 -0.005019
# 5 0.003919 0.001126 0.009858 -0.002693 0.026792 -0.006990
# 6 -0.003236 -0.000723 -0.000582 -0.005019 -0.006990 0.021946
#
#
# Mechanical properties :
#
#
# Convention : Reuss Voigt Hill
#
# Bulk Modulus (GPa) = 34.85715 74.36867 54.61291
# Shear Modulus (GPa) = 33.96477 47.96189 40.96333
#
# Velocity S-wave (km/s) = 3.64746 4.33436 4.00566
# Velocity P-wave (km/s) = 5.60287 7.36064 6.54107
#
# Compressibility (1/GPa) = 0.02868851
#
# Stress axis : x y z
#
# Youngs Moduli (GPa) = 108.42311 127.77872 50.59880
#
# Poissons Ratio (x) = 0.42899 0.08119
# Poissons Ratio (y) = 0.36401 -0.04554
# Poissons Ratio (z) = 0.17398 -0.11500
#
# Static dielectric constant tensor:
#      x y z
#    x 2.028070 0.007560 0.058470 
#    y 0.007560 1.963760 0.026440 
#    z 0.058470 0.026440 2.079970 
# 
# From -- ./inp_files/531561.got.cif
#   From: 2010.05.17/outbox.cif.g08.bks.cpg/sg2_266_cif.got.tgz:531561.got - 2010.06.03 11:33:40.
