data_PCOD9019309
_publ_section_title
;
Structure prediction by ZEFSAII (Michael W. Deem and Ramdas Pophale) SiO2 
 PCOD9019309
Probable space group: P -1
;
_chemical_formula_sum "Si O2"
_cell_formula_units_Z 10
_cell_length_a 5.211299
_cell_length_b 16.368010
_cell_length_c 16.751179
_cell_angle_alpha 18.253753
_cell_angle_beta 121.177258
_cell_angle_gamma 123.874538
_cell_volume 371.213447
_symmetry_space_group_name_H-M "P -1"
_symmetry_group_IT_number 2
_symmetry_cell_setting 'triclinic'
loop_
_space_group_symop_operation_xyz
x,y,z
-x,-y,-z
loop_
_atom_site_type_symbol
_atom_site_label
_atom_site_fract_x
_atom_site_fract_y
_atom_site_fract_z
Si Si1 0.757622 0.589616 0.526832
Si Si2 0.002144 0.283388 0.095495
Si Si3 0.460709 0.248930 0.317485
Si Si4 0.125737 0.935239 0.994973
Si Si5 0.353776 0.311130 0.411202
O O1 0.500000 0.500000 0.500000
O O2 0.573306 0.589664 0.578880
O O3 0.955142 0.872898 0.263243
O O4 0.962519 0.372684 0.761380
O O5 0.304829 0.470504 0.928779
O O6 0.753048 0.441536 0.878448
O O7 0.115305 0.271039 0.217096
O O8 0.896213 0.970228 0.347279
O O9 0.515239 0.207817 0.457527
O O10 0.500000 0.000000 0.500000
O O11 0.500000 0.000000 0.000000
O O12 0.000000 0.000000 0.000000
#
# Coordination Sequence:
#
# PCOD9019309 Si02
#       5
#     2   2   2   2   2
#     4  10  23  46  67 101 136 187 233 295 357 417
#     4  11  25  43  67 102 133 182 230 281 356 420
#     4  11  25  44  70 103 141 180 230 290 356 418
#     4  10  21  44  70  97 133 185 237 294 358 420
#     4  12  25  44  69 100 144 180 238 283 353 423
#
# _framework density 26.938680000000002
#
# number of rings (size 3 to 8) (size 9 to 14) (size 15 to 20)
#    0.000    1.200    2.000    3.000    5.600    0.000 
#   21.600    0.000    0.000    0.000    0.000    0.000 
#    0.000    0.000    0.000    0.000    0.000    0.000 
#
# Total GULP energy -55857.179960 kJ/mol
# GULP energy per Si atom -5585.717996 kJ/mol
# Density = 2.687737 g / cm^3
# Si number density = 26.938680 Si / 1000 Ang^3
#
#
#
# Elastic Constant Matrix: (Units=GPa)
#
#
# Indices 1 2 3 4 5 6 
#
# 1 96.1488 45.5888 37.0827 -1.4472 -6.5239 -48.9026
# 2 45.5888 202.7035 44.9534 26.5168 -11.3603 -61.2456
# 3 37.0827 44.9534 214.8183 -3.6328 -0.6081 -27.4436
# 4 -1.4472 26.5168 -3.6328 39.1529 -10.6528 -9.0415
# 5 -6.5239 -11.3603 -0.6081 -10.6528 40.0799 8.3245
# 6 -48.9026 -61.2456 -27.4436 -9.0415 8.3245 46.2224
#
#
#
# Elastic Compliance Matrix: (Units=1/GPa)
#
#
# Indices 1 2 3 4 5 6 
#
# 1 0.025643 0.003397 -0.000914 0.006018 0.000022 0.032262
# 2 0.003397 0.009153 -0.000649 -0.002890 -0.000726 0.014903
# 3 -0.000914 -0.000649 0.005161 0.001163 -0.000259 0.001511
# 4 0.006018 -0.002890 0.001163 0.031586 0.006877 0.008169
# 5 0.000022 -0.000726 -0.000259 0.006877 0.027550 -0.004709
# 6 0.032262 0.014903 0.001511 0.008169 -0.004709 0.078857
#
#
# Mechanical properties :
#
#
# Convention : Reuss Voigt Hill
#
# Bulk Modulus (GPa) = 22.92235 85.43559 54.17897
# Shear Modulus (GPa) = 26.47972 50.82741 38.65356
#
# Velocity S-wave (km/s) = 3.13862 4.34842 3.79208
# Velocity P-wave (km/s) = 4.65426 7.54953 6.27127
#
# Compressibility (1/GPa) = 0.04362555
#
# Stress axis : x y z
#
# Youngs Moduli (GPa) = 38.99633 109.25056 193.77234
#
# Poissons Ratio (x) = -0.37114 0.17714
# Poissons Ratio (y) = -0.13248 0.12575
# Poissons Ratio (z) = 0.03565 0.07090
#
# Static dielectric constant tensor:
#      x y z
#    x 2.072520 -0.046680 -0.030010 
#    y -0.046680 2.109070 -0.066350 
#    z -0.030010 -0.066350 2.384080 
# 
# From -- ./inp_files/2342.got.cif
#   From: 2010.05.17/outbox.cif.g08.bks.cpg/sg2_2_cif.got.tgz:2342.got - 2010.06.03 11:33:40.
