data_PCOD9019632
_publ_section_title
;
Structure prediction by ZEFSAII (Michael W. Deem and Ramdas Pophale) SiO2 
 PCOD9019632
Probable space group: P -1
;
_chemical_formula_sum "Si O2"
_cell_formula_units_Z 14
_cell_length_a 19.687871
_cell_length_b 9.941499
_cell_length_c 23.364504
_cell_angle_alpha 33.718084
_cell_angle_beta 16.484155
_cell_angle_gamma 29.671778
_cell_volume 642.324401
_symmetry_space_group_name_H-M "P -1"
_symmetry_group_IT_number 2
_symmetry_cell_setting 'triclinic'
loop_
_space_group_symop_operation_xyz
x,y,z
-x,-y,-z
loop_
_atom_site_type_symbol
_atom_site_label
_atom_site_fract_x
_atom_site_fract_y
_atom_site_fract_z
Si Si1 0.593211 0.521609 0.527605
Si Si2 0.283704 0.361937 0.926724
Si Si3 0.515169 0.703500 0.088632
Si Si4 0.306817 0.077437 0.493970
Si Si5 0.064479 0.311733 0.721930
Si Si6 0.107830 0.060438 0.950876
Si Si7 0.946896 0.011620 0.715273
O O1 0.427421 0.402057 0.740884
O O2 0.420439 0.767026 0.537064
O O3 0.726740 0.654081 0.416629
O O4 0.833646 0.258257 0.397988
O O5 0.432349 0.389607 0.854710
O O6 0.427020 0.906138 0.748079
O O7 0.993316 0.621772 0.072575
O O8 0.238964 0.762756 0.259881
O O9 0.771758 0.529316 0.903197
O O10 0.758139 0.906175 0.939696
O O11 0.500000 0.000000 0.000000
O O12 0.101437 0.113881 0.597061
O O13 0.162528 0.291377 0.585469
O O14 0.042000 0.034285 0.848352
O O15 0.000000 0.000000 0.000000
#
# Coordination Sequence:
#
# PCOD9019632 Si02
#       7
#     2   2   2   2   2   2   2
#     4  12  22  39  69  96 122 165 213 258 317 369
#     4  11  22  38  70  93 123 167 215 259 304 371
#     4  10  21  45  64  88 128 170 210 257 304 374
#     4  12  25  38  66  98 130 162 206 263 325 363
#     4  12  23  40  68  96 122 163 219 262 303 376
#     4  12  20  39  65  96 126 158 208 270 313 355
#     4  11  25  45  58  94 138 167 202 260 310 380
#
# _framework density 21.795840999999999
#
# number of rings (size 3 to 8) (size 9 to 14) (size 15 to 20)
#    0.000    0.571    8.571    1.714    0.000    2.857 
#    0.000    0.714    0.000    0.000    0.000    0.000 
#    0.000    0.000    0.000    0.000    0.000    0.000 
#
# Total GULP energy -78241.424305 kJ/mol
# GULP energy per Si atom -5588.673165 kJ/mol
# Density = 2.174623 g / cm^3
# Si number density = 21.795841 Si / 1000 Ang^3
#
#
#
# Elastic Constant Matrix: (Units=GPa)
#
#
# Indices 1 2 3 4 5 6 
#
# 1 59.4890 -9.8230 33.8658 -5.3105 -21.3166 14.4272
# 2 -9.8230 23.7250 -8.9999 1.7583 0.5848 -2.6019
# 3 33.8658 -8.9999 92.4807 -13.2922 -0.3680 4.2516
# 4 -5.3105 1.7583 -13.2922 38.5661 -2.5863 -5.6671
# 5 -21.3166 0.5848 -0.3680 -2.5863 45.5933 -10.0615
# 6 14.4272 -2.6019 4.2516 -5.6671 -10.0615 23.2049
#
#
#
# Elastic Compliance Matrix: (Units=1/GPa)
#
#
# Indices 1 2 3 4 5 6 
#
# 1 0.030593 0.007373 -0.009980 -0.000472 0.011572 -0.011463
# 2 0.007373 0.045953 0.001704 -0.000033 0.003234 0.001650
# 3 -0.009980 0.001704 0.015046 0.003928 -0.003681 0.003003
# 4 -0.000472 -0.000033 0.003928 0.028600 0.003185 0.007936
# 5 0.011572 0.003234 -0.003681 0.003185 0.029045 0.007214
# 6 -0.011463 0.001650 0.003003 0.007936 0.007214 0.054922
#
#
# Mechanical properties :
#
#
# Convention : Reuss Voigt Hill
#
# Bulk Modulus (GPa) = 11.13759 22.86450 17.00105
# Shear Modulus (GPa) = 21.19610 32.18298 26.68954
#
# Velocity S-wave (km/s) = 3.12185 3.84678 3.50312
# Velocity P-wave (km/s) = 4.25625 5.49940 4.91727
#
# Compressibility (1/GPa) = 0.08978600
#
# Stress axis : x y z
#
# Youngs Moduli (GPa) = 32.68676 21.76153 66.46502
#
# Poissons Ratio (x) = -0.16046 0.66334
# Poissons Ratio (y) = -0.24101 -0.11327
# Poissons Ratio (z) = 0.32622 -0.03709
#
# Static dielectric constant tensor:
#      x y z
#    x 1.817100 -0.045410 -0.003350 
#    y -0.045410 1.826720 0.004680 
#    z -0.003350 0.004680 1.796890 
# 
# From -- ./inp_files/164879.got.cif
#   From: 2010.05.17/outbox.cif.g08.bks.cpg/sg2_83_cif.got.tgz:164879.got - 2010.06.03 11:33:40.
