data_PCOD9019150
_publ_section_title
;
Structure prediction by ZEFSAII (Michael W. Deem and Ramdas Pophale) SiO2 
 PCOD9019150
Probable space group: P -1
;
_chemical_formula_sum "Si O2"
_cell_formula_units_Z 16
_cell_length_a 18.961005
_cell_length_b 12.290450
_cell_length_c 22.195450
_cell_angle_alpha 38.162123
_cell_angle_beta 19.368277
_cell_angle_gamma 27.676711
_cell_volume 755.028781
_symmetry_space_group_name_H-M "P -1"
_symmetry_group_IT_number 2
_symmetry_cell_setting 'triclinic'
loop_
_space_group_symop_operation_xyz
x,y,z
-x,-y,-z
loop_
_atom_site_type_symbol
_atom_site_label
_atom_site_fract_x
_atom_site_fract_y
_atom_site_fract_z
Si Si1 0.219942 0.269891 0.077699
Si Si2 0.046720 0.984219 0.784547
Si Si3 0.402273 0.960189 0.960163
Si Si4 0.588102 0.461507 0.517140
Si Si5 0.791801 0.790159 0.526304
Si Si6 0.518326 0.377605 0.854908
Si Si7 0.170418 0.055093 0.442199
Si Si8 0.768563 0.119499 0.080178
O O1 0.904760 0.376150 0.305386
O O2 0.268331 0.442071 0.984276
O O3 0.500000 0.000000 0.000000
O O4 0.241396 0.214362 0.013850
O O5 0.345197 0.707329 0.644610
O O6 0.077472 0.161047 0.653140
O O7 0.786849 0.018806 0.948584
O O8 0.956142 0.041525 0.902175
O O9 0.710340 0.856202 0.732811
O O10 0.434722 0.791735 0.056944
O O11 0.500000 0.500000 0.500000
O O12 0.643690 0.229829 0.594365
O O13 0.788084 0.912961 0.535564
O O14 0.456632 0.915518 0.727888
O O15 0.000000 0.500000 0.500000
O O16 0.448778 0.593476 0.852767
O O17 0.823047 0.219729 0.641268
O O18 0.000000 0.000000 0.000000
#
# Coordination Sequence:
#
# PCOD9019150 Si02
#       8
#     2   2   2   2   2   2   2   2
#     4  10  21  44  68  98 143 182 222 290 355 408
#     4  12  26  46  74 104 147 191 233 294 363 415
#     4  11  22  42  74 110 129 186 240 284 366 415
#     4  12  22  44  71 103 146 180 231 289 356 430
#     4  12  24  46  75 104 137 185 245 295 337 426
#     4  11  24  47  69  99 150 180 236 303 343 418
#     4  12  23  41  74 108 133 180 240 290 346 422
#     4  12  30  48  67 105 145 190 242 291 358 423
#
# _framework density 21.191244000000001
#
# number of rings (size 3 to 8) (size 9 to 14) (size 15 to 20)
#    0.000    0.500    8.750    0.000    3.500    3.500 
#    4.500    0.000    0.000    0.000    0.000    0.000 
#    0.000    0.000    0.000    0.000    0.000    0.000 
#
# Total GULP energy -89393.685017 kJ/mol
# GULP energy per Si atom -5587.105314 kJ/mol
# Density = 2.114301 g / cm^3
# Si number density = 21.191244 Si / 1000 Ang^3
#
#
#
# Elastic Constant Matrix: (Units=GPa)
#
#
# Indices 1 2 3 4 5 6 
#
# 1 99.2226 -20.5162 85.7183 108.1331 -10.2237 154.4898
# 2 -20.5162 138.8113 -64.7516 -184.2182 3.7989 -213.1129
# 3 85.7183 -64.7516 328.2884 303.3476 -11.5627 370.8069
# 4 108.1331 -184.2182 303.3476 609.6078 -2.6624 689.2732
# 5 -10.2237 3.7989 -11.5627 -2.6624 44.5603 -8.1741
# 6 154.4898 -213.1129 370.8069 689.2732 -8.1741 851.7528
#
#
#
# Elastic Compliance Matrix: (Units=1/GPa)
#
#
# Indices 1 2 3 4 5 6 
#
# 1 0.016466 -0.002452 -0.001374 0.004693 0.002668 -0.006774
# 2 -0.002452 0.013273 -0.002083 0.002466 -0.001599 0.002661
# 3 -0.001374 -0.002083 0.006577 -0.001422 0.001122 -0.001974
# 4 0.004693 0.002466 -0.001422 0.021579 -0.001348 -0.017091
# 5 0.002668 -0.001599 0.001122 -0.001348 0.023390 -0.000057
# 6 -0.006774 0.002661 -0.001974 -0.017091 -0.000057 0.017758
#
#
# Mechanical properties :
#
#
# Convention : Reuss Voigt Hill
#
# Bulk Modulus (GPa) = 40.82240 63.02481 51.92361
# Shear Modulus (GPa) = 42.00724 338.90898 190.45811
#
# Velocity S-wave (km/s) = 4.45712 12.66001 9.49057
# Velocity P-wave (km/s) = 6.76709 15.60471 12.02706
#
# Compressibility (1/GPa) = 0.02449636
#
# Stress axis : x y z
#
# Youngs Moduli (GPa) = 60.73063 75.34331 152.05163
#
# Poissons Ratio (x) = 0.18477 0.20893
# Poissons Ratio (y) = 0.14893 0.31674
# Poissons Ratio (z) = 0.08345 0.15695
#
# Static dielectric constant tensor:
#      x y z
#    x 1.813750 0.040020 -0.025530 
#    y 0.040020 1.857970 0.008580 
#    z -0.025530 0.008580 1.753960 
# 
# From -- ./inp_files/273218.got.cif
#   From: 2010.05.17/outbox.cif.g08.bks.cpg/sg2_137_cif.got.tgz:273218.got - 2010.06.03 11:33:40.
