data_PCOD9019796
_publ_section_title
;
Structure prediction by ZEFSAII (Michael W. Deem and Ramdas Pophale) SiO2 
 PCOD9019796
Probable space group: P -1
;
_chemical_formula_sum "Si O2"
_cell_formula_units_Z 14
_cell_length_a 6.140607
_cell_length_b 16.352911
_cell_length_c 6.187637
_cell_angle_alpha 93.851667
_cell_angle_beta 76.682904
_cell_angle_gamma 97.333560
_cell_volume 599.229493
_symmetry_space_group_name_H-M "P -1"
_symmetry_group_IT_number 2
_symmetry_cell_setting 'triclinic'
loop_
_space_group_symop_operation_xyz
x,y,z
-x,-y,-z
loop_
_atom_site_type_symbol
_atom_site_label
_atom_site_fract_x
_atom_site_fract_y
_atom_site_fract_z
Si Si1 0.060106 0.178934 0.783007
Si Si2 0.521376 0.622639 0.872045
Si Si3 0.781216 0.028012 0.667640
Si Si4 0.487103 0.124788 0.430911
Si Si5 0.195238 0.729362 0.833721
Si Si6 0.069524 0.328828 0.496441
Si Si7 0.789185 0.538072 0.159653
O O1 0.298774 0.153472 0.644062
O O2 0.005000 0.242955 0.620024
O O3 0.882629 0.096451 0.826490
O O4 0.018665 0.230385 0.015819
O O5 0.324639 0.679954 0.972386
O O6 0.689647 0.670950 0.673447
O O7 0.402818 0.538428 0.776942
O O8 0.666539 0.597065 0.036305
O O9 0.648918 0.076824 0.533048
O O10 0.629229 0.941714 0.729034
O O11 0.000000 0.000000 0.500000
O O12 0.630716 0.199041 0.292128
O O13 0.110648 0.666878 0.650964
O O14 0.109095 0.407308 0.655778
O O15 0.000000 0.500000 0.000000
#
# Coordination Sequence:
#
# PCOD9019796 Si02
#       7
#     2   2   2   2   2   2   2
#     4  11  23  42  68 103 140 182 232 284 343 413
#     4  11  25  45  70  99 136 185 230 285 352 408
#     4   9  20  41  70  98 139 185 231 287 338 405
#     4  10  21  45  68  98 143 183 230 288 343 403
#     4  12  26  43  73 106 139 185 233 285 349 413
#     4  12  24  44  68 103 141 180 228 290 345 413
#     4  11  26  48  69 100 138 184 233 285 346 423
#
# _framework density 23.363333999999998
#
# number of rings (size 3 to 8) (size 9 to 14) (size 15 to 20)
#    0.000    1.143    2.857    3.000    0.000    8.571 
#    2.571    6.429    0.000    0.000    0.000    0.000 
#    0.000    0.000    0.000    0.000    0.000    0.000 
#
# Total GULP energy -78227.694475 kJ/mol
# GULP energy per Si atom -5587.692463 kJ/mol
# Density = 2.331016 g / cm^3
# Si number density = 23.363334 Si / 1000 Ang^3
#
#
#
# Elastic Constant Matrix: (Units=GPa)
#
#
# Indices 1 2 3 4 5 6 
#
# 1 110.7279 56.1644 43.8232 9.0720 -2.0812 -11.5691
# 2 56.1644 115.9490 45.3903 13.9221 0.5227 19.1173
# 3 43.8232 45.3903 72.2265 22.1983 -0.9756 2.1481
# 4 9.0720 13.9221 22.1983 35.5626 7.8797 -1.6874
# 5 -2.0812 0.5227 -0.9756 7.8797 27.9884 2.3612
# 6 -11.5691 19.1173 2.1481 -1.6874 2.3612 57.7782
#
#
#
# Elastic Compliance Matrix: (Units=1/GPa)
#
#
# Indices 1 2 3 4 5 6 
#
# 1 0.014845 -0.005925 -0.006291 0.002759 -0.000225 0.005257
# 2 -0.005925 0.014570 -0.004966 -0.001369 -0.000006 -0.005862
# 3 -0.006291 -0.004966 0.024854 -0.012954 0.004230 -0.001092
# 4 0.002759 -0.001369 -0.012954 0.038705 -0.011378 0.003082
# 5 -0.000225 -0.000006 0.004230 -0.011378 0.039243 -0.002136
# 6 0.005257 -0.005862 -0.001092 0.003082 -0.002136 0.020518
#
#
# Mechanical properties :
#
#
# Convention : Reuss Voigt Hill
#
# Bulk Modulus (GPa) = 50.23868 65.51768 57.87818
# Shear Modulus (GPa) = 25.80853 34.50087 30.15470
#
# Velocity S-wave (km/s) = 3.32725 3.84697 3.59651
# Velocity P-wave (km/s) = 6.02583 6.91636 6.48640
#
# Compressibility (1/GPa) = 0.01990498
#
# Stress axis : x y z
#
# Youngs Moduli (GPa) = 67.36128 68.63637 40.23460
#
# Poissons Ratio (x) = 0.40668 0.25312
# Poissons Ratio (y) = 0.39912 0.19980
# Poissons Ratio (z) = 0.42377 0.34085
#
# Static dielectric constant tensor:
#      x y z
#    x 1.870790 0.030390 0.008720 
#    y 0.030390 1.892620 0.016960 
#    z 0.008720 0.016960 1.857930 
# 
# From -- ./inp_files/6717.got.cif
#   From: 2010.05.17/outbox.cif.g08.bks.cpg/sg2_4_cif.got.tgz:6717.got - 2010.06.03 11:33:40.
