data_PCOD9019820
_publ_section_title
;
Structure prediction by ZEFSAII (Michael W. Deem and Ramdas Pophale) SiO2 
 PCOD9019820
Probable space group: P -1
;
_chemical_formula_sum "Si O2"
_cell_formula_units_Z 14
_cell_length_a 17.461446
_cell_length_b 10.623434
_cell_length_c 12.679157
_cell_angle_alpha 35.839843
_cell_angle_beta 24.613393
_cell_angle_gamma 44.871922
_cell_volume 569.690943
_symmetry_space_group_name_H-M "P -1"
_symmetry_group_IT_number 2
_symmetry_cell_setting 'triclinic'
loop_
_space_group_symop_operation_xyz
x,y,z
-x,-y,-z
loop_
_atom_site_type_symbol
_atom_site_label
_atom_site_fract_x
_atom_site_fract_y
_atom_site_fract_z
Si Si1 0.116071 0.661024 0.328336
Si Si2 0.318775 0.848306 0.358923
Si Si3 0.428143 0.401851 0.545361
Si Si4 0.276473 0.881589 0.641016
Si Si5 0.064479 0.131277 0.145975
Si Si6 0.467225 0.208127 0.329929
Si Si7 0.907161 0.630771 0.253000
O O1 0.077240 0.576482 0.553968
O O2 0.000000 0.500000 0.500000
O O3 0.077580 0.912799 0.209634
O O4 0.334394 0.662434 0.029178
O O5 0.357228 0.609408 0.440304
O O6 0.300836 0.878648 0.487056
O O7 0.119059 0.898924 0.533280
O O8 0.500000 0.000000 0.000000
O O9 0.500000 0.500000 0.500000
O O10 0.600237 0.301879 0.346351
O O11 0.261346 0.209187 0.898861
O O12 0.367958 0.107747 0.416821
O O13 0.064426 0.809279 0.985314
O O14 0.039364 0.332930 0.960868
O O15 0.304581 0.322587 0.507954
O O16 0.500000 0.000000 0.500000
#
# Coordination Sequence:
#
# PCOD9019820 Si02
#       7
#     2   2   2   2   2   2   2
#     4  12  27  42  69 106 143 186 235 277 343 431
#     4  10  24  42  70 101 132 179 237 293 343 411
#     4  10  21  45  69  94 133 181 230 287 349 402
#     4  10  22  41  70  95 137 180 227 284 355 405
#     4  11  24  48  69 100 144 183 229 292 356 405
#     4  12  22  44  67 101 142 185 224 287 345 421
#     4  11  25  42  70 101 141 187 229 280 349 424
#
# _framework density 24.574726999999999
#
# number of rings (size 3 to 8) (size 9 to 14) (size 15 to 20)
#    0.000    1.143    2.857    2.143    6.000    1.143 
#    0.000    2.857    0.000    0.000    0.000    0.000 
#    0.000    0.000    0.000    0.000    0.000    0.000 
#
# Total GULP energy -78215.456925 kJ/mol
# GULP energy per Si atom -5586.818352 kJ/mol
# Density = 2.451879 g / cm^3
# Si number density = 24.574727 Si / 1000 Ang^3
#
#
#
# Elastic Constant Matrix: (Units=GPa)
#
#
# Indices 1 2 3 4 5 6 
#
# 1 68.4234 17.9451 39.9994 -10.7406 -18.2513 5.0771
# 2 17.9451 83.8807 41.2643 3.8566 -16.9980 3.8406
# 3 39.9994 41.2643 190.2943 9.3337 -38.7576 -2.1196
# 4 -10.7406 3.8566 9.3337 41.6979 -3.9133 -10.0200
# 5 -18.2513 -16.9980 -38.7576 -3.9133 55.7977 -4.3858
# 6 5.0771 3.8406 -2.1196 -10.0200 -4.3858 35.9610
#
#
#
# Elastic Compliance Matrix: (Units=1/GPa)
#
#
# Indices 1 2 3 4 5 6 
#
# 1 0.018933 -0.002021 -0.003060 0.005988 0.003832 -0.000502
# 2 -0.002021 0.013933 -0.002161 -0.001518 0.001856 -0.001527
# 3 -0.003060 -0.002161 0.007121 -0.001631 0.003253 0.001025
# 4 0.005988 -0.001518 -0.001631 0.028082 0.002915 0.007401
# 5 0.003832 0.001856 0.003253 0.002915 0.022441 0.003001
# 6 -0.000502 -0.001527 0.001025 0.007401 0.003001 0.030530
#
#
# Mechanical properties :
#
#
# Convention : Reuss Voigt Hill
#
# Bulk Modulus (GPa) = 39.21145 60.11289 49.66217
# Shear Modulus (GPa) = 34.71621 42.91730 38.81676
#
# Velocity S-wave (km/s) = 3.76264 4.18353 3.97865
# Velocity P-wave (km/s) = 5.90485 6.91739 6.43108
#
# Compressibility (1/GPa) = 0.02550275
#
# Stress axis : x y z
#
# Youngs Moduli (GPa) = 52.81720 71.77249 140.43244
#
# Poissons Ratio (x) = 0.14504 0.42977
# Poissons Ratio (y) = 0.10673 0.30348
# Poissons Ratio (z) = 0.16164 0.15510
#
# Static dielectric constant tensor:
#      x y z
#    x 2.145670 -0.032300 -0.023990 
#    y -0.032300 1.968500 0.021230 
#    z -0.023990 0.021230 1.965630 
# 
# From -- ./inp_files/297601.got.cif
#   From: 2010.05.17/outbox.cif.g08.bks.cpg/sg2_149_cif.got.tgz:297601.got - 2010.06.03 11:33:40.
