data_PCOD9019881
_publ_section_title
;
Structure prediction by ZEFSAII (Michael W. Deem and Ramdas Pophale) SiO2 
 PCOD9019881
Probable space group: P -1
;
_chemical_formula_sum "Si O2"
_cell_formula_units_Z 16
_cell_length_a 11.945158
_cell_length_b 7.817287
_cell_length_c 8.348033
_cell_angle_alpha 51.828741
_cell_angle_beta 101.088148
_cell_angle_gamma 90.353179
_cell_volume 594.949081
_symmetry_space_group_name_H-M "P -1"
_symmetry_group_IT_number 2
_symmetry_cell_setting 'triclinic'
loop_
_space_group_symop_operation_xyz
x,y,z
-x,-y,-z
loop_
_atom_site_type_symbol
_atom_site_label
_atom_site_fract_x
_atom_site_fract_y
_atom_site_fract_z
Si Si1 0.566226 0.343013 0.744179
Si Si2 0.365360 0.354053 0.899076
Si Si3 0.918453 0.451410 0.817607
Si Si4 0.691229 0.711015 0.719573
Si Si5 0.123536 0.279598 0.791212
Si Si6 0.920567 0.056741 0.290168
Si Si7 0.302729 0.845926 0.632489
Si Si8 0.786807 0.144360 0.751547
O O1 0.500000 0.500000 0.500000
O O2 0.476337 0.253604 0.888927
O O3 0.636040 0.503121 0.769290
O O4 0.661671 0.169713 0.786406
O O5 0.249652 0.347963 0.766441
O O6 0.379317 0.610273 0.784990
O O7 0.336065 0.263240 0.115711
O O8 0.827352 0.650628 0.746811
O O9 0.848751 0.340584 0.723840
O O10 0.037866 0.467774 0.749824
O O11 0.944657 0.267728 0.071052
O O12 0.639546 0.933974 0.485197
O O13 0.078794 0.161616 0.692280
O O14 0.139463 0.075384 0.037090
O O15 0.788054 0.130801 0.263553
O O16 0.000000 0.000000 0.500000
O O17 0.230458 0.857167 0.440441
#
# Coordination Sequence:
#
# PCOD9019881 Si02
#       8
#     2   2   2   2   2   2   2   2
#     4  11  25  47  75 104 143 186 241 296 350 426
#     4  12  26  47  71 104 146 188 241 288 358 420
#     4  10  22  45  72 100 149 190 230 289 361 422
#     4  11  26  48  73 104 146 187 235 298 354 414
#     4  11  24  44  72 106 147 191 231 289 364 421
#     4  11  23  40  70 109 143 184 241 290 346 430
#     4  12  24  43  70 105 140 180 242 293 343 418
#     4  10  21  45  71 102 142 186 231 296 349 423
#
# _framework density 26.893058
#
# number of rings (size 3 to 8) (size 9 to 14) (size 15 to 20)
#    0.000    1.000    3.750    3.375    1.750    2.500 
#    0.000    1.875    0.000    0.000    0.000    0.000 
#    0.000    0.000    0.000    0.000    0.000    0.000 
#
# Total GULP energy -89776.453456 kJ/mol
# GULP energy per Si atom -5611.028341 kJ/mol
# Density = 2.683185 g / cm^3
# Si number density = 26.893058 Si / 1000 Ang^3
#
#
#
# Elastic Constant Matrix: (Units=GPa)
#
#
# Indices 1 2 3 4 5 6 
#
# 1 136.5977 46.2306 -0.1353 6.7420 -15.1485 -32.2824
# 2 46.2306 131.4597 27.3084 4.1307 -9.8885 -20.4309
# 3 -0.1353 27.3084 72.9711 -0.9123 5.1484 -9.3259
# 4 6.7420 4.1307 -0.9123 51.6386 2.5330 2.5348
# 5 -15.1485 -9.8885 5.1484 2.5330 28.0491 3.3966
# 6 -32.2824 -20.4309 -9.3259 2.5348 3.3966 48.9593
#
#
#
# Elastic Compliance Matrix: (Units=1/GPa)
#
#
# Indices 1 2 3 4 5 6 
#
# 1 0.010020 -0.002626 0.001440 -0.001529 0.003680 0.005609
# 2 -0.002626 0.009735 -0.003647 -0.000699 0.002565 0.001494
# 3 0.001440 -0.003647 0.015680 0.000434 -0.003747 0.002652
# 4 -0.001529 -0.000699 0.000434 0.019862 -0.002696 -0.002058
# 5 0.003680 0.002565 -0.003747 -0.002696 0.039452 0.000186
# 6 0.005609 0.001494 0.002652 -0.002058 0.000186 0.025346
#
#
# Mechanical properties :
#
#
# Convention : Reuss Voigt Hill
#
# Bulk Modulus (GPa) = 38.80723 54.20399 46.50561
# Shear Modulus (GPa) = 36.13953 43.57106 39.85529
#
# Velocity S-wave (km/s) = 3.66980 4.02949 3.85384
# Velocity P-wave (km/s) = 5.69369 6.46902 6.09370
#
# Compressibility (1/GPa) = 0.02576839
#
# Stress axis : x y z
#
# Youngs Moduli (GPa) = 99.79800 102.71946 63.77485
#
# Poissons Ratio (x) = 0.26977 -0.09180
# Poissons Ratio (y) = 0.26209 0.23258
# Poissons Ratio (z) = -0.14366 0.37461
#
# Static dielectric constant tensor:
#      x y z
#    x 2.108230 0.071500 -0.003610 
#    y 0.071500 2.088040 -0.014730 
#    z -0.003610 -0.014730 2.094180 
# 
# From -- ./inp_files/242081.got.cif
#   From: 2010.05.17/outbox.cif.g08.bks.cpg/sg2_122_cif.got.tgz:242081.got - 2010.06.03 11:33:40.
