data_PCOD9019955
_publ_section_title
;
Structure prediction by ZEFSAII (Michael W. Deem and Ramdas Pophale) SiO2 
 PCOD9019955
Probable space group: P -1
;
_chemical_formula_sum "Si O2"
_cell_formula_units_Z 14
_cell_length_a 11.396060
_cell_length_b 8.474727
_cell_length_c 9.997393
_cell_angle_alpha 46.006554
_cell_angle_beta 111.147151
_cell_angle_gamma 124.265967
_cell_volume 573.313153
_symmetry_space_group_name_H-M "P -1"
_symmetry_group_IT_number 2
_symmetry_cell_setting 'triclinic'
loop_
_space_group_symop_operation_xyz
x,y,z
-x,-y,-z
loop_
_atom_site_type_symbol
_atom_site_label
_atom_site_fract_x
_atom_site_fract_y
_atom_site_fract_z
Si Si1 0.800832 0.978415 0.946213
Si Si2 0.756749 0.300533 0.303463
Si Si3 0.832322 0.461643 0.540313
Si Si4 0.087104 0.975787 0.427846
Si Si5 0.944487 0.728694 0.978909
Si Si6 0.422730 0.634441 0.312756
Si Si7 0.472180 0.789134 0.948746
O O1 0.845668 0.217748 0.730029
O O2 0.869940 0.818120 0.009220
O O3 0.632720 0.833373 0.971279
O O4 0.886019 0.103582 0.043333
O O5 0.772908 0.412397 0.393465
O O6 0.770087 0.048147 0.473990
O O7 0.623962 0.295983 0.173264
O O8 0.889027 0.450141 0.166537
O O9 0.722889 0.458050 0.609752
O O10 0.976390 0.717133 0.462081
O O11 0.113485 0.210881 0.212172
O O12 0.000000 0.000000 0.500000
O O13 0.500000 0.500000 0.500000
O O14 0.509918 0.933742 0.187334
O O15 0.410622 0.619666 0.154977
#
# Coordination Sequence:
#
# PCOD9019955 Si02
#       7
#     2   2   2   2   2   2   2
#     4  10  21  45  73  99 138 187 232 291 349 420
#     4  12  26  47  72 109 142 183 242 295 347 431
#     4  11  23  47  73 101 143 189 238 293 353 418
#     4  12  28  44  72 106 142 188 237 297 354 426
#     4  11  24  42  73 100 139 184 236 286 357 413
#     4  10  25  45  71 101 146 192 227 289 361 421
#     4  10  26  45  69 106 146 182 237 292 352 417
#
# _framework density 24.419464999999999
#
# number of rings (size 3 to 8) (size 9 to 14) (size 15 to 20)
#    0.000    1.143    2.857    2.143    8.000    5.714 
#    0.000    0.000    0.000    0.000    0.000    0.000 
#    0.000    0.000    0.000    0.000    0.000    0.000 
#
# Total GULP energy -78244.640914 kJ/mol
# GULP energy per Si atom -5588.902922 kJ/mol
# Density = 2.436388 g / cm^3
# Si number density = 24.419465 Si / 1000 Ang^3
#
#
#
# Elastic Constant Matrix: (Units=GPa)
#
#
# Indices 1 2 3 4 5 6 
#
# 1 117.8701 31.0123 51.2265 17.1876 3.2349 17.1028
# 2 31.0123 74.2165 25.1468 20.4961 3.0031 22.8584
# 3 51.2265 25.1468 160.7569 21.2816 6.6348 4.3603
# 4 17.1876 20.4961 21.2816 25.8574 3.8921 8.0223
# 5 3.2349 3.0031 6.6348 3.8921 39.8275 3.2962
# 6 17.1028 22.8584 4.3603 8.0223 3.2962 34.1065
#
#
#
# Elastic Compliance Matrix: (Units=1/GPa)
#
#
# Indices 1 2 3 4 5 6 
#
# 1 0.011058 -0.001977 -0.002806 -0.002486 0.000234 -0.003299
# 2 -0.001977 0.020893 -0.000873 -0.011446 0.000700 -0.010275
# 3 -0.002806 -0.000873 0.007809 -0.004410 -0.000750 0.002104
# 4 -0.002486 -0.011446 -0.004410 0.054455 -0.003273 -0.003011
# 5 0.000234 0.000700 -0.000750 -0.003273 0.025664 -0.002201
# 6 -0.003299 -0.010275 0.002104 -0.003011 -0.002201 0.038513
#
#
# Mechanical properties :
#
#
# Convention : Reuss Voigt Hill
#
# Bulk Modulus (GPa) = 35.15067 63.06830 49.10948
# Shear Modulus (GPa) = 27.90394 36.32215 32.11305
#
# Velocity S-wave (km/s) = 3.38404 3.86090 3.63031
# Velocity P-wave (km/s) = 5.44929 6.76451 6.14220
#
# Compressibility (1/GPa) = 0.02844896
#
# Stress axis : x y z
#
# Youngs Moduli (GPa) = 90.43076 47.86184 128.05948
#
# Poissons Ratio (x) = 0.09462 0.35929
# Poissons Ratio (y) = 0.17877 0.11183
# Poissons Ratio (z) = 0.25371 0.04180
#
# Static dielectric constant tensor:
#      x y z
#    x 1.940690 0.017120 -0.019940 
#    y 0.017120 2.125070 -0.115130 
#    z -0.019940 -0.115130 2.140870 
# 
# From -- ./inp_files/242235.got.cif
#   From: 2010.05.17/outbox.cif.g08.bks.cpg/sg2_122_cif.got.tgz:242235.got - 2010.06.03 11:33:40.
