data_PCOD9019737
_publ_section_title
;
Structure prediction by ZEFSAII (Michael W. Deem and Ramdas Pophale) SiO2 
 PCOD9019737
Probable space group: P -1
;
_chemical_formula_sum "Si O2"
_cell_formula_units_Z 14
_cell_length_a 5.477578
_cell_length_b 24.673869
_cell_length_c 16.270120
_cell_angle_alpha 162.996488
_cell_angle_beta 91.694338
_cell_angle_gamma 80.371706
_cell_volume 565.457261
_symmetry_space_group_name_H-M "P -1"
_symmetry_group_IT_number 2
_symmetry_cell_setting 'triclinic'
loop_
_space_group_symop_operation_xyz
x,y,z
-x,-y,-z
loop_
_atom_site_type_symbol
_atom_site_label
_atom_site_fract_x
_atom_site_fract_y
_atom_site_fract_z
Si Si1 0.466410 0.368552 0.385775
Si Si2 0.989151 0.940661 0.725975
Si Si3 0.233652 0.127446 0.124305
Si Si4 0.387173 0.488827 0.072681
Si Si5 0.698037 0.430990 0.642447
Si Si6 0.187687 0.190008 0.770109
Si Si7 0.137337 0.932683 0.531843
O O1 0.500000 0.500000 0.500000
O O2 0.221090 0.323767 0.354573
O O3 0.535189 0.466451 0.608208
O O4 0.690262 0.122942 0.014241
O O5 0.074910 0.690873 0.362899
O O6 0.041801 0.991813 0.708698
O O7 0.195809 0.980299 0.844142
O O8 0.975767 0.218264 0.316401
O O9 0.500000 0.000000 0.000000
O O10 0.481188 0.544835 0.242482
O O11 0.500000 0.500000 0.000000
O O12 0.532481 0.234346 0.709528
O O13 0.802485 0.598111 0.906394
O O14 0.022823 0.182982 0.678212
O O15 0.500000 0.000000 0.500000
O O16 0.055907 0.132055 0.762765
#
# Coordination Sequence:
#
# PCOD9019737 Si02
#       7
#     2   2   2   2   2   2   2
#     4  11  27  43  69 102 137 181 227 285 336 399
#     4  10  24  43  66  96 138 170 227 277 334 400
#     4  11  25  44  72  98 133 185 226 278 342 402
#     4  10  21  45  67  97 134 175 219 283 336 404
#     4  11  25  42  70  98 136 174 230 277 339 405
#     4  11  24  40  66  99 130 179 219 272 343 400
#     4  10  24  41  66  97 135 172 220 278 335 402
#
# _framework density 24.758725999999999
#
# number of rings (size 3 to 8) (size 9 to 14) (size 15 to 20)
#    0.000    1.429    1.429    1.714   10.000    3.429 
#    0.000    1.429    0.000    0.000    0.000    0.000 
#    0.000    0.000    0.000    0.000    0.000    0.000 
#
# Total GULP energy -78009.706093 kJ/mol
# GULP energy per Si atom -5572.121864 kJ/mol
# Density = 2.470237 g / cm^3
# Si number density = 24.758726 Si / 1000 Ang^3
#
#
#
# Elastic Constant Matrix: (Units=GPa)
#
#
# Indices 1 2 3 4 5 6 
#
# 1 66.1514 27.0828 36.2871 -4.1214 9.4581 6.7074
# 2 27.0828 179.3436 49.1782 -37.6464 3.2417 20.1944
# 3 36.2871 49.1782 127.3945 -19.1052 -0.2979 4.7901
# 4 -4.1214 -37.6464 -19.1052 54.6195 7.9054 -1.1866
# 5 9.4581 3.2417 -0.2979 7.9054 42.3509 7.1046
# 6 6.7074 20.1944 4.7901 -1.1866 7.1046 24.3330
#
#
#
# Elastic Compliance Matrix: (Units=1/GPa)
#
#
# Indices 1 2 3 4 5 6 
#
# 1 0.019091 -0.001381 -0.004947 -0.000752 -0.003700 -0.002099
# 2 -0.001381 0.007854 -0.001740 0.004617 -0.000244 -0.005499
# 3 -0.004947 -0.001740 0.010191 0.001883 0.000850 0.000645
# 4 -0.000752 0.004617 0.001883 0.022652 -0.004117 -0.001688
# 5 -0.003700 -0.000244 0.000850 -0.004117 0.026381 -0.006848
# 6 -0.002099 -0.005499 0.000645 -0.001688 -0.006848 0.048028
#
#
# Mechanical properties :
#
#
# Convention : Reuss Voigt Hill
#
# Bulk Modulus (GPa) = 47.62080 66.44285 57.03183
# Shear Modulus (GPa) = 31.77976 41.61678 36.69827
#
# Velocity S-wave (km/s) = 3.58659 4.10432 3.85416
# Velocity P-wave (km/s) = 6.03550 7.02531 6.54913
#
# Compressibility (1/GPa) = 0.02099923
#
# Stress axis : x y z
#
# Youngs Moduli (GPa) = 52.38067 127.31973 98.12919
#
# Poissons Ratio (x) = 0.17582 0.48547
# Poissons Ratio (y) = 0.07233 0.17076
# Poissons Ratio (z) = 0.25914 0.22155
#
# Static dielectric constant tensor:
#      x y z
#    x 2.111580 0.052490 -0.023900 
#    y 0.052490 2.030120 0.071480 
#    z -0.023900 0.071480 1.936600 
# 
# From -- ./inp_files/101069.got.cif
#   From: 2010.05.17/outbox.cif.g08.bks.cpg/sg2_51_cif.got.tgz:101069.got - 2010.06.03 11:33:40.
