data_PCOD9019241
_publ_section_title
;
Structure prediction by ZEFSAII (Michael W. Deem and Ramdas Pophale) SiO2 
 PCOD9019241
Probable space group: P -1
;
_chemical_formula_sum "Si O2"
_cell_formula_units_Z 15
_cell_length_a 11.689981
_cell_length_b 6.875368
_cell_length_c 11.749667
_cell_angle_alpha 115.057827
_cell_angle_beta 47.896752
_cell_angle_gamma 99.793026
_cell_volume 625.531276
_symmetry_space_group_name_H-M "P -1"
_symmetry_group_IT_number 2
_symmetry_cell_setting 'triclinic'
loop_
_space_group_symop_operation_xyz
x,y,z
-x,-y,-z
loop_
_atom_site_type_symbol
_atom_site_label
_atom_site_fract_x
_atom_site_fract_y
_atom_site_fract_z
Si Si1 0.279773 0.596452 0.274322
Si Si2 0.136908 0.426063 0.538470
Si Si3 0.337152 0.028943 0.417576
Si Si4 0.636663 0.465828 0.060251
Si Si5 0.000000 0.000000 0.500000
Si Si6 0.169794 0.908315 0.713616
Si Si7 0.142979 0.964900 0.148183
Si Si8 0.298354 0.107736 0.882482
O O1 0.175359 0.473254 0.393210
O O2 0.231965 0.865254 0.383857
O O3 0.323036 0.543324 0.103109
O O4 0.449852 0.531924 0.208775
O O5 0.130519 0.667390 0.656361
O O6 0.006203 0.271736 0.598108
O O7 0.275015 0.269144 0.475205
O O8 0.304072 0.969497 0.554629
O O9 0.516315 0.969710 0.248497
O O10 0.716168 0.237019 0.997908
O O11 0.714816 0.657691 0.109214
O O12 0.089228 0.031674 0.326543
O O13 0.013844 0.070777 0.820755
O O14 0.221817 0.945999 0.815106
O O15 0.214510 0.136235 0.066511
#
# Coordination Sequence:
#
# PCOD9019241 Si02
#       8
#     2   2   2   2   1   2   2   2
#     4   9  20  41  67 102 132 169 227 278 331 393
#     4  11  23  42  68  95 135 175 220 280 329 401
#     4  10  21  44  70 100 132 177 224 278 333 388
#     4  10  22  40  68  98 136 176 217 279 333 392
#     4  12  26  44  66  96 128 176 222 268 348 390
#     4  11  26  44  66 102 138 177 225 271 331 400
#     4  12  26  43  66 101 133 179 221 276 337 394
#     4  11  25  44  69  99 136 180 228 269 327 403
#
# _framework density 23.979616
#
# number of rings (size 3 to 8) (size 9 to 14) (size 15 to 20)
#    0.000    1.333    1.333    3.200    3.733    2.667 
#    0.000    5.333    0.000    0.000    0.000    0.000 
#    0.000    0.000    0.000    0.000    0.000    0.000 
#
# Total GULP energy -83654.144874 kJ/mol
# GULP energy per Si atom -5576.942992 kJ/mol
# Density = 2.392504 g / cm^3
# Si number density = 23.979616 Si / 1000 Ang^3
#
#
#
# Elastic Constant Matrix: (Units=GPa)
#
#
# Indices 1 2 3 4 5 6 
#
# 1 50.4168 27.7141 9.3359 -7.1346 3.1156 7.6089
# 2 27.7141 126.4117 29.8887 -8.9854 1.9486 1.6520
# 3 9.3359 29.8887 86.7537 -26.1320 -1.8358 -0.3434
# 4 -7.1346 -8.9854 -26.1320 32.0624 1.7493 -0.8656
# 5 3.1156 1.9486 -1.8358 1.7493 33.6830 5.1282
# 6 7.6089 1.6520 -0.3434 -0.8656 5.1282 26.1478
#
#
#
# Elastic Compliance Matrix: (Units=1/GPa)
#
#
# Indices 1 2 3 4 5 6 
#
# 1 0.024119 -0.004967 0.000306 0.004118 -0.001177 -0.006334
# 2 -0.004967 0.009655 -0.003050 -0.000844 -0.000349 0.000836
# 3 0.000306 -0.003050 0.016325 0.012522 0.000285 0.000677
# 4 0.004118 -0.000844 0.012522 0.042203 -0.001964 0.000802
# 5 -0.001177 -0.000349 0.000285 -0.001964 0.030809 -0.005739
# 6 -0.006334 0.000836 0.000677 0.000802 -0.005739 0.041196
#
#
# Mechanical properties :
#
#
# Convention : Reuss Voigt Hill
#
# Bulk Modulus (GPa) = 28.83655 44.16217 36.49936
# Shear Modulus (GPa) = 26.13845 31.48819 28.81332
#
# Velocity S-wave (km/s) = 3.30514 3.62764 3.47014
# Velocity P-wave (km/s) = 5.15915 6.00024 5.59552
#
# Compressibility (1/GPa) = 0.03467822
#
# Stress axis : x y z
#
# Youngs Moduli (GPa) = 41.46024 103.57127 61.25450
#
# Poissons Ratio (x) = 0.51440 -0.01874
# Poissons Ratio (y) = 0.20592 0.18684
# Poissons Ratio (z) = -0.01268 0.31591
#
# Static dielectric constant tensor:
#      x y z
#    x 1.964660 -0.020860 -0.091130 
#    y -0.020860 1.918380 0.076600 
#    z -0.091130 0.076600 1.934900 
# 
# From -- ./inp_files/410970.got.cif
#   From: 2010.05.17/outbox.cif.g08.bks.cpg/sg2_206_cif.got.tgz:410970.got - 2010.06.03 11:33:40.
