data_PCOD9019134
_publ_section_title
;
Structure prediction by ZEFSAII (Michael W. Deem and Ramdas Pophale) SiO2 
 PCOD9019134
Probable space group: P -1
;
_chemical_formula_sum "Si O2"
_cell_formula_units_Z 15
_cell_length_a 8.110287
_cell_length_b 9.660990
_cell_length_c 11.122840
_cell_angle_alpha 112.695771
_cell_angle_beta 81.934965
_cell_angle_gamma 125.147477
_cell_volume 653.553240
_symmetry_space_group_name_H-M "P -1"
_symmetry_group_IT_number 2
_symmetry_cell_setting 'triclinic'
loop_
_space_group_symop_operation_xyz
x,y,z
-x,-y,-z
loop_
_atom_site_type_symbol
_atom_site_label
_atom_site_fract_x
_atom_site_fract_y
_atom_site_fract_z
Si Si1 0.607517 0.214438 0.075363
Si Si2 0.063373 0.527128 0.702405
Si Si3 0.423707 0.293521 0.925964
Si Si4 0.220309 0.888491 0.366507
Si Si5 0.733104 0.827579 0.736615
Si Si6 0.589172 0.859332 0.373825
Si Si7 0.000000 0.000000 0.000000
Si Si8 0.717840 0.483280 0.556775
O O1 0.823603 0.320974 0.154675
O O2 0.468868 0.239180 0.188364
O O3 0.598936 0.283174 0.967865
O O4 0.500000 0.000000 0.000000
O O5 0.210747 0.548596 0.587338
O O6 0.956354 0.323987 0.698697
O O7 0.890263 0.532518 0.654909
O O8 0.380131 0.229574 0.772309
O O9 0.221544 0.158646 0.975505
O O10 0.500000 0.500000 0.000000
O O11 0.434053 0.908164 0.359046
O O12 0.225379 0.014244 0.305273
O O13 0.216687 0.965654 0.524588
O O14 0.699971 0.652471 0.615460
O O15 0.914397 0.916568 0.843815
O O16 0.476343 0.705225 0.436449
#
# Coordination Sequence:
#
# PCOD9019134 Si02
#       8
#     2   2   2   2   2   2   1   2
#     4  11  25  44  66  97 134 182 227 276 349 416
#     4  10  24  43  67  99 136 179 225 283 343 411
#     4  11  25  44  69  98 138 186 224 286 343 411
#     4  10  23  41  69 102 132 173 229 285 341 405
#     4  11  24  43  67  99 132 180 225 285 338 407
#     4  10  21  44  68  97 136 178 225 281 344 407
#     4  10  26  42  64 100 142 174 228 278 342 410
#     4  10  23  43  69  97 137 177 226 286 344 401
#
# _framework density 22.951456
#
# number of rings (size 3 to 8) (size 9 to 14) (size 15 to 20)
#    0.000    1.600    0.000    3.200    7.467    6.933 
#    0.000    2.000    0.000    0.000    0.000    0.000 
#    0.000    0.000    0.000    0.000    0.000    0.000 
#
# Total GULP energy -83700.800384 kJ/mol
# GULP energy per Si atom -5580.053359 kJ/mol
# Density = 2.289922 g / cm^3
# Si number density = 22.951456 Si / 1000 Ang^3
#
#
#
# Elastic Constant Matrix: (Units=GPa)
#
#
# Indices 1 2 3 4 5 6 
#
# 1 25.5157 15.0611 7.7272 11.7490 10.5813 -1.2945
# 2 15.0611 77.1196 13.9824 6.2311 2.3147 -11.4942
# 3 7.7272 13.9824 91.9210 20.8486 24.5753 6.9784
# 4 11.7490 6.2311 20.8486 36.7805 11.0376 -0.7266
# 5 10.5813 2.3147 24.5753 11.0376 41.4150 7.6515
# 6 -1.2945 -11.4942 6.9784 -0.7266 7.6515 36.9688
#
#
#
# Elastic Compliance Matrix: (Units=1/GPa)
#
#
# Indices 1 2 3 4 5 6 
#
# 1 0.055559 -0.009853 0.003204 -0.014344 -0.011804 0.000438
# 2 -0.009853 0.015931 -0.002849 0.001550 0.002026 0.004757
# 3 0.003204 -0.002849 0.014650 -0.006743 -0.007151 -0.002192
# 4 -0.014344 0.001550 -0.006743 0.036132 -0.002509 0.002482
# 5 -0.011804 0.002026 -0.007151 -0.002509 0.032940 -0.005301
# 6 0.000438 0.004757 -0.002192 0.002482 -0.005301 0.030104
#
#
# Mechanical properties :
#
#
# Convention : Reuss Voigt Hill
#
# Bulk Modulus (GPa) = 14.89336 29.78863 22.34099
# Shear Modulus (GPa) = 22.05634 33.55191 27.80413
#
# Velocity S-wave (km/s) = 3.10336 3.82758 3.48434
# Velocity P-wave (km/s) = 4.39822 5.70447 5.09339
#
# Compressibility (1/GPa) = 0.06714404
#
# Stress axis : x y z
#
# Youngs Moduli (GPa) = 17.99894 62.77194 68.25727
#
# Poissons Ratio (x) = 0.61848 -0.21870
# Poissons Ratio (y) = 0.17734 0.19448
# Poissons Ratio (z) = -0.05767 0.17885
#
# Static dielectric constant tensor:
#      x y z
#    x 1.899760 -0.017130 -0.013260 
#    y -0.017130 1.853970 0.056690 
#    z -0.013260 0.056690 1.928340 
# 
# From -- ./inp_files/383237.got.cif
#   From: 2010.05.17/outbox.cif.g08.bks.cpg/sg2_192_cif.got.tgz:383237.got - 2010.06.03 11:33:40.
