data_PCOD9019805
_publ_section_title
;
Structure prediction by ZEFSAII (Michael W. Deem and Ramdas Pophale) SiO2 
 PCOD9019805
Probable space group: P -1
;
_chemical_formula_sum "Si O2"
_cell_formula_units_Z 16
_cell_length_a 6.650876
_cell_length_b 9.111610
_cell_length_c 17.600832
_cell_angle_alpha 126.298642
_cell_angle_beta 121.185413
_cell_angle_gamma 64.203156
_cell_volume 722.495791
_symmetry_space_group_name_H-M "P -1"
_symmetry_group_IT_number 2
_symmetry_cell_setting 'triclinic'
loop_
_space_group_symop_operation_xyz
x,y,z
-x,-y,-z
loop_
_atom_site_type_symbol
_atom_site_label
_atom_site_fract_x
_atom_site_fract_y
_atom_site_fract_z
Si Si1 0.589669 0.846712 0.585871
Si Si2 0.630099 0.608642 0.791908
Si Si3 0.827083 0.981370 0.342550
Si Si4 0.107363 0.802545 0.729742
Si Si5 0.720954 0.585725 0.973345
Si Si6 0.102797 0.080397 0.120622
Si Si7 0.534662 0.752603 0.141174
Si Si8 0.669088 0.202849 0.623692
O O1 0.845056 0.757190 0.644465
O O2 0.528491 0.752459 0.467037
O O3 0.365015 0.868043 0.605156
O O4 0.600010 0.058225 0.626757
O O5 0.650499 0.663289 0.900540
O O6 0.791326 0.734335 0.818764
O O7 0.718354 0.389856 0.728676
O O8 0.350540 0.652757 0.728619
O O9 0.715834 0.798487 0.253319
O O10 0.093000 0.916222 0.405616
O O11 0.857684 0.054300 0.285725
O O12 0.082127 0.882225 0.834598
O O13 0.572724 0.423952 0.910578
O O14 0.657939 0.721029 0.073416
O O15 0.000000 0.500000 0.000000
O O16 0.320984 0.926786 0.145925
O O17 0.000000 0.000000 0.000000
#
# Coordination Sequence:
#
# PCOD9019805 Si02
#       8
#     2   2   2   2   2   2   2   2
#     4  10  21  45  69 101 128 179 222 269 342 400
#     4  12  25  42  63 103 133 173 221 278 334 391
#     4  11  21  41  69  94 130 175 223 269 330 400
#     4  11  24  42  66  94 136 175 217 276 331 402
#     4  11  25  40  63  95 132 169 223 276 328 389
#     4  12  26  42  65  92 135 180 224 267 334 400
#     4  11  23  40  63  94 124 176 218 266 330 398
#     4  10  24  40  71 100 135 170 224 280 329 397
#
# _framework density 22.145458000000001
#
# number of rings (size 3 to 8) (size 9 to 14) (size 15 to 20)
#    0.000    1.000    2.500    3.375    5.250    5.500 
#    0.000    2.500    0.000    0.000    0.000    0.000 
#    0.000    0.000    0.000    0.000    0.000    0.000 
#
# Total GULP energy -89425.289620 kJ/mol
# GULP energy per Si atom -5589.080601 kJ/mol
# Density = 2.209505 g / cm^3
# Si number density = 22.145458 Si / 1000 Ang^3
#
#
#
# Elastic Constant Matrix: (Units=GPa)
#
#
# Indices 1 2 3 4 5 6 
#
# 1 114.8573 14.2105 14.3481 -6.3482 -8.8643 -5.0856
# 2 14.2105 30.6093 -0.0376 -6.2134 -2.0584 -2.8558
# 3 14.3481 -0.0376 47.8368 -20.7635 -0.0636 2.4873
# 4 -6.3482 -6.2134 -20.7635 34.4650 -9.0532 2.7073
# 5 -8.8643 -2.0584 -0.0636 -9.0532 29.6661 -12.0202
# 6 -5.0856 -2.8558 2.4873 2.7073 -12.0202 32.3647
#
#
#
# Elastic Compliance Matrix: (Units=1/GPa)
#
#
# Indices 1 2 3 4 5 6 
#
# 1 0.010040 -0.004137 -0.003166 -0.000013 0.003876 0.002897
# 2 -0.004137 0.037543 0.005791 0.010826 0.006141 0.003593
# 3 -0.003166 0.005791 0.030894 0.020530 0.004867 -0.002270
# 4 -0.000013 0.010826 0.020530 0.047373 0.015761 0.001266
# 5 0.003876 0.006141 0.004867 0.015761 0.046960 0.016899
# 6 0.002897 0.003593 -0.002270 0.001266 0.016899 0.038015
#
#
# Mechanical properties :
#
#
# Convention : Reuss Voigt Hill
#
# Bulk Modulus (GPa) = 13.25331 27.81616 20.53473
# Shear Modulus (GPa) = 20.92036 30.28464 25.60250
#
# Velocity S-wave (km/s) = 3.07690 3.70203 3.40384
# Velocity P-wave (km/s) = 4.31517 5.55529 4.97403
#
# Compressibility (1/GPa) = 0.07545285
#
# Stress axis : x y z
#
# Youngs Moduli (GPa) = 99.59712 26.63601 32.36883
#
# Poissons Ratio (x) = 0.11019 0.10248
# Poissons Ratio (y) = 0.41203 -0.18744
# Poissons Ratio (z) = 0.31532 -0.15424
#
# Static dielectric constant tensor:
#      x y z
#    x 1.847400 -0.005540 0.014810 
#    y -0.005540 1.790240 -0.018710 
#    z 0.014810 -0.018710 1.848820 
# 
# From -- ./inp_files/53685.got.cif
#   From: 2010.05.17/outbox.cif.g08.bks.cpg/sg2_27_cif.got.tgz:53685.got - 2010.06.03 11:33:40.
