data_PCOD9019624
_publ_section_title
;
Structure prediction by ZEFSAII (Michael W. Deem and Ramdas Pophale) SiO2 
 PCOD9019624
Probable space group: P -1
;
_chemical_formula_sum "Si O2"
_cell_formula_units_Z 14
_cell_length_a 20.576353
_cell_length_b 12.077499
_cell_length_c 8.289330
_cell_angle_alpha 147.795330
_cell_angle_beta 52.795950
_cell_angle_gamma 142.030201
_cell_volume 663.112965
_symmetry_space_group_name_H-M "P -1"
_symmetry_group_IT_number 2
_symmetry_cell_setting 'triclinic'
loop_
_space_group_symop_operation_xyz
x,y,z
-x,-y,-z
loop_
_atom_site_type_symbol
_atom_site_label
_atom_site_fract_x
_atom_site_fract_y
_atom_site_fract_z
Si Si1 0.007768 0.930414 0.148750
Si Si2 0.622259 0.434680 0.923509
Si Si3 0.449904 0.888432 0.702781
Si Si4 0.511862 0.454287 0.611291
Si Si5 0.163389 0.420913 0.282783
Si Si6 0.284405 0.946924 0.963424
Si Si7 0.922069 0.182578 0.776302
O O1 0.046588 0.844952 0.126369
O O2 0.107962 0.198347 0.234989
O O3 0.943420 0.019354 0.430628
O O4 0.929984 0.689657 0.841328
O O5 0.585776 0.303294 0.638200
O O6 0.744675 0.570018 0.921792
O O7 0.550546 0.187454 0.855157
O O8 0.588445 0.614850 0.227550
O O9 0.477239 0.770167 0.652791
O O10 0.350572 0.877785 0.873375
O O11 0.500000 0.500000 0.500000
O O12 0.621981 0.748152 0.867473
O O13 0.219483 0.717176 0.638739
O O14 0.199398 0.934108 0.179666
O O15 0.000000 0.500000 0.000000
#
# Coordination Sequence:
#
# PCOD9019624 Si02
#       7
#     2   2   2   2   2   2   2
#     4  10  24  42  67  91 132 163 212 264 304 376
#     4   9  20  38  62  90 122 163 206 254 307 374
#     4   9  20  42  62  89 125 161 206 259 306 376
#     4  11  24  40  62  96 127 164 208 255 320 378
#     4  10  21  45  63  95 125 168 211 258 311 368
#     4  10  23  39  67  90 127 166 206 256 316 369
#     4  11  23  44  63  97 125 167 209 261 319 365
#
# _framework density 21.112541
#
# number of rings (size 3 to 8) (size 9 to 14) (size 15 to 20)
#    0.000    2.000    1.429    1.286    6.000    2.857 
#    2.571    0.000    0.000    0.000    0.000    0.000 
#    0.000    0.000    0.000    0.000    0.000    0.000 
#
# Total GULP energy -78246.994552 kJ/mol
# GULP energy per Si atom -5589.071039 kJ/mol
# Density = 2.106449 g / cm^3
# Si number density = 21.112541 Si / 1000 Ang^3
#
#
#
# Elastic Constant Matrix: (Units=GPa)
#
#
# Indices 1 2 3 4 5 6 
#
# 1 98.3297 52.3496 41.9871 4.8492 -20.9084 -12.6421
# 2 52.3496 94.9692 25.0393 -12.1446 -11.2428 18.9692
# 3 41.9871 25.0393 80.4510 6.9320 -13.9384 8.0619
# 4 4.8492 -12.1446 6.9320 30.8743 17.3200 -9.9484
# 5 -20.9084 -11.2428 -13.9384 17.3200 43.1251 -5.4333
# 6 -12.6421 18.9692 8.0619 -9.9484 -5.4333 34.0177
#
#
#
# Elastic Compliance Matrix: (Units=1/GPa)
#
#
# Indices 1 2 3 4 5 6 
#
# 1 0.030489 -0.018716 -0.009027 -0.010640 0.014163 0.023057
# 2 -0.018716 0.024654 0.001480 0.011211 -0.009093 -0.019228
# 3 -0.009027 0.001480 0.019103 -0.007903 0.004051 -0.010371
# 4 -0.010640 0.011211 -0.007903 0.056692 -0.027065 0.003924
# 5 0.014163 -0.009093 0.004051 -0.027065 0.040870 0.007987
# 6 0.023057 -0.019228 -0.010371 0.003924 0.007987 0.053568
#
#
# Mechanical properties :
#
#
# Convention : Reuss Voigt Hill
#
# Bulk Modulus (GPa) = 46.04100 56.94465 51.49283
# Shear Modulus (GPa) = 17.53510 31.89502 24.71506
#
# Velocity S-wave (km/s) = 2.88506 3.89101 3.42516
# Velocity P-wave (km/s) = 5.74046 6.87147 6.33127
#
# Compressibility (1/GPa) = 0.02171977
#
# Stress axis : x y z
#
# Youngs Moduli (GPa) = 32.79825 40.56154 52.34875
#
# Poissons Ratio (x) = 0.75915 0.47256
# Poissons Ratio (y) = 0.61385 -0.07747
# Poissons Ratio (z) = 0.29607 -0.06003
#
# Static dielectric constant tensor:
#      x y z
#    x 1.751080 0.005970 0.010540 
#    y 0.005970 1.727220 -0.018000 
#    z 0.010540 -0.018000 1.797270 
# 
# From -- ./inp_files/96829.got.cif
#   From: 2010.05.17/outbox.cif.g08.bks.cpg/sg2_49_cif.got.tgz:96829.got - 2010.06.03 11:33:40.
