data_PCOD9019754
_publ_section_title
;
Structure prediction by ZEFSAII (Michael W. Deem and Ramdas Pophale) SiO2 
 PCOD9019754
Probable space group: P -1
;
_chemical_formula_sum "Si O2"
_cell_formula_units_Z 16
_cell_length_a 13.250673
_cell_length_b 26.871742
_cell_length_c 6.779647
_cell_angle_alpha 48.168157
_cell_angle_beta 133.754611
_cell_angle_gamma 155.151571
_cell_volume 726.523096
_symmetry_space_group_name_H-M "P -1"
_symmetry_group_IT_number 2
_symmetry_cell_setting 'triclinic'
loop_
_space_group_symop_operation_xyz
x,y,z
-x,-y,-z
loop_
_atom_site_type_symbol
_atom_site_label
_atom_site_fract_x
_atom_site_fract_y
_atom_site_fract_z
Si Si1 0.589182 0.528608 0.323103
Si Si2 0.724925 0.895001 0.819160
Si Si3 0.371046 0.227591 0.321989
Si Si4 0.183114 0.966814 0.777003
Si Si5 0.814243 0.300560 0.758162
Si Si6 0.411443 0.849429 0.815473
Si Si7 0.670253 0.465934 0.280998
Si Si8 0.133564 0.796343 0.231497
O O1 0.500000 0.500000 0.500000
O O2 0.618998 0.465961 0.437894
O O3 0.854366 0.670064 0.266312
O O4 0.379014 0.484046 0.031518
O O5 0.654862 0.797160 0.880502
O O6 0.530973 0.838555 0.873169
O O7 0.736072 0.958179 0.501543
O O8 0.000000 0.000000 0.000000
O O9 0.569294 0.248920 0.588779
O O10 0.488558 0.340707 0.269490
O O11 0.087890 0.111352 0.322977
O O12 0.151016 0.874880 0.942412
O O13 0.379775 0.048998 0.007585
O O14 0.801374 0.237152 0.744451
O O15 0.043639 0.436681 0.637339
O O16 0.828555 0.270623 0.068381
O O17 0.317975 0.865946 0.485260
#
# Coordination Sequence:
#
# PCOD9019754 Si02
#       8
#     2   2   2   2   2   2   2   2
#     4  10  21  45  68 101 137 178 223 285 339 407
#     4  12  25  45  70  99 142 182 233 285 343 407
#     4  12  22  47  67  98 136 182 227 278 345 409
#     4  12  25  44  70 100 137 183 233 281 344 411
#     4  11  24  44  70  95 141 179 223 288 348 400
#     4  12  23  43  68 100 138 183 229 285 338 405
#     4  10  23  43  69  99 134 177 230 279 346 407
#     4  11  24  43  68 103 138 179 229 282 344 409
#
# _framework density 22.022701000000001
#
# number of rings (size 3 to 8) (size 9 to 14) (size 15 to 20)
#    0.000    0.750    5.000    2.625    0.000    3.000 
#    6.750    0.625    0.000    0.000    0.000    0.000 
#    0.000    0.000    0.000    0.000    0.000    0.000 
#
# Total GULP energy -89324.235737 kJ/mol
# GULP energy per Si atom -5582.764734 kJ/mol
# Density = 2.197258 g / cm^3
# Si number density = 22.022701 Si / 1000 Ang^3
#
#
#
# Elastic Constant Matrix: (Units=GPa)
#
#
# Indices 1 2 3 4 5 6 
#
# 1 120.9740 56.2849 45.0982 -10.8439 -19.0278 1.8755
# 2 56.2849 114.0617 24.3080 3.8251 -9.0597 -14.0750
# 3 45.0982 24.3080 80.4934 11.8287 -14.2794 0.1090
# 4 -10.8439 3.8251 11.8287 23.5921 4.5820 3.0506
# 5 -19.0278 -9.0597 -14.2794 4.5820 40.5733 3.7311
# 6 1.8755 -14.0750 0.1090 3.0506 3.7311 45.1466
#
#
#
# Elastic Compliance Matrix: (Units=1/GPa)
#
#
# Indices 1 2 3 4 5 6 
#
# 1 0.016204 -0.006932 -0.008544 0.012978 0.001933 -0.003850
# 2 -0.006932 0.012787 0.001003 -0.006417 0.000251 0.004685
# 3 -0.008544 0.001003 0.020006 -0.015226 0.004863 0.001246
# 4 0.012978 -0.006417 -0.015226 0.059122 -0.006836 -0.005933
# 5 0.001933 0.000251 0.004863 -0.006836 0.028266 -0.001888
# 6 -0.003850 0.004685 0.001246 -0.005933 -0.001888 0.024324
#
#
# Mechanical properties :
#
#
# Convention : Reuss Voigt Hill
#
# Bulk Modulus (GPa) = 49.87157 62.99015 56.43086
# Shear Modulus (GPa) = 25.46624 34.51827 29.99225
#
# Velocity S-wave (km/s) = 3.40422 3.96333 3.69437
# Velocity P-wave (km/s) = 6.17627 7.04333 6.62400
#
# Compressibility (1/GPa) = 0.02005151
#
# Stress axis : x y z
#
# Youngs Moduli (GPa) = 61.71478 78.20337 49.98501
#
# Poissons Ratio (x) = 0.54209 0.42708
# Poissons Ratio (y) = 0.42779 -0.05015
# Poissons Ratio (z) = 0.52731 -0.07847
#
# Static dielectric constant tensor:
#      x y z
#    x 1.834370 -0.005500 0.016450 
#    y -0.005500 1.851090 0.021400 
#    z 0.016450 0.021400 1.833660 
# 
# From -- ./inp_files/84253.got.cif
#   From: 2010.05.17/outbox.cif.g08.bks.cpg/sg2_43_cif.got.tgz:84253.got - 2010.06.03 11:33:40.
