data_PCOD9019553
_publ_section_title
;
Structure prediction by ZEFSAII (Michael W. Deem and Ramdas Pophale) SiO2 
 PCOD9019553
Probable space group: P -1
;
_chemical_formula_sum "Si O2"
_cell_formula_units_Z 14
_cell_length_a 22.198036
_cell_length_b 4.952182
_cell_length_c 7.177625
_cell_angle_alpha 133.652660
_cell_angle_beta 110.637790
_cell_angle_gamma 85.144559
_cell_volume 519.382185
_symmetry_space_group_name_H-M "P -1"
_symmetry_group_IT_number 2
_symmetry_cell_setting 'triclinic'
loop_
_space_group_symop_operation_xyz
x,y,z
-x,-y,-z
loop_
_atom_site_type_symbol
_atom_site_label
_atom_site_fract_x
_atom_site_fract_y
_atom_site_fract_z
Si Si1 0.347499 0.599505 0.952543
Si Si2 0.922391 0.162916 0.466293
Si Si3 0.945450 0.364759 0.170221
Si Si4 0.633964 0.257093 0.546781
Si Si5 0.508490 0.072519 0.827692
Si Si6 0.172525 0.750340 0.303390
Si Si7 0.736363 0.629257 0.558075
O O1 0.290590 0.665449 0.782976
O O2 0.357221 0.167092 0.709298
O O3 0.332059 0.620524 0.161260
O O4 0.416758 0.903124 0.137334
O O5 0.923694 0.142564 0.232929
O O6 0.851079 0.135640 0.464975
O O7 0.976286 0.565285 0.758515
O O8 0.943384 0.808393 0.419581
O O9 0.894374 0.281083 0.905334
O O10 0.668317 0.554644 0.567645
O O11 0.554959 0.211443 0.468401
O O12 0.500000 0.500000 0.000000
O O13 0.500000 0.000000 0.000000
O O14 0.210575 0.435636 0.263741
O O15 0.225517 0.016958 0.354872
#
# Coordination Sequence:
#
# PCOD9019553 Si02
#       7
#     2   2   2   2   2   2   2
#     4  11  25  49  73 106 143 189 244 302 362 425
#     4  10  22  42  69 100 132 172 225 287 344 407
#     4  10  22  42  69 100 132 172 225 287 344 407
#     4  11  25  49  73 106 143 189 244 302 362 425
#     4  10  21  44  74 105 139 181 242 306 364 417
#     4  12  25  44  66  99 134 186 226 278 352 419
#     4  12  26  45  63 102 138 194 232 290 348 438
#
# _framework density 26.955106000000001
#
# number of rings (size 3 to 8) (size 9 to 14) (size 15 to 20)
#    0.000    1.143    2.857    2.571    0.000    4.571 
#    5.143    8.571    0.000    0.000    0.000    0.000 
#    0.000    0.000    0.000    0.000    0.000    0.000 
#
# Total GULP energy -78223.454824 kJ/mol
# GULP energy per Si atom -5587.389630 kJ/mol
# Density = 2.689375 g / cm^3
# Si number density = 26.955106 Si / 1000 Ang^3
#
#
#
# Elastic Constant Matrix: (Units=GPa)
#
#
# Indices 1 2 3 4 5 6 
#
# 1 103.3770 44.4486 38.3776 -5.8947 6.5799 25.7693
# 2 44.4486 189.5983 47.1191 -31.5890 -5.5443 30.9076
# 3 38.3776 47.1191 144.6116 -35.4029 10.6177 12.4293
# 4 -5.8947 -31.5890 -35.4029 46.1500 -4.5354 -0.6894
# 5 6.5799 -5.5443 10.6177 -4.5354 42.8542 -6.9091
# 6 25.7693 30.9076 12.4293 -0.6894 -6.9091 40.9567
#
#
#
# Elastic Compliance Matrix: (Units=1/GPa)
#
#
# Indices 1 2 3 4 5 6 
#
# 1 0.013124 -0.001743 -0.002593 -0.001888 -0.002874 -0.006671
# 2 -0.001743 0.007220 -0.000580 0.004331 0.001174 -0.003904
# 3 -0.002593 -0.000580 0.009567 0.006446 -0.001523 -0.000983
# 4 -0.001888 0.004331 0.006446 0.029471 0.001852 -0.003228
# 5 -0.002874 0.001174 -0.001523 0.001852 0.025421 0.005704
# 6 -0.006671 -0.003904 -0.000983 -0.003228 0.005704 0.032766
#
#
# Mechanical properties :
#
#
# Convention : Reuss Voigt Hill
#
# Bulk Modulus (GPa) = 49.80638 77.49749 63.65193
# Shear Modulus (GPa) = 37.28787 46.50163 41.89475
#
# Velocity S-wave (km/s) = 3.72335 4.15800 3.94666
# Velocity P-wave (km/s) = 6.08294 7.20173 6.66585
#
# Compressibility (1/GPa) = 0.02007775
#
# Stress axis : x y z
#
# Youngs Moduli (GPa) = 76.19843 138.51234 104.53115
#
# Poissons Ratio (x) = 0.24148 0.27100
# Poissons Ratio (y) = 0.13284 0.06063
# Poissons Ratio (z) = 0.19755 0.08034
#
# Static dielectric constant tensor:
#      x y z
#    x 2.253480 -0.068010 0.079280 
#    y -0.068010 2.081050 0.068010 
#    z 0.079280 0.068010 2.139870 
# 
# From -- ./inp_files/14460.got.cif
#   From: 2010.05.17/outbox.cif.g08.bks.cpg/sg2_8_cif.got.tgz:14460.got - 2010.06.03 11:33:40.
