data_PCOD9019736
_publ_section_title
;
Structure prediction by ZEFSAII (Michael W. Deem and Ramdas Pophale) SiO2 
 PCOD9019736
Probable space group: P -1
;
_chemical_formula_sum "Si O2"
_cell_formula_units_Z 14
_cell_length_a 12.740360
_cell_length_b 13.190515
_cell_length_c 11.890754
_cell_angle_alpha 141.122222
_cell_angle_beta 23.535475
_cell_angle_gamma 132.421464
_cell_volume 494.689131
_symmetry_space_group_name_H-M "P -1"
_symmetry_group_IT_number 2
_symmetry_cell_setting 'triclinic'
loop_
_space_group_symop_operation_xyz
x,y,z
-x,-y,-z
loop_
_atom_site_type_symbol
_atom_site_label
_atom_site_fract_x
_atom_site_fract_y
_atom_site_fract_z
Si Si1 0.814541 0.805258 0.250762
Si Si2 0.429117 0.420745 0.262057
Si Si3 0.713085 0.655974 0.435703
Si Si4 0.845032 0.154545 0.849832
Si Si5 0.408117 0.907357 0.402467
Si Si6 0.943377 0.283460 0.520754
Si Si7 0.312187 0.376347 0.983562
O O1 0.732442 0.662369 0.286931
O O2 0.856267 0.727027 0.019851
O O3 0.057104 0.859307 0.128256
O O4 0.588087 0.962958 0.589998
O O5 0.357199 0.463835 0.500937
O O6 0.455576 0.572579 0.283599
O O7 0.207256 0.310693 0.348402
O O8 0.706547 0.301131 0.861831
O O9 0.007929 0.694561 0.204090
O O10 0.468815 0.805877 0.823005
O O11 0.000000 0.000000 0.500000
O O12 0.109848 0.863579 0.635537
O O13 0.578093 0.729539 0.108717
O O14 0.500000 0.000000 0.500000
O O15 0.854015 0.448181 0.680294
#
# Coordination Sequence:
#
# PCOD9019736 Si02
#       7
#     2   2   2   2   2   2   2
#     4   9  23  38  66  94 134 167 212 266 319 374
#     4  10  23  39  70  94 127 168 214 257 320 379
#     4  10  22  39  61  95 130 165 210 259 316 380
#     4  10  22  37  61  93 131 172 208 258 319 383
#     4  10  21  45  67  97 128 168 215 268 320 374
#     4  10  23  43  69  95 127 169 214 262 318 382
#     4   9  22  43  65  94 128 171 217 263 316 378
#
# _framework density 28.300601
#
# number of rings (size 3 to 8) (size 9 to 14) (size 15 to 20)
#    1.714    0.571    0.000    1.714    4.000    2.286 
#    0.000    2.143    0.000    0.000    0.000    0.000 
#    0.000    0.000    0.000    0.000    0.000    0.000 
#
# Total GULP energy -78023.826888 kJ/mol
# GULP energy per Si atom -5573.130492 kJ/mol
# Density = 2.823619 g / cm^3
# Si number density = 28.300601 Si / 1000 Ang^3
#
#
#
# Elastic Constant Matrix: (Units=GPa)
#
#
# Indices 1 2 3 4 5 6 
#
# 1 172.0108 62.7333 38.0333 -11.8037 -14.9931 -4.5049
# 2 62.7333 83.2970 11.1678 -3.3856 -10.1095 -17.1386
# 3 38.0333 11.1678 101.8670 -18.6367 -19.7790 2.3461
# 4 -11.8037 -3.3856 -18.6367 46.8114 1.0159 1.9937
# 5 -14.9931 -10.1095 -19.7790 1.0159 36.6060 -9.9506
# 6 -4.5049 -17.1386 2.3461 1.9937 -9.9506 57.3038
#
#
#
# Elastic Compliance Matrix: (Units=1/GPa)
#
#
# Indices 1 2 3 4 5 6 
#
# 1 0.008720 -0.006429 -0.002329 0.000850 0.000205 -0.001136
# 2 -0.006429 0.018442 0.001111 -0.000192 0.004635 0.005776
# 3 -0.002329 0.001111 0.012539 0.004328 0.006159 0.000554
# 4 0.000850 -0.000192 0.004328 0.023275 0.001807 -0.000664
# 5 0.000205 0.004635 0.006159 0.001807 0.033853 0.006966
# 6 -0.001136 0.005776 0.000554 -0.000664 0.006966 0.020299
#
#
# Mechanical properties :
#
#
# Convention : Reuss Voigt Hill
#
# Bulk Modulus (GPa) = 40.97521 64.56040 52.76781
# Shear Modulus (GPa) = 35.57230 44.49359 40.03294
#
# Velocity S-wave (km/s) = 3.54919 3.96937 3.76515
# Velocity P-wave (km/s) = 5.59514 6.62343 6.13088
#
# Compressibility (1/GPa) = 0.02440500
#
# Stress axis : x y z
#
# Youngs Moduli (GPa) = 114.68117 54.22540 79.74823
#
# Poissons Ratio (x) = 0.34862 0.18576
# Poissons Ratio (y) = 0.73730 -0.08856
# Poissons Ratio (z) = 0.26712 -0.06022
#
# Static dielectric constant tensor:
#      x y z
#    x 2.182900 0.053900 0.044080 
#    y 0.053900 2.294460 0.039240 
#    z 0.044080 0.039240 2.294290 
# 
# From -- ./inp_files/433156.got.cif
#   From: 2010.05.17/outbox.cif.g08.bks.cpg/sg2_217_cif.got.tgz:433156.got - 2010.06.03 11:33:40.
