data_PCOD9019366
_publ_section_title
;
Structure prediction by ZEFSAII (Michael W. Deem and Ramdas Pophale) SiO2 
 PCOD9019366
Probable space group: P -1
;
_chemical_formula_sum "Si O2"
_cell_formula_units_Z 16
_cell_length_a 12.747472
_cell_length_b 6.897388
_cell_length_c 9.281414
_cell_angle_alpha 54.720009
_cell_angle_beta 98.873853
_cell_angle_gamma 95.633383
_cell_volume 658.167520
_symmetry_space_group_name_H-M "P -1"
_symmetry_group_IT_number 2
_symmetry_cell_setting 'triclinic'
loop_
_space_group_symop_operation_xyz
x,y,z
-x,-y,-z
loop_
_atom_site_type_symbol
_atom_site_label
_atom_site_fract_x
_atom_site_fract_y
_atom_site_fract_z
Si Si1 0.646572 0.820129 0.238048
Si Si2 0.845014 0.926330 0.441015
Si Si3 0.294860 0.331489 0.005622
Si Si4 0.033157 0.549936 0.325151
Si Si5 0.191534 0.886364 0.330343
Si Si6 0.595370 0.314744 0.461592
Si Si7 0.513984 0.151671 0.219182
Si Si8 0.904318 0.395019 0.124447
O O1 0.570893 0.591292 0.354202
O O2 0.576772 0.057721 0.133730
O O3 0.736921 0.860887 0.361708
O O4 0.697273 0.753161 0.123340
O O5 0.910464 0.111551 0.273387
O O6 0.836935 0.064890 0.530738
O O7 0.898767 0.679939 0.601110
O O8 0.221031 0.552096 0.941783
O O9 0.237089 0.123704 0.171313
O O10 0.415945 0.322133 0.091889
O O11 0.000000 0.500000 0.500000
O O12 0.930442 0.545797 0.208411
O O13 0.286413 0.700759 0.443367
O O14 0.102736 0.785116 0.248352
O O15 0.532865 0.093113 0.613989
O O16 0.588911 0.262833 0.310752
O O17 0.000000 0.500000 0.000000
#
# Coordination Sequence:
#
# PCOD9019366 Si02
#       8
#     2   2   2   2   2   2   2   2
#     4  12  23  43  72 107 141 180 228 294 352 411
#     4  12  25  46  72 102 136 181 238 286 345 419
#     4  11  27  46  66 105 147 181 230 291 351 418
#     4  12  25  44  75  97 130 186 236 291 338 411
#     4  11  23  46  70 100 138 181 235 285 347 412
#     4  10  21  44  71 104 137 183 238 282 337 419
#     4  10  23  44  73 101 143 187 228 283 348 418
#     4  12  28  48  70 105 143 186 233 293 355 407
#
# _framework density 24.309919000000001
#
# number of rings (size 3 to 8) (size 9 to 14) (size 15 to 20)
#    0.000    0.750    3.750    3.375    3.500    1.000 
#    2.250    0.000    0.000    0.000    0.000    0.000 
#    0.000    0.000    0.000    0.000    0.000    0.000 
#
# Total GULP energy -89374.524776 kJ/mol
# GULP energy per Si atom -5585.907799 kJ/mol
# Density = 2.425459 g / cm^3
# Si number density = 24.309919 Si / 1000 Ang^3
#
#
#
# Elastic Constant Matrix: (Units=GPa)
#
#
# Indices 1 2 3 4 5 6 
#
# 1 77.7159 31.5665 11.5965 -4.2144 -5.3385 9.5975
# 2 31.5665 85.0582 8.3910 4.7319 0.3982 15.9337
# 3 11.5965 8.3910 59.3067 0.0336 -8.0622 3.3802
# 4 -4.2144 4.7319 0.0336 23.1189 3.4653 1.8882
# 5 -5.3385 0.3982 -8.0622 3.4653 39.1466 -0.5504
# 6 9.5975 15.9337 3.3802 1.8882 -0.5504 51.9830
#
#
#
# Elastic Compliance Matrix: (Units=1/GPa)
#
#
# Indices 1 2 3 4 5 6 
#
# 1 0.015960 -0.005726 -0.002049 0.003965 0.001445 -0.001187
# 2 -0.005726 0.014796 -0.000898 -0.003676 -0.000837 -0.003295
# 3 -0.002049 -0.000898 0.017887 -0.000699 0.003469 -0.000448
# 4 0.003965 -0.003676 -0.000699 0.045372 -0.003600 -0.001246
# 5 0.001445 -0.000837 0.003469 -0.003600 0.026786 0.000179
# 6 -0.001187 -0.003295 -0.000448 -0.001246 0.000179 0.020542
#
#
# Mechanical properties :
#
#
# Convention : Reuss Voigt Hill
#
# Bulk Modulus (GPa) = 31.95119 36.13208 34.04164
# Shear Modulus (GPa) = 29.56491 34.21818 31.89155
#
# Velocity S-wave (km/s) = 3.49114 3.75584 3.62591
# Velocity P-wave (km/s) = 5.42426 5.80550 5.61811
#
# Compressibility (1/GPa) = 0.03129773
#
# Stress axis : x y z
#
# Youngs Moduli (GPa) = 62.65832 67.58679 55.90782
#
# Poissons Ratio (x) = 0.38698 0.11454
# Poissons Ratio (y) = 0.35876 0.05019
# Poissons Ratio (z) = 0.12837 0.06067
#
# Static dielectric constant tensor:
#      x y z
#    x 2.027890 0.229970 -0.027550 
#    y 0.229970 3.272510 -0.086600 
#    z -0.027550 -0.086600 1.967000 
# 
# From -- ./inp_files/288694.got.cif
#   From: 2010.05.17/outbox.cif.g08.bks.cpg/sg2_145_cif.got.tgz:288694.got - 2010.06.03 11:33:40.
