data_PCOD9019501
_publ_section_title
;
Structure prediction by ZEFSAII (Michael W. Deem and Ramdas Pophale) SiO2 
 PCOD9019501
Probable space group: P -1
;
_chemical_formula_sum "Si O2"
_cell_formula_units_Z 16
_cell_length_a 12.474100
_cell_length_b 17.726970
_cell_length_c 9.322783
_cell_angle_alpha 107.033085
_cell_angle_beta 96.121178
_cell_angle_gamma 22.296297
_cell_volume 666.630121
_symmetry_space_group_name_H-M "P -1"
_symmetry_group_IT_number 2
_symmetry_cell_setting 'triclinic'
loop_
_space_group_symop_operation_xyz
x,y,z
-x,-y,-z
loop_
_atom_site_type_symbol
_atom_site_label
_atom_site_fract_x
_atom_site_fract_y
_atom_site_fract_z
Si Si1 0.191470 0.747690 0.161152
Si Si2 0.852439 0.513479 0.986583
Si Si3 0.816414 0.747038 0.836110
Si Si4 0.836839 0.067312 0.876875
Si Si5 0.489016 0.831016 0.698741
Si Si6 0.232755 0.135030 0.619048
Si Si7 0.186004 0.561181 0.534054
Si Si8 0.828678 0.193617 0.504596
O O1 0.241334 0.803750 0.159836
O O2 0.165692 0.750988 0.329414
O O3 0.500000 0.500000 0.000000
O O4 0.858577 0.945900 0.160274
O O5 0.482658 0.759332 0.029979
O O6 0.899400 0.451225 0.121202
O O7 0.000000 0.500000 0.000000
O O8 0.060792 0.310213 0.807473
O O9 0.726387 0.720285 0.763183
O O10 0.918036 0.728814 0.705962
O O11 0.500000 0.000000 0.000000
O O12 0.033836 0.883869 0.679179
O O13 0.000000 0.000000 0.000000
O O14 0.647965 0.638208 0.581637
O O15 0.409886 0.940199 0.611019
O O16 0.970421 0.298381 0.552879
O O17 0.500000 0.000000 0.500000
O O18 0.464933 0.422714 0.554786
O O19 0.000000 0.000000 0.500000
#
# Coordination Sequence:
#
# PCOD9019501 Si02
#       8
#     2   2   2   2   2   2   2   2
#     4  11  25  45  73 102 143 192 247 304 373 440
#     4  12  27  43  72 105 146 189 244 302 372 438
#     4  12  25  44  68 104 144 190 239 305 366 431
#     4  11  24  47  70 105 144 185 244 304 359 444
#     4  12  25  45  76 103 146 197 247 297 381 437
#     4  12  26  47  66 110 148 185 246 310 357 448
#     4  12  24  46  77 100 144 198 243 296 378 439
#     4  10  21  44  73 100 137 191 245 294 360 452
#
# _framework density 24.001315999999999
#
# number of rings (size 3 to 8) (size 9 to 14) (size 15 to 20)
#    0.000    0.500    5.000    4.125    5.250    0.000 
#    0.000    2.500    0.000    0.000    0.000    0.000 
#    0.000    0.000    0.000    0.000    0.000    0.000 
#
# Total GULP energy -89476.812518 kJ/mol
# GULP energy per Si atom -5592.300782 kJ/mol
# Density = 2.394669 g / cm^3
# Si number density = 24.001316 Si / 1000 Ang^3
#
#
#
# Elastic Constant Matrix: (Units=GPa)
#
#
# Indices 1 2 3 4 5 6 
#
# 1 70.4527 32.8276 23.6387 -7.3959 -22.8704 -15.2333
# 2 32.8276 127.5592 48.6045 -18.1836 0.7250 -24.2032
# 3 23.6387 48.6045 145.8165 -3.5646 -2.3108 -8.3280
# 4 -7.3959 -18.1836 -3.5646 43.9020 -13.4861 0.6777
# 5 -22.8704 0.7250 -2.3108 -13.4861 30.0006 -0.3668
# 6 -15.2333 -24.2032 -8.3280 0.6777 -0.3668 56.3025
#
#
#
# Elastic Compliance Matrix: (Units=1/GPa)
#
#
# Indices 1 2 3 4 5 6 
#
# 1 0.027288 -0.003783 -0.002185 0.010622 0.025567 0.005472
# 2 -0.003783 0.010931 -0.002805 0.003007 -0.001973 0.003212
# 3 -0.002185 -0.002805 0.008054 -0.001357 -0.001595 -0.000600
# 4 0.010622 0.003007 -0.001357 0.032593 0.022618 0.003721
# 5 0.025567 -0.001973 -0.001595 0.022618 0.062989 0.005972
# 6 0.005472 0.003212 -0.000600 0.003721 0.005972 0.020528
#
#
# Mechanical properties :
#
#
# Convention : Reuss Voigt Hill
#
# Bulk Modulus (GPa) = 34.80974 61.55220 48.18097
# Shear Modulus (GPa) = 26.38469 41.95820 34.17145
#
# Velocity S-wave (km/s) = 3.31917 4.18564 3.77733
# Velocity P-wave (km/s) = 5.40592 7.00432 6.25637
#
# Compressibility (1/GPa) = 0.02872760
#
# Stress axis : x y z
#
# Youngs Moduli (GPa) = 36.64649 91.48428 124.15560
#
# Poissons Ratio (x) = 0.34605 0.27134
# Poissons Ratio (y) = 0.13862 0.34822
# Poissons Ratio (z) = 0.08009 0.25658
#
# Static dielectric constant tensor:
#      x y z
#    x 2.023760 0.001580 0.104670 
#    y 0.001580 1.922540 -0.019940 
#    z 0.104670 -0.019940 1.994990 
# 
# From -- ./inp_files/319385.got.cif
#   From: 2010.05.17/outbox.cif.g08.bks.cpg/sg2_160_cif.got.tgz:319385.got - 2010.06.03 11:33:40.
