data_PCOD9019097
_publ_section_title
;
Structure prediction by ZEFSAII (Michael W. Deem and Ramdas Pophale) SiO2 
 PCOD9019097
Probable space group: P -1
;
_chemical_formula_sum "Si O2"
_cell_formula_units_Z 16
_cell_length_a 9.718849
_cell_length_b 18.503733
_cell_length_c 11.263173
_cell_angle_alpha 131.676562
_cell_angle_beta 85.871475
_cell_angle_gamma 134.238988
_cell_volume 738.038833
_symmetry_space_group_name_H-M "P -1"
_symmetry_group_IT_number 2
_symmetry_cell_setting 'triclinic'
loop_
_space_group_symop_operation_xyz
x,y,z
-x,-y,-z
loop_
_atom_site_type_symbol
_atom_site_label
_atom_site_fract_x
_atom_site_fract_y
_atom_site_fract_z
Si Si1 0.822415 0.722630 0.758887
Si Si2 0.178799 0.407600 0.725736
Si Si3 0.323202 0.814602 0.636931
Si Si4 0.690072 0.400169 0.639115
Si Si5 0.195904 0.180674 0.885128
Si Si6 0.828802 0.805632 0.611036
Si Si7 0.186364 0.757856 0.846906
Si Si8 0.790055 0.633154 0.074173
O O1 0.500000 0.500000 0.500000
O O2 0.964020 0.864214 0.793439
O O3 0.999757 0.735754 0.792290
O O4 0.814915 0.782943 0.941764
O O5 0.255462 0.349674 0.604697
O O6 0.051698 0.309574 0.756738
O O7 0.960919 0.322474 0.556832
O O8 0.479518 0.645109 0.975882
O O9 0.408356 0.768752 0.513719
O O10 0.287102 0.771044 0.732792
O O11 0.556596 0.041565 0.873751
O O12 0.446526 0.298512 0.463456
O O13 0.983396 0.571274 0.737818
O O14 0.732078 0.504830 0.854371
O O15 0.093310 0.204657 0.831359
O O16 0.007396 0.970269 0.679792
O O17 0.500000 0.500000 0.000000
#
# Coordination Sequence:
#
# PCOD9019097 Si02
#       8
#     2   2   2   2   2   2   2   2
#     4  12  18  39  66  94 127 163 204 275 325 374
#     4  11  23  46  61  93 132 170 215 270 311 376
#     4  11  26  41  66  93 134 173 211 255 326 393
#     4  12  23  42  67  95 130 169 214 264 328 378
#     4  11  22  38  66  98 127 162 218 272 323 378
#     4  12  23  37  70  97 123 167 215 267 332 381
#     4  11  22  44  64  93 136 171 205 262 326 392
#     4  10  21  44  68  92 129 167 217 281 316 363
#
# _framework density 21.679076999999999
#
# number of rings (size 3 to 8) (size 9 to 14) (size 15 to 20)
#    0.000    0.750    7.500    1.500    0.000    2.000 
#    0.000    0.625    0.000    0.000    0.000    0.000 
#    0.000    0.000    0.000    0.000    0.000    0.000 
#
# Total GULP energy -89353.945132 kJ/mol
# GULP energy per Si atom -5584.621571 kJ/mol
# Density = 2.162973 g / cm^3
# Si number density = 21.679077 Si / 1000 Ang^3
#
#
#
# Elastic Constant Matrix: (Units=GPa)
#
#
# Indices 1 2 3 4 5 6 
#
# 1 53.9567 -5.0452 15.0868 2.5281 -5.0920 -1.6545
# 2 -5.0452 84.1689 24.0344 10.8759 5.2134 -22.5843
# 3 15.0868 24.0344 46.8848 12.5448 -4.8083 -3.7714
# 4 2.5281 10.8759 12.5448 29.8941 -4.7957 6.3329
# 5 -5.0920 5.2134 -4.8083 -4.7957 25.8141 0.7016
# 6 -1.6545 -22.5843 -3.7714 6.3329 0.7016 20.9985
#
#
#
# Elastic Compliance Matrix: (Units=1/GPa)
#
#
# Indices 1 2 3 4 5 6 
#
# 1 0.021978 0.005853 -0.009023 -0.001484 0.001011 0.006820
# 2 0.005853 0.025600 -0.009832 -0.013655 -0.009217 0.030655
# 3 -0.009023 -0.009832 0.031434 -0.007320 0.004799 -0.003593
# 4 -0.001484 -0.013655 -0.007320 0.050122 0.011272 -0.031611
# 5 0.001011 -0.009217 0.004799 0.011272 0.044164 -0.013847
# 6 0.006820 0.030655 -0.003593 -0.031611 -0.013847 0.090481
#
#
# Mechanical properties :
#
#
# Convention : Reuss Voigt Hill
#
# Bulk Modulus (GPa) = 18.86537 28.12915 23.49726
# Shear Modulus (GPa) = 16.26266 25.40362 20.83314
#
# Velocity S-wave (km/s) = 2.74187 3.42688 3.10333
# Velocity P-wave (km/s) = 4.32952 5.35363 4.86858
#
# Compressibility (1/GPa) = 0.05300717
#
# Stress axis : x y z
#
# Youngs Moduli (GPa) = 45.50063 39.06233 31.81224
#
# Poissons Ratio (x) = -0.22863 0.28704
# Poissons Ratio (y) = -0.26631 0.31279
# Poissons Ratio (z) = 0.41056 0.38408
#
# Static dielectric constant tensor:
#      x y z
#    x 1.776200 -0.018420 0.014770 
#    y -0.018420 1.866310 0.019270 
#    z 0.014770 0.019270 1.817270 
# 
# From -- ./inp_files/403376.got.cif
#   From: 2010.05.17/outbox.cif.g08.bks.cpg/sg2_202_cif.got.tgz:403376.got - 2010.06.03 11:33:40.
