data_PCOD9019418
_publ_section_title
;
Structure prediction by ZEFSAII (Michael W. Deem and Ramdas Pophale) SiO2 
 PCOD9019418
Probable space group: P -1
;
_chemical_formula_sum "Si O2"
_cell_formula_units_Z 14
_cell_length_a 5.056086
_cell_length_b 19.507525
_cell_length_c 7.043318
_cell_angle_alpha 79.613821
_cell_angle_beta 108.283672
_cell_angle_gamma 77.581904
_cell_volume 620.774111
_symmetry_space_group_name_H-M "P -1"
_symmetry_group_IT_number 2
_symmetry_cell_setting 'triclinic'
loop_
_space_group_symop_operation_xyz
x,y,z
-x,-y,-z
loop_
_atom_site_type_symbol
_atom_site_label
_atom_site_fract_x
_atom_site_fract_y
_atom_site_fract_z
Si Si1 0.354436 0.414077 0.666356
Si Si2 0.839957 0.491171 0.774784
Si Si3 0.734173 0.903845 0.560953
Si Si4 0.141003 0.982686 0.244438
Si Si5 0.407403 0.212857 0.190584
Si Si6 0.111899 0.821722 0.400291
Si Si7 0.222102 0.742878 0.073008
O O1 0.553245 0.465178 0.751737
O O2 0.255437 0.437463 0.417087
O O3 0.554330 0.332658 0.777094
O O4 0.069784 0.432172 0.725100
O O5 0.000000 0.500000 0.000000
O O6 0.492495 0.960506 0.351865
O O7 0.620487 0.868225 0.734848
O O8 0.856237 0.833256 0.489819
O O9 0.946879 0.946901 0.674413
O O10 0.096971 0.906610 0.335547
O O11 0.000000 0.000000 0.000000
O O12 0.600763 0.224872 0.404279
O O13 0.597784 0.219777 0.046120
O O14 0.077133 0.264264 0.081936
O O15 0.101411 0.790493 0.207984
#
# Coordination Sequence:
#
# PCOD9019418 Si02
#       7
#     2   2   2   2   2   2   2
#     4  10  23  41  66 105 134 171 225 266 313 404
#     4  10  21  44  71  99 137 174 215 273 322 372
#     4  10  22  44  63  95 131 167 234 285 330 404
#     4  10  22  39  66  95 124 174 225 283 349 390
#     4  11  25  45  64  94 137 179 223 278 332 401
#     4  11  25  43  67  96 134 177 225 281 339 409
#     4  12  26  42  69  98 139 180 219 269 342 393
#
# _framework density 22.552486999999999
#
# number of rings (size 3 to 8) (size 9 to 14) (size 15 to 20)
#    0.000    1.429    1.429    2.571    4.000    2.857 
#    0.000    0.000    0.000    0.000    0.000    0.000 
#    0.000    0.000    0.000    0.000    0.000    0.000 
#
# Total GULP energy -78132.122224 kJ/mol
# GULP energy per Si atom -5580.865873 kJ/mol
# Density = 2.250116 g / cm^3
# Si number density = 22.552487 Si / 1000 Ang^3
#
#
#
# Elastic Constant Matrix: (Units=GPa)
#
#
# Indices 1 2 3 4 5 6 
#
# 1 87.1010 7.8714 34.0713 -9.0052 -0.5662 -19.3234
# 2 7.8714 38.0201 36.7500 -21.7986 -8.3479 -11.3446
# 3 34.0713 36.7500 174.8972 -10.4421 10.7082 -3.7314
# 4 -9.0052 -21.7986 -10.4421 27.9406 -6.0736 10.7067
# 5 -0.5662 -8.3479 10.7082 -6.0736 33.9866 -6.3055
# 6 -19.3234 -11.3446 -3.7314 10.7067 -6.3055 26.0560
#
#
#
# Elastic Compliance Matrix: (Units=1/GPa)
#
#
# Indices 1 2 3 4 5 6 
#
# 1 0.018359 0.020871 -0.007509 0.015254 0.014002 0.018748
# 2 0.020871 0.139688 -0.030707 0.101556 0.071280 0.047419
# 3 -0.007509 -0.030707 0.013236 -0.020330 -0.017886 -0.013017
# 4 0.015254 0.101556 -0.020330 0.117679 0.055936 0.017799
# 5 0.014002 0.071280 -0.017886 0.055936 0.068832 0.032530
# 6 0.018748 0.047419 -0.013017 0.017799 0.032530 0.071623
#
#
# Mechanical properties :
#
#
# Convention : Reuss Voigt Hill
#
# Bulk Modulus (GPa) = 7.32093 50.82264 29.07178
# Shear Modulus (GPa) = 9.81088 32.35166 21.08127
#
# Velocity S-wave (km/s) = 2.08799 3.79160 3.06071
# Velocity P-wave (km/s) = 3.01100 6.46161 5.04076
#
# Compressibility (1/GPa) = 0.13659476
#
# Stress axis : x y z
#
# Youngs Moduli (GPa) = 54.46858 7.15879 75.55051
#
# Poissons Ratio (x) = -0.14941 0.56728
# Poissons Ratio (y) = -1.13681 2.31991
# Poissons Ratio (z) = 0.40898 0.21982
#
# Static dielectric constant tensor:
#      x y z
#    x 2.013410 -0.043760 -0.051770 
#    y -0.043760 1.841130 -0.010330 
#    z -0.051770 -0.010330 1.836100 
# 
# From -- ./inp_files/10877.got.cif
#   From: 2010.05.17/outbox.cif.g08.bks.cpg/sg2_6_cif.got.tgz:10877.got - 2010.06.03 11:33:40.
