data_PCOD9019559
_publ_section_title
;
Structure prediction by ZEFSAII (Michael W. Deem and Ramdas Pophale) SiO2 
 PCOD9019559
Probable space group: P -1
;
_chemical_formula_sum "Si O2"
_cell_formula_units_Z 12
_cell_length_a 5.343689
_cell_length_b 5.673630
_cell_length_c 19.536455
_cell_angle_alpha 102.522627
_cell_angle_beta 122.558593
_cell_angle_gamma 89.354857
_cell_volume 483.328666
_symmetry_space_group_name_H-M "P -1"
_symmetry_group_IT_number 2
_symmetry_cell_setting 'triclinic'
loop_
_space_group_symop_operation_xyz
x,y,z
-x,-y,-z
loop_
_atom_site_type_symbol
_atom_site_label
_atom_site_fract_x
_atom_site_fract_y
_atom_site_fract_z
Si Si1 0.917862 0.124560 0.139741
Si Si2 0.102459 0.784290 0.552221
Si Si3 0.654649 0.285948 0.975490
Si Si4 0.670705 0.240511 0.824372
Si Si5 0.976517 0.591687 0.250810
Si Si6 0.312847 0.011388 0.403671
O O1 0.899504 0.305079 0.212106
O O2 0.626606 0.923783 0.091115
O O3 0.874804 0.210247 0.060906
O O4 0.238753 0.029588 0.182746
O O5 0.459756 0.843958 0.606822
O O6 0.000000 0.500000 0.500000
O O7 0.957559 0.841931 0.606471
O O8 0.000000 0.000000 0.500000
O O9 0.784246 0.334646 0.921907
O O10 0.500000 0.500000 0.000000
O O11 0.331677 0.295697 0.775520
O O12 0.860933 0.354638 0.795339
O O13 0.201476 0.737979 0.346381
O O14 0.500000 0.000000 0.500000
#
# Coordination Sequence:
#
# PCOD9019559 Si02
#       6
#     2   2   2   2   2   2
#     4  11  25  44  74 102 145 193 238 295 366 425
#     4  10  21  44  74 107 140 184 244 306 368 449
#     4  11  23  47  72 105 143 191 244 293 357 440
#     4  12  25  47  66 110 139 189 236 298 363 426
#     4  12  27  47  71 103 153 182 246 302 366 434
#     4  10  23  48  72 106 140 191 244 305 371 446
#
# _framework density 24.827826999999999
#
# number of rings (size 3 to 8) (size 9 to 14) (size 15 to 20)
#    0.000    1.000    3.333    2.000    2.333    2.667 
#   18.000    0.000    0.000    0.000    0.000    0.000 
#    0.000    0.000    0.000    0.000    0.000    0.000 
#
# Total GULP energy -67048.721305 kJ/mol
# GULP energy per Si atom -5587.393442 kJ/mol
# Density = 2.477132 g / cm^3
# Si number density = 24.827827 Si / 1000 Ang^3
#
#
#
# Elastic Constant Matrix: (Units=GPa)
#
#
# Indices 1 2 3 4 5 6 
#
# 1 188.8992 39.9452 40.0269 13.7066 -10.1757 -22.6230
# 2 39.9452 95.3380 51.7521 43.4324 5.4349 -13.1972
# 3 40.0269 51.7521 169.5834 54.3378 8.6967 -13.4168
# 4 13.7066 43.4324 54.3378 49.7815 4.3647 -6.9167
# 5 -10.1757 5.4349 8.6967 4.3647 29.5018 6.6978
# 6 -22.6230 -13.1972 -13.4168 -6.9167 6.6978 36.3308
#
#
#
# Elastic Compliance Matrix: (Units=1/GPa)
#
#
# Indices 1 2 3 4 5 6 
#
# 1 0.006414 -0.002775 -0.001293 0.002224 0.002202 0.002526
# 2 -0.002775 0.019191 0.000131 -0.015468 -0.002897 0.002881
# 3 -0.001293 0.000131 0.009501 -0.009765 -0.002117 0.001282
# 4 0.002224 -0.015468 -0.009765 0.043706 -0.000083 0.000496
# 5 0.002202 -0.002897 -0.002117 -0.000083 0.037504 -0.007393
# 6 0.002526 0.002881 0.001282 0.000496 -0.007393 0.032075
#
#
# Mechanical properties :
#
#
# Convention : Reuss Voigt Hill
#
# Bulk Modulus (GPa) = 36.71921 79.69657 58.20789
# Shear Modulus (GPa) = 30.24026 44.59593 37.41809
#
# Velocity S-wave (km/s) = 3.49377 4.24277 3.88635
# Velocity P-wave (km/s) = 5.57646 7.49472 6.60559
#
# Compressibility (1/GPa) = 0.02723370
#
# Stress axis : x y z
#
# Youngs Moduli (GPa) = 155.90121 52.10764 105.25328
#
# Poissons Ratio (x) = 0.14458 0.13607
# Poissons Ratio (y) = 0.43256 -0.01381
# Poissons Ratio (z) = 0.20155 -0.00683
#
# Static dielectric constant tensor:
#      x y z
#    x 2.084800 0.084500 0.015340 
#    y 0.084500 2.066040 0.055180 
#    z 0.015340 0.055180 1.931440 
# 
# From -- ./inp_files/6202.got.cif
#   From: 2010.05.17/outbox.cif.g08.bks.cpg/sg2_4_cif.got.tgz:6202.got - 2010.06.03 11:33:40.
