data_PCOD9019222
_publ_section_title
;
Structure prediction by ZEFSAII (Michael W. Deem and Ramdas Pophale) SiO2 
 PCOD9019222
Probable space group: P -1
;
_chemical_formula_sum "Si O2"
_cell_formula_units_Z 16
_cell_length_a 9.089558
_cell_length_b 17.136607
_cell_length_c 9.712907
_cell_angle_alpha 134.508215
_cell_angle_beta 137.331140
_cell_angle_gamma 52.880863
_cell_volume 719.032170
_symmetry_space_group_name_H-M "P -1"
_symmetry_group_IT_number 2
_symmetry_cell_setting 'triclinic'
loop_
_space_group_symop_operation_xyz
x,y,z
-x,-y,-z
loop_
_atom_site_type_symbol
_atom_site_label
_atom_site_fract_x
_atom_site_fract_y
_atom_site_fract_z
Si Si1 0.068302 0.395204 0.319625
Si Si2 0.534743 0.935381 0.585614
Si Si3 0.463219 0.556113 0.389825
Si Si4 0.829188 0.594165 0.088053
Si Si5 0.837546 0.062833 0.082921
Si Si6 0.049349 0.259745 0.401881
Si Si7 0.945727 0.077671 0.687123
Si Si8 0.035222 0.690981 0.134282
O O1 0.320476 0.399223 0.454805
O O2 0.019250 0.299647 0.272245
O O3 0.000000 0.500000 0.500000
O O4 0.947309 0.394507 0.088746
O O5 0.724610 0.829427 0.559595
O O6 0.313483 0.897360 0.430673
O O7 0.500000 0.000000 0.500000
O O8 0.606076 0.025527 0.849794
O O9 0.500000 0.500000 0.500000
O O10 0.256016 0.657116 0.338678
O O11 0.395520 0.454774 0.127079
O O12 0.915951 0.641801 0.346771
O O13 0.829787 0.691285 0.096144
O O14 0.000000 0.500000 0.000000
O O15 0.865582 0.191005 0.246668
O O16 0.932692 0.997820 0.202363
O O17 0.000000 0.000000 0.000000
O O18 0.007690 0.193968 0.833432
O O19 0.000000 0.000000 0.500000
#
# Coordination Sequence:
#
# PCOD9019222 Si02
#       8
#     2   2   2   2   2   2   2   2
#     4  12  26  43  69 104 133 175 231 287 334 402
#     4  11  23  43  70 100 139 178 227 277 332 410
#     4  11  24  46  68  95 136 180 222 278 342 405
#     4  10  22  44  69  95 137 179 224 280 335 406
#     4  10  21  44  69  96 141 181 225 277 339 407
#     4  11  23  43  72 102 136 184 229 274 348 402
#     4  12  25  44  68 104 139 176 229 285 335 400
#     4  11  24  42  71  95 139 178 220 283 342 396
#
# _framework density 22.252136
#
# number of rings (size 3 to 8) (size 9 to 14) (size 15 to 20)
#    0.000    1.000    3.750    4.500    1.750    3.500 
#    0.000    2.500    0.000    0.000    0.000    0.000 
#    0.000    0.000    0.000    0.000    0.000    0.000 
#
# Total GULP energy -89202.123773 kJ/mol
# GULP energy per Si atom -5575.132736 kJ/mol
# Density = 2.220149 g / cm^3
# Si number density = 22.252136 Si / 1000 Ang^3
#
#
#
# Elastic Constant Matrix: (Units=GPa)
#
#
# Indices 1 2 3 4 5 6 
#
# 1 44.8733 13.1030 7.0293 -10.7606 -7.2065 27.7283
# 2 13.1030 83.6037 20.4939 -11.1565 -11.6258 27.3748
# 3 7.0293 20.4939 111.7470 -10.2923 -17.7930 17.3867
# 4 -10.7606 -11.1565 -10.2923 40.4740 9.9242 -5.9224
# 5 -7.2065 -11.6258 -17.7930 9.9242 45.7949 1.5836
# 6 27.7283 27.3748 17.3867 -5.9224 1.5836 42.5936
#
#
#
# Elastic Compliance Matrix: (Units=1/GPa)
#
#
# Indices 1 2 3 4 5 6 
#
# 1 0.043279 0.005109 0.003433 0.006844 0.009073 -0.032244
# 2 0.005109 0.016780 -0.000223 0.002711 0.004868 -0.013823
# 3 0.003433 -0.000223 0.010624 0.001514 0.004504 -0.006385
# 4 0.006844 0.002711 0.001514 0.028150 -0.003651 -0.002766
# 5 0.009073 0.004868 0.004504 -0.003651 0.027470 -0.012402
# 6 -0.032244 -0.013823 -0.006385 -0.002766 -0.012402 0.056036
#
#
# Mechanical properties :
#
#
# Convention : Reuss Voigt Hill
#
# Bulk Modulus (GPa) = 11.45236 35.71960 23.58598
# Shear Modulus (GPa) = 25.66633 39.07902 32.37268
#
# Velocity S-wave (km/s) = 3.39991 4.19524 3.81834
# Velocity P-wave (km/s) = 4.53545 6.28918 5.48289
#
# Compressibility (1/GPa) = 0.08731827
#
# Stress axis : x y z
#
# Youngs Moduli (GPa) = 23.10614 59.59463 94.12835
#
# Poissons Ratio (x) = -0.30444 -0.32311
# Poissons Ratio (y) = -0.11804 0.02102
# Poissons Ratio (z) = -0.07932 0.01331
#
# Static dielectric constant tensor:
#      x y z
#    x 1.828470 0.017560 0.046990 
#    y 0.017560 1.848500 0.044520 
#    z 0.046990 0.044520 1.877660 
# 
# From -- ./inp_files/218765.got.cif
#   From: 2010.05.17/outbox.cif.g08.bks.cpg/sg2_110_cif.got.tgz:218765.got - 2010.06.03 11:33:40.
