data_PCOD9019609
_publ_section_title
;
Structure prediction by ZEFSAII (Michael W. Deem and Ramdas Pophale) SiO2 
 PCOD9019609
Probable space group: P -1
;
_chemical_formula_sum "Si O2"
_cell_formula_units_Z 12
_cell_length_a 7.967056
_cell_length_b 5.394719
_cell_length_c 20.586564
_cell_angle_alpha 61.875293
_cell_angle_beta 141.128592
_cell_angle_gamma 122.666567
_cell_volume 465.255742
_symmetry_space_group_name_H-M "P -1"
_symmetry_group_IT_number 2
_symmetry_cell_setting 'triclinic'
loop_
_space_group_symop_operation_xyz
x,y,z
-x,-y,-z
loop_
_atom_site_type_symbol
_atom_site_label
_atom_site_fract_x
_atom_site_fract_y
_atom_site_fract_z
Si Si1 0.508892 0.538200 0.921520
Si Si2 0.416181 0.902609 0.560938
Si Si3 0.711149 0.054861 0.831497
Si Si4 0.953474 0.281719 0.111510
Si Si5 0.801244 0.773223 0.373200
Si Si6 0.042462 0.184385 0.736604
O O1 0.221349 0.433706 0.808134
O O2 0.661852 0.867157 0.905301
O O3 0.500000 0.500000 0.000000
O O4 0.699688 0.328579 0.987672
O O5 0.344385 0.551801 0.598944
O O6 0.110011 0.939656 0.474982
O O7 0.500000 0.000000 0.500000
O O8 0.706380 0.100406 0.656336
O O9 0.414521 0.041405 0.711292
O O10 0.857742 0.393432 0.851573
O O11 0.886095 0.900632 0.858697
O O12 0.879224 0.101241 0.178749
O O13 0.863779 0.739874 0.318958
#
# Coordination Sequence:
#
# PCOD9019609 Si02
#       6
#     2   2   2   2   2   2
#     4  12  27  47  71 111 159 210 264 320 382 461
#     4   9  20  43  81 112 155 193 261 321 401 469
#     4  12  26  48  77 112 157 208 263 323 392 467
#     4  12  26  47  75 113 156 211 264 318 386 468
#     4  10  21  44  79 115 152 202 253 324 398 468
#     4  11  23  45  77 112 153 203 259 322 382 465
#
# _framework density 25.792263999999999
#
# number of rings (size 3 to 8) (size 9 to 14) (size 15 to 20)
#    0.000    1.000    1.667    4.500    0.000    2.667 
#    0.000    1.667    0.000    0.000    0.000    0.000 
#    0.000    0.000    0.000    0.000    0.000    0.000 
#
# Total GULP energy -67224.892243 kJ/mol
# GULP energy per Si atom -5602.074354 kJ/mol
# Density = 2.573356 g / cm^3
# Si number density = 25.792264 Si / 1000 Ang^3
#
#
#
# Elastic Constant Matrix: (Units=GPa)
#
#
# Indices 1 2 3 4 5 6 
#
# 1 152.5503 60.9099 52.2924 -3.9763 -3.7727 9.7432
# 2 60.9099 149.2082 44.9727 1.3940 -8.6026 27.1274
# 3 52.2924 44.9727 138.1740 13.3532 18.6119 20.8435
# 4 -3.9763 1.3940 13.3532 53.2374 28.2454 -9.3243
# 5 -3.7727 -8.6026 18.6119 28.2454 57.3894 -10.3475
# 6 9.7432 27.1274 20.8435 -9.3243 -10.3475 46.1248
#
#
#
# Elastic Compliance Matrix: (Units=1/GPa)
#
#
# Indices 1 2 3 4 5 6 
#
# 1 0.008631 -0.002954 -0.002760 0.001352 0.000639 0.001578
# 2 -0.002954 0.009172 -0.001302 -0.001780 0.001730 -0.004154
# 3 -0.002760 -0.001302 0.009988 -0.001488 -0.003656 -0.004286
# 4 0.001352 -0.001780 -0.001488 0.026348 -0.011926 0.004084
# 5 0.000639 0.001730 -0.003656 -0.011926 0.025467 0.003802
# 6 0.001578 -0.004154 -0.004286 0.004084 0.003802 0.027405
#
#
# Mechanical properties :
#
#
# Convention : Reuss Voigt Hill
#
# Bulk Modulus (GPa) = 72.67385 84.03141 78.35263
# Shear Modulus (GPa) = 39.79976 50.13415 44.96695
#
# Velocity S-wave (km/s) = 3.93248 4.41360 4.17997
# Velocity P-wave (km/s) = 6.98978 7.65663 7.33079
#
# Compressibility (1/GPa) = 0.01376011
#
# Stress axis : x y z
#
# Youngs Moduli (GPa) = 115.86174 109.02877 100.11878
#
# Poissons Ratio (x) = 0.32210 0.27628
# Poissons Ratio (y) = 0.34229 0.13032
# Poissons Ratio (z) = 0.31973 0.14192
#
# Static dielectric constant tensor:
#      x y z
#    x 2.130080 0.013620 0.043930 
#    y 0.013620 1.982620 0.033940 
#    z 0.043930 0.033940 2.099180 
# 
# From -- ./inp_files/584592.got.cif
#   From: 2010.05.17/outbox.cif.g08.bks.cpg/sg2_293_cif.got.tgz:584592.got - 2010.06.03 11:33:40.
