data_PCOD9019692
_publ_section_title
;
Structure prediction by ZEFSAII (Michael W. Deem and Ramdas Pophale) SiO2 
 PCOD9019692
Probable space group: P -1
;
_chemical_formula_sum "Si O2"
_cell_formula_units_Z 16
_cell_length_a 5.633601
_cell_length_b 9.340899
_cell_length_c 24.489679
_cell_angle_alpha 134.140589
_cell_angle_beta 66.094674
_cell_angle_gamma 127.488882
_cell_volume 733.431072
_symmetry_space_group_name_H-M "P -1"
_symmetry_group_IT_number 2
_symmetry_cell_setting 'triclinic'
loop_
_space_group_symop_operation_xyz
x,y,z
-x,-y,-z
loop_
_atom_site_type_symbol
_atom_site_label
_atom_site_fract_x
_atom_site_fract_y
_atom_site_fract_z
Si Si1 0.489839 0.748448 0.805601
Si Si2 0.848233 0.756238 0.302705
Si Si3 0.046103 0.351233 0.089116
Si Si4 0.712672 0.893686 0.460111
Si Si5 0.653489 0.373325 0.482441
Si Si6 0.551626 0.946797 0.299106
Si Si7 0.915726 0.986978 0.927935
Si Si8 0.526656 0.879822 0.161462
O O1 0.400877 0.501604 0.725038
O O2 0.189412 0.676552 0.850154
O O3 0.574816 0.944537 0.805234
O O4 0.735912 0.850174 0.855889
O O5 0.841807 0.906692 0.392377
O O6 0.711170 0.818396 0.279635
O O7 0.188446 0.802093 0.284204
O O8 0.275634 0.613082 0.122227
O O9 0.879054 0.195149 0.010492
O O10 0.182225 0.205013 0.066258
O O11 0.499258 0.670563 0.455272
O O12 0.500000 0.000000 0.500000
O O13 0.000000 0.000000 0.500000
O O14 0.500000 0.500000 0.500000
O O15 0.000000 0.500000 0.500000
O O16 0.600707 0.157199 0.390420
O O17 0.668410 0.983349 0.235218
O O18 0.252857 0.106176 0.904148
#
# Coordination Sequence:
#
# PCOD9019692 Si02
#       8
#     2   2   2   2   2   2   2   2
#     4  11  25  40  66 103 134 184 238 285 355 419
#     4  12  25  46  73  97 140 189 236 289 350 424
#     4  10  21  45  66  96 139 182 230 294 353 416
#     4  12  23  46  70  99 131 182 241 276 342 423
#     4  12  26  44  69 105 142 179 231 295 347 409
#     4  12  26  47  71  99 143 191 229 286 366 413
#     4  10  23  41  69  98 135 183 236 290 347 429
#     4  11  25  41  66 102 139 180 237 288 357 418
#
# _framework density 21.815273999999999
#
# number of rings (size 3 to 8) (size 9 to 14) (size 15 to 20)
#    0.000    0.750    3.750    3.000    5.250    2.500 
#    0.000    0.000    0.000    0.000    0.000    0.000 
#    0.000    0.000    0.000    0.000    0.000    0.000 
#
# Total GULP energy -89079.995228 kJ/mol
# GULP energy per Si atom -5567.499702 kJ/mol
# Density = 2.176562 g / cm^3
# Si number density = 21.815274 Si / 1000 Ang^3
#
#
#
# Elastic Constant Matrix: (Units=GPa)
#
#
# Indices 1 2 3 4 5 6 
#
# 1 138.5804 56.2403 50.8389 17.9897 36.5668 -33.3430
# 2 56.2403 134.2059 37.7811 13.9118 20.1729 -28.9240
# 3 50.8389 37.7811 191.9164 26.9464 60.0643 -79.1548
# 4 17.9897 13.9118 26.9464 48.1071 9.5104 -12.2324
# 5 36.5668 20.1729 60.0643 9.5104 43.0369 -33.5810
# 6 -33.3430 -28.9240 -79.1548 -12.2324 -33.5810 90.7018
#
#
#
# Elastic Compliance Matrix: (Units=1/GPa)
#
#
# Indices 1 2 3 4 5 6 
#
# 1 0.010652 -0.003218 0.000627 -0.001786 -0.007774 0.000317
# 2 -0.003218 0.009273 -0.000277 -0.000979 0.000117 0.001444
# 3 0.000627 -0.000277 0.011255 -0.002857 -0.011257 0.005411
# 4 -0.001786 -0.000979 -0.002857 0.023168 0.000817 -0.000035
# 5 -0.007774 0.000117 -0.011257 0.000817 0.049974 0.005967
# 6 0.000317 0.001444 0.005411 -0.000035 0.005967 0.018529
#
#
# Mechanical properties :
#
#
# Convention : Reuss Voigt Hill
#
# Bulk Modulus (GPa) = 39.30233 83.82483 61.56358
# Shear Modulus (GPa) = 36.47827 57.69198 47.08512
#
# Velocity S-wave (km/s) = 4.09362 5.14812 4.65085
# Velocity P-wave (km/s) = 6.35600 8.59335 7.55792
#
# Compressibility (1/GPa) = 0.02544379
#
# Stress axis : x y z
#
# Youngs Moduli (GPa) = 93.88218 107.84270 88.84594
#
# Poissons Ratio (x) = 0.34704 -0.05566
# Poissons Ratio (y) = 0.30211 0.02457
# Poissons Ratio (z) = -0.05882 0.02982
#
# Static dielectric constant tensor:
#      x y z
#    x 1.851460 0.074860 -0.157300 
#    y 0.074860 1.669190 0.137330 
#    z -0.157300 0.137330 1.889460 
# 
# From -- ./inp_files/105823.got.cif
#   From: 2010.05.17/outbox.cif.g08.bks.cpg/sg2_53_cif.got.tgz:105823.got - 2010.06.03 11:33:40.
