data_PCOD9019394
_publ_section_title
;
Structure prediction by ZEFSAII (Michael W. Deem and Ramdas Pophale) SiO2 
 PCOD9019394
Probable space group: P -1
;
_chemical_formula_sum "Si O2"
_cell_formula_units_Z 14
_cell_length_a 15.869459
_cell_length_b 10.502070
_cell_length_c 18.297506
_cell_angle_alpha 31.184025
_cell_angle_beta 25.403830
_cell_angle_gamma 46.024434
_cell_volume 633.747896
_symmetry_space_group_name_H-M "P -1"
_symmetry_group_IT_number 2
_symmetry_cell_setting 'triclinic'
loop_
_space_group_symop_operation_xyz
x,y,z
-x,-y,-z
loop_
_atom_site_type_symbol
_atom_site_label
_atom_site_fract_x
_atom_site_fract_y
_atom_site_fract_z
Si Si1 0.931927 0.195250 0.726941
Si Si2 0.467684 0.027273 0.617959
Si Si3 0.762522 0.847079 0.890069
Si Si4 0.919316 0.446170 0.878464
Si Si5 0.493406 0.205316 0.668885
Si Si6 0.312684 0.726573 0.363788
Si Si7 0.182129 0.027109 0.728967
O O1 0.000000 0.500000 0.500000
O O2 0.900325 0.024345 0.760908
O O3 0.106627 0.189063 0.651187
O O4 0.719013 0.022909 0.022549
O O5 0.541072 0.110340 0.600178
O O6 0.662450 0.075986 0.388973
O O7 0.313085 0.154914 0.636311
O O8 0.313162 0.725059 0.884875
O O9 0.879267 0.669631 0.848603
O O10 0.713586 0.028738 0.777866
O O11 0.527463 0.697531 0.180361
O O12 0.076069 0.520147 0.651194
O O13 0.986743 0.240794 0.976307
O O14 0.500000 0.500000 0.500000
O O15 0.652276 0.227026 0.599684
#
# Coordination Sequence:
#
# PCOD9019394 Si02
#       7
#     2   2   2   2   2   2   2
#     4  11  26  42  66 104 138 179 225 282 355 404
#     4   9  23  42  65  99 132 171 232 285 333 401
#     4  10  24  42  67  98 140 180 228 284 341 420
#     4  10  21  44  71  97 129 184 234 278 345 402
#     4  11  25  43  66 103 130 179 231 280 339 409
#     4  10  23  42  66  99 136 182 221 286 344 403
#     4   9  22  43  65  97 129 181 221 288 339 398
#
# _framework density 22.090802
#
# number of rings (size 3 to 8) (size 9 to 14) (size 15 to 20)
#    0.857    1.143    0.000    1.286    8.000    5.714 
#    0.000    1.429    0.000    0.000    0.000    0.000 
#    0.000    0.000    0.000    0.000    0.000    0.000 
#
# Total GULP energy -77947.892880 kJ/mol
# GULP energy per Si atom -5567.706634 kJ/mol
# Density = 2.204052 g / cm^3
# Si number density = 22.090802 Si / 1000 Ang^3
#
#
#
# Elastic Constant Matrix: (Units=GPa)
#
#
# Indices 1 2 3 4 5 6 
#
# 1 105.7595 17.1773 7.1023 0.7737 32.8026 -7.3639
# 2 17.1773 71.5987 36.7919 -2.1989 20.1379 -3.5035
# 3 7.1023 36.7919 139.1392 -6.1367 19.7122 -2.2972
# 4 0.7737 -2.1989 -6.1367 29.5142 -3.7596 6.5457
# 5 32.8026 20.1379 19.7122 -3.7596 26.2396 -0.9398
# 6 -7.3639 -3.5035 -2.2972 6.5457 -0.9398 39.8750
#
#
#
# Elastic Compliance Matrix: (Units=1/GPa)
#
#
# Indices 1 2 3 4 5 6 
#
# 1 0.016859 0.001846 0.002001 -0.003759 -0.024411 0.003433
# 2 0.001846 0.019391 -0.003137 -0.001557 -0.014993 0.001766
# 3 0.002001 -0.003137 0.008893 0.000637 -0.006671 0.000344
# 4 -0.003759 -0.001557 0.000637 0.036789 0.010452 -0.006587
# 5 -0.024411 -0.014993 -0.006671 0.010452 0.086431 -0.005888
# 6 0.003433 0.001766 0.000344 -0.006587 -0.005888 0.026830
#
#
# Mechanical properties :
#
#
# Convention : Reuss Voigt Hill
#
# Bulk Modulus (GPa) = 21.47677 48.73783 35.10730
# Shear Modulus (GPa) = 23.88948 36.15413 30.02181
#
# Velocity S-wave (km/s) = 3.29207 4.04990 3.69049
# Velocity P-wave (km/s) = 4.91868 6.63169 5.83835
#
# Compressibility (1/GPa) = 0.04656193
#
# Stress axis : x y z
#
# Youngs Moduli (GPa) = 59.31481 51.56903 112.44361
#
# Poissons Ratio (x) = -0.09518 -0.22496
# Poissons Ratio (y) = -0.10947 0.35277
# Poissons Ratio (z) = -0.11867 0.16179
#
# Static dielectric constant tensor:
#      x y z
#    x 1.851480 0.010090 -0.053270 
#    y 0.010090 1.831380 -0.036750 
#    z -0.053270 -0.036750 1.899020 
# 
# From -- ./inp_files/573339.got.cif
#   From: 2010.05.17/outbox.cif.g08.bks.cpg/sg2_287_cif.got.tgz:573339.got - 2010.06.03 11:33:40.
