data_PCOD9019245
_publ_section_title
;
Structure prediction by ZEFSAII (Michael W. Deem and Ramdas Pophale) SiO2 
 PCOD9019245
Probable space group: P -1
;
_chemical_formula_sum "Si O2"
_cell_formula_units_Z 12
_cell_length_a 8.243653
_cell_length_b 11.828698
_cell_length_c 9.233861
_cell_angle_alpha 114.913034
_cell_angle_beta 99.189007
_cell_angle_gamma 35.638183
_cell_volume 446.490763
_symmetry_space_group_name_H-M "P -1"
_symmetry_group_IT_number 2
_symmetry_cell_setting 'triclinic'
loop_
_space_group_symop_operation_xyz
x,y,z
-x,-y,-z
loop_
_atom_site_type_symbol
_atom_site_label
_atom_site_fract_x
_atom_site_fract_y
_atom_site_fract_z
Si Si1 0.273663 0.753672 0.477770
Si Si2 0.780106 0.982783 0.024069
Si Si3 0.820343 0.881703 0.644975
Si Si4 0.546475 0.369643 0.109606
Si Si5 0.042899 0.593682 0.959327
Si Si6 0.682519 0.699864 0.425777
O O1 0.411379 0.570466 0.283887
O O2 0.514336 0.709954 0.512175
O O3 0.124438 0.763284 0.585680
O O4 0.000000 0.000000 0.500000
O O5 0.118304 0.819082 0.995442
O O6 0.785230 0.860864 0.064843
O O7 0.746395 0.961618 0.841617
O O8 0.562578 0.236677 0.142335
O O9 0.824738 0.731487 0.534511
O O10 0.567101 0.093255 0.613652
O O11 0.337124 0.470097 0.999844
O O12 0.095115 0.516754 0.761987
O O13 0.000000 0.500000 0.000000
#
# Coordination Sequence:
#
# PCOD9019245 Si02
#       6
#     2   2   2   2   2   2
#     4  10  22  42  76 103 140 196 237 294 369 430
#     4  11  25  44  75 103 146 192 237 309 356 436
#     4  10  22  44  68 107 142 189 240 293 373 419
#     4  11  24  47  70 105 145 185 246 295 364 436
#     4  12  25  45  72 104 145 195 240 302 371 423
#     4  10  21  44  70 100 149 184 237 307 345 444
#
# _framework density 26.876256999999999
#
# number of rings (size 3 to 8) (size 9 to 14) (size 15 to 20)
#    0.000    1.333    3.333    1.500    0.000    3.333 
#    3.000    0.000    0.000    0.000    0.000    0.000 
#    0.000    0.000    0.000    0.000    0.000    0.000 
#
# Total GULP energy -67340.175914 kJ/mol
# GULP energy per Si atom -5611.681326 kJ/mol
# Density = 2.681509 g / cm^3
# Si number density = 26.876257 Si / 1000 Ang^3
#
#
#
# Elastic Constant Matrix: (Units=GPa)
#
#
# Indices 1 2 3 4 5 6 
#
# 1 196.8010 60.1639 49.0374 -10.2761 7.3219 16.5972
# 2 60.1639 158.5740 35.8754 0.9909 17.3103 30.3728
# 3 49.0374 35.8754 66.6020 -5.3356 20.9893 11.4026
# 4 -10.2761 0.9909 -5.3356 46.8667 6.4020 14.1415
# 5 7.3219 17.3103 20.9893 6.4020 45.5319 1.5650
# 6 16.5972 30.3728 11.4026 14.1415 1.5650 62.4723
#
#
#
# Elastic Compliance Matrix: (Units=1/GPa)
#
#
# Indices 1 2 3 4 5 6 
#
# 1 0.006699 -0.001635 -0.004352 0.000945 0.001433 -0.000440
# 2 -0.001635 0.008210 -0.002034 0.000472 -0.001876 -0.003246
# 3 -0.004352 -0.002034 0.023123 0.003854 -0.009635 -0.002706
# 4 0.000945 0.000472 0.003854 0.024709 -0.005354 -0.006643
# 5 0.001433 -0.001876 -0.009635 -0.005354 0.027543 0.002812
# 6 -0.000440 -0.003246 -0.002706 -0.006643 0.002812 0.019629
#
#
# Mechanical properties :
#
#
# Convention : Reuss Voigt Hill
#
# Bulk Modulus (GPa) = 45.47517 79.12559 62.30038
# Shear Modulus (GPa) = 37.51372 49.43421 43.47396
#
# Velocity S-wave (km/s) = 3.74009 4.29339 4.02625
# Velocity P-wave (km/s) = 5.96724 7.35406 6.69665
#
# Compressibility (1/GPa) = 0.02199002
#
# Stress axis : x y z
#
# Youngs Moduli (GPa) = 149.28471 121.79993 43.24722
#
# Poissons Ratio (x) = 0.19913 0.18820
# Poissons Ratio (y) = 0.24407 0.08797
# Poissons Ratio (z) = 0.64966 0.24775
#
# Static dielectric constant tensor:
#      x y z
#    x 2.166260 0.030910 -0.031070 
#    y 0.030910 2.130110 0.022810 
#    z -0.031070 0.022810 2.116400 
# 
# From -- ./inp_files/172212.got.cif
#   From: 2010.05.17/outbox.cif.g08.bks.cpg/sg2_87_cif.got.tgz:172212.got - 2010.06.03 11:33:40.
