data_PCOD9019574
_publ_section_title
;
Structure prediction by ZEFSAII (Michael W. Deem and Ramdas Pophale) SiO2 
 PCOD9019574
Probable space group: P -1
;
_chemical_formula_sum "Si O2"
_cell_formula_units_Z 13
_cell_length_a 17.904411
_cell_length_b 4.907742
_cell_length_c 20.383595
_cell_angle_alpha 91.561165
_cell_angle_beta 19.564969
_cell_angle_gamma 97.860735
_cell_volume 565.595268
_symmetry_space_group_name_H-M "P -1"
_symmetry_group_IT_number 2
_symmetry_cell_setting 'triclinic'
loop_
_space_group_symop_operation_xyz
x,y,z
-x,-y,-z
loop_
_atom_site_type_symbol
_atom_site_label
_atom_site_fract_x
_atom_site_fract_y
_atom_site_fract_z
Si Si1 0.832663 0.601576 0.684863
Si Si2 0.961178 0.280316 0.355736
Si Si3 0.439704 0.749691 0.926462
Si Si4 0.642427 0.685771 0.619399
Si Si5 0.750023 0.681087 0.157049
Si Si6 0.500000 0.000000 0.000000
Si Si7 0.710680 0.172397 0.278666
O O1 0.661345 0.734216 0.789270
O O2 0.684438 0.317984 0.843830
O O3 0.000000 0.500000 0.500000
O O4 0.971148 0.810582 0.628638
O O5 0.803126 0.486227 0.500195
O O6 0.804798 0.979420 0.451396
O O7 0.198179 0.477975 0.124906
O O8 0.536696 0.781823 0.773080
O O9 0.412824 0.017322 0.991619
O O10 0.428199 0.492270 0.751497
O O11 0.703091 0.474903 0.258914
O O12 0.705252 0.971122 0.218588
O O13 0.025285 0.760870 0.910256
O O14 0.500000 0.000000 0.500000
#
# Coordination Sequence:
#
# PCOD9019574 Si02
#       7
#     2   2   2   2   2   1   2
#     4  11  22  39  64  85 116 173 229 284 320 380
#     4  11  26  41  64  91 129 176 223 272 329 384
#     4  11  26  40  64  90 126 176 230 279 330 376
#     4  12  26  44  63  97 140 170 208 274 334 384
#     4  10  23  41  68 105 134 165 217 257 313 398
#     4  10  22  38  62  84 116 162 232 280 308 382
#     4  10  21  44  75 100 129 173 210 256 312 386
#
# _framework density 22.984632999999999
#
# number of rings (size 3 to 8) (size 9 to 14) (size 15 to 20)
#    0.000    1.231    1.538    4.154    8.615    3.692 
#    0.000    0.000    0.000    0.000    0.000    0.000 
#    0.000    0.000    0.000    0.000    0.000    0.000 
#
# Total GULP energy -72453.978367 kJ/mol
# GULP energy per Si atom -5573.382951 kJ/mol
# Density = 2.293232 g / cm^3
# Si number density = 22.984633 Si / 1000 Ang^3
#
#
#
# Elastic Constant Matrix: (Units=GPa)
#
#
# Indices 1 2 3 4 5 6 
#
# 1 38.4407 -0.9533 39.2778 -2.0141 -14.1187 11.3762
# 2 -0.9533 74.2721 29.7103 -12.2613 -11.8158 3.1050
# 3 39.2778 29.7103 145.2939 -16.5388 -3.8704 12.0365
# 4 -2.0141 -12.2613 -16.5388 48.7331 6.5565 -10.3330
# 5 -14.1187 -11.8158 -3.8704 6.5565 29.8582 -13.4550
# 6 11.3762 3.1050 12.0365 -10.3330 -13.4550 28.2017
#
#
#
# Elastic Compliance Matrix: (Units=1/GPa)
#
#
# Indices 1 2 3 4 5 6 
#
# 1 0.053789 0.010709 -0.016185 -0.005248 0.026324 -0.005333
# 2 0.010709 0.018295 -0.006341 0.001854 0.012415 0.002975
# 3 -0.016185 -0.006341 0.012789 0.003021 -0.010028 -0.001909
# 4 -0.005248 0.001854 0.003021 0.023883 -0.003027 0.007930
# 5 0.026324 0.012415 -0.010028 -0.003027 0.058910 0.019292
# 6 -0.005333 0.002975 -0.001909 0.007930 0.019292 0.050207
#
#
# Mechanical properties :
#
#
# Convention : Reuss Voigt Hill
#
# Bulk Modulus (GPa) = 16.32932 43.78625 30.05778
# Shear Modulus (GPa) = 19.08985 34.02339 26.55662
#
# Velocity S-wave (km/s) = 2.88505 3.85160 3.40282
# Velocity P-wave (km/s) = 4.26824 6.23469 5.34272
#
# Compressibility (1/GPa) = 0.06123953
#
# Stress axis : x y z
#
# Youngs Moduli (GPa) = 18.59130 54.66073 78.18986
#
# Poissons Ratio (x) = -0.58537 1.26551
# Poissons Ratio (y) = -0.19910 0.49578
# Poissons Ratio (z) = 0.30090 0.34659
#
# Static dielectric constant tensor:
#      x y z
#    x 2.203480 -0.350420 0.097730 
#    y -0.350420 2.174070 -0.174810 
#    z 0.097730 -0.174810 1.854790 
# 
# From -- ./inp_files/119738.got.cif
#   From: 2010.05.17/outbox.cif.g08.bks.cpg/sg2_60_cif.got.tgz:119738.got - 2010.06.03 11:33:40.
