data_PCOD9019238
_publ_section_title
;
Structure prediction by ZEFSAII (Michael W. Deem and Ramdas Pophale) SiO2 
 PCOD9019238
Probable space group: P -1
;
_chemical_formula_sum "Si O2"
_cell_formula_units_Z 16
_cell_length_a 9.984432
_cell_length_b 10.172028
_cell_length_c 13.920137
_cell_angle_alpha 33.338484
_cell_angle_beta 114.671628
_cell_angle_gamma 103.004354
_cell_volume 684.049898
_symmetry_space_group_name_H-M "P -1"
_symmetry_group_IT_number 2
_symmetry_cell_setting 'triclinic'
loop_
_space_group_symop_operation_xyz
x,y,z
-x,-y,-z
loop_
_atom_site_type_symbol
_atom_site_label
_atom_site_fract_x
_atom_site_fract_y
_atom_site_fract_z
Si Si1 0.888303 0.932344 0.584410
Si Si2 0.885876 0.160326 0.944985
Si Si3 0.284360 0.928069 0.377329
Si Si4 0.897602 0.573366 0.042565
Si Si5 0.440004 0.915949 0.678267
Si Si6 0.669238 0.829690 0.155457
Si Si7 0.675698 0.451457 0.549951
Si Si8 0.626281 0.584778 0.095145
O O1 0.997666 0.678236 0.812174
O O2 0.821172 0.116172 0.540099
O O3 0.734713 0.933963 0.477610
O O4 0.000000 0.000000 0.500000
O O5 0.774391 0.377240 0.719535
O O6 0.986165 0.275508 0.975863
O O7 0.788946 0.990177 0.070067
O O8 0.000000 0.000000 0.000000
O O9 0.272351 0.780320 0.367055
O O10 0.463157 0.910879 0.446909
O O11 0.225521 0.226234 0.174914
O O12 0.786296 0.520068 0.125680
O O13 0.446818 0.648118 0.795734
O O14 0.514280 0.823615 0.861791
O O15 0.699557 0.680431 0.355009
O O16 0.661109 0.648718 0.174448
O O17 0.500000 0.000000 0.000000
O O18 0.500000 0.500000 0.500000
#
# Coordination Sequence:
#
# PCOD9019238 Si02
#       8
#     2   2   2   2   2   2   2   2
#     4  12  25  43  68 107 139 181 237 292 354 427
#     4  12  24  49  72 105 147 189 238 300 360 421
#     4  11  25  47  70  98 144 185 232 291 358 426
#     4  11  24  45  72  96 147 183 227 296 359 418
#     4  10  22  41  72  97 135 187 231 283 355 420
#     4  12  26  44  73 107 142 188 244 294 355 426
#     4  12  27  48  76 105 144 192 242 297 359 429
#     4  10  21  44  69  99 141 184 227 291 353 425
#
# _framework density 23.390105999999999
#
# number of rings (size 3 to 8) (size 9 to 14) (size 15 to 20)
#    0.000    0.750    5.000    2.250    1.750    1.500 
#    4.500    0.000    0.000    0.000    0.000    0.000 
#    0.000    0.000    0.000    0.000    0.000    0.000 
#
# Total GULP energy -89352.620712 kJ/mol
# GULP energy per Si atom -5584.538795 kJ/mol
# Density = 2.333687 g / cm^3
# Si number density = 23.390106 Si / 1000 Ang^3
#
#
#
# Elastic Constant Matrix: (Units=GPa)
#
#
# Indices 1 2 3 4 5 6 
#
# 1 163.8422 24.1005 25.8331 1.1305 2.7565 -6.1930
# 2 24.1005 61.5551 -15.5360 -5.6824 -3.2471 -1.2418
# 3 25.8331 -15.5360 114.2896 10.7930 4.2152 -5.3898
# 4 1.1305 -5.6824 10.7930 30.7219 -0.9956 11.8837
# 5 2.7565 -3.2471 4.2152 -0.9956 55.6681 -2.6614
# 6 -6.1930 -1.2418 -5.3898 11.8837 -2.6614 42.8564
#
#
#
# Elastic Compliance Matrix: (Units=1/GPa)
#
#
# Indices 1 2 3 4 5 6 
#
# 1 0.006920 -0.003240 -0.001907 -0.000498 -0.000359 0.000782
# 2 -0.003240 0.018554 0.002956 0.002633 0.001055 -0.000223
# 3 -0.001907 0.002956 0.010050 -0.003734 -0.000461 0.002081
# 4 -0.000498 0.002633 -0.003734 0.038704 0.000620 -0.011159
# 5 -0.000359 0.001055 -0.000461 0.000620 0.018131 0.000875
# 6 0.000782 -0.000223 0.002081 -0.011159 0.000875 0.026851
#
#
# Mechanical properties :
#
#
# Convention : Reuss Voigt Hill
#
# Bulk Modulus (GPa) = 32.10977 45.38688 38.74832
# Shear Modulus (GPa) = 37.32122 46.20190 41.76156
#
# Velocity S-wave (km/s) = 3.99883 4.44923 4.23003
# Velocity P-wave (km/s) = 5.92272 6.77057 6.36078
#
# Compressibility (1/GPa) = 0.03114317
#
# Stress axis : x y z
#
# Youngs Moduli (GPa) = 144.51379 53.89540 99.49819
#
# Poissons Ratio (x) = 0.17461 0.18978
# Poissons Ratio (y) = 0.46819 -0.29416
# Poissons Ratio (z) = 0.27564 -0.15934
#
# Static dielectric constant tensor:
#      x y z
#    x 1.878320 -0.027310 -0.069530 
#    y -0.027310 1.897920 0.030390 
#    z -0.069530 0.030390 2.154040 
# 
# From -- ./inp_files/499766.got.cif
#   From: 2010.05.17/outbox.cif.g08.bks.cpg/sg2_250_cif.got.tgz:499766.got - 2010.06.03 11:33:40.
