data_PCOD9019313
_publ_section_title
;
Structure prediction by ZEFSAII (Michael W. Deem and Ramdas Pophale) SiO2 
 PCOD9019313
Probable space group: P -1
;
_chemical_formula_sum "Si O2"
_cell_formula_units_Z 16
_cell_length_a 5.793586
_cell_length_b 7.994089
_cell_length_c 14.864003
_cell_angle_alpha 94.012348
_cell_angle_beta 86.770847
_cell_angle_gamma 77.777075
_cell_volume 669.374014
_symmetry_space_group_name_H-M "P -1"
_symmetry_group_IT_number 2
_symmetry_cell_setting 'triclinic'
loop_
_space_group_symop_operation_xyz
x,y,z
-x,-y,-z
loop_
_atom_site_type_symbol
_atom_site_label
_atom_site_fract_x
_atom_site_fract_y
_atom_site_fract_z
Si Si1 0.733542 0.025468 0.052909
Si Si2 0.208575 0.627762 0.954779
Si Si3 0.692708 0.820125 0.223336
Si Si4 0.718076 0.384947 0.544520
Si Si5 0.557057 0.051911 0.601105
Si Si6 0.378066 0.634224 0.137659
Si Si7 0.917109 0.703390 0.624665
Si Si8 0.045628 0.449085 0.202035
O O1 0.670354 0.227220 0.081612
O O2 0.761211 0.923576 0.141801
O O3 0.500000 0.000000 0.000000
O O4 0.000000 0.000000 0.000000
O O5 0.381953 0.445794 0.924695
O O6 0.982372 0.630497 0.898698
O O7 0.189081 0.664633 0.062216
O O8 0.663611 0.909655 0.323875
O O9 0.433059 0.790532 0.197639
O O10 0.861909 0.632425 0.223562
O O11 0.500000 0.500000 0.500000
O O12 0.647638 0.230365 0.596048
O O13 0.822539 0.527705 0.601520
O O14 0.898270 0.298464 0.459589
O O15 0.500000 0.000000 0.500000
O O16 0.733624 0.883838 0.629005
O O17 0.299727 0.498467 0.199636
O O18 0.006465 0.674280 0.723609
#
# Coordination Sequence:
#
# PCOD9019313 Si02
#       8
#     2   2   2   2   2   2   2   2
#     4  12  27  47  75 111 157 201 257 324 392 463
#     4  10  23  40  69 100 140 193 246 304 378 461
#     4  11  26  45  71 107 148 196 251 319 388 457
#     4  11  23  48  75 100 145 188 249 317 385 455
#     4  12  26  48  74 106 147 195 255 316 383 465
#     4  10  21  44  70  97 141 191 243 306 379 451
#     4  11  26  44  74 106 141 199 246 316 392 454
#     4  11  24  43  69 104 143 188 255 307 385 457
#
# _framework density 23.902927999999999
#
# number of rings (size 3 to 8) (size 9 to 14) (size 15 to 20)
#    0.000    1.000    2.500    3.000    5.250    2.000 
#    4.500    0.000    0.000    0.000    0.000    0.000 
#    0.000    0.000    0.000    0.000    0.000    0.000 
#
# Total GULP energy -89320.138662 kJ/mol
# GULP energy per Si atom -5582.508666 kJ/mol
# Density = 2.384852 g / cm^3
# Si number density = 23.902928 Si / 1000 Ang^3
#
#
#
# Elastic Constant Matrix: (Units=GPa)
#
#
# Indices 1 2 3 4 5 6 
#
# 1 62.6403 14.1767 33.9858 1.3820 -9.3095 9.3784
# 2 14.1767 128.8617 37.2969 -22.7085 -10.4513 -7.6786
# 3 33.9858 37.2969 139.8180 -20.2671 -11.3487 -8.9414
# 4 1.3820 -22.7085 -20.2671 45.7181 4.0478 -5.5128
# 5 -9.3095 -10.4513 -11.3487 4.0478 29.5042 1.0624
# 6 9.3784 -7.6786 -8.9414 -5.5128 1.0624 39.8600
#
#
#
# Elastic Compliance Matrix: (Units=1/GPa)
#
#
# Indices 1 2 3 4 5 6 
#
# 1 0.021354 -0.001712 -0.005577 -0.005311 0.004984 -0.007472
# 2 -0.001712 0.009326 -0.001152 0.004330 0.001637 0.002496
# 3 -0.005577 -0.001152 0.009755 0.004310 0.000855 0.003852
# 4 -0.005311 0.004330 0.004310 0.027141 -0.002455 0.006870
# 5 0.004984 0.001637 0.000855 -0.002455 0.036783 -0.001986
# 6 -0.007472 0.002496 0.003852 0.006870 -0.001986 0.029194
#
#
# Mechanical properties :
#
#
# Convention : Reuss Voigt Hill
#
# Bulk Modulus (GPa) = 42.45428 55.80431 49.12929
# Shear Modulus (GPa) = 31.58832 39.40715 35.49773
#
# Velocity S-wave (km/s) = 3.63922 4.06474 3.85785
# Velocity P-wave (km/s) = 5.95468 6.73991 6.35943
#
# Compressibility (1/GPa) = 0.02355475
#
# Stress axis : x y z
#
# Youngs Moduli (GPa) = 46.82944 107.22221 102.50700
#
# Poissons Ratio (x) = 0.18356 0.57168
# Poissons Ratio (y) = 0.08017 0.11805
# Poissons Ratio (z) = 0.26117 0.12348
#
# Static dielectric constant tensor:
#      x y z
#    x 2.082240 0.248360 -0.022160 
#    y 0.248360 3.393520 -0.200510 
#    z -0.022160 -0.200510 2.025280 
# 
# From -- ./inp_files/480524.got.cif
#   From: 2010.05.17/outbox.cif.g08.bks.cpg/sg2_241_cif.got.tgz:480524.got - 2010.06.03 11:33:40.
