data_PCOD9019907
_publ_section_title
;
Structure prediction by ZEFSAII (Michael W. Deem and Ramdas Pophale) SiO2 
 PCOD9019907
Probable space group: P -1
;
_chemical_formula_sum "Si O2"
_cell_formula_units_Z 16
_cell_length_a 9.510086
_cell_length_b 15.476473
_cell_length_c 10.458746
_cell_angle_alpha 148.847091
_cell_angle_beta 79.075601
_cell_angle_gamma 116.710206
_cell_volume 644.825984
_symmetry_space_group_name_H-M "P -1"
_symmetry_group_IT_number 2
_symmetry_cell_setting 'triclinic'
loop_
_space_group_symop_operation_xyz
x,y,z
-x,-y,-z
loop_
_atom_site_type_symbol
_atom_site_label
_atom_site_fract_x
_atom_site_fract_y
_atom_site_fract_z
Si Si1 0.534539 0.529578 0.211084
Si Si2 0.684222 0.987842 0.694442
Si Si3 0.248077 0.499746 0.064787
Si Si4 0.905920 0.090696 0.558182
Si Si5 0.324761 0.838685 0.665927
Si Si6 0.875224 0.979950 0.138808
Si Si7 0.237863 0.355234 0.452577
Si Si8 0.813759 0.335873 0.269475
O O1 0.636107 0.764836 0.445005
O O2 0.341025 0.438293 0.076750
O O3 0.586753 0.555422 0.383053
O O4 0.621193 0.435491 0.996411
O O5 0.517847 0.982398 0.761347
O O6 0.747867 0.049536 0.618759
O O7 0.827452 0.162939 0.982947
O O8 0.237561 0.665389 0.353083
O O9 0.060073 0.326508 0.827975
O O10 0.843651 0.992587 0.307643
O O11 0.000000 0.000000 0.500000
O O12 0.315593 0.749953 0.695042
O O13 0.228126 0.948665 0.832953
O O14 0.797472 0.755339 0.817839
O O15 0.077862 0.159880 0.308522
O O16 0.222712 0.542883 0.672369
O O17 0.000000 0.500000 0.500000
#
# Coordination Sequence:
#
# PCOD9019907 Si02
#       8
#     2   2   2   2   2   2   2   2
#     4  10  21  45  71  99 141 186 221 288 350 408
#     4  11  25  45  67  97 144 189 229 284 351 412
#     4  10  22  40  72  99 137 180 232 278 344 415
#     4  12  24  42  73 104 134 188 231 287 345 417
#     4  11  25  46  67 100 143 189 225 291 349 413
#     4  11  25  44  71 102 145 180 232 286 355 411
#     4  11  24  44  72 108 137 180 235 292 342 422
#     4  12  25  42  72 104 139 183 235 287 350 416
#
# _framework density 24.812895999999999
#
# number of rings (size 3 to 8) (size 9 to 14) (size 15 to 20)
#    0.000    1.000    3.750    1.875    5.250    3.000 
#    2.250    3.125    0.000    0.000    0.000    0.000 
#    0.000    0.000    0.000    0.000    0.000    0.000 
#
# Total GULP energy -89511.476302 kJ/mol
# GULP energy per Si atom -5594.467269 kJ/mol
# Density = 2.475642 g / cm^3
# Si number density = 24.812896 Si / 1000 Ang^3
#
#
#
# Elastic Constant Matrix: (Units=GPa)
#
#
# Indices 1 2 3 4 5 6 
#
# 1 55.6748 18.5676 -8.7147 -3.5015 12.1402 2.9270
# 2 18.5676 73.1133 39.0737 -16.9515 11.4919 14.1323
# 3 -8.7147 39.0737 124.8125 -29.2205 2.6675 0.7159
# 4 -3.5015 -16.9515 -29.2205 37.1978 -7.3849 -2.3540
# 5 12.1402 11.4919 2.6675 -7.3849 38.2511 -4.8198
# 6 2.9270 14.1323 0.7159 -2.3540 -4.8198 37.3230
#
#
#
# Elastic Compliance Matrix: (Units=1/GPa)
#
#
# Indices 1 2 3 4 5 6 
#
# 1 0.021979 -0.006700 0.004017 0.001190 -0.004992 0.000167
# 2 -0.006700 0.021721 -0.006471 0.002805 -0.004410 -0.007968
# 3 0.004017 -0.006471 0.011983 0.007317 0.001570 0.002570
# 4 0.001190 0.002805 0.007317 0.035167 0.005261 0.001602
# 5 -0.004992 -0.004410 0.001570 0.005261 0.030757 0.006335
# 6 0.000167 -0.007968 0.002570 0.001602 0.006335 0.030667
#
#
# Mechanical properties :
#
#
# Convention : Reuss Voigt Hill
#
# Bulk Modulus (GPa) = 26.75658 39.05043 32.90350
# Shear Modulus (GPa) = 27.31636 36.19932 31.75784
#
# Velocity S-wave (km/s) = 3.32157 3.82369 3.58144
# Velocity P-wave (km/s) = 5.05145 5.93854 5.51287
#
# Compressibility (1/GPa) = 0.03737399
#
# Stress axis : x y z
#
# Youngs Moduli (GPa) = 45.49745 46.03876 83.45200
#
# Poissons Ratio (x) = 0.30845 -0.33519
# Poissons Ratio (y) = 0.30483 0.54003
# Poissons Ratio (z) = -0.18274 0.29792
#
# Static dielectric constant tensor:
#      x y z
#    x 1.948550 0.020130 0.012760 
#    y 0.020130 2.006740 0.049680 
#    z 0.012760 0.049680 2.001920 
# 
# From -- ./inp_files/274642.got.cif
#   From: 2010.05.17/outbox.cif.g08.bks.cpg/sg2_138_cif.got.tgz:274642.got - 2010.06.03 11:33:40.
