data_PCOD9019214
_publ_section_title
;
Structure prediction by ZEFSAII (Michael W. Deem and Ramdas Pophale) SiO2 
 PCOD9019214
Probable space group: P -1
;
_chemical_formula_sum "Si O2"
_cell_formula_units_Z 16
_cell_length_a 14.103194
_cell_length_b 10.622222
_cell_length_c 8.204633
_cell_angle_alpha 136.281904
_cell_angle_beta 79.221145
_cell_angle_gamma 120.594671
_cell_volume 696.601159
_symmetry_space_group_name_H-M "P -1"
_symmetry_group_IT_number 2
_symmetry_cell_setting 'triclinic'
loop_
_space_group_symop_operation_xyz
x,y,z
-x,-y,-z
loop_
_atom_site_type_symbol
_atom_site_label
_atom_site_fract_x
_atom_site_fract_y
_atom_site_fract_z
Si Si1 0.996392 0.176394 0.955682
Si Si2 0.531553 0.326645 0.879845
Si Si3 0.814495 0.829349 0.484499
Si Si4 0.857799 0.009850 0.162079
Si Si5 0.709473 0.020759 0.496978
Si Si6 0.783500 0.472402 0.922883
Si Si7 0.676944 0.659799 0.682402
Si Si8 0.498113 0.782120 0.829282
O O1 0.108894 0.419426 0.134054
O O2 0.045904 0.023021 0.825037
O O3 0.920097 0.072868 0.720731
O O4 0.914500 0.144845 0.104483
O O5 0.420661 0.098214 0.638607
O O6 0.500000 0.500000 0.000000
O O7 0.656249 0.402700 0.840117
O O8 0.541118 0.305247 0.053282
O O9 0.829079 0.668748 0.219248
O O10 0.768752 0.715483 0.565011
O O11 0.719633 0.853411 0.447420
O O12 0.798937 0.082930 0.377116
O O13 0.750908 0.767719 0.919845
O O14 0.754205 0.243282 0.785694
O O15 0.618037 0.795250 0.793215
O O16 0.581940 0.404942 0.452702
O O17 0.500000 0.000000 0.000000
#
# Coordination Sequence:
#
# PCOD9019214 Si02
#       8
#     2   2   2   2   2   2   2   2
#     4  10  23  44  71  96 131 184 229 283 350 405
#     4  12  23  47  70 101 145 183 229 284 349 419
#     4  11  23  45  69  96 138 179 230 285 345 417
#     4  10  21  44  69  96 131 177 233 283 342 416
#     4  12  25  42  70 103 137 177 231 287 349 411
#     4  12  25  41  69  99 136 180 226 282 343 412
#     4  10  22  43  68  93 137 186 220 285 348 409
#     4  11  24  41  67 102 140 179 233 282 347 419
#
# _framework density 22.968668999999998
#
# number of rings (size 3 to 8) (size 9 to 14) (size 15 to 20)
#    0.000    1.000    5.000    0.750    1.750    2.000 
#    2.250    0.000    0.000    0.000    0.000    0.000 
#    0.000    0.000    0.000    0.000    0.000    0.000 
#
# Total GULP energy -89338.644941 kJ/mol
# GULP energy per Si atom -5583.665309 kJ/mol
# Density = 2.291639 g / cm^3
# Si number density = 22.968669 Si / 1000 Ang^3
#
#
#
# Elastic Constant Matrix: (Units=GPa)
#
#
# Indices 1 2 3 4 5 6 
#
# 1 84.2014 12.6444 30.4586 9.1201 15.3562 8.7568
# 2 12.6444 71.5726 22.4419 7.6382 -9.7423 5.5385
# 3 30.4586 22.4419 59.1732 8.1893 0.1432 -17.5661
# 4 9.1201 7.6382 8.1893 26.2013 -5.6789 -2.0579
# 5 15.3562 -9.7423 0.1432 -5.6789 30.6572 9.4956
# 6 8.7568 5.5385 -17.5661 -2.0579 9.4956 36.7277
#
#
#
# Elastic Compliance Matrix: (Units=1/GPa)
#
#
# Indices 1 2 3 4 5 6 
#
# 1 0.018873 0.000524 -0.011672 -0.005388 -0.007598 -0.008499
# 2 0.000524 0.019363 -0.010549 -0.001419 0.008922 -0.010476
# 3 -0.011672 -0.010549 0.033714 -0.002757 -0.004865 0.021602
# 4 -0.005388 -0.001419 -0.002757 0.043555 0.010346 -0.000054
# 5 -0.007598 0.008922 -0.004865 0.010346 0.045217 -0.012971
# 6 -0.008499 -0.010476 0.021602 -0.000054 -0.012971 0.044516
#
#
# Mechanical properties :
#
#
# Convention : Reuss Voigt Hill
#
# Bulk Modulus (GPa) = 35.01751 38.44855 36.73303
# Shear Modulus (GPa) = 19.36845 28.67738 24.02291
#
# Velocity S-wave (km/s) = 2.90704 3.53731 3.23755
# Velocity P-wave (km/s) = 5.15235 5.78440 5.47750
#
# Compressibility (1/GPa) = 0.02855714
#
# Stress axis : x y z
#
# Youngs Moduli (GPa) = 52.98560 51.64362 29.66085
#
# Poissons Ratio (x) = -0.02707 0.34621
# Poissons Ratio (y) = -0.02777 0.31289
# Poissons Ratio (z) = 0.61847 0.54478
#
# Static dielectric constant tensor:
#      x y z
#    x 1.913890 0.034790 0.009260 
#    y 0.034790 1.921800 -0.026510 
#    z 0.009260 -0.026510 1.856860 
# 
# From -- ./inp_files/305993.got.cif
#   From: 2010.05.17/outbox.cif.g08.bks.cpg/sg2_153_cif.got.tgz:305993.got - 2010.06.03 11:33:40.
