data_PCOD9019579
_publ_section_title
;
Structure prediction by ZEFSAII (Michael W. Deem and Ramdas Pophale) SiO2 
 PCOD9019579
Probable space group: P -1
;
_chemical_formula_sum "Si O2"
_cell_formula_units_Z 16
_cell_length_a 7.523916
_cell_length_b 12.438430
_cell_length_c 10.459694
_cell_angle_alpha 47.518307
_cell_angle_beta 66.638930
_cell_angle_gamma 55.170603
_cell_volume 592.494622
_symmetry_space_group_name_H-M "P -1"
_symmetry_group_IT_number 2
_symmetry_cell_setting 'triclinic'
loop_
_space_group_symop_operation_xyz
x,y,z
-x,-y,-z
loop_
_atom_site_type_symbol
_atom_site_label
_atom_site_fract_x
_atom_site_fract_y
_atom_site_fract_z
Si Si1 0.060018 0.190556 0.438785
Si Si2 0.964546 0.889103 0.746435
Si Si3 0.591943 0.594124 0.704037
Si Si4 0.445219 0.095267 0.690020
Si Si5 0.169341 0.025250 0.019175
Si Si6 0.946622 0.492080 0.372204
Si Si7 0.467996 0.331238 0.828054
Si Si8 0.480768 0.207305 0.207890
O O1 0.950207 0.242025 0.286553
O O2 0.284707 0.194781 0.346205
O O3 0.956516 0.314594 0.483420
O O4 0.056136 0.019987 0.594265
O O5 0.701697 0.988240 0.723715
O O6 0.968266 0.860582 0.917854
O O7 0.576764 0.740279 0.498164
O O8 0.539232 0.471360 0.732238
O O9 0.456762 0.685298 0.797691
O O10 0.841827 0.501380 0.753614
O O11 0.268833 0.397782 0.733463
O O12 0.372402 0.983364 0.711083
O O13 0.301300 0.107324 0.844082
O O14 0.346395 0.837767 0.146695
O O15 0.000000 0.000000 0.000000
O O16 0.000000 0.500000 0.500000
O O17 0.420298 0.284867 0.021964
#
# Coordination Sequence:
#
# PCOD9019579 Si02
#       8
#     2   2   2   2   2   2   2   2
#     4   9  21  43  72 111 142 196 254 310 376 455
#     4  10  21  44  75 106 148 197 253 317 376 445
#     4  11  24  43  77 111 152 203 255 315 381 466
#     4  10  22  44  71 110 150 199 255 316 377 450
#     4  11  27  47  74 109 154 200 257 319 387 455
#     4  11  27  46  73 107 155 203 251 313 390 464
#     4  11  26  51  73 114 155 201 256 319 382 465
#     4   9  21  45  73 110 153 202 251 315 385 449
#
# _framework density 27.004465
#
# number of rings (size 3 to 8) (size 9 to 14) (size 15 to 20)
#    0.000    1.750    0.000    1.875    7.000    2.500 
#   20.250    0.000    0.000    0.000    0.000    0.000 
#    0.000    0.000    0.000    0.000    0.000    0.000 
#
# Total GULP energy -89454.648919 kJ/mol
# GULP energy per Si atom -5590.915557 kJ/mol
# Density = 2.694300 g / cm^3
# Si number density = 27.004465 Si / 1000 Ang^3
#
#
#
# Elastic Constant Matrix: (Units=GPa)
#
#
# Indices 1 2 3 4 5 6 
#
# 1 142.2868 39.3803 12.2434 -19.2350 7.9618 32.8061
# 2 39.3803 186.3576 59.7541 -0.4032 12.8007 50.0516
# 3 12.2434 59.7541 126.5464 -5.7675 0.1918 17.8809
# 4 -19.2350 -0.4032 -5.7675 52.9286 4.5897 7.1965
# 5 7.9618 12.8007 0.1918 4.5897 39.2265 -0.4649
# 6 32.8061 50.0516 17.8809 7.1965 -0.4649 50.3142
#
#
#
# Elastic Compliance Matrix: (Units=1/GPa)
#
#
# Indices 1 2 3 4 5 6 
#
# 1 0.009349 -0.000058 0.000299 0.004574 -0.002496 -0.006822
# 2 -0.000058 0.008566 -0.002911 0.001022 -0.002979 -0.007622
# 3 0.000299 -0.002911 0.009413 0.001161 0.000698 -0.000804
# 4 0.004574 0.001022 0.001161 0.022065 -0.003939 -0.007604
# 5 -0.002496 -0.002979 0.000698 -0.003939 0.027490 0.005161
# 6 -0.006822 -0.007622 -0.000804 -0.007604 0.005161 0.033327
#
#
# Mechanical properties :
#
#
# Convention : Reuss Voigt Hill
#
# Bulk Modulus (GPa) = 45.47866 75.32741 60.40303
# Shear Modulus (GPa) = 40.69017 51.41473 46.05245
#
# Velocity S-wave (km/s) = 3.88596 4.36814 4.13409
# Velocity P-wave (km/s) = 6.08374 7.30725 6.72339
#
# Compressibility (1/GPa) = 0.02198834
#
# Stress axis : x y z
#
# Youngs Moduli (GPa) = 106.96118 116.74498 106.23254
#
# Poissons Ratio (x) = 0.00677 -0.03176
# Poissons Ratio (y) = 0.00620 0.30923
# Poissons Ratio (z) = -0.03198 0.33984
#
# Static dielectric constant tensor:
#      x y z
#    x 2.197300 -0.029050 0.056470 
#    y -0.029050 2.282070 0.053470 
#    z 0.056470 0.053470 2.145850 
# 
# From -- ./inp_files/389330.got.cif
#   From: 2010.05.17/outbox.cif.g08.bks.cpg/sg2_195_cif.got.tgz:389330.got - 2010.06.03 11:33:40.
