data_PCOD9019520
_publ_section_title
;
Structure prediction by ZEFSAII (Michael W. Deem and Ramdas Pophale) SiO2 
 PCOD9019520
Probable space group: P -1
;
_chemical_formula_sum "Si O2"
_cell_formula_units_Z 14
_cell_length_a 11.801267
_cell_length_b 8.891315
_cell_length_c 18.140872
_cell_angle_alpha 59.980606
_cell_angle_beta 153.013136
_cell_angle_gamma 131.656092
_cell_volume 621.163775
_symmetry_space_group_name_H-M "P -1"
_symmetry_group_IT_number 2
_symmetry_cell_setting 'triclinic'
loop_
_space_group_symop_operation_xyz
x,y,z
-x,-y,-z
loop_
_atom_site_type_symbol
_atom_site_label
_atom_site_fract_x
_atom_site_fract_y
_atom_site_fract_z
Si Si1 0.686842 0.139995 0.956051
Si Si2 0.768609 0.882357 0.740147
Si Si3 0.747282 0.641270 0.047511
Si Si4 0.700930 0.960527 0.373348
Si Si5 0.322117 0.254078 0.440158
Si Si6 0.338223 0.674862 0.680143
Si Si7 0.244511 0.731559 0.881161
O O1 0.560956 0.180185 0.801225
O O2 0.494069 0.892613 0.928401
O O3 0.635316 0.237790 0.973562
O O4 0.023121 0.209513 0.118226
O O5 0.634172 0.825309 0.593244
O O6 0.524249 0.779297 0.687593
O O7 0.999822 0.126444 0.835509
O O8 0.551641 0.634166 0.865441
O O9 0.500000 0.500000 0.000000
O O10 0.898735 0.510032 0.157605
O O11 0.705977 0.168419 0.336009
O O12 0.639068 0.857799 0.441918
O O13 0.000000 0.000000 0.500000
O O14 0.500000 0.500000 0.500000
O O15 0.981700 0.194960 0.261723
O O16 0.000000 0.500000 0.500000
#
# Coordination Sequence:
#
# PCOD9019520 Si02
#       7
#     2   2   2   2   2   2   2
#     4  10  21  44  73 105 142 196 241 302 351 452
#     4  11  26  51  73 105 152 196 253 299 367 451
#     4  12  25  45  78 107 146 193 248 300 369 443
#     4  12  26  46  74 104 150 189 247 301 375 433
#     4  11  28  46  73 108 148 197 244 308 372 437
#     4  12  31  48  73 111 152 196 246 312 379 430
#     4  10  22  42  72 106 144 188 249 288 371 434
#
# _framework density 22.538339000000001
#
# number of rings (size 3 to 8) (size 9 to 14) (size 15 to 20)
#    0.000    0.857    4.286    0.429    8.000    0.571 
#    0.000    2.857    0.000    0.000    0.000    0.000 
#    0.000    0.000    0.000    0.000    0.000    0.000 
#
# Total GULP energy -78187.762239 kJ/mol
# GULP energy per Si atom -5584.840160 kJ/mol
# Density = 2.248704 g / cm^3
# Si number density = 22.538339 Si / 1000 Ang^3
#
#
#
# Elastic Constant Matrix: (Units=GPa)
#
#
# Indices 1 2 3 4 5 6 
#
# 1 151.2113 44.7344 50.3477 6.1843 -18.2650 20.8225
# 2 44.7344 80.6486 21.5796 15.4814 -10.6717 0.8451
# 3 50.3477 21.5796 82.1234 3.6649 -32.9499 13.9480
# 4 6.1843 15.4814 3.6649 40.2250 1.5183 7.3253
# 5 -18.2650 -10.6717 -32.9499 1.5183 54.1719 0.0866
# 6 20.8225 0.8451 13.9480 7.3253 0.0866 31.4497
#
#
#
# Elastic Compliance Matrix: (Units=1/GPa)
#
#
# Indices 1 2 3 4 5 6 
#
# 1 0.010001 -0.004698 -0.004165 0.001567 -0.000122 -0.005013
# 2 -0.004698 0.016780 -0.001744 -0.006509 0.000836 0.004947
# 3 -0.004165 -0.001744 0.020594 0.000194 0.010783 -0.006404
# 4 0.001567 -0.006509 0.000194 0.028543 -0.001424 -0.007593
# 5 -0.000122 0.000836 0.010783 -0.001424 0.025189 -0.004462
# 6 -0.005013 0.004947 -0.006404 -0.007593 -0.004462 0.039604
#
#
# Mechanical properties :
#
#
# Convention : Reuss Voigt Hill
#
# Bulk Modulus (GPa) = 38.22195 60.81186 49.51690
# Shear Modulus (GPa) = 29.30071 38.32408 33.81239
#
# Velocity S-wave (km/s) = 3.60952 4.12806 3.87747
# Velocity P-wave (km/s) = 5.86233 7.05417 6.48568
#
# Compressibility (1/GPa) = 0.02616298
#
# Stress axis : x y z
#
# Youngs Moduli (GPa) = 99.98859 59.59461 48.55857
#
# Poissons Ratio (x) = 0.27995 0.20223
# Poissons Ratio (y) = 0.46971 0.08467
# Poissons Ratio (z) = 0.41642 0.10391
#
# Static dielectric constant tensor:
#      x y z
#    x 2.046940 -0.199120 -0.068320 
#    y -0.199120 1.966710 0.064380 
#    z -0.068320 0.064380 1.942760 
# 
# From -- ./inp_files/242604.got.cif
#   From: 2010.05.17/outbox.cif.g08.bks.cpg/sg2_122_cif.got.tgz:242604.got - 2010.06.03 11:33:40.
