data_PCOD9019522
_publ_section_title
;
Structure prediction by ZEFSAII (Michael W. Deem and Ramdas Pophale) SiO2 
 PCOD9019522
Probable space group: P -1
;
_chemical_formula_sum "Si O2"
_cell_formula_units_Z 16
_cell_length_a 15.972050
_cell_length_b 11.117758
_cell_length_c 17.571755
_cell_angle_alpha 36.961854
_cell_angle_beta 22.562944
_cell_angle_gamma 34.433815
_cell_volume 666.860009
_symmetry_space_group_name_H-M "P -1"
_symmetry_group_IT_number 2
_symmetry_cell_setting 'triclinic'
loop_
_space_group_symop_operation_xyz
x,y,z
-x,-y,-z
loop_
_atom_site_type_symbol
_atom_site_label
_atom_site_fract_x
_atom_site_fract_y
_atom_site_fract_z
Si Si1 0.496760 0.221800 0.208709
Si Si2 0.386643 0.535695 0.699071
Si Si3 0.282808 0.182005 0.047090
Si Si4 0.966203 0.696514 0.501084
Si Si5 0.581096 0.206744 0.967000
Si Si6 0.374591 0.156365 0.598275
Si Si7 0.855197 0.434344 0.858289
Si Si8 0.200783 0.807630 0.569268
O O1 0.212122 0.319741 0.406757
O O2 0.565503 0.986417 0.304061
O O3 0.535370 0.241561 0.077028
O O4 0.673805 0.319011 0.048790
O O5 0.275656 0.414987 0.911127
O O6 0.514546 0.663107 0.576302
O O7 0.225733 0.699396 0.687366
O O8 0.576825 0.342751 0.589091
O O9 0.027453 0.198356 0.280098
O O10 0.500000 0.000000 0.000000
O O11 0.314274 0.044812 0.010875
O O12 0.964270 0.524140 0.651992
O O13 0.219110 0.702821 0.268245
O O14 0.830625 0.943482 0.522380
O O15 0.335479 0.341813 0.061328
O O16 0.091172 0.266229 0.780681
O O17 0.500000 0.000000 0.500000
#
# Coordination Sequence:
#
# PCOD9019522 Si02
#       8
#     2   2   2   2   2   2   2   2
#     4  11  24  47  68 100 135 190 242 283 334 420
#     4  11  24  47  72  97 140 191 228 282 348 411
#     4  11  26  42  71 112 141 173 224 293 356 417
#     4  10  21  44  73 106 136 177 232 289 349 417
#     4  10  24  44  74 102 141 180 233 286 349 424
#     4  12  30  48  68 101 146 187 234 293 353 406
#     4  11  26  43  69 103 139 187 231 293 345 407
#     4  10  23  45  75 104 136 179 235 282 340 428
#
# _framework density 23.993041000000002
#
# number of rings (size 3 to 8) (size 9 to 14) (size 15 to 20)
#    0.000    1.250    1.250    3.750   10.500    1.500 
#    2.250    0.000    0.000    0.000    0.000    0.000 
#    0.000    0.000    0.000    0.000    0.000    0.000 
#
# Total GULP energy -89376.900586 kJ/mol
# GULP energy per Si atom -5586.056287 kJ/mol
# Density = 2.393843 g / cm^3
# Si number density = 23.993041 Si / 1000 Ang^3
#
#
#
# Elastic Constant Matrix: (Units=GPa)
#
#
# Indices 1 2 3 4 5 6 
#
# 1 37.6886 2.7019 9.9217 10.4589 -10.8300 -21.0144
# 2 2.7019 64.7765 20.5417 14.0542 -10.9358 -9.0793
# 3 9.9217 20.5417 139.6225 -3.9530 -26.1589 -12.0617
# 4 10.4589 14.0542 -3.9530 60.3075 -2.3666 -13.5942
# 5 -10.8300 -10.9358 -26.1589 -2.3666 39.6807 8.1716
# 6 -21.0144 -9.0793 -12.0617 -13.5942 8.1716 44.3157
#
#
#
# Elastic Compliance Matrix: (Units=1/GPa)
#
#
# Indices 1 2 3 4 5 6 
#
# 1 0.038667 0.002823 -0.000447 -0.003410 0.007462 0.016370
# 2 0.002823 0.017808 -0.002050 -0.004065 0.003565 0.002525
# 3 -0.000447 -0.002050 0.008548 0.001597 0.004775 0.001304
# 4 -0.003410 -0.004065 0.001597 0.019093 -0.000676 0.003966
# 5 0.007462 0.003565 0.004775 -0.000676 0.031416 -0.000432
# 6 0.016370 0.002525 0.001304 0.003966 -0.000432 0.032497
#
#
# Mechanical properties :
#
#
# Convention : Reuss Voigt Hill
#
# Bulk Modulus (GPa) = 15.22659 34.26871 24.74765
# Shear Modulus (GPa) = 29.53904 42.78892 36.16398
#
# Velocity S-wave (km/s) = 3.51258 4.22760 3.88657
# Velocity P-wave (km/s) = 4.77609 6.17608 5.52064
#
# Compressibility (1/GPa) = 0.06567459
#
# Stress axis : x y z
#
# Youngs Moduli (GPa) = 25.86191 56.15599 116.98719
#
# Poissons Ratio (x) = -0.15854 0.05234
# Poissons Ratio (y) = -0.07301 0.23978
# Poissons Ratio (z) = 0.01157 0.11510
#
# Static dielectric constant tensor:
#      x y z
#    x 2.030590 0.097990 -0.029530 
#    y 0.097990 1.993180 0.039670 
#    z -0.029530 0.039670 1.891310 
# 
# From -- ./inp_files/600005.got.cif
#   From: 2010.05.17/outbox.cif.g08.bks.cpg/sg2_301_cif.got.tgz:600005.got - 2010.06.03 11:33:40.
