data_PCOD9019562
_publ_section_title
;
Structure prediction by ZEFSAII (Michael W. Deem and Ramdas Pophale) SiO2 
 PCOD9019562
Probable space group: P -1
;
_chemical_formula_sum "Si O2"
_cell_formula_units_Z 16
_cell_length_a 24.320958
_cell_length_b 5.217315
_cell_length_c 4.850463
_cell_angle_alpha 89.117819
_cell_angle_beta 105.939217
_cell_angle_gamma 100.721292
_cell_volume 581.066959
_symmetry_space_group_name_H-M "P -1"
_symmetry_group_IT_number 2
_symmetry_cell_setting 'triclinic'
loop_
_space_group_symop_operation_xyz
x,y,z
-x,-y,-z
loop_
_atom_site_type_symbol
_atom_site_label
_atom_site_fract_x
_atom_site_fract_y
_atom_site_fract_z
Si Si1 0.208358 0.662456 0.349350
Si Si2 0.867509 0.975488 0.911191
Si Si3 0.892518 0.679073 0.442555
Si Si4 0.288577 0.706462 0.967416
Si Si5 0.509818 0.760407 0.827297
Si Si6 0.386982 0.657580 0.497168
Si Si7 0.012016 0.757134 0.834263
Si Si8 0.633007 0.858096 0.147308
O O1 0.192963 0.934643 0.213456
O O2 0.148436 0.546384 0.435402
O O3 0.256931 0.630461 0.639135
O O4 0.240174 0.589473 0.123117
O O5 0.885790 0.918067 0.630032
O O6 0.918958 0.181489 0.125574
O O7 0.868824 0.725907 0.109436
O O8 0.962352 0.701636 0.532537
O O9 0.308935 0.021896 0.944392
O O10 0.347592 0.632585 0.171036
O O11 0.456934 0.714191 0.537763
O O12 0.500000 0.500000 0.000000
O O13 0.578345 0.813894 0.860810
O O14 0.500000 0.000000 0.000000
O O15 0.370427 0.397048 0.665298
O O16 0.374481 0.903296 0.658549
O O17 0.000000 0.500000 0.000000
O O18 0.000000 0.000000 0.000000
#
# Coordination Sequence:
#
# PCOD9019562 Si02
#       8
#     2   2   2   2   2   2   2   2
#     4  12  26  47  66 101 134 192 240 290 344 418
#     4  11  24  45  71 104 139 183 232 295 355 421
#     4  11  24  45  71 104 139 183 232 295 355 421
#     4  12  26  45  68 101 138 194 240 290 346 418
#     4   8  16  35  68 100 135 173 223 286 358 420
#     4  10  22  44  70 104 139 181 232 293 355 421
#     4  10  21  44  74 109 143 181 230 294 362 427
#     4  10  22  44  70 104 139 181 232 293 355 421
#
# _framework density 27.535553
#
# number of rings (size 3 to 8) (size 9 to 14) (size 15 to 20)
#    0.000    1.500    2.500    1.875    0.000    4.500 
#    4.500    2.500    0.000    9.000    0.000    0.000 
#    0.000    0.000    0.000    0.000    0.000    0.000 
#
# Total GULP energy -89449.143795 kJ/mol
# GULP energy per Si atom -5590.571487 kJ/mol
# Density = 2.747288 g / cm^3
# Si number density = 27.535553 Si / 1000 Ang^3
#
#
#
# Elastic Constant Matrix: (Units=GPa)
#
#
# Indices 1 2 3 4 5 6 
#
# 1 94.4157 32.7658 49.2461 0.6996 11.4247 13.2978
# 2 32.7658 136.8927 37.4590 -24.1832 -4.4231 7.4435
# 3 49.2461 37.4590 180.2785 -18.6238 7.9985 -3.7762
# 4 0.6996 -24.1832 -18.6238 37.0260 4.3265 4.8268
# 5 11.4247 -4.4231 7.9985 4.3265 46.0568 -11.9673
# 6 13.2978 7.4435 -3.7762 4.8268 -11.9673 45.0358
#
#
#
# Elastic Compliance Matrix: (Units=1/GPa)
#
#
# Indices 1 2 3 4 5 6 
#
# 1 0.014749 -0.002905 -0.003631 -0.002839 -0.004347 -0.005030
# 2 -0.002905 0.009288 -0.000592 0.005868 0.000872 -0.001124
# 3 -0.003631 -0.000592 0.007022 0.003075 -0.000315 0.001346
# 4 -0.002839 0.005868 0.003075 0.033430 -0.003550 -0.004400
# 5 -0.004347 0.000872 -0.000315 -0.003550 0.025405 0.008244
# 6 -0.005030 -0.001124 0.001346 -0.004400 0.008244 0.026651
#
#
# Mechanical properties :
#
#
# Convention : Reuss Voigt Hill
#
# Bulk Modulus (GPa) = 59.51638 72.28098 65.89868
# Shear Modulus (GPa) = 36.65620 45.09811 40.87715
#
# Velocity S-wave (km/s) = 3.65256 4.05138 3.85713
# Velocity P-wave (km/s) = 6.28089 6.94204 6.61973
#
# Compressibility (1/GPa) = 0.01680210
#
# Stress axis : x y z
#
# Youngs Moduli (GPa) = 67.80053 107.66080 142.41414
#
# Poissons Ratio (x) = 0.31277 0.51712
# Poissons Ratio (y) = 0.19697 0.08437
# Poissons Ratio (z) = 0.24619 0.06378
#
# Static dielectric constant tensor:
#      x y z
#    x 2.256170 0.039760 0.044690 
#    y 0.039760 2.263380 0.048490 
#    z 0.044690 0.048490 2.063000 
# 
# From -- ./inp_files/127958.got.cif
#   From: 2010.05.17/outbox.cif.g08.bks.cpg/sg2_64_cif.got.tgz:127958.got - 2010.06.03 11:33:40.
