data_PCOD9019976
_publ_section_title
;
Structure prediction by ZEFSAII (Michael W. Deem and Ramdas Pophale) SiO2 
 PCOD9019976
Probable space group: P -1
;
_chemical_formula_sum "Si O2"
_cell_formula_units_Z 15
_cell_length_a 8.984998
_cell_length_b 14.766601
_cell_length_c 7.609659
_cell_angle_alpha 78.812051
_cell_angle_beta 143.503269
_cell_angle_gamma 105.297554
_cell_volume 578.942722
_symmetry_space_group_name_H-M "P -1"
_symmetry_group_IT_number 2
_symmetry_cell_setting 'triclinic'
loop_
_space_group_symop_operation_xyz
x,y,z
-x,-y,-z
loop_
_atom_site_type_symbol
_atom_site_label
_atom_site_fract_x
_atom_site_fract_y
_atom_site_fract_z
Si Si1 0.000000 0.500000 0.500000
Si Si2 0.753527 0.813606 0.798927
Si Si3 0.557876 0.090585 0.275329
Si Si4 0.931006 0.199625 0.324002
Si Si5 0.921454 0.625520 0.060560
Si Si6 0.999564 0.031088 0.247994
Si Si7 0.272733 0.392073 0.527246
Si Si8 0.367384 0.700116 0.249057
O O1 0.803867 0.529884 0.452597
O O2 0.868881 0.554910 0.196910
O O3 0.529148 0.853240 0.665752
O O4 0.845698 0.725467 0.006767
O O5 0.627882 0.766787 0.520273
O O6 0.967253 0.901881 0.918325
O O7 0.697009 0.169534 0.244776
O O8 0.767952 0.024919 0.521881
O O9 0.285748 0.027889 0.987202
O O10 0.032719 0.104538 0.414390
O O11 0.123950 0.294803 0.513465
O O12 0.806608 0.232805 0.018609
O O13 0.809170 0.597671 0.763927
O O14 0.223910 0.650111 0.298277
O O15 0.562159 0.375720 0.791057
#
# Coordination Sequence:
#
# PCOD9019976 Si02
#       8
#     1   2   2   2   2   2   2   2
#     4  12  26  44  82 112 140 180 262 314 382 460
#     4  11  24  44  68  99 148 198 241 304 390 438
#     4  12  29  38  74 112 146 193 271 318 348 449
#     4  11  24  44  68  99 148 198 241 304 390 438
#     4  10  24  47  72 105 149 192 242 314 381 472
#     4  12  24  45  66 109 152 201 256 317 368 442
#     4  10  24  47  72 105 149 192 242 314 381 472
#     4  10  21  45  74  91 142 208 229 296 396 456
#
# _framework density 25.909299000000001
#
# number of rings (size 3 to 8) (size 9 to 14) (size 15 to 20)
#    0.000    1.067    4.000    2.800    7.467    0.533 
#    0.000    6.667    0.000    0.000    0.000    0.000 
#    0.000    0.000    0.000    0.000    0.000    0.000 
#
# Total GULP energy -83553.433750 kJ/mol
# GULP energy per Si atom -5570.228917 kJ/mol
# Density = 2.585033 g / cm^3
# Si number density = 25.909299 Si / 1000 Ang^3
#
#
#
# Elastic Constant Matrix: (Units=GPa)
#
#
# Indices 1 2 3 4 5 6 
#
# 1 142.3296 45.4810 45.1200 -32.2324 7.5023 -2.0823
# 2 45.4810 92.3365 50.9126 -28.2886 2.9785 3.6197
# 3 45.1200 50.9126 92.9683 -23.7819 17.8955 3.8797
# 4 -32.2324 -28.2886 -23.7819 37.1369 -1.1278 13.1714
# 5 7.5023 2.9785 17.8955 -1.1278 47.2235 -16.0090
# 6 -2.0823 3.6197 3.8797 13.1714 -16.0090 48.2329
#
#
#
# Elastic Compliance Matrix: (Units=1/GPa)
#
#
# Indices 1 2 3 4 5 6 
#
# 1 0.009625 -0.001680 -0.001877 0.006330 -0.001027 -0.001377
# 2 -0.001680 0.018417 -0.006944 0.009260 0.000898 -0.003127
# 3 -0.001877 -0.006944 0.019142 0.007149 -0.008318 -0.005813
# 4 0.006330 0.009260 0.007149 0.050049 -0.009098 -0.017684
# 5 -0.001027 0.000898 -0.008318 -0.009098 0.028450 0.012485
# 6 -0.001377 -0.003127 -0.005813 -0.017684 0.012485 0.030348
#
#
# Mechanical properties :
#
#
# Convention : Reuss Voigt Hill
#
# Bulk Modulus (GPa) = 38.19259 67.85129 53.02194
# Shear Modulus (GPa) = 26.91642 38.92670 32.92156
#
# Velocity S-wave (km/s) = 3.22665 3.88031 3.56848
# Velocity P-wave (km/s) = 5.35300 6.80593 6.12271
#
# Compressibility (1/GPa) = 0.02618309
#
# Stress axis : x y z
#
# Youngs Moduli (GPa) = 103.89406 54.29859 52.23998
#
# Poissons Ratio (x) = 0.09120 0.09806
# Poissons Ratio (y) = 0.17451 0.36275
# Poissons Ratio (z) = 0.19502 0.37704
#
# Static dielectric constant tensor:
#      x y z
#    x 2.121020 -0.015040 -0.015450 
#    y -0.015040 2.118850 0.093210 
#    z -0.015450 0.093210 2.262950 
# 
# From -- ./inp_files/206609.got.cif
#   From: 2010.05.17/outbox.cif.g08.bks.cpg/sg2_104_cif.got.tgz:206609.got - 2010.06.03 11:33:40.
