data_PCOD9019240
_publ_section_title
;
Structure prediction by ZEFSAII (Michael W. Deem and Ramdas Pophale) SiO2 
 PCOD9019240
Probable space group: P -1
;
_chemical_formula_sum "Si O2"
_cell_formula_units_Z 13
_cell_length_a 14.476537
_cell_length_b 10.660347
_cell_length_c 8.566540
_cell_angle_alpha 113.874026
_cell_angle_beta 47.341583
_cell_angle_gamma 142.648161
_cell_volume 562.656169
_symmetry_space_group_name_H-M "P -1"
_symmetry_group_IT_number 2
_symmetry_cell_setting 'triclinic'
loop_
_space_group_symop_operation_xyz
x,y,z
-x,-y,-z
loop_
_atom_site_type_symbol
_atom_site_label
_atom_site_fract_x
_atom_site_fract_y
_atom_site_fract_z
Si Si1 0.366717 0.539956 0.518489
Si Si2 0.998208 0.941238 0.298335
Si Si3 0.000000 0.500000 0.500000
Si Si4 0.587182 0.438352 0.174350
Si Si5 0.037892 0.829211 0.745278
Si Si6 0.468799 0.870439 0.111863
Si Si7 0.674119 0.944614 0.180857
O O1 0.470118 0.481323 0.333446
O O2 0.424596 0.632565 0.673385
O O3 0.459175 0.718818 0.377374
O O4 0.135337 0.308700 0.669718
O O5 0.000000 0.000000 0.500000
O O6 0.910069 0.985059 0.308020
O O7 0.209379 0.077660 0.054508
O O8 0.977519 0.311409 0.423477
O O9 0.758135 0.309595 0.668322
O O10 0.506324 0.261057 0.054849
O O11 0.818485 0.661206 0.985446
O O12 0.188016 0.915911 0.756143
O O13 0.626064 0.020562 0.147574
O O14 0.500000 0.000000 0.000000
#
# Coordination Sequence:
#
# PCOD9019240 Si02
#       7
#     2   2   1   2   2   2   2
#     4  11  23  39  72 106 137 181 224 287 358 405
#     4  12  26  41  74 108 147 180 227 291 360 411
#     4  10  28  48  72  94 140 192 236 286 336 414
#     4  10  21  44  69  99 144 179 225 289 343 420
#     4  11  23  49  70 105 146 182 236 286 344 419
#     4  11  28  48  69  98 140 188 238 287 345 413
#     4  12  26  44  74 106 140 179 237 294 351 413
#
# _framework density 23.104696000000001
#
# number of rings (size 3 to 8) (size 9 to 14) (size 15 to 20)
#    0.000    0.923    3.077    3.231   10.769    1.846 
#    0.000    1.538    0.000    0.000    0.000    0.000 
#    0.000    0.000    0.000    0.000    0.000    0.000 
#
# Total GULP energy -72447.484720 kJ/mol
# GULP energy per Si atom -5572.883440 kJ/mol
# Density = 2.305211 g / cm^3
# Si number density = 23.104696 Si / 1000 Ang^3
#
#
#
# Elastic Constant Matrix: (Units=GPa)
#
#
# Indices 1 2 3 4 5 6 
#
# 1 127.2804 20.3813 5.7745 -26.2994 4.1184 5.3963
# 2 20.3813 50.0413 6.9955 -18.4749 0.7895 5.4905
# 3 5.7745 6.9955 59.4894 -7.8215 1.2058 -0.9620
# 4 -26.2994 -18.4749 -7.8215 30.5304 -6.6378 -2.1044
# 5 4.1184 0.7895 1.2058 -6.6378 24.3487 -1.1921
# 6 5.3963 5.4905 -0.9620 -2.1044 -1.1921 26.2140
#
#
#
# Elastic Compliance Matrix: (Units=1/GPa)
#
#
# Indices 1 2 3 4 5 6 
#
# 1 0.009646 -0.000958 0.000174 0.007797 0.000461 -0.001132
# 2 -0.000958 0.026626 -0.001140 0.015450 0.003370 -0.004028
# 3 0.000174 -0.001140 0.017477 0.004087 0.000314 0.001187
# 4 0.007797 0.015450 0.004087 0.052549 0.012308 0.000087
# 5 0.000461 0.003370 0.000314 0.012308 0.044331 0.002215
# 6 -0.001132 -0.004028 0.001187 0.000087 0.002215 0.039376
#
#
# Mechanical properties :
#
#
# Convention : Reuss Voigt Hill
#
# Bulk Modulus (GPa) = 20.03977 33.67930 26.85954
# Shear Modulus (GPa) = 23.75456 29.79594 26.77525
#
# Velocity S-wave (km/s) = 3.20992 3.59500 3.40791
# Velocity P-wave (km/s) = 4.73608 5.64274 5.20917
#
# Compressibility (1/GPa) = 0.04990076
#
# Stress axis : x y z
#
# Youngs Moduli (GPa) = 103.66795 37.55760 57.21764
#
# Poissons Ratio (x) = 0.03597 -0.00994
# Poissons Ratio (y) = 0.09929 0.06524
# Poissons Ratio (z) = -0.01801 0.04282
#
# Static dielectric constant tensor:
#      x y z
#    x 1.867200 0.022410 0.019260 
#    y 0.022410 1.859870 -0.014240 
#    z 0.019260 -0.014240 1.863940 
# 
# From -- ./inp_files/194991.got.cif
#   From: 2010.05.17/outbox.cif.g08.bks.cpg/sg2_98_cif.got.tgz:194991.got - 2010.06.03 11:33:40.
