data_PCOD9019643
_publ_section_title
;
Structure prediction by ZEFSAII (Michael W. Deem and Ramdas Pophale) SiO2 
 PCOD9019643
Probable space group: P -1
;
_chemical_formula_sum "Si O2"
_cell_formula_units_Z 16
_cell_length_a 14.724230
_cell_length_b 13.254576
_cell_length_c 11.606694
_cell_angle_alpha 121.135016
_cell_angle_beta 147.280070
_cell_angle_gamma 40.819258
_cell_volume 753.095094
_symmetry_space_group_name_H-M "P -1"
_symmetry_group_IT_number 2
_symmetry_cell_setting 'triclinic'
loop_
_space_group_symop_operation_xyz
x,y,z
-x,-y,-z
loop_
_atom_site_type_symbol
_atom_site_label
_atom_site_fract_x
_atom_site_fract_y
_atom_site_fract_z
Si Si1 0.124629 0.864799 0.450753
Si Si2 0.195965 0.120684 0.208828
Si Si3 0.510105 0.839188 0.555041
Si Si4 0.224705 0.894668 0.958507
Si Si5 0.625710 0.385389 0.177100
Si Si6 0.103721 0.206276 0.691829
Si Si7 0.309696 0.701080 0.162839
Si Si8 0.481093 0.172252 0.170979
O O1 0.397561 0.760743 0.681844
O O2 0.023855 0.785487 0.325590
O O3 0.000000 0.000000 0.500000
O O4 0.024612 0.961229 0.280978
O O5 0.268762 0.216650 0.311685
O O6 0.304307 0.020242 0.385267
O O7 0.306120 0.980121 0.145290
O O8 0.922334 0.230400 0.983107
O O9 0.448454 0.734863 0.398057
O O10 0.546953 0.834263 0.726760
O O11 0.225010 0.809344 0.018774
O O12 0.365017 0.758357 0.927055
O O13 0.475629 0.512510 0.194757
O O14 0.891787 0.301907 0.430312
O O15 0.500000 0.500000 0.000000
O O16 0.314017 0.017715 0.764393
O O17 0.241059 0.258407 0.900338
#
# Coordination Sequence:
#
# PCOD9019643 Si02
#       8
#     2   2   2   2   2   2   2   2
#     4  10  17  30  56  83 112 138 187 248 277 323
#     4  10  20  33  60  85 111 150 199 242 276 335
#     4  10  20  35  57  85 114 145 202 240 280 331
#     4  10  17  34  59  87 111 146 194 242 283 322
#     4  10  21  36  59  84 122 157 184 229 292 358
#     4  10  21  35  55  90 112 147 194 236 293 329
#     4  10  21  35  58  81 120 160 180 228 297 352
#     4  10  19  33  58  84 112 143 187 253 281 322
#
# _framework density 21.245657000000001
#
# number of rings (size 3 to 8) (size 9 to 14) (size 15 to 20)
#    0.000    2.000    2.500    3.750    1.750    0.000 
#    0.000    1.875    0.000   11.250    0.000    0.000 
#    0.000    0.000    0.000    0.000    0.000    0.000 
#
# Total GULP energy -89135.488682 kJ/mol
# GULP energy per Si atom -5570.968043 kJ/mol
# Density = 2.119730 g / cm^3
# Si number density = 21.245657 Si / 1000 Ang^3
#
#
#
# Elastic Constant Matrix: (Units=GPa)
#
#
# Indices 1 2 3 4 5 6 
#
# 1 55.6196 19.9266 31.0463 3.9985 7.2563 -3.0177
# 2 19.9266 53.4510 38.7842 3.1083 13.7924 -10.1284
# 3 31.0463 38.7842 135.6430 10.6645 6.6746 0.8854
# 4 3.9985 3.1083 10.6645 20.1924 7.2693 -5.0929
# 5 7.2563 13.7924 6.6746 7.2693 44.1833 -0.7104
# 6 -3.0177 -10.1284 0.8854 -5.0929 -0.7104 18.9261
#
#
#
# Elastic Compliance Matrix: (Units=1/GPa)
#
#
# Indices 1 2 3 4 5 6 
#
# 1 0.022033 -0.005275 -0.003382 -0.001191 -0.001257 0.000481
# 2 -0.005275 0.032053 -0.008300 0.008423 -0.008972 0.018631
# 3 -0.003382 -0.008300 0.010959 -0.006528 0.002450 -0.007159
# 4 -0.001191 0.008423 -0.006528 0.061144 -0.011175 0.020657
# 5 -0.001257 -0.008972 0.002450 -0.011175 0.026994 -0.007110
# 6 0.000481 0.018631 -0.007159 0.020657 -0.007110 0.068511
#
#
# Mechanical properties :
#
#
# Convention : Reuss Voigt Hill
#
# Bulk Modulus (GPa) = 32.12249 47.13640 39.62944
# Shear Modulus (GPa) = 18.79803 26.99079 22.89441
#
# Velocity S-wave (km/s) = 2.97778 3.56815 3.28625
# Velocity P-wave (km/s) = 5.19377 6.26180 5.75263
#
# Compressibility (1/GPa) = 0.03113084
#
# Stress axis : x y z
#
# Youngs Moduli (GPa) = 45.38690 31.19812 91.24860
#
# Poissons Ratio (x) = 0.16456 0.30864
# Poissons Ratio (y) = 0.23941 0.75736
# Poissons Ratio (z) = 0.15352 0.25894
#
# Static dielectric constant tensor:
#      x y z
#    x 1.793820 0.008070 -0.009390 
#    y 0.008070 1.803190 0.019520 
#    z -0.009390 0.019520 1.801660 
# 
# From -- ./inp_files/455847.got.cif
#   From: 2010.05.17/outbox.cif.g08.bks.cpg/sg2_228_cif.got.tgz:455847.got - 2010.06.03 11:33:40.
