data_PCOD9019488
_publ_section_title
;
Structure prediction by ZEFSAII (Michael W. Deem and Ramdas Pophale) SiO2 
 PCOD9019488
Probable space group: P -1
;
_chemical_formula_sum "Si O2"
_cell_formula_units_Z 16
_cell_length_a 10.034597
_cell_length_b 13.913982
_cell_length_c 11.668751
_cell_angle_alpha 148.969925
_cell_angle_beta 69.410258
_cell_angle_gamma 97.176875
_cell_volume 731.768037
_symmetry_space_group_name_H-M "P -1"
_symmetry_group_IT_number 2
_symmetry_cell_setting 'triclinic'
loop_
_space_group_symop_operation_xyz
x,y,z
-x,-y,-z
loop_
_atom_site_type_symbol
_atom_site_label
_atom_site_fract_x
_atom_site_fract_y
_atom_site_fract_z
Si Si1 0.956326 0.693957 0.886905
Si Si2 0.144612 0.864899 0.553224
Si Si3 0.391909 0.220568 0.984223
Si Si4 0.871905 0.219413 0.271870
Si Si5 0.508756 0.273436 0.755388
Si Si6 0.547071 0.428466 0.539260
Si Si7 0.375988 0.205654 0.493902
Si Si8 0.028073 0.375835 0.746840
O O1 0.071503 0.647752 0.696518
O O2 0.997591 0.526352 0.801345
O O3 0.786067 0.743940 0.939137
O O4 0.953405 0.901695 0.157830
O O5 0.146058 0.747449 0.552327
O O6 0.315845 0.848726 0.456243
O O7 0.078968 0.754009 0.366759
O O8 0.458667 0.213836 0.829591
O O9 0.497090 0.010539 0.793052
O O10 0.415289 0.401808 0.229276
O O11 0.705390 0.237958 0.298975
O O12 0.000000 0.000000 0.000000
O O13 0.399395 0.250657 0.665518
O O14 0.500000 0.500000 0.000000
O O15 0.500000 0.500000 0.500000
O O16 0.417085 0.371631 0.581467
O O17 0.204508 0.227656 0.542301
O O18 0.000000 0.500000 0.000000
#
# Coordination Sequence:
#
# PCOD9019488 Si02
#       8
#     2   2   2   2   2   2   2   2
#     4  11  24  45  72 100 134 182 231 284 344 408
#     4  11  24  45  71  98 134 182 229 281 339 410
#     4  12  26  43  75 104 132 188 238 280 344 417
#     4  10  21  44  72  97 131 177 236 279 337 407
#     4  12  21  44  75  98 136 179 234 285 337 411
#     4  12  26  45  68 102 143 185 227 285 352 408
#     4  12  25  45  67 105 142 177 230 290 344 409
#     4  12  28  42  64 105 144 179 225 279 351 410
#
# _framework density 21.864851999999999
#
# number of rings (size 3 to 8) (size 9 to 14) (size 15 to 20)
#    0.000    0.500    3.750    4.875    1.750    7.000 
#    0.000    0.000    0.000    0.000    0.000    0.000 
#    0.000    0.000    0.000    0.000    0.000    0.000 
#
# Total GULP energy -89552.273826 kJ/mol
# GULP energy per Si atom -5597.017114 kJ/mol
# Density = 2.181509 g / cm^3
# Si number density = 21.864852 Si / 1000 Ang^3
#
#
#
# Elastic Constant Matrix: (Units=GPa)
#
#
# Indices 1 2 3 4 5 6 
#
# 1 89.6851 26.2548 13.0315 -7.4249 -12.8391 -12.2654
# 2 26.2548 96.0967 13.8570 -14.9120 9.8441 0.9619
# 3 13.0315 13.8570 45.1559 0.4810 -2.5922 -4.0008
# 4 -7.4249 -14.9120 0.4810 42.6244 4.2922 -6.0530
# 5 -12.8391 9.8441 -2.5922 4.2922 30.6977 0.9217
# 6 -12.2654 0.9619 -4.0008 -6.0530 0.9217 33.3772
#
#
#
# Elastic Compliance Matrix: (Units=1/GPa)
#
#
# Indices 1 2 3 4 5 6 
#
# 1 0.014489 -0.004260 -0.002025 0.001097 0.006945 0.005212
# 2 -0.004260 0.013507 -0.003486 0.004535 -0.007001 -0.001357
# 3 -0.002025 -0.003486 0.024127 -0.001835 0.002509 0.001846
# 4 0.001097 0.004535 -0.001835 0.026472 -0.005002 0.004991
# 5 0.006945 -0.007001 0.002509 -0.005002 0.038604 0.001082
# 6 0.005212 -0.001357 0.001846 0.004991 0.001082 0.033011
#
#
# Mechanical properties :
#
#
# Convention : Reuss Voigt Hill
#
# Bulk Modulus (GPa) = 30.69305 37.46937 34.08121
# Shear Modulus (GPa) = 27.68338 33.19283 30.43810
#
# Velocity S-wave (km/s) = 3.56211 3.90050 3.73514
# Velocity P-wave (km/s) = 5.56653 6.12039 5.85002
#
# Compressibility (1/GPa) = 0.03258067
#
# Stress axis : x y z
#
# Youngs Moduli (GPa) = 69.01619 74.03446 41.44749
#
# Poissons Ratio (x) = 0.31539 0.08395
# Poissons Ratio (y) = 0.29401 0.14449
# Poissons Ratio (z) = 0.13979 0.25808
#
# Static dielectric constant tensor:
#      x y z
#    x 1.845130 -0.055050 -0.001350 
#    y -0.055050 1.836720 0.013510 
#    z -0.001350 0.013510 1.853140 
# 
# From -- ./inp_files/399951.got.cif
#   From: 2010.05.17/outbox.cif.g08.bks.cpg/sg2_200_cif.got.tgz:399951.got - 2010.06.03 11:33:40.
