data_PCOD9019581
_publ_section_title
;
Structure prediction by ZEFSAII (Michael W. Deem and Ramdas Pophale) SiO2 
 PCOD9019581
Probable space group: P -1
;
_chemical_formula_sum "Si O2"
_cell_formula_units_Z 13
_cell_length_a 5.276345
_cell_length_b 18.191906
_cell_length_c 5.359543
_cell_angle_alpha 88.298249
_cell_angle_beta 95.844084
_cell_angle_gamma 67.800080
_cell_volume 472.534888
_symmetry_space_group_name_H-M "P -1"
_symmetry_group_IT_number 2
_symmetry_cell_setting 'triclinic'
loop_
_space_group_symop_operation_xyz
x,y,z
-x,-y,-z
loop_
_atom_site_type_symbol
_atom_site_label
_atom_site_fract_x
_atom_site_fract_y
_atom_site_fract_z
Si Si1 0.769847 0.122028 0.774444
Si Si2 0.000000 0.500000 0.500000
Si Si3 0.550118 0.430662 0.210965
Si Si4 0.334148 0.067966 0.670189
Si Si5 0.956264 0.639688 0.399711
Si Si6 0.843483 0.272650 0.968953
Si Si7 0.661784 0.793976 0.633913
O O1 0.559339 0.084484 0.860887
O O2 0.755817 0.199509 0.914713
O O3 0.648454 0.150351 0.477715
O O4 0.080547 0.060959 0.787745
O O5 0.293384 0.451249 0.364890
O O6 0.877880 0.575961 0.254676
O O7 0.837654 0.427545 0.382475
O O8 0.500000 0.500000 0.000000
O O9 0.659540 0.339057 0.135667
O O10 0.198339 0.151736 0.498271
O O11 0.500000 0.000000 0.500000
O O12 0.143675 0.677131 0.274556
O O13 0.726058 0.712602 0.499092
O O14 0.163613 0.234399 0.096503
#
# Coordination Sequence:
#
# PCOD9019581 Si02
#       7
#     2   1   2   2   2   2   2
#     4  10  22  45  70 107 149 194 255 312 379 472
#     4  12  26  44  70 102 142 200 256 324 384 464
#     4  11  26  46  68 105 150 193 259 327 394 452
#     4  10  21  44  75 107 154 197 242 322 389 453
#     4  11  24  46  67 103 147 189 263 319 376 465
#     4  11  22  49  73 105 149 205 251 328 382 460
#     4   9  24  42  71 107 145 200 249 312 390 457
#
# _framework density 27.511195000000001
#
# number of rings (size 3 to 8) (size 9 to 14) (size 15 to 20)
#    0.923    0.615    3.077    0.923    2.154    0.615 
#   16.615    1.538    0.000    0.000    0.000    0.000 
#    0.000    0.000    0.000    0.000    0.000    0.000 
#
# Total GULP energy -72526.156021 kJ/mol
# GULP energy per Si atom -5578.935079 kJ/mol
# Density = 2.744858 g / cm^3
# Si number density = 27.511195 Si / 1000 Ang^3
#
#
#
# Elastic Constant Matrix: (Units=GPa)
#
#
# Indices 1 2 3 4 5 6 
#
# 1 203.5213 39.6341 32.0704 15.6595 3.7770 -38.7849
# 2 39.6341 146.1052 33.4134 13.9669 16.1923 -21.3236
# 3 32.0704 33.4134 61.9158 -9.2360 12.4031 -19.2342
# 4 15.6595 13.9669 -9.2360 53.8115 -1.6670 9.0876
# 5 3.7770 16.1923 12.4031 -1.6670 36.7707 9.1564
# 6 -38.7849 -21.3236 -19.2342 9.0876 9.1564 30.1579
#
#
#
# Elastic Compliance Matrix: (Units=1/GPa)
#
#
# Indices 1 2 3 4 5 6 
#
# 1 0.007805 0.000880 -0.000103 -0.004949 -0.004747 0.013527
# 2 0.000880 0.009765 -0.001987 -0.005068 -0.006508 0.010271
# 3 -0.000103 -0.001987 0.025509 0.001516 -0.012121 0.017956
# 4 -0.004949 -0.005068 0.001516 0.025056 0.008093 -0.018988
# 5 -0.004747 -0.006508 -0.012121 0.008093 0.043491 -0.034080
# 6 0.013527 0.010271 0.017956 -0.018988 -0.034080 0.085338
#
#
# Mechanical properties :
#
#
# Convention : Reuss Voigt Hill
#
# Bulk Modulus (GPa) = 24.59499 69.08647 46.84073
# Shear Modulus (GPa) = 23.48122 44.57632 34.02877
#
# Velocity S-wave (km/s) = 2.92467 4.02966 3.52078
# Velocity P-wave (km/s) = 4.51268 6.84233 5.79577
#
# Compressibility (1/GPa) = 0.04065869
#
# Stress axis : x y z
#
# Youngs Moduli (GPa) = 128.12334 102.40780 39.20255
#
# Poissons Ratio (x) = -0.09007 0.00402
# Poissons Ratio (y) = -0.11269 0.07789
# Poissons Ratio (z) = 0.01314 0.20347
#
# Static dielectric constant tensor:
#      x y z
#    x 2.338530 0.115760 0.063520 
#    y 0.115760 2.122110 -0.040930 
#    z 0.063520 -0.040930 2.295780 
# 
# From -- ./inp_files/5511.got.cif
#   From: 2010.05.17/outbox.cif.g08.bks.cpg/sg2_3_cif.got.tgz:5511.got - 2010.06.03 11:33:40.
