data_PCOD9019082
_publ_section_title
;
Structure prediction by ZEFSAII (Michael W. Deem and Ramdas Pophale) SiO2 
 PCOD9019082
Probable space group: P -1
;
_chemical_formula_sum "Si O2"
_cell_formula_units_Z 16
_cell_length_a 13.914255
_cell_length_b 8.319637
_cell_length_c 10.877099
_cell_angle_alpha 138.425326
_cell_angle_beta 120.237594
_cell_angle_gamma 79.642412
_cell_volume 677.955493
_symmetry_space_group_name_H-M "P -1"
_symmetry_group_IT_number 2
_symmetry_cell_setting 'triclinic'
loop_
_space_group_symop_operation_xyz
x,y,z
-x,-y,-z
loop_
_atom_site_type_symbol
_atom_site_label
_atom_site_fract_x
_atom_site_fract_y
_atom_site_fract_z
Si Si1 0.382661 0.149072 0.830532
Si Si2 0.853063 0.691350 0.833349
Si Si3 0.486705 0.697728 0.329810
Si Si4 0.845656 0.913643 0.222243
Si Si5 0.266001 0.103904 0.460702
Si Si6 0.886531 0.211619 0.004848
Si Si7 0.593003 0.350218 0.488343
Si Si8 0.095013 0.303079 0.603180
O O1 0.280116 0.060129 0.815820
O O2 0.323843 0.099439 0.628524
O O3 0.454366 0.948087 0.759972
O O4 0.441080 0.458093 0.067892
O O5 0.726903 0.477630 0.599435
O O6 0.866663 0.938419 0.898207
O O7 0.848147 0.761291 0.012997
O O8 0.977613 0.647881 0.868483
O O9 0.624025 0.723913 0.451641
O O10 0.399001 0.629127 0.347540
O O11 0.500000 0.000000 0.500000
O O12 0.873365 0.784537 0.291910
O O13 0.954907 0.178049 0.427510
O O14 0.160081 0.206517 0.482819
O O15 0.201839 0.839773 0.196850
O O16 0.858078 0.391921 0.189064
O O17 0.500000 0.500000 0.500000
#
# Coordination Sequence:
#
# PCOD9019082 Si02
#       8
#     2   2   2   2   2   2   2   2
#     4  11  25  45  74 103 143 181 234 300 351 413
#     4  11  24  47  67 103 142 186 230 286 355 418
#     4  12  26  45  73 103 139 188 238 291 349 415
#     4  10  21  44  68 106 138 175 233 288 358 418
#     4  11  24  41  69 108 133 175 234 286 348 416
#     4  11  25  44  72 100 144 182 228 289 353 425
#     4  12  27  48  71 102 145 191 238 286 350 423
#     4  10  23  41  70 104 138 181 227 288 352 425
#
# _framework density 23.600369000000001
#
# number of rings (size 3 to 8) (size 9 to 14) (size 15 to 20)
#    0.000    1.000    3.750    1.875    5.250    2.500 
#    4.500    0.000    0.000    0.000    0.000    0.000 
#    0.000    0.000    0.000    0.000    0.000    0.000 
#
# Total GULP energy -89250.710034 kJ/mol
# GULP energy per Si atom -5578.169377 kJ/mol
# Density = 2.354665 g / cm^3
# Si number density = 23.600369 Si / 1000 Ang^3
#
#
#
# Elastic Constant Matrix: (Units=GPa)
#
#
# Indices 1 2 3 4 5 6 
#
# 1 99.4341 4.9954 22.0343 13.9773 16.1876 17.2258
# 2 4.9954 32.7628 28.5338 6.4299 2.8803 -2.4476
# 3 22.0343 28.5338 120.9230 26.4447 7.7954 -10.9715
# 4 13.9773 6.4299 26.4447 22.6933 -5.5572 -5.4903
# 5 16.1876 2.8803 7.7954 -5.5572 36.9303 0.0033
# 6 17.2258 -2.4476 -10.9715 -5.4903 0.0033 23.5108
#
#
#
# Elastic Compliance Matrix: (Units=1/GPa)
#
#
# Indices 1 2 3 4 5 6 
#
# 1 0.016853 0.000731 -0.000524 -0.016324 -0.009788 -0.016327
# 2 0.000731 0.038511 -0.008819 -0.001763 -0.001728 -0.001053
# 3 -0.000524 -0.008819 0.013983 -0.013810 -0.004112 0.002766
# 4 -0.016324 -0.001763 -0.013810 0.082172 0.022571 0.024518
# 5 -0.009788 -0.001728 -0.004112 0.022571 0.035767 0.010338
# 6 -0.016327 -0.001053 0.002766 0.024518 0.010338 0.061401
#
#
# Mechanical properties :
#
#
# Convention : Reuss Voigt Hill
#
# Bulk Modulus (GPa) = 19.18567 40.47187 29.82877
# Shear Modulus (GPa) = 17.65014 29.79730 23.72372
#
# Velocity S-wave (km/s) = 2.73770 3.55713 3.17397
# Velocity P-wave (km/s) = 4.25915 5.83584 5.10869
#
# Compressibility (1/GPa) = 0.05212224
#
# Stress axis : x y z
#
# Youngs Moduli (GPa) = 59.33743 25.96660 71.51779
#
# Poissons Ratio (x) = -0.01898 0.03747
# Poissons Ratio (y) = -0.04338 0.63074
# Poissons Ratio (z) = 0.03108 0.22901
#
# Static dielectric constant tensor:
#      x y z
#    x 1.873110 -0.025400 0.024330 
#    y -0.025400 2.005800 0.007180 
#    z 0.024330 0.007180 1.901820 
# 
# From -- ./inp_files/446509.got.cif
#   From: 2010.05.17/outbox.cif.g08.bks.cpg/sg2_224_cif.got.tgz:446509.got - 2010.06.03 11:33:40.
