data_PCOD9019652
_publ_section_title
;
Structure prediction by ZEFSAII (Michael W. Deem and Ramdas Pophale) SiO2 
 PCOD9019652
Probable space group: P -1
;
_chemical_formula_sum "Si O2"
_cell_formula_units_Z 12
_cell_length_a 12.095854
_cell_length_b 7.092512
_cell_length_c 15.370141
_cell_angle_alpha 89.425036
_cell_angle_beta 152.798863
_cell_angle_gamma 75.101370
_cell_volume 490.122056
_symmetry_space_group_name_H-M "P -1"
_symmetry_group_IT_number 2
_symmetry_cell_setting 'triclinic'
loop_
_space_group_symop_operation_xyz
x,y,z
-x,-y,-z
loop_
_atom_site_type_symbol
_atom_site_label
_atom_site_fract_x
_atom_site_fract_y
_atom_site_fract_z
Si Si1 0.701689 0.381577 0.801636
Si Si2 0.372060 0.145021 0.221352
Si Si3 0.214195 0.231822 0.756589
Si Si4 0.632869 0.481740 0.255598
Si Si5 0.371980 0.217450 0.472053
Si Si6 0.212714 0.352981 0.933930
O O1 0.605339 0.646541 0.733988
O O2 0.572929 0.372891 0.805295
O O3 0.564575 0.313861 0.629806
O O4 0.057112 0.211524 0.037155
O O5 0.638636 0.897762 0.445095
O O6 0.350758 0.150828 0.101725
O O7 0.316747 0.364867 0.772322
O O8 0.060526 0.353561 0.739860
O O9 0.951080 0.262855 0.515093
O O10 0.500000 0.000000 0.000000
O O11 0.462291 0.392546 0.087616
O O12 0.062228 0.420894 0.213431
O O13 0.500000 0.000000 0.500000
#
# Coordination Sequence:
#
# PCOD9019652 Si02
#       6
#     2   2   2   2   2   2
#     4  10  21  45  65 102 144 175 229 285 324 423
#     4  10  24  41  69 100 143 184 223 280 344 402
#     4  11  25  44  71  98 125 184 226 281 353 389
#     4  10  23  45  68  95 141 167 231 292 324 410
#     4  12  24  41  68 102 142 190 220 273 353 403
#     4  11  25  45  66 104 137 173 232 279 335 421
#
# _framework density 24.483696999999999
#
# number of rings (size 3 to 8) (size 9 to 14) (size 15 to 20)
#    0.000    1.333    1.667    4.000    2.333    6.000 
#    0.000    0.000    0.000    0.000    0.000    0.000 
#    0.000    0.000    0.000    0.000    0.000    0.000 
#
# Total GULP energy -67046.099518 kJ/mol
# GULP energy per Si atom -5587.174960 kJ/mol
# Density = 2.442797 g / cm^3
# Si number density = 24.483697 Si / 1000 Ang^3
#
#
#
# Elastic Constant Matrix: (Units=GPa)
#
#
# Indices 1 2 3 4 5 6 
#
# 1 90.4527 2.5637 5.2575 0.7878 -13.3873 9.0469
# 2 2.5637 66.7590 24.2336 16.1527 -13.4503 4.7063
# 3 5.2575 24.2336 102.1526 12.0713 -22.3725 13.0404
# 4 0.7878 16.1527 12.0713 39.2140 -0.0935 -4.6798
# 5 -13.3873 -13.4503 -22.3725 -0.0935 36.7100 -6.9131
# 6 9.0469 4.7063 13.0404 -4.6798 -6.9131 25.4885
#
#
#
# Elastic Compliance Matrix: (Units=1/GPa)
#
#
# Indices 1 2 3 4 5 6 
#
# 1 0.012037 0.000700 0.000819 -0.001231 0.004417 -0.003849
# 2 0.000700 0.018763 -0.002122 -0.007379 0.005341 -0.002533
# 3 0.000819 -0.002122 0.012749 -0.003696 0.006264 -0.005401
# 4 -0.001231 -0.007379 -0.003696 0.030685 -0.003763 0.008304
# 5 0.004417 0.005341 0.006264 -0.003763 0.035199 0.003097
# 6 -0.003849 -0.002533 -0.005401 0.008304 0.003097 0.046195
#
#
# Mechanical properties :
#
#
# Convention : Reuss Voigt Hill
#
# Bulk Modulus (GPa) = 23.61767 35.94154 29.77961
# Shear Modulus (GPa) = 29.24840 35.43649 32.34245
#
# Velocity S-wave (km/s) = 3.46006 3.80853 3.63847
# Velocity P-wave (km/s) = 5.06260 5.83537 5.46267
#
# Compressibility (1/GPa) = 0.04234118
#
# Stress axis : x y z
#
# Youngs Moduli (GPa) = 83.07392 53.29743 78.43928
#
# Poissons Ratio (x) = -0.03729 -0.06421
# Poissons Ratio (y) = -0.05812 0.16645
# Poissons Ratio (z) = -0.06801 0.11310
#
# Static dielectric constant tensor:
#      x y z
#    x 2.093240 -0.192210 0.051190 
#    y -0.192210 2.182780 -0.101640 
#    z 0.051190 -0.101640 1.929170 
# 
# From -- ./inp_files/514382.got.cif
#   From: 2010.05.17/outbox.cif.g08.bks.cpg/sg2_258_cif.got.tgz:514382.got - 2010.06.03 11:33:40.
