data_PCOD9019534
_publ_section_title
;
Structure prediction by ZEFSAII (Michael W. Deem and Ramdas Pophale) SiO2 
 PCOD9019534
Probable space group: P -1
;
_chemical_formula_sum "Si O2"
_cell_formula_units_Z 13
_cell_length_a 8.488142
_cell_length_b 17.169386
_cell_length_c 9.239647
_cell_angle_alpha 151.165785
_cell_angle_beta 61.388294
_cell_angle_gamma 121.739571
_cell_volume 551.755662
_symmetry_space_group_name_H-M "P -1"
_symmetry_group_IT_number 2
_symmetry_cell_setting 'triclinic'
loop_
_space_group_symop_operation_xyz
x,y,z
-x,-y,-z
loop_
_atom_site_type_symbol
_atom_site_label
_atom_site_fract_x
_atom_site_fract_y
_atom_site_fract_z
Si Si1 0.402462 0.331496 0.350681
Si Si2 0.455407 0.971320 0.142924
Si Si3 0.224319 0.731142 0.476018
Si Si4 0.796697 0.805561 0.279616
Si Si5 0.952101 0.868999 0.000010
Si Si6 0.500000 0.500000 0.000000
Si Si7 0.918788 0.739456 0.416518
O O1 0.500000 0.500000 0.500000
O O2 0.291769 0.346978 0.575919
O O3 0.544136 0.217093 0.128752
O O4 0.233899 0.224696 0.154680
O O5 0.630472 0.095117 0.347005
O O6 0.281469 0.041731 0.376021
O O7 0.500000 0.000000 0.000000
O O8 0.075551 0.671604 0.316339
O O9 0.339592 0.602505 0.258532
O O10 0.105523 0.774533 0.731747
O O11 0.901577 0.853768 0.164675
O O12 0.913948 0.744913 0.255462
O O13 0.617102 0.652889 0.093489
O O14 0.029224 0.063864 0.243785
#
# Coordination Sequence:
#
# PCOD9019534 Si02
#       7
#     2   2   2   2   2   1   2
#     4  11  23  40  72 107 140 190 242 291 358 420
#     4  11  20  42  70 100 139 196 236 287 350 433
#     4  10  21  44  73  92 140 189 236 291 354 424
#     4  11  25  39  71 104 142 187 239 290 360 423
#     4  11  22  43  72 105 135 187 241 293 351 426
#     4  10  26  44  64 104 142 186 230 298 358 410
#     4  11  21  45  71 103 138 188 235 293 356 426
#
# _framework density 23.561154999999999
#
# number of rings (size 3 to 8) (size 9 to 14) (size 15 to 20)
#    0.000    1.231    4.615    1.385    2.154    1.846 
#    0.000    7.692    0.000    0.923    0.000    0.000 
#    0.000    0.000    0.000    0.000    0.000    0.000 
#
# Total GULP energy -72526.839860 kJ/mol
# GULP energy per Si atom -5578.987682 kJ/mol
# Density = 2.350753 g / cm^3
# Si number density = 23.561155 Si / 1000 Ang^3
#
#
#
# Elastic Constant Matrix: (Units=GPa)
#
#
# Indices 1 2 3 4 5 6 
#
# 1 75.8885 29.1515 33.6386 -1.2877 -23.9697 9.8549
# 2 29.1515 155.2607 48.5630 13.9932 -7.6482 3.8852
# 3 33.6386 48.5630 96.8223 19.3868 -31.6123 -2.6286
# 4 -1.2877 13.9932 19.3868 54.3014 -0.0356 10.5068
# 5 -23.9697 -7.6482 -31.6123 -0.0356 48.4489 9.0137
# 6 9.8549 3.8852 -2.6286 10.5068 9.0137 32.6800
#
#
#
# Elastic Compliance Matrix: (Units=1/GPa)
#
#
# Indices 1 2 3 4 5 6 
#
# 1 0.019959 -0.002166 -0.004184 0.004449 0.008651 -0.009914
# 2 -0.002166 0.008006 -0.003879 -0.000790 -0.002396 0.000304
# 3 -0.004184 -0.003879 0.017727 -0.005956 0.008367 0.002756
# 4 0.004449 -0.000790 -0.005956 0.022583 -0.000128 -0.008952
# 5 0.008651 -0.002396 0.008367 -0.000128 0.031940 -0.010419
# 6 -0.009914 0.000304 0.002756 -0.008952 -0.010419 0.039527
#
#
# Mechanical properties :
#
#
# Convention : Reuss Voigt Hill
#
# Bulk Modulus (GPa) = 39.62726 61.18639 50.40683
# Shear Modulus (GPa) = 29.65424 41.52728 35.59076
#
# Velocity S-wave (km/s) = 3.55153 4.20281 3.89082
# Velocity P-wave (km/s) = 5.80287 7.04109 6.45175
#
# Compressibility (1/GPa) = 0.02523515
#
# Stress axis : x y z
#
# Youngs Moduli (GPa) = 50.10313 124.90186 56.41254
#
# Poissons Ratio (x) = 0.27049 0.23601
# Poissons Ratio (y) = 0.10851 0.21883
# Poissons Ratio (z) = 0.20961 0.48450
#
# Static dielectric constant tensor:
#      x y z
#    x 2.242440 -0.011420 0.315670 
#    y -0.011420 1.862460 0.065570 
#    z 0.315670 0.065570 2.279920 
# 
# From -- ./inp_files/209594.got.cif
#   From: 2010.05.17/outbox.cif.g08.bks.cpg/sg2_105_cif.got.tgz:209594.got - 2010.06.03 11:33:40.
