data_PCOD9019789
_publ_section_title
;
Structure prediction by ZEFSAII (Michael W. Deem and Ramdas Pophale) SiO2 
 PCOD9019789
Probable space group: P -1
;
_chemical_formula_sum "Si O2"
_cell_formula_units_Z 16
_cell_length_a 17.421341
_cell_length_b 9.549605
_cell_length_c 20.539112
_cell_angle_alpha 127.718993
_cell_angle_beta 160.615350
_cell_angle_gamma 63.414126
_cell_volume 780.268916
_symmetry_space_group_name_H-M "P -1"
_symmetry_group_IT_number 2
_symmetry_cell_setting 'triclinic'
loop_
_space_group_symop_operation_xyz
x,y,z
-x,-y,-z
loop_
_atom_site_type_symbol
_atom_site_label
_atom_site_fract_x
_atom_site_fract_y
_atom_site_fract_z
Si Si1 0.935197 0.586999 0.536500
Si Si2 0.142505 0.032059 0.441247
Si Si3 0.751828 0.250280 0.042301
Si Si4 0.145193 0.656362 0.988595
Si Si5 0.625854 0.643817 0.909985
Si Si6 0.365757 0.187159 0.175988
Si Si7 0.570591 0.117701 0.445366
Si Si8 0.799095 0.524969 0.799925
O O1 0.637174 0.439537 0.281486
O O2 0.000000 0.500000 0.500000
O O3 0.142740 0.626741 0.772176
O O4 0.943859 0.799506 0.589204
O O5 0.197361 0.942270 0.391796
O O6 0.886011 0.829551 0.204813
O O7 0.433730 0.153148 0.744671
O O8 0.912699 0.381432 0.145504
O O9 0.802032 0.057625 0.032317
O O10 0.307349 0.538157 0.101380
O O11 0.320009 0.901609 0.199110
O O12 0.923074 0.596345 0.848033
O O13 0.573662 0.723062 0.822108
O O14 0.586985 0.201146 0.408381
O O15 0.257290 0.312476 0.164923
O O16 0.576365 0.290053 0.544634
O O17 0.000000 0.500000 0.000000
#
# Coordination Sequence:
#
# PCOD9019789 Si02
#       8
#     2   2   2   2   2   2   2   2
#     4  12  27  46  73 106 133 168 229 289 344 421
#     4  10  21  45  68  97 140 172 223 277 339 405
#     4  10  24  46  71  97 141 183 222 280 343 403
#     4  10  22  40  65  96 131 191 219 268 341 388
#     4  12  21  43  74  94 133 186 221 273 353 401
#     4  10  22  40  64  98 135 182 227 278 325 396
#     4  10  22  40  61  92 138 180 229 278 322 395
#     4  12  22  36  61  96 138 177 239 273 316 386
#
# _framework density 20.505749999999999
#
# number of rings (size 3 to 8) (size 9 to 14) (size 15 to 20)
#    0.000    1.500    6.250    0.375    1.750    3.500 
#    2.250    0.625    0.000    0.000    0.000    0.000 
#    0.000    0.000    0.000    0.000    0.000    0.000 
#
# Total GULP energy -89094.467422 kJ/mol
# GULP energy per Si atom -5568.404214 kJ/mol
# Density = 2.045908 g / cm^3
# Si number density = 20.505750 Si / 1000 Ang^3
#
#
#
# Elastic Constant Matrix: (Units=GPa)
#
#
# Indices 1 2 3 4 5 6 
#
# 1 89.0408 42.4776 30.0427 19.4649 -5.5455 -6.5632
# 2 42.4776 108.3968 16.6828 5.2834 -0.0352 11.8621
# 3 30.0427 16.6828 92.5046 13.0547 -1.9083 -1.2744
# 4 19.4649 5.2834 13.0547 26.1957 5.8234 4.7477
# 5 -5.5455 -0.0352 -1.9083 5.8234 31.1614 -0.5920
# 6 -6.5632 11.8621 -1.2744 4.7477 -0.5920 27.5887
#
#
#
# Elastic Compliance Matrix: (Units=1/GPa)
#
#
# Indices 1 2 3 4 5 6 
#
# 1 0.020787 -0.008174 -0.002731 -0.015965 0.006720 0.011225
# 2 -0.008174 0.013208 -0.000750 0.005984 -0.002770 -0.008748
# 3 -0.002731 -0.000750 0.012505 -0.004495 0.001139 0.001048
# 4 -0.015965 0.005984 -0.004495 0.057243 -0.014125 -0.016733
# 5 0.006720 -0.002770 0.001139 -0.014125 0.036108 0.006048
# 6 0.011225 -0.008748 0.001048 -0.016733 0.006048 0.045736
#
#
# Mechanical properties :
#
#
# Convention : Reuss Voigt Hill
#
# Bulk Modulus (GPa) = 43.11804 52.03871 47.57838
# Shear Modulus (GPa) = 23.08123 30.37177 26.72650
#
# Velocity S-wave (km/s) = 3.35863 3.85273 3.61413
# Velocity P-wave (km/s) = 6.00945 6.72488 6.37721
#
# Compressibility (1/GPa) = 0.02319215
#
# Stress axis : x y z
#
# Youngs Moduli (GPa) = 48.10587 75.70886 79.97081
#
# Poissons Ratio (x) = 0.61883 0.21838
# Poissons Ratio (y) = 0.39321 0.05996
# Poissons Ratio (z) = 0.13136 0.05676
#
# Static dielectric constant tensor:
#      x y z
#    x 1.718020 0.005340 -0.026410 
#    y 0.005340 1.781690 -0.011960 
#    z -0.026410 -0.011960 1.851280 
# 
# From -- ./inp_files/599575.got.cif
#   From: 2010.05.17/outbox.cif.g08.bks.cpg/sg2_300_cif.got.tgz:599575.got - 2010.06.03 11:33:40.
