data_PCOD9019578
_publ_section_title
;
Structure prediction by ZEFSAII (Michael W. Deem and Ramdas Pophale) SiO2 
 PCOD9019578
Probable space group: P -1
;
_chemical_formula_sum "Si O2"
_cell_formula_units_Z 16
_cell_length_a 14.693499
_cell_length_b 18.444758
_cell_length_c 12.247769
_cell_angle_alpha 29.304735
_cell_angle_beta 131.422475
_cell_angle_gamma 151.367149
_cell_volume 698.176587
_symmetry_space_group_name_H-M "P -1"
_symmetry_group_IT_number 2
_symmetry_cell_setting 'triclinic'
loop_
_space_group_symop_operation_xyz
x,y,z
-x,-y,-z
loop_
_atom_site_type_symbol
_atom_site_label
_atom_site_fract_x
_atom_site_fract_y
_atom_site_fract_z
Si Si1 0.136241 0.748260 0.854753
Si Si2 0.604693 0.218661 0.661035
Si Si3 0.974766 0.387549 0.801355
Si Si4 0.635137 0.774380 0.111143
Si Si5 0.341474 0.966241 0.378681
Si Si6 0.105167 0.263235 0.913768
Si Si7 0.090858 0.914963 0.417693
Si Si8 0.604334 0.415384 0.606363
O O1 0.109083 0.880243 0.602381
O O2 0.383967 0.954818 0.778552
O O3 0.063576 0.667789 0.027564
O O4 0.000000 0.500000 0.000000
O O5 0.772491 0.255384 0.754943
O O6 0.714784 0.465351 0.361486
O O7 0.564640 0.242133 0.720103
O O8 0.041652 0.299882 0.918162
O O9 0.157939 0.692609 0.530281
O O10 0.574287 0.541914 0.353837
O O11 0.546322 0.728935 0.218958
O O12 0.554188 0.807785 0.913652
O O13 0.891281 0.038284 0.966577
O O14 0.500000 0.000000 0.500000
O O15 0.233394 0.946840 0.417399
O O16 0.159600 0.151577 0.138696
O O17 0.847263 0.654472 0.526728
#
# Coordination Sequence:
#
# PCOD9019578 Si02
#       8
#     2   2   2   2   2   2   2   2
#     4  12  27  46  71 103 143 186 237 296 359 421
#     4  12  24  45  75 101 142 187 244 292 349 418
#     4  12  26  46  68 106 140 184 245 285 353 419
#     4  10  22  42  72 106 146 180 241 283 358 415
#     4  12  26  42  70 105 143 190 232 297 350 417
#     4  11  25  45  73 105 143 185 237 296 346 424
#     4  11  25  49  71 103 147 189 234 286 362 420
#     4  10  21  44  75 106 136 193 233 293 342 430
#
# _framework density 22.916837000000001
#
# number of rings (size 3 to 8) (size 9 to 14) (size 15 to 20)
#    0.000    0.750    3.750    2.250    3.500    5.000 
#    2.250    0.000    0.000    0.000    0.000    0.000 
#    0.000    0.000    0.000    0.000    0.000    0.000 
#
# Total GULP energy -89711.539265 kJ/mol
# GULP energy per Si atom -5606.971204 kJ/mol
# Density = 2.286468 g / cm^3
# Si number density = 22.916837 Si / 1000 Ang^3
#
#
#
# Elastic Constant Matrix: (Units=GPa)
#
#
# Indices 1 2 3 4 5 6 
#
# 1 100.5103 36.3716 35.7343 -0.2977 22.5282 11.7777
# 2 36.3716 101.7754 51.1719 8.5850 2.0487 14.9805
# 3 35.7343 51.1719 130.9741 23.4961 6.1903 14.2265
# 4 -0.2977 8.5850 23.4961 47.5078 7.1371 3.3059
# 5 22.5282 2.0487 6.1903 7.1371 39.3733 4.6169
# 6 11.7777 14.9805 14.2265 3.3059 4.6169 29.6323
#
#
#
# Elastic Compliance Matrix: (Units=1/GPa)
#
#
# Indices 1 2 3 4 5 6 
#
# 1 0.014134 -0.003687 -0.002442 0.003269 -0.007903 -0.001714
# 2 -0.003687 0.013695 -0.003922 -0.000676 0.002594 -0.003904
# 3 -0.002442 -0.003922 0.010831 -0.004678 0.000966 -0.001875
# 4 0.003269 -0.000676 -0.004678 0.024364 -0.005448 -0.000581
# 5 -0.007903 0.002594 0.000966 -0.005448 0.030954 -0.002850
# 6 -0.001714 -0.003904 -0.001875 -0.000581 -0.002850 0.037811
#
#
# Mechanical properties :
#
#
# Convention : Reuss Voigt Hill
#
# Bulk Modulus (GPa) = 53.88980 64.42394 59.15687
# Shear Modulus (GPa) = 31.63015 37.30148 34.46581
#
# Velocity S-wave (km/s) = 3.71915 4.03884 3.88229
# Velocity P-wave (km/s) = 6.48145 7.06560 6.77982
#
# Compressibility (1/GPa) = 0.01855639
#
# Stress axis : x y z
#
# Youngs Moduli (GPa) = 70.75270 73.02184 92.32857
#
# Poissons Ratio (x) = 0.26926 0.22549
# Poissons Ratio (y) = 0.26089 0.36209
# Poissons Ratio (z) = 0.17280 0.28637
#
# Static dielectric constant tensor:
#      x y z
#    x 1.838720 0.007600 -0.022900 
#    y 0.007600 1.849490 -0.003420 
#    z -0.022900 -0.003420 1.878420 
# 
# From -- ./inp_files/456911.got.cif
#   From: 2010.05.17/outbox.cif.g08.bks.cpg/sg2_229_cif.got.tgz:456911.got - 2010.06.03 11:33:40.
