data_PCOD9019216
_publ_section_title
;
Structure prediction by ZEFSAII (Michael W. Deem and Ramdas Pophale) SiO2 
 PCOD9019216
Probable space group: P -1
;
_chemical_formula_sum "Si O2"
_cell_formula_units_Z 14
_cell_length_a 8.824973
_cell_length_b 10.169219
_cell_length_c 7.819682
_cell_angle_alpha 95.723214
_cell_angle_beta 52.672513
_cell_angle_gamma 101.441109
_cell_volume 546.750452
_symmetry_space_group_name_H-M "P -1"
_symmetry_group_IT_number 2
_symmetry_cell_setting 'triclinic'
loop_
_space_group_symop_operation_xyz
x,y,z
-x,-y,-z
loop_
_atom_site_type_symbol
_atom_site_label
_atom_site_fract_x
_atom_site_fract_y
_atom_site_fract_z
Si Si1 0.300710 0.266181 0.175814
Si Si2 0.422472 0.623082 0.741289
Si Si3 0.103348 0.419465 0.092245
Si Si4 0.106414 0.881806 0.840370
Si Si5 0.695584 0.019656 0.972207
Si Si6 0.707112 0.407135 0.530346
Si Si7 0.875711 0.193426 0.567810
O O1 0.491251 0.274294 0.158797
O O2 0.281233 0.390917 0.085477
O O3 0.270521 0.133574 0.063142
O O4 0.103727 0.252633 0.419096
O O5 0.582675 0.524902 0.638108
O O6 0.403260 0.672273 0.567663
O O7 0.211477 0.535399 0.912896
O O8 0.010688 0.270295 0.067316
O O9 0.930277 0.459233 0.328383
O O10 0.152964 0.885971 0.606220
O O11 0.289708 0.911069 0.845473
O O12 0.000000 0.000000 0.000000
O O13 0.838848 0.106969 0.751306
O O14 0.500000 0.000000 0.000000
O O15 0.738314 0.306187 0.649098
#
# Coordination Sequence:
#
# PCOD9019216 Si02
#       7
#     2   2   2   2   2   2   2
#     4  10  23  42  63 101 133 175 226 277 334 410
#     4  11  22  42  67  97 134 173 232 279 331 404
#     4  10  22  42  68  94 136 177 222 278 336 407
#     4  10  21  44  69  96 135 181 222 271 344 401
#     4  12  26  42  68 106 133 176 228 277 343 402
#     4   9  23  42  62  97 129 182 225 270 347 392
#     4  10  24  46  68  96 140 177 225 281 337 407
#
# _framework density 25.605833000000001
#
# number of rings (size 3 to 8) (size 9 to 14) (size 15 to 20)
#    0.000    2.000    2.857    1.286    6.000    5.143 
#    2.571    0.000    0.000    0.000    0.000    0.000 
#    0.000    0.000    0.000    0.000    0.000    0.000 
#
# Total GULP energy -78167.086333 kJ/mol
# GULP energy per Si atom -5583.363310 kJ/mol
# Density = 2.554755 g / cm^3
# Si number density = 25.605833 Si / 1000 Ang^3
#
#
#
# Elastic Constant Matrix: (Units=GPa)
#
#
# Indices 1 2 3 4 5 6 
#
# 1 85.2327 17.7659 2.1207 11.8473 -4.7098 12.8860
# 2 17.7659 82.6434 23.4676 24.2864 -4.5696 6.9432
# 3 2.1207 23.4676 43.0690 3.2441 0.9743 -1.7501
# 4 11.8473 24.2864 3.2441 34.9408 -5.3219 0.8121
# 5 -4.7098 -4.5696 0.9743 -5.3219 41.8047 9.7096
# 6 12.8860 6.9432 -1.7501 0.8121 9.7096 61.6649
#
#
#
# Elastic Compliance Matrix: (Units=1/GPa)
#
#
# Indices 1 2 3 4 5 6 
#
# 1 0.012985 -0.001720 0.000375 -0.002948 0.001520 -0.002710
# 2 -0.001720 0.018683 -0.009350 -0.011321 0.001098 -0.002033
# 3 0.000375 -0.009350 0.028153 0.003459 -0.001657 0.001989
# 4 -0.002948 -0.011321 0.003459 0.037583 0.002893 0.001038
# 5 0.001520 0.001098 -0.001657 0.002893 0.025680 -0.004570
# 6 -0.002710 -0.002033 0.001989 0.001038 -0.004570 0.017774
#
#
# Mechanical properties :
#
#
# Convention : Reuss Voigt Hill
#
# Bulk Modulus (GPa) = 26.02059 33.07263 29.54661
# Shear Modulus (GPa) = 28.56171 38.85479 33.70825
#
# Velocity S-wave (km/s) = 3.34344 3.89963 3.63220
# Velocity P-wave (km/s) = 5.00888 5.76370 5.39950
#
# Compressibility (1/GPa) = 0.03843110
#
# Stress axis : x y z
#
# Youngs Moduli (GPa) = 77.01083 53.52355 35.52064
#
# Poissons Ratio (x) = 0.09207 -0.01333
# Poissons Ratio (y) = 0.13247 0.33213
# Poissons Ratio (z) = -0.02891 0.50046
#
# Static dielectric constant tensor:
#      x y z
#    x 2.133710 -0.050010 -0.016920 
#    y -0.050010 2.259850 -0.114410 
#    z -0.016920 -0.114410 2.334300 
# 
# From -- ./inp_files/187319.got.cif
#   From: 2010.05.17/outbox.cif.g08.bks.cpg/sg2_94_cif.got.tgz:187319.got - 2010.06.03 11:33:40.
