data_PCOD9019675
_publ_section_title
;
Structure prediction by ZEFSAII (Michael W. Deem and Ramdas Pophale) SiO2 
 PCOD9019675
Probable space group: P -1
;
_chemical_formula_sum "Si O2"
_cell_formula_units_Z 14
_cell_length_a 9.585881
_cell_length_b 5.487576
_cell_length_c 15.831307
_cell_angle_alpha 71.136774
_cell_angle_beta 58.144768
_cell_angle_gamma 50.181599
_cell_volume 543.161879
_symmetry_space_group_name_H-M "P -1"
_symmetry_group_IT_number 2
_symmetry_cell_setting 'triclinic'
loop_
_space_group_symop_operation_xyz
x,y,z
-x,-y,-z
loop_
_atom_site_type_symbol
_atom_site_label
_atom_site_fract_x
_atom_site_fract_y
_atom_site_fract_z
Si Si1 0.302510 0.207134 0.100295
Si Si2 0.994118 0.952906 0.805993
Si Si3 0.634146 0.658820 0.335526
Si Si4 0.182539 0.584402 0.941950
Si Si5 0.073476 0.363618 0.630829
Si Si6 0.403191 0.921392 0.842999
Si Si7 0.816270 0.976892 0.542454
O O1 0.192394 0.038816 0.173270
O O2 0.391683 0.256350 0.148878
O O3 0.152964 0.507738 0.054717
O O4 0.500000 0.000000 0.000000
O O5 0.203437 0.649745 0.735078
O O6 0.002488 0.866363 0.911438
O O7 0.005847 0.234673 0.741348
O O8 0.751948 0.614358 0.389150
O O9 0.592105 0.964782 0.264818
O O10 0.414666 0.728933 0.402507
O O11 0.267903 0.259548 0.899049
O O12 0.330174 0.695004 0.888833
O O13 0.165190 0.127305 0.548662
O O14 0.881315 0.685735 0.616779
O O15 0.000000 0.000000 0.500000
#
# Coordination Sequence:
#
# PCOD9019675 Si02
#       7
#     2   2   2   2   2   2   2
#     4  10  23  43  68 105 146 194 248 306 363 437
#     4  11  24  45  72 104 146 194 243 306 369 437
#     4  11  25  46  70 107 145 186 245 305 368 444
#     4  10  21  45  66 103 145 195 246 302 368 435
#     4  11  25  47  72 104 143 191 237 301 374 451
#     4  10  22  41  69 104 141 197 242 305 366 435
#     4  11  27  47  74 106 142 186 240 303 375 450
#
# _framework density 25.775005
#
# number of rings (size 3 to 8) (size 9 to 14) (size 15 to 20)
#    0.000    1.429    1.429    2.143    4.000    6.857 
#    5.143    4.286    0.000    0.000    0.000    0.000 
#    0.000    0.000    0.000    0.000    0.000    0.000 
#
# Total GULP energy -78365.459265 kJ/mol
# GULP energy per Si atom -5597.532805 kJ/mol
# Density = 2.571634 g / cm^3
# Si number density = 25.775005 Si / 1000 Ang^3
#
#
#
# Elastic Constant Matrix: (Units=GPa)
#
#
# Indices 1 2 3 4 5 6 
#
# 1 161.9258 28.0640 38.6742 3.6048 -10.6377 -13.2672
# 2 28.0640 95.7466 36.7439 15.5792 -21.2003 -3.2434
# 3 38.6742 36.7439 107.6074 -12.3506 -8.8395 -13.5865
# 4 3.6048 15.5792 -12.3506 52.8534 -9.7705 -5.5902
# 5 -10.6377 -21.2003 -8.8395 -9.7705 64.6362 -4.3156
# 6 -13.2672 -3.2434 -13.5865 -5.5902 -4.3156 25.4102
#
#
#
# Elastic Compliance Matrix: (Units=1/GPa)
#
#
# Indices 1 2 3 4 5 6 
#
# 1 0.007063 -0.001115 -0.001779 -0.000154 0.000709 0.002681
# 2 -0.001115 0.014048 -0.004984 -0.004917 0.002862 -0.002050
# 3 -0.001779 -0.004984 0.013262 0.005650 0.001206 0.006974
# 4 -0.000154 -0.004917 0.005650 0.023124 0.003160 0.007937
# 5 0.000709 0.002862 0.001206 0.003160 0.017507 0.005049
# 6 0.002681 -0.002050 0.006974 0.007937 0.005049 0.046825
#
#
# Mechanical properties :
#
#
# Convention : Reuss Voigt Hill
#
# Bulk Modulus (GPa) = 53.71070 63.58268 58.64669
# Shear Modulus (GPa) = 34.77248 46.03313 40.40280
#
# Velocity S-wave (km/s) = 3.67696 4.23065 3.96349
# Velocity P-wave (km/s) = 6.23781 6.97039 6.61425
#
# Compressibility (1/GPa) = 0.01861826
#
# Stress axis : x y z
#
# Youngs Moduli (GPa) = 141.57423 71.18332 75.40081
#
# Poissons Ratio (x) = 0.07935 0.13413
# Poissons Ratio (y) = 0.15781 0.37582
# Poissons Ratio (z) = 0.25184 0.35480
#
# Static dielectric constant tensor:
#      x y z
#    x 2.008210 -0.033120 -0.007630 
#    y -0.033120 2.122080 0.007470 
#    z -0.007630 0.007470 2.069780 
# 
# From -- ./inp_files/553211.got.cif
#   From: 2010.05.17/outbox.cif.g08.bks.cpg/sg2_277_cif.got.tgz:553211.got - 2010.06.03 11:33:40.
