data_PCOD9019422
_publ_section_title
;
Structure prediction by ZEFSAII (Michael W. Deem and Ramdas Pophale) SiO2 
 PCOD9019422
Probable space group: P -1
;
_chemical_formula_sum "Si O2"
_cell_formula_units_Z 14
_cell_length_a 11.111965
_cell_length_b 8.023392
_cell_length_c 22.144990
_cell_angle_alpha 31.030329
_cell_angle_beta 144.873849
_cell_angle_gamma 137.077440
_cell_volume 582.300808
_symmetry_space_group_name_H-M "P -1"
_symmetry_group_IT_number 2
_symmetry_cell_setting 'triclinic'
loop_
_space_group_symop_operation_xyz
x,y,z
-x,-y,-z
loop_
_atom_site_type_symbol
_atom_site_label
_atom_site_fract_x
_atom_site_fract_y
_atom_site_fract_z
Si Si1 0.446530 0.740951 0.743025
Si Si2 0.417157 0.139438 0.102724
Si Si3 0.758480 0.286981 0.024253
Si Si4 0.312426 0.692288 0.387499
Si Si5 0.973188 0.010129 0.087842
Si Si6 0.784579 0.883021 0.277319
Si Si7 0.010688 0.664371 0.542926
O O1 0.535526 0.869941 0.804229
O O2 0.200311 0.787390 0.627041
O O3 0.564958 0.942801 0.673796
O O4 0.523793 0.381412 0.884956
O O5 0.548502 0.874471 0.207428
O O6 0.500000 0.500000 0.000000
O O7 0.178962 0.069831 0.005609
O O8 0.833916 0.048130 0.079029
O O9 0.798031 0.155094 0.147473
O O10 0.898061 0.635708 0.972014
O O11 0.500000 0.500000 0.500000
O O12 0.187453 0.535928 0.442707
O O13 0.127188 0.738119 0.249453
O O14 0.929347 0.925700 0.383097
O O15 0.861195 0.572424 0.372182
#
# Coordination Sequence:
#
# PCOD9019422 Si02
#       7
#     2   2   2   2   2   2   2
#     4  11  25  45  70 103 136 181 228 277 348 406
#     4  12  24  40  67 108 137 175 225 281 345 409
#     4  10  21  44  72 100 130 178 233 284 335 401
#     4  11  24  43  67  98 137 181 225 272 344 415
#     4  10  23  42  70 100 137 175 231 288 333 400
#     4  11  24  44  69 103 133 179 233 276 344 408
#     4  11  25  48  70  96 141 182 226 288 337 405
#
# _framework density 24.042556999999999
#
# number of rings (size 3 to 8) (size 9 to 14) (size 15 to 20)
#    0.000    1.143    2.857    2.571    0.000    6.857 
#    7.714    1.429    0.000    0.000    0.000    0.000 
#    0.000    0.000    0.000    0.000    0.000    0.000 
#
# Total GULP energy -78260.797649 kJ/mol
# GULP energy per Si atom -5590.056975 kJ/mol
# Density = 2.398783 g / cm^3
# Si number density = 24.042557 Si / 1000 Ang^3
#
#
#
# Elastic Constant Matrix: (Units=GPa)
#
#
# Indices 1 2 3 4 5 6 
#
# 1 134.5213 31.3685 46.4779 11.3376 5.5084 7.6326
# 2 31.3685 68.3053 29.0990 19.0291 -3.1377 9.9617
# 3 46.4779 29.0990 181.1312 27.1780 1.1748 6.1624
# 4 11.3376 19.0291 27.1780 40.5587 0.7307 -1.2122
# 5 5.5084 -3.1377 1.1748 0.7307 49.7726 -3.7146
# 6 7.6326 9.9617 6.1624 -1.2122 -3.7146 40.7984
#
#
#
# Elastic Compliance Matrix: (Units=1/GPa)
#
#
# Indices 1 2 3 4 5 6 
#
# 1 0.008889 -0.003369 -0.001749 0.000269 -0.001209 -0.000678
# 2 -0.003369 0.019390 -0.000974 -0.007650 0.001428 -0.004054
# 3 -0.001749 -0.000974 0.006677 -0.003544 -0.000014 -0.000550
# 4 0.000269 -0.007650 -0.003544 0.030652 -0.000639 0.003205
# 5 -0.001209 0.001428 -0.000014 -0.000639 0.020454 0.001723
# 6 -0.000678 -0.004054 -0.000550 0.003205 0.001723 0.025963
#
#
# Mechanical properties :
#
#
# Convention : Reuss Voigt Hill
#
# Bulk Modulus (GPa) = 43.91369 66.42763 55.17066
# Shear Modulus (GPa) = 37.93663 44.69343 41.31503
#
# Velocity S-wave (km/s) = 3.97658 4.31621 4.14987
# Velocity P-wave (km/s) = 6.27606 7.24767 6.77929
#
# Compressibility (1/GPa) = 0.02277194
#
# Stress axis : x y z
#
# Youngs Moduli (GPa) = 112.49909 51.57242 149.77219
#
# Poissons Ratio (x) = 0.17373 0.26198
# Poissons Ratio (y) = 0.37897 0.14590
# Poissons Ratio (z) = 0.19678 0.05024
#
# Static dielectric constant tensor:
#      x y z
#    x 1.983760 0.002790 0.027340 
#    y 0.002790 2.019410 -0.006400 
#    z 0.027340 -0.006400 1.943500 
# 
# From -- ./inp_files/353850.got.cif
#   From: 2010.05.17/outbox.cif.g08.bks.cpg/sg2_177_cif.got.tgz:353850.got - 2010.06.03 11:33:40.
