data_PCOD9019968
_publ_section_title
;
Structure prediction by ZEFSAII (Michael W. Deem and Ramdas Pophale) SiO2 
 PCOD9019968
Probable space group: P -1
;
_chemical_formula_sum "Si O2"
_cell_formula_units_Z 16
_cell_length_a 11.689277
_cell_length_b 18.462801
_cell_length_c 15.262445
_cell_angle_alpha 150.559714
_cell_angle_beta 155.312278
_cell_angle_gamma 43.378408
_cell_volume 642.040091
_symmetry_space_group_name_H-M "P -1"
_symmetry_group_IT_number 2
_symmetry_cell_setting 'triclinic'
loop_
_space_group_symop_operation_xyz
x,y,z
-x,-y,-z
loop_
_atom_site_type_symbol
_atom_site_label
_atom_site_fract_x
_atom_site_fract_y
_atom_site_fract_z
Si Si1 0.465987 0.557291 0.269449
Si Si2 0.110272 0.664764 0.799800
Si Si3 0.346564 0.863376 0.508691
Si Si4 0.455778 0.863446 0.394436
Si Si5 0.968870 0.627899 0.340961
Si Si6 0.620405 0.567753 0.562642
Si Si7 0.355919 0.837825 0.679925
Si Si8 0.910015 0.139790 0.167840
O O1 0.297647 0.680432 0.278351
O O2 0.421521 0.477657 0.248751
O O3 0.796406 0.663377 0.613504
O O4 0.361858 0.445140 0.997181
O O5 0.000000 0.500000 0.500000
O O6 0.213544 0.788841 0.924645
O O7 0.314365 0.712341 0.076162
O O8 0.281719 0.886580 0.384585
O O9 0.228637 0.874746 0.536912
O O10 0.670850 0.984092 0.868804
O O11 0.778269 0.870214 0.653503
O O12 0.500000 0.000000 0.500000
O O13 0.100873 0.490403 0.310941
O O14 0.127879 0.725624 0.469943
O O15 0.021697 0.739498 0.577664
O O16 0.500000 0.500000 0.500000
O O17 0.581842 0.739794 0.715088
O O18 0.500000 0.000000 0.000000
#
# Coordination Sequence:
#
# PCOD9019968 Si02
#       8
#     2   2   2   2   2   2   2   2
#     4  11  24  42  66 100 138 181 231 282 350 415
#     4  12  26  42  67 103 140 182 237 287 351 424
#     4  11  23  43  69  98 141 182 231 290 352 415
#     4  12  25  44  69 100 138 191 232 283 363 418
#     4  11  24  44  74 102 139 186 232 290 356 414
#     4   9  22  41  69  97 137 180 231 278 346 417
#     4  10  21  45  74 105 140 182 232 295 352 416
#     4  12  24  44  69 103 146 177 237 302 343 419
#
# _framework density 24.920560999999999
#
# number of rings (size 3 to 8) (size 9 to 14) (size 15 to 20)
#    0.000    1.000    3.750    2.625    3.500    5.500 
#    0.000    0.000    0.000    5.250    0.000    0.000 
#    0.000    0.000    0.000    0.000    0.000    0.000 
#
# Total GULP energy -89233.487815 kJ/mol
# GULP energy per Si atom -5577.092988 kJ/mol
# Density = 2.486384 g / cm^3
# Si number density = 24.920561 Si / 1000 Ang^3
#
#
#
# Elastic Constant Matrix: (Units=GPa)
#
#
# Indices 1 2 3 4 5 6 
#
# 1 117.8517 23.1224 15.3730 6.3109 -24.8309 38.7444
# 2 23.1224 76.7248 22.0630 8.5556 -4.5117 27.9118
# 3 15.3730 22.0630 120.1437 -9.1865 -30.0555 8.1586
# 4 6.3109 8.5556 -9.1865 28.2730 4.5587 -5.7465
# 5 -24.8309 -4.5117 -30.0555 4.5587 51.7880 0.0388
# 6 38.7444 27.9118 8.1586 -5.7465 0.0388 53.3677
#
#
#
# Elastic Compliance Matrix: (Units=1/GPa)
#
#
# Indices 1 2 3 4 5 6 
#
# 1 0.013992 0.001171 0.000122 -0.006995 0.007506 -0.011548
# 2 0.001171 0.018833 -0.003288 -0.009493 0.001138 -0.011220
# 3 0.000122 -0.003288 0.010554 0.003578 0.005582 0.000399
# 4 -0.006995 -0.009493 0.003578 0.044856 -0.006064 0.014331
# 5 0.007506 0.001138 0.005582 -0.006064 0.026786 -0.007570
# 6 -0.011548 -0.011220 0.000399 0.014331 -0.007570 0.034477
#
#
# Mechanical properties :
#
#
# Convention : Reuss Voigt Hill
#
# Bulk Modulus (GPa) = 25.38752 48.42633 36.90692
# Shear Modulus (GPa) = 30.00831 43.62987 36.81909
#
# Velocity S-wave (km/s) = 3.47386 4.18875 3.84794
# Velocity P-wave (km/s) = 5.12833 6.54741 5.88083
#
# Compressibility (1/GPa) = 0.03938943
#
# Stress axis : x y z
#
# Youngs Moduli (GPa) = 71.46905 53.09693 94.74699
#
# Poissons Ratio (x) = -0.06215 -0.01153
# Poissons Ratio (y) = -0.08366 0.31148
# Poissons Ratio (z) = -0.00869 0.17456
#
# Static dielectric constant tensor:
#      x y z
#    x 2.100250 0.001470 0.021080 
#    y 0.001470 2.041390 -0.027000 
#    z 0.021080 -0.027000 2.023730 
# 
# From -- ./inp_files/523496.got.cif
#   From: 2010.05.17/outbox.cif.g08.bks.cpg/sg2_262_cif.got.tgz:523496.got - 2010.06.03 11:33:40.
