data_PCOD9019020
_publ_section_title
;
Structure prediction by ZEFSAII (Michael W. Deem and Ramdas Pophale) SiO2 
 PCOD9019020
Probable space group: P -1
;
_chemical_formula_sum "Si O2"
_cell_formula_units_Z 14
_cell_length_a 11.353085
_cell_length_b 12.145084
_cell_length_c 14.742697
_cell_angle_alpha 37.559452
_cell_angle_beta 149.362839
_cell_angle_gamma 132.769924
_cell_volume 631.442472
_symmetry_space_group_name_H-M "P -1"
_symmetry_group_IT_number 2
_symmetry_cell_setting 'triclinic'
loop_
_space_group_symop_operation_xyz
x,y,z
-x,-y,-z
loop_
_atom_site_type_symbol
_atom_site_label
_atom_site_fract_x
_atom_site_fract_y
_atom_site_fract_z
Si Si1 0.754087 0.444511 0.330927
Si Si2 0.271989 0.913780 0.950022
Si Si3 0.318803 0.036622 0.173600
Si Si4 0.656751 0.340310 0.134165
Si Si5 0.478830 0.703308 0.393951
Si Si6 0.004076 0.196357 0.327956
Si Si7 0.910065 0.078579 0.738018
O O1 0.732726 0.444168 0.207584
O O2 0.743281 0.241827 0.492731
O O3 0.000000 0.500000 0.500000
O O4 0.530868 0.570216 0.117673
O O5 0.153087 0.802126 0.865406
O O6 0.373503 0.805560 0.171504
O O7 0.060512 0.028754 0.780594
O O8 0.500000 0.000000 0.000000
O O9 0.345726 0.820558 0.309099
O O10 0.245052 0.058329 0.215649
O O11 0.540848 0.152359 0.214340
O O12 0.112417 0.115867 0.921814
O O13 0.890183 0.321054 0.246253
O O14 0.500000 0.500000 0.500000
O O15 0.739890 0.750490 0.558749
O O16 0.000000 0.000000 0.500000
#
# Coordination Sequence:
#
# PCOD9019020 Si02
#       7
#     2   2   2   2   2   2   2
#     4  11  24  41  66  99 135 171 220 280 337 393
#     4  11  23  43  72 100 129 179 237 271 337 422
#     4  10  21  44  67  95 135 175 228 268 341 413
#     4  11  24  42  67 103 128 175 233 274 327 416
#     4  11  26  45  67 102 139 180 223 290 343 393
#     4  12  22  42  74  96 134 182 231 278 337 408
#     4  10  22  41  67  96 132 177 213 282 340 391
#
# _framework density 22.171457
#
# number of rings (size 3 to 8) (size 9 to 14) (size 15 to 20)
#    0.000    1.143    4.286    1.714    0.000    3.429 
#    7.714    0.000    0.000    0.000    0.000    0.000 
#    0.000    0.000    0.000    0.000    0.000    0.000 
#
# Total GULP energy -77948.139532 kJ/mol
# GULP energy per Si atom -5567.724252 kJ/mol
# Density = 2.212099 g / cm^3
# Si number density = 22.171457 Si / 1000 Ang^3
#
#
#
# Elastic Constant Matrix: (Units=GPa)
#
#
# Indices 1 2 3 4 5 6 
#
# 1 90.6825 -0.6806 15.3337 -2.1600 12.8580 -7.1428
# 2 -0.6806 57.9248 16.3106 16.6555 9.7257 -7.5997
# 3 15.3337 16.3106 97.8274 9.0353 10.9137 0.7103
# 4 -2.1600 16.6555 9.0353 47.2262 -6.8854 -0.5400
# 5 12.8580 9.7257 10.9137 -6.8854 27.7268 3.8710
# 6 -7.1428 -7.5997 0.7103 -0.5400 3.8710 17.0499
#
#
#
# Elastic Compliance Matrix: (Units=1/GPa)
#
#
# Indices 1 2 3 4 5 6 
#
# 1 0.013207 0.003652 -0.001673 -0.001482 -0.008384 0.009087
# 2 0.003652 0.025449 -0.002368 -0.010282 -0.014466 0.015931
# 3 -0.001673 -0.002368 0.011416 -0.001901 -0.003139 -0.001579
# 4 -0.001482 -0.010282 -0.001901 0.026869 0.012714 -0.007160
# 5 -0.008384 -0.014466 -0.003139 0.012714 0.052398 -0.021323
# 6 0.009087 0.015931 -0.001579 -0.007160 -0.021323 0.074239
#
#
# Mechanical properties :
#
#
# Convention : Reuss Voigt Hill
#
# Bulk Modulus (GPa) = 20.28567 34.26244 27.27405
# Shear Modulus (GPa) = 22.64632 32.76533 27.70582
#
# Velocity S-wave (km/s) = 3.19943 3.84841 3.53883
# Velocity P-wave (km/s) = 4.77680 5.93582 5.38757
#
# Compressibility (1/GPa) = 0.04929589
#
# Stress axis : x y z
#
# Youngs Moduli (GPa) = 75.71748 39.29464 87.59390
#
# Poissons Ratio (x) = -0.14352 0.14652
# Poissons Ratio (y) = -0.27655 0.20740
# Poissons Ratio (z) = 0.12666 0.09304
#
# Static dielectric constant tensor:
#      x y z
#    x 1.908710 -0.035750 0.078040 
#    y -0.035750 1.905550 -0.081160 
#    z 0.078040 -0.081160 1.808230 
# 
# From -- ./inp_files/518703.got.cif
#   From: 2010.05.17/outbox.cif.g08.bks.cpg/sg2_260_cif.got.tgz:518703.got - 2010.06.03 11:33:40.
