data_PCOD9019906
_publ_section_title
;
Structure prediction by ZEFSAII (Michael W. Deem and Ramdas Pophale) SiO2 
 PCOD9019906
Probable space group: P -1
;
_chemical_formula_sum "Si O2"
_cell_formula_units_Z 14
_cell_length_a 11.852950
_cell_length_b 9.574779
_cell_length_c 9.073062
_cell_angle_alpha 44.817085
_cell_angle_beta 65.535266
_cell_angle_gamma 48.753175
_cell_volume 542.901403
_symmetry_space_group_name_H-M "P -1"
_symmetry_group_IT_number 2
_symmetry_cell_setting 'triclinic'
loop_
_space_group_symop_operation_xyz
x,y,z
-x,-y,-z
loop_
_atom_site_type_symbol
_atom_site_label
_atom_site_fract_x
_atom_site_fract_y
_atom_site_fract_z
Si Si1 0.356315 0.746164 0.285466
Si Si2 0.829298 0.750136 0.317657
Si Si3 0.695519 0.527791 0.701691
Si Si4 0.832452 0.144849 0.166514
Si Si5 0.941622 0.711826 0.988742
Si Si6 0.618279 0.116669 0.518421
Si Si7 0.501395 0.101641 0.085370
O O1 0.283202 0.615976 0.355182
O O2 0.415934 0.723042 0.435741
O O3 0.482531 0.689633 0.135360
O O4 0.219029 0.033376 0.143311
O O5 0.808878 0.608831 0.562335
O O6 0.919356 0.611875 0.227302
O O7 0.891935 0.906626 0.215302
O O8 0.656050 0.927884 0.220931
O O9 0.521785 0.751498 0.616833
O O10 0.725172 0.363303 0.948527
O O11 0.753901 0.097822 0.376953
O O12 0.945615 0.206500 0.117180
O O13 0.000000 0.500000 0.000000
O O14 0.624855 0.886650 0.754137
O O15 0.500000 0.000000 0.000000
#
# Coordination Sequence:
#
# PCOD9019906 Si02
#       7
#     2   2   2   2   2   2   2
#     4  10  21  45  71  99 140 189 233 288 342 409
#     4  10  23  44  69  98 138 189 228 279 351 406
#     4  11  23  43  72 105 141 186 226 280 358 419
#     4  12  25  46  68 106 146 180 228 297 344 411
#     4  11  26  48  72 101 138 183 243 291 342 415
#     4  10  23  40  68 107 142 179 231 283 351 418
#     4   8  16  37  65  96 132 179 218 275 335 401
#
# _framework density 25.787369999999999
#
# number of rings (size 3 to 8) (size 9 to 14) (size 15 to 20)
#    0.000    1.714    2.857    1.286    2.000    4.571 
#   10.286    0.000    0.000    0.000    0.000    0.000 
#    0.000    0.000    0.000    0.000    0.000    0.000 
#
# Total GULP energy -78239.788236 kJ/mol
# GULP energy per Si atom -5588.556303 kJ/mol
# Density = 2.572868 g / cm^3
# Si number density = 25.787370 Si / 1000 Ang^3
#
#
#
# Elastic Constant Matrix: (Units=GPa)
#
#
# Indices 1 2 3 4 5 6 
#
# 1 135.9340 25.2726 49.3006 -0.1529 -16.2382 17.6295
# 2 25.2726 87.3218 15.4084 26.1126 -20.6155 20.3220
# 3 49.3006 15.4084 165.0291 27.8033 -33.5622 -10.2875
# 4 -0.1529 26.1126 27.8033 41.8281 -6.8938 -5.7660
# 5 -16.2382 -20.6155 -33.5622 -6.8938 54.9678 -0.9949
# 6 17.6295 20.3220 -10.2875 -5.7660 -0.9949 31.9263
#
#
#
# Elastic Compliance Matrix: (Units=1/GPa)
#
#
# Indices 1 2 3 4 5 6 
#
# 1 0.009584 -0.001867 -0.003395 0.002869 0.000333 -0.004669
# 2 -0.001867 0.021046 0.001478 -0.015114 0.006087 -0.014429
# 3 -0.003395 0.001478 0.008979 -0.005782 0.004361 0.002919
# 4 0.002869 -0.015114 -0.005782 0.038447 -0.003294 0.013014
# 5 0.000333 0.006087 0.004361 -0.003294 0.022778 -0.002538
# 6 -0.004669 -0.014429 0.002919 0.013014 -0.002538 0.046297
#
#
# Mechanical properties :
#
#
# Convention : Reuss Voigt Hill
#
# Bulk Modulus (GPa) = 31.21215 63.13867 47.17541
# Shear Modulus (GPa) = 30.23326 45.63131 37.93228
#
# Velocity S-wave (km/s) = 3.42776 4.21113 3.83948
# Velocity P-wave (km/s) = 5.27219 6.94135 6.16353
#
# Compressibility (1/GPa) = 0.03203881
#
# Stress axis : x y z
#
# Youngs Moduli (GPa) = 104.34469 47.51421 111.37179
#
# Poissons Ratio (x) = 0.08872 0.37814
# Poissons Ratio (y) = 0.19484 -0.16456
# Poissons Ratio (z) = 0.35428 -0.07020
#
# Static dielectric constant tensor:
#      x y z
#    x 2.074900 -0.006660 0.015100 
#    y -0.006660 2.108190 -0.061270 
#    z 0.015100 -0.061270 2.110390 
# 
# From -- ./inp_files/241930.got.cif
#   From: 2010.05.17/outbox.cif.g08.bks.cpg/sg2_121_cif.got.tgz:241930.got - 2010.06.03 11:33:40.
