data_PCOD9019165
_publ_section_title
;
Structure prediction by ZEFSAII (Michael W. Deem and Ramdas Pophale) SiO2 
 PCOD9019165
Probable space group: P -1
;
_chemical_formula_sum "Si O2"
_cell_formula_units_Z 14
_cell_length_a 11.619750
_cell_length_b 6.355506
_cell_length_c 11.535219
_cell_angle_alpha 47.715642
_cell_angle_beta 91.451865
_cell_angle_gamma 111.279293
_cell_volume 556.884042
_symmetry_space_group_name_H-M "P -1"
_symmetry_group_IT_number 2
_symmetry_cell_setting 'triclinic'
loop_
_space_group_symop_operation_xyz
x,y,z
-x,-y,-z
loop_
_atom_site_type_symbol
_atom_site_label
_atom_site_fract_x
_atom_site_fract_y
_atom_site_fract_z
Si Si1 0.575122 0.385936 0.633310
Si Si2 0.121338 0.683742 0.850250
Si Si3 0.705633 0.686179 0.762243
Si Si4 0.333609 0.978217 0.907436
Si Si5 0.738205 0.757281 0.994793
Si Si6 0.824750 0.410607 0.514576
Si Si7 0.985092 0.445235 0.713071
O O1 0.500000 0.500000 0.500000
O O2 0.634750 0.616830 0.661638
O O3 0.684715 0.358186 0.570033
O O4 0.466284 0.062903 0.812172
O O5 0.230428 0.981406 0.811438
O O6 0.056629 0.693478 0.724968
O O7 0.203598 0.489819 0.901698
O O8 0.000000 0.500000 0.000000
O O9 0.666735 0.710245 0.886745
O O10 0.813706 0.057662 0.618850
O O11 0.724075 0.366980 0.900739
O O12 0.354347 0.242472 0.906143
O O13 0.869738 0.101606 0.878139
O O14 0.912905 0.553253 0.577003
O O15 0.905715 0.610017 0.332690
#
# Coordination Sequence:
#
# PCOD9019165 Si02
#       7
#     2   2   2   2   2   2   2
#     4  12  29  45  68 102 143 181 229 285 348 415
#     4  11  23  37  71 105 136 178 229 284 345 402
#     4  10  23  46  71  95 130 188 230 276 338 405
#     4  11  25  45  70 103 137 182 230 284 343 412
#     4  10  22  41  69 103 136 175 230 285 341 405
#     4  10  25  46  69  99 140 182 229 283 342 412
#     4  10  21  44  69 101 138 177 225 289 341 400
#
# _framework density 25.139886000000001
#
# number of rings (size 3 to 8) (size 9 to 14) (size 15 to 20)
#    0.000    1.429    1.429    2.571    6.000    4.000 
#    0.000    4.286    0.000    0.000    0.000    0.000 
#    0.000    0.000    0.000    0.000    0.000    0.000 
#
# Total GULP energy -78120.855345 kJ/mol
# GULP energy per Si atom -5580.061096 kJ/mol
# Density = 2.508267 g / cm^3
# Si number density = 25.139886 Si / 1000 Ang^3
#
#
#
# Elastic Constant Matrix: (Units=GPa)
#
#
# Indices 1 2 3 4 5 6 
#
# 1 124.2834 32.2586 45.5642 1.6588 -15.9389 -10.7571
# 2 32.2586 105.5009 32.1156 27.8087 20.2509 21.7536
# 3 45.5642 32.1156 79.6104 8.2483 -12.2561 -5.9378
# 4 1.6588 27.8087 8.2483 36.9894 3.8067 8.7909
# 5 -15.9389 20.2509 -12.2561 3.8067 46.2855 12.9560
# 6 -10.7571 21.7536 -5.9378 8.7909 12.9560 49.0978
#
#
#
# Elastic Compliance Matrix: (Units=1/GPa)
#
#
# Indices 1 2 3 4 5 6 
#
# 1 0.011318 -0.003945 -0.004423 0.002530 0.003603 0.002289
# 2 -0.003945 0.017615 -0.005512 -0.009701 -0.008206 -0.005433
# 3 -0.004423 -0.005512 0.018383 -0.000879 0.005129 0.002500
# 4 0.002530 -0.009701 -0.000879 0.034651 0.002636 -0.002154
# 5 0.003603 -0.008206 0.005129 0.002636 0.028395 -0.002919
# 6 0.002289 -0.005433 0.002500 -0.002154 -0.002919 0.024734
#
#
# Mechanical properties :
#
#
# Convention : Reuss Voigt Hill
#
# Bulk Modulus (GPa) = 51.13156 58.80795 54.96975
# Shear Modulus (GPa) = 29.52017 39.77160 34.64589
#
# Velocity S-wave (km/s) = 3.43043 3.98177 3.71634
# Velocity P-wave (km/s) = 6.00612 6.67700 6.35043
#
# Compressibility (1/GPa) = 0.01955739
#
# Stress axis : x y z
#
# Youngs Moduli (GPa) = 88.35475 56.76911 54.39685
#
# Poissons Ratio (x) = 0.22393 0.24060
# Poissons Ratio (y) = 0.34852 0.29983
# Poissons Ratio (z) = 0.39080 0.31291
#
# Static dielectric constant tensor:
#      x y z
#    x 1.980390 -0.021210 0.017980 
#    y -0.021210 2.007700 -0.022420 
#    z 0.017980 -0.022420 2.055400 
# 
# From -- ./inp_files/409847.got.cif
#   From: 2010.05.17/outbox.cif.g08.bks.cpg/sg2_205_cif.got.tgz:409847.got - 2010.06.03 11:33:40.
