data_PCOD9019226
_publ_section_title
;
Structure prediction by ZEFSAII (Michael W. Deem and Ramdas Pophale) SiO2 
 PCOD9019226
Probable space group: P -1
;
_chemical_formula_sum "Si O2"
_cell_formula_units_Z 16
_cell_length_a 14.075967
_cell_length_b 8.074362
_cell_length_c 18.876279
_cell_angle_alpha 102.295419
_cell_angle_beta 18.834120
_cell_angle_gamma 96.023614
_cell_volume 644.179395
_symmetry_space_group_name_H-M "P -1"
_symmetry_group_IT_number 2
_symmetry_cell_setting 'triclinic'
loop_
_space_group_symop_operation_xyz
x,y,z
-x,-y,-z
loop_
_atom_site_type_symbol
_atom_site_label
_atom_site_fract_x
_atom_site_fract_y
_atom_site_fract_z
Si Si1 0.219471 0.931412 0.524741
Si Si2 0.377338 0.478553 0.162507
Si Si3 0.976101 0.933091 0.120716
Si Si4 0.848070 0.682093 0.084728
Si Si5 0.665230 0.936558 0.012837
Si Si6 0.943538 0.798289 0.581776
Si Si7 0.096370 0.441713 0.126441
Si Si8 0.621538 0.786201 0.479012
O O1 0.483787 0.776930 0.364662
O O2 0.887195 0.973659 0.799264
O O3 0.182628 0.859860 0.466928
O O4 0.330303 0.102194 0.476528
O O5 0.227497 0.319133 0.262179
O O6 0.120337 0.661347 0.384304
O O7 0.500000 0.500000 0.000000
O O8 0.660028 0.451913 0.016398
O O9 0.014072 0.817964 0.012517
O O10 0.837696 0.827371 0.267478
O O11 0.715325 0.121045 0.307010
O O12 0.264382 0.971176 0.956841
O O13 0.870381 0.637722 0.982600
O O14 0.000000 0.500000 0.000000
O O15 0.795471 0.725910 0.913215
O O16 0.315519 0.027014 0.246131
O O17 0.752797 0.579420 0.386259
#
# Coordination Sequence:
#
# PCOD9019226 Si02
#       8
#     2   2   2   2   2   2   2   2
#     4  10  21  44  69  97 130 186 232 279 355 416
#     4  11  25  46  74 106 142 182 236 288 347 419
#     4   9  19  40  61  94 128 178 229 272 355 404
#     4  11  22  39  71  95 135 182 234 287 343 418
#     4  11  25  40  67  99 142 182 231 287 347 419
#     4  11  24  47  73 102 145 185 229 291 352 414
#     4  12  24  42  63 104 135 176 237 286 347 414
#     4   9  19  37  67  90 129 177 227 285 336 415
#
# _framework density 24.837800000000001
#
# number of rings (size 3 to 8) (size 9 to 14) (size 15 to 20)
#    0.000    1.500    2.500    3.375    0.000    2.500 
#    6.750    0.000    0.000    0.000    0.000    0.000 
#    0.000    0.000    0.000    0.000    0.000    0.000 
#
# Total GULP energy -89624.599321 kJ/mol
# GULP energy per Si atom -5601.537458 kJ/mol
# Density = 2.478127 g / cm^3
# Si number density = 24.837800 Si / 1000 Ang^3
#
#
#
# Elastic Constant Matrix: (Units=GPa)
#
#
# Indices 1 2 3 4 5 6 
#
# 1 128.2654 50.8408 33.2245 2.0911 0.7706 21.1823
# 2 50.8408 86.3632 46.1391 20.1489 -7.5700 -7.2549
# 3 33.2245 46.1391 86.7847 31.2115 -9.8358 -9.7824
# 4 2.0911 20.1489 31.2115 53.1585 -8.6128 -6.7483
# 5 0.7706 -7.5700 -9.8358 -8.6128 50.4325 -3.0577
# 6 21.1823 -7.2549 -9.7824 -6.7483 -3.0577 40.6758
#
#
#
# Elastic Compliance Matrix: (Units=1/GPa)
#
#
# Indices 1 2 3 4 5 6 
#
# 1 0.012954 -0.007469 -0.003175 0.002782 -0.001980 -0.008529
# 2 -0.007469 0.020604 -0.006217 -0.002836 0.001858 0.005738
# 3 -0.003175 -0.006217 0.019675 -0.008269 0.001785 0.004039
# 4 0.002782 -0.002836 -0.008269 0.025039 0.002218 0.000378
# 5 -0.001980 0.001858 0.001785 0.002218 0.021092 0.003746
# 6 -0.008529 0.005738 0.004039 0.000378 0.003746 0.031365
#
#
# Mechanical properties :
#
#
# Convention : Reuss Voigt Hill
#
# Bulk Modulus (GPa) = 51.25368 62.42470 56.83919
# Shear Modulus (GPa) = 29.24736 40.26730 34.75733
#
# Velocity S-wave (km/s) = 3.43524 4.03079 3.74488
# Velocity P-wave (km/s) = 6.03446 6.84475 6.45234
#
# Compressibility (1/GPa) = 0.01951079
#
# Stress axis : x y z
#
# Youngs Moduli (GPa) = 77.19463 48.53422 50.82585
#
# Poissons Ratio (x) = 0.36250 0.16137
# Poissons Ratio (y) = 0.57656 0.31601
# Poissons Ratio (z) = 0.24508 0.30176
#
# Static dielectric constant tensor:
#      x y z
#    x 1.950720 -0.005200 0.039790 
#    y -0.005200 1.997700 -0.045820 
#    z 0.039790 -0.045820 1.950400 
# 
# From -- ./inp_files/597391.got.cif
#   From: 2010.05.17/outbox.cif.g08.bks.cpg/sg2_299_cif.got.tgz:597391.got - 2010.06.03 11:33:40.
