data_PCOD9019890
_publ_section_title
;
Structure prediction by ZEFSAII (Michael W. Deem and Ramdas Pophale) SiO2 
 PCOD9019890
Probable space group: P -1
;
_chemical_formula_sum "Si O2"
_cell_formula_units_Z 14
_cell_length_a 15.272795
_cell_length_b 15.650339
_cell_length_c 7.429351
_cell_angle_alpha 43.349364
_cell_angle_beta 58.554632
_cell_angle_gamma 28.345350
_cell_volume 539.277818
_symmetry_space_group_name_H-M "P -1"
_symmetry_group_IT_number 2
_symmetry_cell_setting 'triclinic'
loop_
_space_group_symop_operation_xyz
x,y,z
-x,-y,-z
loop_
_atom_site_type_symbol
_atom_site_label
_atom_site_fract_x
_atom_site_fract_y
_atom_site_fract_z
Si Si1 0.589721 0.523487 0.476127
Si Si2 0.504384 0.124138 0.116618
Si Si3 0.809583 0.609694 0.473555
Si Si4 0.076029 0.558040 0.798706
Si Si5 0.948350 0.019253 0.823201
Si Si6 0.735763 0.037041 0.248710
Si Si7 0.335595 0.513340 0.122366
O O1 0.500000 0.500000 0.500000
O O2 0.479263 0.764301 0.181123
O O3 0.615658 0.504580 0.693000
O O4 0.807674 0.280288 0.526308
O O5 0.267566 0.365952 0.015868
O O6 0.637395 0.011238 0.322794
O O7 0.613600 0.897598 0.252376
O O8 0.844141 0.529246 0.356533
O O9 0.752019 0.535443 0.734639
O O10 0.000000 0.500000 0.500000
O O11 0.888909 0.845308 0.537723
O O12 0.000000 0.500000 0.000000
O O13 0.841039 0.999570 0.025486
O O14 0.148536 0.794126 0.843501
O O15 0.000000 0.000000 0.000000
O O16 0.541453 0.311646 0.104926
#
# Coordination Sequence:
#
# PCOD9019890 Si02
#       7
#     2   2   2   2   2   2   2
#     4  11  23  44  72  99 137 191 236 294 350 419
#     4  12  25  46  71 102 149 187 239 293 360 426
#     4  12  24  45  74 103 147 192 232 294 373 425
#     4  12  26  43  69 109 146 185 237 298 353 436
#     4  10  21  45  71  95 141 183 237 292 350 412
#     4  12  25  47  70 108 143 187 240 295 359 426
#     4  11  25  45  75 103 139 192 237 295 367 424
#
# _framework density 25.960645
#
# number of rings (size 3 to 8) (size 9 to 14) (size 15 to 20)
#    0.000    0.571    5.714    2.143    4.000    3.429 
#    2.571    0.714    0.000    0.000    0.000    0.000 
#    0.000    0.000    0.000    0.000    0.000    0.000 
#
# Total GULP energy -78048.547249 kJ/mol
# GULP energy per Si atom -5574.896232 kJ/mol
# Density = 2.590156 g / cm^3
# Si number density = 25.960645 Si / 1000 Ang^3
#
#
#
# Elastic Constant Matrix: (Units=GPa)
#
#
# Indices 1 2 3 4 5 6 
#
# 1 136.0586 13.3038 6.9868 -1.5876 20.7945 -20.1577
# 2 13.3038 119.4586 27.2552 -36.0224 5.1996 8.5141
# 3 6.9868 27.2552 106.8194 -46.7979 -5.1427 -3.7381
# 4 -1.5876 -36.0224 -46.7979 54.0585 2.5341 0.1164
# 5 20.7945 5.1996 -5.1427 2.5341 42.0138 -8.2274
# 6 -20.1577 8.5141 -3.7381 0.1164 -8.2274 48.7329
#
#
#
# Elastic Compliance Matrix: (Units=1/GPa)
#
#
# Indices 1 2 3 4 5 6 
#
# 1 0.008476 -0.001143 -0.000772 -0.001024 -0.003487 0.003060
# 2 -0.001143 0.011009 0.000526 0.007845 -0.001728 -0.002666
# 3 -0.000772 0.000526 0.015302 0.013499 0.001571 0.000995
# 4 -0.001024 0.007845 0.013499 0.035438 -0.001152 -0.001038
# 5 -0.003487 -0.001728 0.001571 -0.001152 0.026686 0.003488
# 6 0.003060 -0.002666 0.000995 -0.001038 0.003488 0.022919
#
#
# Mechanical properties :
#
#
# Convention : Reuss Voigt Hill
#
# Bulk Modulus (GPa) = 31.24171 50.82537 41.03354
# Shear Modulus (GPa) = 37.51541 49.94711 43.73126
#
# Velocity S-wave (km/s) = 3.80556 4.39105 4.10874
# Velocity P-wave (km/s) = 5.60090 6.73266 6.19269
#
# Compressibility (1/GPa) = 0.03200849
#
# Stress axis : x y z
#
# Youngs Moduli (GPa) = 117.98682 90.83401 65.34920
#
# Poissons Ratio (x) = 0.10382 0.05047
# Poissons Ratio (y) = 0.13485 -0.03437
# Poissons Ratio (z) = 0.09113 -0.04778
#
# Static dielectric constant tensor:
#      x y z
#    x 2.301410 -0.255480 -0.073120 
#    y -0.255480 2.258770 0.132330 
#    z -0.073120 0.132330 2.194100 
# 
# From -- ./inp_files/294137.got.cif
#   From: 2010.05.17/outbox.cif.g08.bks.cpg/sg2_148_cif.got.tgz:294137.got - 2010.06.03 11:33:40.
