data_PCOD9019544
_publ_section_title
;
Structure prediction by ZEFSAII (Michael W. Deem and Ramdas Pophale) SiO2 
 PCOD9019544
Probable space group: P -1
;
_chemical_formula_sum "Si O2"
_cell_formula_units_Z 16
_cell_length_a 5.617969
_cell_length_b 19.677419
_cell_length_c 8.489095
_cell_angle_alpha 111.763751
_cell_angle_beta 60.155437
_cell_angle_gamma 126.365927
_cell_volume 651.598840
_symmetry_space_group_name_H-M "P -1"
_symmetry_group_IT_number 2
_symmetry_cell_setting 'triclinic'
loop_
_space_group_symop_operation_xyz
x,y,z
-x,-y,-z
loop_
_atom_site_type_symbol
_atom_site_label
_atom_site_fract_x
_atom_site_fract_y
_atom_site_fract_z
Si Si1 0.738905 0.385705 0.117077
Si Si2 0.711148 0.317439 0.733197
Si Si3 0.310373 0.535039 0.183768
Si Si4 0.680076 0.989501 0.675885
Si Si5 0.482807 0.230389 0.268254
Si Si6 0.351683 0.070587 0.003137
Si Si7 0.759594 0.185374 0.450727
Si Si8 0.255893 0.430168 0.402135
O O1 0.715795 0.326419 0.218402
O O2 0.399137 0.379892 0.220042
O O3 0.977221 0.484411 0.157510
O O4 0.806350 0.349053 0.906708
O O5 0.511983 0.363485 0.792856
O O6 0.608474 0.220489 0.659071
O O7 0.980358 0.364693 0.551222
O O8 0.225286 0.490823 0.340217
O O9 0.500000 0.500000 0.000000
O O10 0.646192 0.956324 0.838494
O O11 0.401419 0.915681 0.599996
O O12 0.000000 0.000000 0.500000
O O13 0.605641 0.064919 0.798905
O O14 0.423792 0.165795 0.087764
O O15 0.644418 0.210191 0.345639
O O16 0.130890 0.219233 0.398424
O O17 0.000000 0.000000 0.000000
O O18 0.500000 0.500000 0.500000
#
# Coordination Sequence:
#
# PCOD9019544 Si02
#       8
#     2   2   2   2   2   2   2   2
#     4  12  26  45  66  98 136 180 234 293 347 424
#     4  12  25  44  67  99 133 181 231 293 352 414
#     4  12  25  44  68  97 132 181 238 288 350 425
#     4  10  23  45  71 107 143 186 240 289 355 433
#     4  11  25  47  73 103 146 186 236 291 359 422
#     4  10  21  44  74 100 143 190 230 295 357 421
#     4  11  25  47  72 105 145 186 233 296 355 425
#     4  12  24  42  69  92 131 178 228 287 355 406
#
# _framework density 24.554983
#
# number of rings (size 3 to 8) (size 9 to 14) (size 15 to 20)
#    0.000    0.750    5.000    2.250    1.750    2.500 
#    6.750    0.000    0.000    0.000    0.000    0.000 
#    0.000    0.000    0.000    0.000    0.000    0.000 
#
# Total GULP energy -89222.522582 kJ/mol
# GULP energy per Si atom -5576.407661 kJ/mol
# Density = 2.449909 g / cm^3
# Si number density = 24.554983 Si / 1000 Ang^3
#
#
#
# Elastic Constant Matrix: (Units=GPa)
#
#
# Indices 1 2 3 4 5 6 
#
# 1 69.5771 -2.8528 33.4199 1.4291 -3.9698 -0.9547
# 2 -2.8528 51.2191 8.9943 32.9243 -1.5107 -3.3093
# 3 33.4199 8.9943 159.5128 29.5080 -19.6066 -3.4000
# 4 1.4291 32.9243 29.5080 52.1937 -7.0059 -1.3182
# 5 -3.9698 -1.5107 -19.6066 -7.0059 48.9073 8.8845
# 6 -0.9547 -3.3093 -3.4000 -1.3182 8.8845 35.6988
#
#
#
# Elastic Compliance Matrix: (Units=1/GPa)
#
#
# Indices 1 2 3 4 5 6 
#
# 1 0.016128 0.000861 -0.003621 0.001067 0.000000 0.000206
# 2 0.000861 0.033985 0.001939 -0.022738 -0.001904 0.002992
# 3 -0.003621 0.001939 0.008208 -0.005459 0.002256 0.000102
# 4 0.001067 -0.022738 -0.005459 0.036891 0.002833 -0.001942
# 5 0.000000 -0.001904 0.002256 0.002833 0.022699 -0.005506
# 6 0.000206 0.002992 0.000102 -0.001942 -0.005506 0.029603
#
#
# Mechanical properties :
#
#
# Convention : Reuss Voigt Hill
#
# Bulk Modulus (GPa) = 17.64281 39.93686 28.78984
# Shear Modulus (GPa) = 29.75373 43.40980 36.58177
#
# Velocity S-wave (km/s) = 3.48475 4.20916 3.86397
# Velocity P-wave (km/s) = 4.83652 6.31840 5.62646
#
# Compressibility (1/GPa) = 0.05668031
#
# Stress axis : x y z
#
# Youngs Moduli (GPa) = 62.00461 29.42501 121.83804
#
# Poissons Ratio (x) = -0.02535 0.44113
# Poissons Ratio (y) = -0.05341 -0.23628
# Poissons Ratio (z) = 0.22449 -0.05706
#
# Static dielectric constant tensor:
#      x y z
#    x 2.121460 -0.201180 0.046660 
#    y -0.201180 1.904060 0.164950 
#    z 0.046660 0.164950 1.824380 
# 
# From -- ./inp_files/120068.got.cif
#   From: 2010.05.17/outbox.cif.g08.bks.cpg/sg2_61_cif.got.tgz:120068.got - 2010.06.03 11:33:40.
