data_PCOD9019767
_publ_section_title
;
Structure prediction by ZEFSAII (Michael W. Deem and Ramdas Pophale) SiO2 
 PCOD9019767
Probable space group: P -1
;
_chemical_formula_sum "Si O2"
_cell_formula_units_Z 14
_cell_length_a 7.491754
_cell_length_b 9.983321
_cell_length_c 14.090551
_cell_angle_alpha 148.976198
_cell_angle_beta 106.657314
_cell_angle_gamma 76.659583
_cell_volume 520.127653
_symmetry_space_group_name_H-M "P -1"
_symmetry_group_IT_number 2
_symmetry_cell_setting 'triclinic'
loop_
_space_group_symop_operation_xyz
x,y,z
-x,-y,-z
loop_
_atom_site_type_symbol
_atom_site_label
_atom_site_fract_x
_atom_site_fract_y
_atom_site_fract_z
Si Si1 0.070826 0.751001 0.721768
Si Si2 0.837991 0.931591 0.553487
Si Si3 0.590415 0.563963 0.160863
Si Si4 0.201206 0.679986 0.370307
Si Si5 0.428354 0.059621 0.919631
Si Si6 0.081294 0.739145 0.925257
Si Si7 0.557570 0.953491 0.678320
O O1 0.225786 0.922295 0.794328
O O2 0.155840 0.675304 0.791951
O O3 0.000000 0.500000 0.500000
O O4 0.930958 0.962969 0.869490
O O5 0.679080 0.779625 0.376508
O O6 0.756241 0.918265 0.637718
O O7 0.041495 0.826316 0.497128
O O8 0.828570 0.213870 0.675914
O O9 0.780655 0.409442 0.074511
O O10 0.455789 0.362210 0.076063
O O11 0.492044 0.246452 0.816661
O O12 0.400724 0.755789 0.489751
O O13 0.127095 0.385101 0.180983
O O14 0.544468 0.925355 0.771715
O O15 0.500000 0.000000 0.000000
#
# Coordination Sequence:
#
# PCOD9019767 Si02
#       7
#     2   2   2   2   2   2   2
#     4  11  25  47  72 103 145 199 250 300 373 456
#     4   9  20  38  73 109 152 186 238 307 377 443
#     4  10  21  45  68 107 144 184 241 313 374 435
#     4   9  18  39  72 112 144 192 239 303 380 444
#     4  12  26  48  69 101 148 197 249 305 370 445
#     4  10  22  44  75 100 148 190 247 311 370 436
#     4  11  23  42  73 112 149 191 251 305 373 445
#
# _framework density 26.916471999999999
#
# number of rings (size 3 to 8) (size 9 to 14) (size 15 to 20)
#    0.000    1.714    1.429    3.857    4.000    0.000 
#    7.714    2.143    0.000    0.000    0.000    0.000 
#    0.000    0.000    0.000    0.000    0.000    0.000 
#
# Total GULP energy -78318.298380 kJ/mol
# GULP energy per Si atom -5594.164170 kJ/mol
# Density = 2.685521 g / cm^3
# Si number density = 26.916472 Si / 1000 Ang^3
#
#
#
# Elastic Constant Matrix: (Units=GPa)
#
#
# Indices 1 2 3 4 5 6 
#
# 1 116.6316 39.1609 48.0016 1.1367 5.4547 27.5353
# 2 39.1609 146.3699 64.4313 -16.2023 8.9974 13.7414
# 3 48.0016 64.4313 151.8876 7.3231 9.9484 -1.7256
# 4 1.1367 -16.2023 7.3231 67.0922 14.0758 1.1336
# 5 5.4547 8.9974 9.9484 14.0758 49.7716 8.2001
# 6 27.5353 13.7414 -1.7256 1.1336 8.2001 54.1018
#
#
#
# Elastic Compliance Matrix: (Units=1/GPa)
#
#
# Indices 1 2 3 4 5 6 
#
# 1 0.011674 -0.001183 -0.003286 -0.000151 0.000595 -0.005833
# 2 -0.001183 0.009341 -0.003662 0.002996 -0.001388 -0.001740
# 3 -0.003286 -0.003662 0.009350 -0.001719 -0.000866 0.003068
# 4 -0.000151 0.002996 -0.001719 0.016850 -0.004889 -0.000351
# 5 0.000595 -0.001388 -0.000866 -0.004889 0.022371 -0.003266
# 6 -0.005833 -0.001740 0.003068 -0.000351 -0.003266 0.022495
#
#
# Mechanical properties :
#
#
# Convention : Reuss Voigt Hill
#
# Bulk Modulus (GPa) = 70.90030 79.78631 75.34331
# Shear Modulus (GPa) = 44.23103 51.74614 47.98859
#
# Velocity S-wave (km/s) = 4.05812 4.38936 4.22699
# Velocity P-wave (km/s) = 6.95384 7.44279 7.20247
#
# Compressibility (1/GPa) = 0.01410431
#
# Stress axis : x y z
#
# Youngs Moduli (GPa) = 85.65937 107.05896 106.95129
#
# Poissons Ratio (x) = 0.12662 0.35141
# Poissons Ratio (y) = 0.10131 0.39164
# Poissons Ratio (z) = 0.28145 0.39204
#
# Static dielectric constant tensor:
#      x y z
#    x 2.130740 -0.018750 -0.037310 
#    y -0.018750 2.181860 -0.051390 
#    z -0.037310 -0.051390 2.225620 
# 
# From -- ./inp_files/497207.got.cif
#   From: 2010.05.17/outbox.cif.g08.bks.cpg/sg2_249_cif.got.tgz:497207.got - 2010.06.03 11:33:40.
