data_PCOD9019764
_publ_section_title
;
Structure prediction by ZEFSAII (Michael W. Deem and Ramdas Pophale) SiO2 
 PCOD9019764
Probable space group: P -1
;
_chemical_formula_sum "Si O2"
_cell_formula_units_Z 16
_cell_length_a 4.860911
_cell_length_b 22.760472
_cell_length_c 6.000580
_cell_angle_alpha 88.730666
_cell_angle_beta 95.329609
_cell_angle_gamma 106.103689
_cell_volume 635.072005
_symmetry_space_group_name_H-M "P -1"
_symmetry_group_IT_number 2
_symmetry_cell_setting 'triclinic'
loop_
_space_group_symop_operation_xyz
x,y,z
-x,-y,-z
loop_
_atom_site_type_symbol
_atom_site_label
_atom_site_fract_x
_atom_site_fract_y
_atom_site_fract_z
Si Si1 0.650220 0.129950 0.763005
Si Si2 0.152667 0.353280 0.286758
Si Si3 0.928344 0.928750 0.454912
Si Si4 0.590168 0.559479 0.352051
Si Si5 0.410057 0.278950 0.947578
Si Si6 0.135460 0.600534 0.090999
Si Si7 0.929351 0.243946 0.535670
Si Si8 0.122417 0.164294 0.178230
O O1 0.318393 0.093481 0.749328
O O2 0.675034 0.196581 0.650367
O O3 0.798274 0.091804 0.609328
O O4 0.853800 0.140682 0.992855
O O5 0.390969 0.385087 0.479899
O O6 0.901118 0.303446 0.400942
O O7 0.287813 0.318914 0.114014
O O8 0.027006 0.403470 0.154845
O O9 0.814632 0.891158 0.676558
O O10 0.000000 0.000000 0.500000
O O11 0.500000 0.500000 0.500000
O O12 0.372594 0.564546 0.139662
O O13 0.903176 0.574671 0.265315
O O14 0.708317 0.325989 0.889685
O O15 0.186704 0.264582 0.729581
O O16 0.381941 0.212980 0.064738
O O17 0.028154 0.204622 0.356903
#
# Coordination Sequence:
#
# PCOD9019764 Si02
#       8
#     2   2   2   2   2   2   2   2
#     4  10  23  42  63  99 131 174 231 277 335 404
#     4  11  23  43  73  98 137 179 220 282 350 396
#     4  11  24  43  67  96 137 183 231 275 328 401
#     4  12  29  49  69  99 141 181 227 277 334 410
#     4  10  21  45  68 105 135 173 230 284 342 418
#     4  12  25  46  69 103 129 174 231 274 339 406
#     4   9  19  43  66  99 138 172 220 283 347 404
#     4   9  22  41  66 100 135 182 216 289 345 392
#
# _framework density 25.193989999999999
#
# number of rings (size 3 to 8) (size 9 to 14) (size 15 to 20)
#    0.000    1.500    2.500    0.750    3.500    4.000 
#   22.500    0.000    0.000    0.000    0.000    0.000 
#    0.000    0.000    0.000    0.000    0.000    0.000 
#
# Total GULP energy -89638.680304 kJ/mol
# GULP energy per Si atom -5602.417519 kJ/mol
# Density = 2.513665 g / cm^3
# Si number density = 25.193990 Si / 1000 Ang^3
#
#
#
# Elastic Constant Matrix: (Units=GPa)
#
#
# Indices 1 2 3 4 5 6 
#
# 1 88.8765 14.7586 -1.8950 -4.2476 3.2976 11.5267
# 2 14.7586 119.5065 18.7055 -18.4174 4.0792 5.0546
# 3 -1.8950 18.7055 78.1832 -6.0120 -0.0993 1.5717
# 4 -4.2476 -18.4174 -6.0120 34.8144 -2.8741 3.5334
# 5 3.2976 4.0792 -0.0993 -2.8741 28.7304 -4.4179
# 6 11.5267 5.0546 1.5717 3.5334 -4.4179 31.5499
#
#
#
# Elastic Compliance Matrix: (Units=1/GPa)
#
#
# Indices 1 2 3 4 5 6 
#
# 1 0.012204 -0.001160 0.000769 0.001336 -0.001825 -0.004716
# 2 -0.001160 0.009648 -0.001941 0.004715 -0.001033 -0.001698
# 3 0.000769 -0.001941 0.013403 0.001481 0.000264 -0.000766
# 4 0.001336 0.004715 0.001481 0.032252 0.001687 -0.004693
# 5 -0.001825 -0.001033 0.000264 0.001687 0.036209 0.005700
# 6 -0.004716 -0.001698 -0.000766 -0.004693 0.005700 0.035053
#
#
# Mechanical properties :
#
#
# Convention : Reuss Voigt Hill
#
# Bulk Modulus (GPa) = 32.68979 38.85604 35.77292
# Shear Modulus (GPa) = 32.54556 36.01874 34.28215
#
# Velocity S-wave (km/s) = 3.59806 3.78518 3.69281
# Velocity P-wave (km/s) = 5.50134 5.87875 5.69317
#
# Compressibility (1/GPa) = 0.03059059
#
# Stress axis : x y z
#
# Youngs Moduli (GPa) = 81.94185 103.64356 74.60928
#
# Poissons Ratio (x) = 0.12020 -0.05734
# Poissons Ratio (y) = 0.09503 0.14483
# Poissons Ratio (z) = -0.06297 0.20119
#
# Static dielectric constant tensor:
#      x y z
#    x 1.980710 0.018460 -0.033680 
#    y 0.018460 1.985820 -0.014290 
#    z -0.033680 -0.014290 1.995340 
# 
# From -- ./inp_files/13339.got.cif
#   From: 2010.05.17/outbox.cif.g08.bks.cpg/sg2_7_cif.got.tgz:13339.got - 2010.06.03 11:33:40.
