data_PCOD9019977
_publ_section_title
;
Structure prediction by ZEFSAII (Michael W. Deem and Ramdas Pophale) SiO2 
 PCOD9019977
Probable space group: P -1
;
_chemical_formula_sum "Si O2"
_cell_formula_units_Z 12
_cell_length_a 17.430534
_cell_length_b 7.109079
_cell_length_c 16.948600
_cell_angle_alpha 79.994775
_cell_angle_beta 16.456653
_cell_angle_gamma 76.929076
_cell_volume 572.416012
_symmetry_space_group_name_H-M "P -1"
_symmetry_group_IT_number 2
_symmetry_cell_setting 'triclinic'
loop_
_space_group_symop_operation_xyz
x,y,z
-x,-y,-z
loop_
_atom_site_type_symbol
_atom_site_label
_atom_site_fract_x
_atom_site_fract_y
_atom_site_fract_z
Si Si1 0.354880 0.829591 0.435245
Si Si2 0.616478 0.455593 0.300064
Si Si3 0.147896 0.282524 0.336918
Si Si4 0.810984 0.771612 0.246286
Si Si5 0.176942 0.042908 0.949843
Si Si6 0.327802 0.875075 0.272043
O O1 0.510094 0.619325 0.329740
O O2 0.536721 0.976167 0.282206
O O3 0.346880 0.846920 0.348431
O O4 0.047991 0.850966 0.771806
O O5 0.500000 0.500000 0.500000
O O6 0.475245 0.270025 0.435434
O O7 0.945660 0.420529 0.980172
O O8 0.269716 0.109548 0.293072
O O9 0.000000 0.500000 0.500000
O O10 0.923222 0.201818 0.513650
O O11 0.406633 0.258721 0.023665
O O12 0.766443 0.849213 0.195214
O O13 0.976552 0.904768 0.122954
#
# Coordination Sequence:
#
# PCOD9019977 Si02
#       6
#     2   2   2   2   2   2
#     4  12  23  39  60  90 126 157 200 263 317 350
#     4  12  21  37  58  81 119 167 208 253 305 358
#     4  10  21  45  74  94 125 168 204 249 325 404
#     4  11  22  38  56  82 112 171 224 246 295 362
#     4  11  22  38  59  80 122 165 208 262 302 351
#     4  10  23  42  67 100 131 160 206 264 318 385
#
# _framework density 20.963774999999998
#
# number of rings (size 3 to 8) (size 9 to 14) (size 15 to 20)
#    0.000    1.000    3.333    4.000    0.000    2.667 
#    9.000    0.000    0.000    0.000    0.000    0.000 
#    0.000    0.000    0.000    0.000    0.000    0.000 
#
# Total GULP energy -66842.134883 kJ/mol
# GULP energy per Si atom -5570.177907 kJ/mol
# Density = 2.091606 g / cm^3
# Si number density = 20.963775 Si / 1000 Ang^3
#
#
#
# Elastic Constant Matrix: (Units=GPa)
#
#
# Indices 1 2 3 4 5 6 
#
# 1 184.1842 29.1410 15.8057 -4.9698 -0.5868 -1.7321
# 2 29.1410 104.9209 8.4564 2.5933 31.4595 9.1969
# 3 15.8057 8.4564 127.2898 -0.7777 7.5951 8.1917
# 4 -4.9698 2.5933 -0.7777 34.2547 9.5315 -7.7450
# 5 -0.5868 31.4595 7.5951 9.5315 39.8665 -3.8437
# 6 -1.7321 9.1969 8.1917 -7.7450 -3.8437 23.2029
#
#
#
# Elastic Compliance Matrix: (Units=1/GPa)
#
#
# Indices 1 2 3 4 5 6 
#
# 1 0.005952 -0.002484 -0.000856 0.000963 0.002213 0.002419
# 2 -0.002484 0.014652 0.000615 0.000176 -0.012551 -0.008230
# 3 -0.000856 0.000615 0.008301 -0.000148 -0.002399 -0.003685
# 4 0.000963 0.000176 -0.000148 0.033586 -0.007155 0.010080
# 5 0.002213 -0.012551 -0.002399 -0.007155 0.038145 0.009918
# 6 0.002419 -0.008230 -0.003685 0.010080 0.009918 0.052849
#
#
# Mechanical properties :
#
#
# Convention : Reuss Voigt Hill
#
# Bulk Modulus (GPa) = 42.63560 58.13347 50.38453
# Shear Modulus (GPa) = 29.98474 43.66428 36.82451
#
# Velocity S-wave (km/s) = 3.78605 4.56877 4.19570
# Velocity P-wave (km/s) = 6.28444 7.45803 6.89624
#
# Compressibility (1/GPa) = 0.02345458
#
# Stress axis : x y z
#
# Youngs Moduli (GPa) = 168.02437 68.25170 120.46873
#
# Poissons Ratio (x) = 0.16950 0.10311
# Poissons Ratio (y) = 0.41729 -0.07405
# Poissons Ratio (z) = 0.14381 -0.04195
#
# Static dielectric constant tensor:
#      x y z
#    x 1.679230 0.041250 -0.069590 
#    y 0.041250 2.008860 -0.010220 
#    z -0.069590 -0.010220 1.844140 
# 
# From -- ./inp_files/32541.got.cif
#   From: 2010.05.17/outbox.cif.g08.bks.cpg/sg2_17_cif.got.tgz:32541.got - 2010.06.03 11:33:40.
