data_PCOD9019329
_publ_section_title
;
Structure prediction by ZEFSAII (Michael W. Deem and Ramdas Pophale) SiO2 
 PCOD9019329
Probable space group: P -1
;
_chemical_formula_sum "Si O2"
_cell_formula_units_Z 12
_cell_length_a 8.725680
_cell_length_b 7.807233
_cell_length_c 15.561571
_cell_angle_alpha 39.164780
_cell_angle_beta 128.033932
_cell_angle_gamma 128.353069
_cell_volume 505.143551
_symmetry_space_group_name_H-M "P -1"
_symmetry_group_IT_number 2
_symmetry_cell_setting 'triclinic'
loop_
_space_group_symop_operation_xyz
x,y,z
-x,-y,-z
loop_
_atom_site_type_symbol
_atom_site_label
_atom_site_fract_x
_atom_site_fract_y
_atom_site_fract_z
Si Si1 0.043948 0.364644 0.685651
Si Si2 0.115551 0.267574 0.119718
Si Si3 0.601702 0.296294 0.564182
Si Si4 0.510254 0.462626 0.298162
Si Si5 0.197004 0.386772 0.910240
Si Si6 0.491146 0.034769 0.167820
O O1 0.836859 0.440573 0.562341
O O2 0.271631 0.519184 0.675116
O O3 0.047665 0.381891 0.783466
O O4 0.998116 0.041415 0.764224
O O5 0.331659 0.372938 0.201562
O O6 0.112959 0.241703 0.026146
O O7 0.000000 0.500000 0.000000
O O8 0.500000 0.500000 0.500000
O O9 0.481174 0.244392 0.453170
O O10 0.586895 0.061411 0.724119
O O11 0.507643 0.766129 0.222242
O O12 0.304321 0.713393 0.843961
O O13 0.352207 0.208072 0.006433
#
# Coordination Sequence:
#
# PCOD9019329 Si02
#       6
#     2   2   2   2   2   2
#     4  12  25  44  70 101 137 179 226 279 337 401
#     4  12  26  42  72 105 136 179 222 283 342 398
#     4  10  24  45  70  96 134 187 228 271 336 401
#     4  11  25  46  67 102 142 171 231 279 330 406
#     4  11  23  41  69 101 135 172 230 275 341 396
#     4  10  21  44  70  99 134 182 217 279 339 399
#
# _framework density 23.755624000000001
#
# number of rings (size 3 to 8) (size 9 to 14) (size 15 to 20)
#    0.000    1.000    1.667    5.000    4.667    2.667 
#    3.000    1.667    0.000    0.000    0.000    0.000 
#    0.000    0.000    0.000    0.000    0.000    0.000 
#
# Total GULP energy -67021.352486 kJ/mol
# GULP energy per Si atom -5585.112707 kJ/mol
# Density = 2.370155 g / cm^3
# Si number density = 23.755624 Si / 1000 Ang^3
#
#
#
# Elastic Constant Matrix: (Units=GPa)
#
#
# Indices 1 2 3 4 5 6 
#
# 1 74.4931 7.3956 7.8757 10.9524 5.6202 -5.6367
# 2 7.3956 81.7493 5.1960 7.1789 4.3063 -5.2046
# 3 7.8757 5.1960 86.0053 32.0780 -2.6773 -3.2626
# 4 10.9524 7.1789 32.0780 38.2820 1.9254 0.7653
# 5 5.6202 4.3063 -2.6773 1.9254 37.6447 -5.6990
# 6 -5.6367 -5.2046 -3.2626 0.7653 -5.6990 43.0176
#
#
#
# Elastic Compliance Matrix: (Units=1/GPa)
#
#
# Indices 1 2 3 4 5 6 
#
# 1 0.014324 -0.000760 0.000302 -0.004163 -0.001564 0.001675
# 2 -0.000760 0.012628 0.000175 -0.002274 -0.000998 0.001350
# 3 0.000302 0.000175 0.017209 -0.014688 0.002200 0.001919
# 4 -0.004163 -0.002274 -0.014688 0.040242 -0.002676 -0.003005
# 5 -0.001564 -0.000998 0.002200 -0.002676 0.027745 0.003565
# 6 0.001675 0.001350 0.001919 -0.003005 0.003565 0.024300
#
#
# Mechanical properties :
#
#
# Convention : Reuss Voigt Hill
#
# Bulk Modulus (GPa) = 22.93880 31.46469 27.20174
# Shear Modulus (GPa) = 32.99313 38.57422 35.78367
#
# Velocity S-wave (km/s) = 3.73078 4.03400 3.88535
# Velocity P-wave (km/s) = 5.31370 5.91367 5.62169
#
# Compressibility (1/GPa) = 0.04359426
#
# Stress axis : x y z
#
# Youngs Moduli (GPa) = 69.81067 79.18665 58.11079
#
# Poissons Ratio (x) = 0.06022 -0.01755
# Poissons Ratio (y) = 0.05309 -0.01017
# Poissons Ratio (z) = -0.02108 -0.01386
#
# Static dielectric constant tensor:
#      x y z
#    x 16.780480 -25.096130 36.107600 
#    y -25.096130 44.502080 -61.310750 
#    z 36.107600 -61.310750 90.050860 
# 
# From -- ./inp_files/244748.got.cif
#   From: 2010.05.17/outbox.cif.g08.bks.cpg/sg2_123_cif.got.tgz:244748.got - 2010.06.03 11:33:40.
