data_PCOD9019188
_publ_section_title
;
Structure prediction by ZEFSAII (Michael W. Deem and Ramdas Pophale) SiO2 
 PCOD9019188
Probable space group: P -1
;
_chemical_formula_sum "Si O2"
_cell_formula_units_Z 14
_cell_length_a 18.185097
_cell_length_b 8.265351
_cell_length_c 5.104883
_cell_angle_alpha 122.718040
_cell_angle_beta 55.669626
_cell_angle_gamma 120.318673
_cell_volume 510.539343
_symmetry_space_group_name_H-M "P -1"
_symmetry_group_IT_number 2
_symmetry_cell_setting 'triclinic'
loop_
_space_group_symop_operation_xyz
x,y,z
-x,-y,-z
loop_
_atom_site_type_symbol
_atom_site_label
_atom_site_fract_x
_atom_site_fract_y
_atom_site_fract_z
Si Si1 0.230001 0.341754 0.148088
Si Si2 0.378690 0.892132 0.414744
Si Si3 0.538476 0.273769 0.399620
Si Si4 0.101687 0.488686 0.208144
Si Si5 0.773217 0.097454 0.650217
Si Si6 0.092845 0.095517 0.553966
Si Si7 0.343388 0.325532 0.384093
O O1 0.150557 0.445009 0.336753
O O2 0.171132 0.132198 0.205144
O O3 0.303940 0.412794 0.289039
O O4 0.282926 0.345820 0.776210
O O5 0.405483 0.808835 0.560230
O O6 0.433300 0.131950 0.509916
O O7 0.274981 0.865529 0.492320
O O8 0.423387 0.783981 0.002710
O O9 0.558079 0.512136 0.618786
O O10 0.000000 0.500000 0.500000
O O11 0.909825 0.698764 0.124513
O O12 0.179484 0.687280 0.122595
O O13 0.865458 0.019250 0.408064
O O14 0.687356 0.917365 0.788195
O O15 0.000000 0.000000 0.500000
#
# Coordination Sequence:
#
# PCOD9019188 Si02
#       7
#     2   2   2   2   2   2   2
#     4  11  23  46  68 101 139 189 232 296 361 414
#     4  10  23  41  73 107 141 191 236 298 351 442
#     4  10  21  44  69 105 151 183 236 295 365 412
#     4  12  26  46  73 104 141 191 242 307 369 440
#     4  11  25  44  71 108 137 197 246 291 366 435
#     4  11  27  49  72 104 148 188 246 313 366 433
#     4  11  23  42  71 100 146 189 231 302 348 433
#
# _framework density 27.421980999999999
#
# number of rings (size 3 to 8) (size 9 to 14) (size 15 to 20)
#    0.000    1.143    2.857    3.429    2.000    6.286 
#    2.571    0.000    0.000    9.429    0.000    0.000 
#    0.000    0.000    0.000    0.000    0.000    0.000 
#
# Total GULP energy -78266.507270 kJ/mol
# GULP energy per Si atom -5590.464805 kJ/mol
# Density = 2.735957 g / cm^3
# Si number density = 27.421981 Si / 1000 Ang^3
#
#
#
# Elastic Constant Matrix: (Units=GPa)
#
#
# Indices 1 2 3 4 5 6 
#
# 1 229.7757 58.6803 63.0735 21.6740 11.7220 20.7497
# 2 58.6803 141.7686 24.5513 34.6843 8.7482 49.1316
# 3 63.0735 24.5513 113.8608 1.0966 11.3246 -10.2380
# 4 21.6740 34.6843 1.0966 37.6950 -5.1921 12.8690
# 5 11.7220 8.7482 11.3246 -5.1921 40.2563 0.7100
# 6 20.7497 49.1316 -10.2380 12.8690 0.7100 63.1388
#
#
#
# Elastic Compliance Matrix: (Units=1/GPa)
#
#
# Indices 1 2 3 4 5 6 
#
# 1 0.005757 -0.000838 -0.003013 -0.002137 -0.000899 -0.001283
# 2 -0.000838 0.013280 -0.002801 -0.009108 -0.002877 -0.008624
# 3 -0.003013 -0.002801 0.011608 0.002175 -0.001580 0.004627
# 4 -0.002137 -0.009108 0.002175 0.036809 0.006727 0.000565
# 5 -0.000899 -0.002877 -0.001580 0.006727 0.027029 0.000603
# 6 -0.001283 -0.008624 0.004627 0.000565 0.000603 0.023599
#
#
# Mechanical properties :
#
#
# Convention : Reuss Voigt Hill
#
# Bulk Modulus (GPa) = 57.66934 86.44615 72.05775
# Shear Modulus (GPa) = 36.45178 50.82468 43.63823
#
# Velocity S-wave (km/s) = 3.64990 4.30982 3.99351
# Velocity P-wave (km/s) = 6.23204 7.50725 6.89917
#
# Compressibility (1/GPa) = 0.01734024
#
# Stress axis : x y z
#
# Youngs Moduli (GPa) = 173.71411 75.29921 86.14597
#
# Poissons Ratio (x) = 0.06310 0.25960
# Poissons Ratio (y) = 0.14557 0.24130
# Poissons Ratio (z) = 0.52348 0.21091
#
# Static dielectric constant tensor:
#      x y z
#    x 2.102010 -0.040170 0.027910 
#    y -0.040170 2.293790 0.019280 
#    z 0.027910 0.019280 2.179460 
# 
# From -- ./inp_files/90879.got.cif
#   From: 2010.05.17/outbox.cif.g08.bks.cpg/sg2_46_cif.got.tgz:90879.got - 2010.06.03 11:33:40.
