data_PCOD9019851
_publ_section_title
;
Structure prediction by ZEFSAII (Michael W. Deem and Ramdas Pophale) SiO2 
 PCOD9019851
Probable space group: P -1
;
_chemical_formula_sum "Si O2"
_cell_formula_units_Z 15
_cell_length_a 6.240202
_cell_length_b 6.069801
_cell_length_c 17.979549
_cell_angle_alpha 92.300250
_cell_angle_beta 101.871588
_cell_angle_gamma 105.934819
_cell_volume 637.446638
_symmetry_space_group_name_H-M "P -1"
_symmetry_group_IT_number 2
_symmetry_cell_setting 'triclinic'
loop_
_space_group_symop_operation_xyz
x,y,z
-x,-y,-z
loop_
_atom_site_type_symbol
_atom_site_label
_atom_site_fract_x
_atom_site_fract_y
_atom_site_fract_z
Si Si1 0.657529 0.650723 0.576216
Si Si2 0.211874 0.649679 0.969903
Si Si3 0.000000 0.000000 0.500000
Si Si4 0.829340 0.340246 0.689591
Si Si5 0.877478 0.950043 0.252298
Si Si6 0.526904 0.631618 0.111644
Si Si7 0.878027 0.690529 0.830433
Si Si8 0.375998 0.916129 0.640400
O O1 0.500000 0.500000 0.500000
O O2 0.807798 0.507347 0.624039
O O3 0.494413 0.720364 0.625702
O O4 0.819806 0.870653 0.550223
O O5 0.317069 0.478630 0.929109
O O6 0.096246 0.772127 0.902337
O O7 0.396138 0.761615 0.048004
O O8 0.000000 0.500000 0.000000
O O9 0.213929 0.945230 0.561939
O O10 0.881752 0.480567 0.772691
O O11 0.583115 0.149485 0.670259
O O12 0.026863 0.217229 0.691604
O O13 0.679144 0.798061 0.184615
O O14 0.771591 0.115262 0.295389
O O15 0.090381 0.094201 0.219270
O O16 0.344394 0.417957 0.137038
#
# Coordination Sequence:
#
# PCOD9019851 Si02
#       8
#     2   2   1   2   2   2   2   2
#     4  12  29  52  75 107 147 188 237 302 366 434
#     4   9  20  41  71 104 147 192 240 300 359 422
#     4  12  26  52  78 104 136 186 238 298 364 432
#     4  12  25  49  72 105 150 189 239 303 359 431
#     4  12  27  46  76 109 143 196 245 297 362 433
#     4  10  21  45  70 103 149 191 242 301 356 426
#     4  11  23  44  72 105 146 192 241 298 364 423
#     4  12  27  48  75 108 143 184 246 296 362 442
#
# _framework density 23.531379999999999
#
# number of rings (size 3 to 8) (size 9 to 14) (size 15 to 20)
#    0.000    0.800    4.000    2.800    1.867    5.333 
#    4.800    6.000    0.000    0.000    0.000    0.000 
#    0.000    0.000    0.000    0.000    0.000    0.000 
#
# Total GULP energy -83666.170791 kJ/mol
# GULP energy per Si atom -5577.744719 kJ/mol
# Density = 2.347782 g / cm^3
# Si number density = 23.531380 Si / 1000 Ang^3
#
#
#
# Elastic Constant Matrix: (Units=GPa)
#
#
# Indices 1 2 3 4 5 6 
#
# 1 114.2622 38.1625 60.0725 3.2864 -0.2835 2.4354
# 2 38.1625 55.9227 50.0921 -5.7880 3.4034 -2.8531
# 3 60.0725 50.0921 130.4385 -2.1559 18.0040 -3.8741
# 4 3.2864 -5.7880 -2.1559 33.6442 6.7892 6.8528
# 5 -0.2835 3.4034 18.0040 6.7892 57.5947 -0.3331
# 6 2.4354 -2.8531 -3.8741 6.8528 -0.3331 26.9560
#
#
#
# Elastic Compliance Matrix: (Units=1/GPa)
#
#
# Indices 1 2 3 4 5 6 
#
# 1 0.012916 -0.005530 -0.004192 -0.002540 0.001990 -0.001684
# 2 -0.005530 0.030274 -0.009025 0.004840 0.000441 0.001182
# 3 -0.004192 -0.009025 0.013624 0.000230 -0.003766 0.001277
# 4 -0.002540 0.004840 0.000230 0.033269 -0.004337 -0.007737
# 5 0.001990 0.000441 -0.003766 -0.004337 0.019039 0.000663
# 6 -0.001684 0.001182 0.001277 -0.007737 0.000663 0.039533
#
#
# Mechanical properties :
#
#
# Convention : Reuss Voigt Hill
#
# Bulk Modulus (GPa) = 51.75574 66.36416 59.05995
# Shear Modulus (GPa) = 25.96195 33.79207 29.87701
#
# Velocity S-wave (km/s) = 3.32519 3.79363 3.56710
# Velocity P-wave (km/s) = 6.06503 6.88857 6.48988
#
# Compressibility (1/GPa) = 0.01932153
#
# Stress axis : x y z
#
# Youngs Moduli (GPa) = 77.42176 33.03165 73.39762
#
# Poissons Ratio (x) = 0.18265 0.30766
# Poissons Ratio (y) = 0.42811 0.66244
# Poissons Ratio (z) = 0.32453 0.29812
#
# Static dielectric constant tensor:
#      x y z
#    x 1.868620 0.002240 0.030800 
#    y 0.002240 1.872630 -0.001770 
#    z 0.030800 -0.001770 1.897920 
# 
# From -- ./inp_files/8075.got.cif
#   From: 2010.05.17/outbox.cif.g08.bks.cpg/sg2_5_cif.got.tgz:8075.got - 2010.06.03 11:33:40.
