data_PCOD9019573
_publ_section_title
;
Structure prediction by ZEFSAII (Michael W. Deem and Ramdas Pophale) SiO2 
 PCOD9019573
Probable space group: P -1
;
_chemical_formula_sum "Si O2"
_cell_formula_units_Z 13
_cell_length_a 11.532149
_cell_length_b 9.528038
_cell_length_c 9.153009
_cell_angle_alpha 66.871290
_cell_angle_beta 46.944970
_cell_angle_gamma 48.411516
_cell_volume 546.276184
_symmetry_space_group_name_H-M "P -1"
_symmetry_group_IT_number 2
_symmetry_cell_setting 'triclinic'
loop_
_space_group_symop_operation_xyz
x,y,z
-x,-y,-z
loop_
_atom_site_type_symbol
_atom_site_label
_atom_site_fract_x
_atom_site_fract_y
_atom_site_fract_z
Si Si1 0.000000 0.500000 0.500000
Si Si2 0.083880 0.679532 0.608079
Si Si3 0.678907 0.126479 0.171265
Si Si4 0.001746 0.206827 0.817388
Si Si5 0.554071 0.466867 0.794713
Si Si6 0.314140 0.093770 0.014084
Si Si7 0.775330 0.504620 0.127393
O O1 0.028410 0.559935 0.613676
O O2 0.980442 0.340278 0.654599
O O3 0.229710 0.695594 0.376246
O O4 0.204942 0.568218 0.696157
O O5 0.876474 0.867468 0.757161
O O6 0.489315 0.331757 0.291331
O O7 0.779724 0.982822 0.277437
O O8 0.846362 0.154907 0.966339
O O9 0.630765 0.041365 0.115698
O O10 0.953634 0.321710 0.963031
O O11 0.406492 0.450531 0.833001
O O12 0.500000 0.500000 0.000000
O O13 0.242808 0.303016 0.941321
O O14 0.500000 0.000000 0.000000
#
# Coordination Sequence:
#
# PCOD9019573 Si02
#       7
#     1   2   2   2   2   2   2
#     4  12  24  40  68 106 138 198 242 282 368 434
#     4  12  25  44  74 101 144 197 246 287 375 438
#     4  10  22  43  72 103 140 185 244 303 361 422
#     4  10  21  44  74  99 143 191 238 303 363 433
#     4  11  25  47  74 106 148 193 243 300 372 445
#     4  12  25  43  72 108 144 184 247 308 360 427
#     4  11  22  48  74 101 142 200 239 297 370 448
#
# _framework density 23.797483
#
# number of rings (size 3 to 8) (size 9 to 14) (size 15 to 20)
#    0.000    0.923    3.077    4.615    2.154    0.000 
#    2.769    6.923    0.000    0.000    0.000    0.000 
#    0.000    0.000    0.000    0.000    0.000    0.000 
#
# Total GULP energy -72445.932688 kJ/mol
# GULP energy per Si atom -5572.764053 kJ/mol
# Density = 2.374332 g / cm^3
# Si number density = 23.797483 Si / 1000 Ang^3
#
#
#
# Elastic Constant Matrix: (Units=GPa)
#
#
# Indices 1 2 3 4 5 6 
#
# 1 125.6718 13.9180 25.9965 -2.2657 31.4267 14.8475
# 2 13.9180 78.9999 19.0747 -7.4861 1.5324 14.9287
# 3 25.9965 19.0747 97.4854 -6.3486 16.1126 -14.2708
# 4 -2.2657 -7.4861 -6.3486 33.4280 -12.3427 0.4245
# 5 31.4267 1.5324 16.1126 -12.3427 32.7919 5.3470
# 6 14.8475 14.9287 -14.2708 0.4245 5.3470 42.1310
#
#
#
# Elastic Compliance Matrix: (Units=1/GPa)
#
#
# Indices 1 2 3 4 5 6 
#
# 1 0.011473 -0.001281 -0.001607 -0.003909 -0.011181 -0.002675
# 2 -0.001281 0.015692 -0.004436 0.004774 0.005674 -0.007380
# 3 -0.001607 -0.004436 0.013697 -0.001042 -0.006619 0.007628
# 4 -0.003909 0.004774 -0.001042 0.037467 0.018695 -0.003417
# 5 -0.011181 0.005674 -0.006619 0.018695 0.052401 -0.007151
# 6 -0.002675 -0.007380 0.007628 -0.003417 -0.007151 0.030819
#
#
# Mechanical properties :
#
#
# Convention : Reuss Voigt Hill
#
# Bulk Modulus (GPa) = 38.14779 46.68170 42.41475
# Shear Modulus (GPa) = 27.03641 37.88138 32.45889
#
# Velocity S-wave (km/s) = 3.37427 3.99409 3.69719
# Velocity P-wave (km/s) = 5.58980 6.39759 6.00729
#
# Compressibility (1/GPa) = 0.02621384
#
# Stress axis : x y z
#
# Youngs Moduli (GPa) = 87.15959 63.72732 73.00706
#
# Poissons Ratio (x) = 0.08165 0.11732
# Poissons Ratio (y) = 0.11168 0.32386
# Poissons Ratio (z) = 0.14006 0.28269
#
# Static dielectric constant tensor:
#      x y z
#    x 1.933300 -0.069000 -0.035890 
#    y -0.069000 1.933160 -0.017130 
#    z -0.035890 -0.017130 1.930640 
# 
# From -- ./inp_files/237390.got.cif
#   From: 2010.05.17/outbox.cif.g08.bks.cpg/sg2_119_cif.got.tgz:237390.got - 2010.06.03 11:33:40.
