data_PCOD9019054
_publ_section_title
;
Structure prediction by ZEFSAII (Michael W. Deem and Ramdas Pophale) SiO2 
 PCOD9019054
Probable space group: P -1
;
_chemical_formula_sum "Si O2"
_cell_formula_units_Z 16
_cell_length_a 11.933269
_cell_length_b 9.496568
_cell_length_c 15.056301
_cell_angle_alpha 141.314876
_cell_angle_beta 114.972174
_cell_angle_gamma 47.691594
_cell_volume 768.766065
_symmetry_space_group_name_H-M "P -1"
_symmetry_group_IT_number 2
_symmetry_cell_setting 'triclinic'
loop_
_space_group_symop_operation_xyz
x,y,z
-x,-y,-z
loop_
_atom_site_type_symbol
_atom_site_label
_atom_site_fract_x
_atom_site_fract_y
_atom_site_fract_z
Si Si1 0.610539 0.713663 0.046297
Si Si2 0.220740 0.941798 0.216690
Si Si3 0.317480 0.150124 0.516980
Si Si4 0.252733 0.194512 0.172879
Si Si5 0.371423 0.949521 0.627170
Si Si6 0.840271 0.745782 0.020525
Si Si7 0.124597 0.781218 0.708616
Si Si8 0.721387 0.420604 0.513308
O O1 0.708383 0.731102 0.010846
O O2 0.427676 0.934885 0.075429
O O3 0.639509 0.820168 0.200035
O O4 0.663626 0.397700 0.917903
O O5 0.269550 0.049738 0.367760
O O6 0.215783 0.086971 0.194699
O O7 0.051135 0.031447 0.225690
O O8 0.222454 0.486789 0.648262
O O9 0.500000 0.000000 0.500000
O O10 0.293845 0.062981 0.561728
O O11 0.252708 0.453282 0.330980
O O12 0.146248 0.287337 0.097303
O O13 0.555631 0.688359 0.549832
O O14 0.298016 0.817486 0.586786
O O15 0.806686 0.045129 0.174942
O O16 0.000000 0.500000 0.000000
O O17 0.143691 0.693472 0.568835
#
# Coordination Sequence:
#
# PCOD9019054 Si02
#       8
#     2   2   2   2   2   2   2   2
#     4  11  24  46  70 103 139 182 236 287 339 415
#     4  12  27  46  68 104 146 180 228 284 356 414
#     4  12  25  43  72 104 135 185 236 281 342 412
#     4  11  26  44  72  99 138 186 235 285 343 411
#     4  10  22  40  71 102 135 177 237 287 335 404
#     4  12  27  48  69 104 141 184 233 287 352 410
#     4  12  25  47  69  97 148 180 228 291 346 415
#     4  10  21  44  68 100 137 180 231 288 342 406
#
# _framework density 20.812573
#
# number of rings (size 3 to 8) (size 9 to 14) (size 15 to 20)
#    0.000    0.750    5.000    1.875    5.250    1.500 
#    0.000    1.250    0.000    0.000    0.000    0.000 
#    0.000    0.000    0.000    0.000    0.000    0.000 
#
# Total GULP energy -89508.319149 kJ/mol
# GULP energy per Si atom -5594.269947 kJ/mol
# Density = 2.076520 g / cm^3
# Si number density = 20.812573 Si / 1000 Ang^3
#
#
#
# Elastic Constant Matrix: (Units=GPa)
#
#
# Indices 1 2 3 4 5 6 
#
# 1 52.0613 9.8187 -4.3333 -6.8498 -2.6260 13.5470
# 2 9.8187 119.6865 56.6613 -24.3166 7.0486 23.3653
# 3 -4.3333 56.6613 84.3813 2.1283 17.4128 12.7112
# 4 -6.8498 -24.3166 2.1283 28.0818 5.5558 -6.2288
# 5 -2.6260 7.0486 17.4128 5.5558 32.5872 3.2737
# 6 13.5470 23.3653 12.7112 -6.2288 3.2737 24.8090
#
#
#
# Elastic Compliance Matrix: (Units=1/GPa)
#
#
# Indices 1 2 3 4 5 6 
#
# 1 0.023454 -0.000556 0.003333 0.001676 0.001324 -0.013745
# 2 -0.000556 0.018417 -0.011763 0.014997 0.000434 -0.007307
# 3 0.003333 -0.011763 0.022181 -0.010552 -0.006854 -0.003852
# 4 0.001676 0.014997 -0.010552 0.052113 -0.006792 0.004347
# 5 0.001324 0.000434 -0.006854 -0.006792 0.035928 -0.004067
# 6 -0.013745 -0.007307 -0.003852 0.004347 -0.004067 0.058297
#
#
# Mechanical properties :
#
#
# Convention : Reuss Voigt Hill
#
# Bulk Modulus (GPa) = 21.70082 42.26918 31.98500
# Shear Modulus (GPa) = 20.51506 30.02776 25.27141
#
# Velocity S-wave (km/s) = 3.14300 3.80250 3.48837
# Velocity P-wave (km/s) = 4.86011 6.29541 5.62374
#
# Compressibility (1/GPa) = 0.04608121
#
# Stress axis : x y z
#
# Youngs Moduli (GPa) = 42.63590 54.29689 45.08299
#
# Poissons Ratio (x) = 0.03019 -0.15025
# Poissons Ratio (y) = 0.02371 0.53030
# Poissons Ratio (z) = -0.14210 0.63868
#
# Static dielectric constant tensor:
#      x y z
#    x 1.741090 0.001840 -0.012200 
#    y 0.001840 1.729720 -0.011280 
#    z -0.012200 -0.011280 1.744000 
# 
# From -- ./inp_files/184071.got.cif
#   From: 2010.05.17/outbox.cif.g08.bks.cpg/sg2_93_cif.got.tgz:184071.got - 2010.06.03 11:33:40.
