data_PCOD9019830
_publ_section_title
;
Structure prediction by ZEFSAII (Michael W. Deem and Ramdas Pophale) SiO2 
 PCOD9019830
Probable space group: P -1
;
_chemical_formula_sum "Si O2"
_cell_formula_units_Z 16
_cell_length_a 7.196949
_cell_length_b 22.177773
_cell_length_c 18.396872
_cell_angle_alpha 158.235910
_cell_angle_beta 142.969247
_cell_angle_gamma 46.651638
_cell_volume 635.519367
_symmetry_space_group_name_H-M "P -1"
_symmetry_group_IT_number 2
_symmetry_cell_setting 'triclinic'
loop_
_space_group_symop_operation_xyz
x,y,z
-x,-y,-z
loop_
_atom_site_type_symbol
_atom_site_label
_atom_site_fract_x
_atom_site_fract_y
_atom_site_fract_z
Si Si1 0.721629 0.803653 0.003166
Si Si2 0.095764 0.615711 0.251507
Si Si3 0.905815 0.247871 0.081610
Si Si4 0.270776 0.962299 0.456138
Si Si5 0.726198 0.146258 0.185408
Si Si6 0.643536 0.660510 0.055522
Si Si7 0.434168 0.591123 0.474917
Si Si8 0.568837 0.890045 0.609796
O O1 0.430008 0.879123 0.971432
O O2 0.613808 0.605798 0.760223
O O3 0.947640 0.825024 0.025151
O O4 0.935027 0.877370 0.220625
O O5 0.219743 0.638053 0.396719
O O6 0.316359 0.772186 0.451581
O O7 0.733720 0.610278 0.108826
O O8 0.176204 0.446044 0.057174
O O9 0.187737 0.327753 0.314132
O O10 0.710134 0.371061 0.122990
O O11 0.669771 0.092084 0.872070
O O12 0.421179 0.862282 0.451024
O O13 0.500000 0.000000 0.500000
O O14 0.250787 0.138004 0.682682
O O15 0.680640 0.326831 0.398264
O O16 0.091209 0.150508 0.315388
O O17 0.500000 0.000000 0.000000
#
# Coordination Sequence:
#
# PCOD9019830 Si02
#       8
#     2   2   2   2   2   2   2   2
#     4  11  23  41  69 107 131 173 227 282 348 389
#     4  11  28  46  62 103 139 187 222 269 346 401
#     4  10  21  45  69  98 132 170 227 289 332 392
#     4  11  22  43  73 101 130 176 232 278 348 392
#     4  11  21  43  71 103 135 168 226 292 331 389
#     4  10  25  46  65  92 146 174 225 283 326 411
#     4  11  26  43  68  99 141 182 226 269 346 412
#     4  11  24  42  69 103 137 170 226 283 337 395
#
# _framework density 25.176258000000001
#
# number of rings (size 3 to 8) (size 9 to 14) (size 15 to 20)
#    0.000    1.250    5.000    1.500   10.500    3.000 
#    0.000    1.875    0.000    0.000    0.000    0.000 
#    0.000    0.000    0.000    0.000    0.000    0.000 
#
# Total GULP energy -89491.900528 kJ/mol
# GULP energy per Si atom -5593.243783 kJ/mol
# Density = 2.511896 g / cm^3
# Si number density = 25.176258 Si / 1000 Ang^3
#
#
#
# Elastic Constant Matrix: (Units=GPa)
#
#
# Indices 1 2 3 4 5 6 
#
# 1 53.0749 22.1310 13.3179 -8.4695 5.8633 14.0424
# 2 22.1310 201.1756 28.4288 -49.0568 -1.8889 -1.2719
# 3 13.3179 28.4288 129.1632 -4.4414 -5.4941 4.8701
# 4 -8.4695 -49.0568 -4.4414 52.8834 9.9318 -1.9505
# 5 5.8633 -1.8889 -5.4941 9.9318 28.7139 -5.6661
# 6 14.0424 -1.2719 4.8701 -1.9505 -5.6661 51.5772
#
#
#
# Elastic Compliance Matrix: (Units=1/GPa)
#
#
# Indices 1 2 3 4 5 6 
#
# 1 0.023203 -0.001589 -0.001999 0.003269 -0.007716 -0.006892
# 2 -0.001589 0.006845 -0.001219 0.006301 -0.001482 0.000792
# 3 -0.001999 -0.001219 0.008276 -0.001192 0.002312 -0.000058
# 4 0.003269 0.006301 -0.001192 0.027024 -0.009966 -0.000695
# 5 -0.007716 -0.001482 0.002312 -0.009966 0.041381 0.006015
# 6 -0.006892 0.000792 -0.000058 -0.000695 0.006015 0.021924
#
#
# Mechanical properties :
#
#
# Convention : Reuss Voigt Hill
#
# Bulk Modulus (GPa) = 34.82989 56.79658 45.81323
# Shear Modulus (GPa) = 33.82118 47.93729 40.87923
#
# Velocity S-wave (km/s) = 3.66919 4.36830 4.03391
# Velocity P-wave (km/s) = 5.64048 6.93190 6.31927
#
# Compressibility (1/GPa) = 0.02871097
#
# Stress axis : x y z
#
# Youngs Moduli (GPa) = 43.09836 146.08442 120.82981
#
# Poissons Ratio (x) = 0.23212 0.24150
# Poissons Ratio (y) = 0.06848 0.14730
# Poissons Ratio (z) = 0.08614 0.17809
#
# Static dielectric constant tensor:
#      x y z
#    x 2.044250 -0.026970 0.009640 
#    y -0.026970 2.020520 -0.036180 
#    z 0.009640 -0.036180 2.018180 
# 
# From -- ./inp_files/592011.got.cif
#   From: 2010.05.17/outbox.cif.g08.bks.cpg/sg2_297_cif.got.tgz:592011.got - 2010.06.03 11:33:40.
