data_PCOD9019069
_publ_section_title
;
Structure prediction by ZEFSAII (Michael W. Deem and Ramdas Pophale) SiO2 
 PCOD9019069
Probable space group: P -1
;
_chemical_formula_sum "Si O2"
_cell_formula_units_Z 16
_cell_length_a 21.066018
_cell_length_b 8.445990
_cell_length_c 23.888572
_cell_angle_alpha 148.940318
_cell_angle_beta 160.651797
_cell_angle_gamma 28.768468
_cell_volume 665.960451
_symmetry_space_group_name_H-M "P -1"
_symmetry_group_IT_number 2
_symmetry_cell_setting 'triclinic'
loop_
_space_group_symop_operation_xyz
x,y,z
-x,-y,-z
loop_
_atom_site_type_symbol
_atom_site_label
_atom_site_fract_x
_atom_site_fract_y
_atom_site_fract_z
Si Si1 0.880343 0.553128 0.490856
Si Si2 0.370603 0.652588 0.493855
Si Si3 0.326785 0.601783 0.617980
Si Si4 0.045982 0.432567 0.880892
Si Si5 0.687080 0.296398 0.745564
Si Si6 0.390748 0.199293 0.911406
Si Si7 0.018913 0.435264 0.255349
Si Si8 0.749444 0.331430 0.202890
O O1 0.779900 0.491877 0.445644
O O2 0.837747 0.340574 0.341553
O O3 0.125839 0.486544 0.672344
O O4 0.752233 0.946777 0.489438
O O5 0.500000 0.500000 0.500000
O O6 0.529767 0.544851 0.645393
O O7 0.196821 0.496619 0.302468
O O8 0.538129 0.324369 0.683609
O O9 0.145597 0.671620 0.441786
O O10 0.379997 0.908806 0.774802
O O11 0.086327 0.535677 0.883763
O O12 0.168504 0.036183 0.866359
O O13 0.129576 0.600761 0.048811
O O14 0.801608 0.934845 0.703758
O O15 0.165108 0.459197 0.821634
O O16 0.510700 0.399955 0.040240
O O17 0.500000 0.000000 0.000000
#
# Coordination Sequence:
#
# PCOD9019069 Si02
#       8
#     2   2   2   2   2   2   2   2
#     4  10  23  42  72 103 145 190 240 299 367 432
#     4  11  26  47  71 100 149 197 234 296 376 438
#     4  12  23  44  77 108 141 195 245 301 363 432
#     4  11  23  44  72 103 144 185 244 306 355 426
#     4  12  26  46  76 107 145 191 249 299 363 435
#     4  12  22  42  73 106 143 188 245 299 360 427
#     4  12  25  41  69 112 143 184 247 306 355 431
#     4  10  21  44  68 101 145 190 236 298 370 425
#
# _framework density 24.025451
#
# number of rings (size 3 to 8) (size 9 to 14) (size 15 to 20)
#    0.000    0.750    5.000    1.875    1.750    1.500 
#    2.250    3.750    0.000    0.000    0.000    0.000 
#    0.000    0.000    0.000    0.000    0.000    0.000 
#
# Total GULP energy -89503.380387 kJ/mol
# GULP energy per Si atom -5593.961274 kJ/mol
# Density = 2.397077 g / cm^3
# Si number density = 24.025451 Si / 1000 Ang^3
#
#
#
# Elastic Constant Matrix: (Units=GPa)
#
#
# Indices 1 2 3 4 5 6 
#
# 1 102.3851 24.7524 35.4157 -8.4056 7.9348 -18.4043
# 2 24.7524 77.7174 39.9468 -0.8575 2.7097 -15.7502
# 3 35.4157 39.9468 170.5936 2.5393 -4.7675 -4.8239
# 4 -8.4056 -0.8575 2.5393 27.1585 -7.5807 -1.4096
# 5 7.9348 2.7097 -4.7675 -7.5807 47.7389 -9.0772
# 6 -18.4043 -15.7502 -4.8239 -1.4096 -9.0772 43.3628
#
#
#
# Elastic Compliance Matrix: (Units=1/GPa)
#
#
# Indices 1 2 3 4 5 6 
#
# 1 0.012045 -0.001884 -0.002018 0.003883 -0.000684 0.004187
# 2 -0.001884 0.016097 -0.003251 0.000487 0.000048 0.004711
# 3 -0.002018 -0.003251 0.007051 -0.001216 0.000818 -0.001121
# 4 0.003883 0.000487 -0.001216 0.040166 0.006408 0.004337
# 5 -0.000684 0.000048 0.000818 0.006408 0.023081 0.004858
# 6 0.004187 0.004711 -0.001121 0.004337 0.004858 0.027582
#
#
# Mechanical properties :
#
#
# Convention : Reuss Voigt Hill
#
# Bulk Modulus (GPa) = 47.87561 61.21401 54.54481
# Shear Modulus (GPa) = 33.94669 40.35747 37.15208
#
# Velocity S-wave (km/s) = 3.76300 4.10296 3.93665
# Velocity P-wave (km/s) = 6.23302 6.92675 6.58902
#
# Compressibility (1/GPa) = 0.02088746
#
# Stress axis : x y z
#
# Youngs Moduli (GPa) = 83.02284 62.12523 141.81781
#
# Poissons Ratio (x) = 0.11703 0.28618
# Poissons Ratio (y) = 0.15640 0.46102
# Poissons Ratio (z) = 0.16754 0.20196
#
# Static dielectric constant tensor:
#      x y z
#    x 1.973230 0.040480 0.013200 
#    y 0.040480 1.910220 -0.032160 
#    z 0.013200 -0.032160 1.943110 
# 
# From -- ./inp_files/613638.got.cif
#   From: 2010.05.17/outbox.cif.g08.bks.cpg/sg2_307_cif.got.tgz:613638.got - 2010.06.03 11:33:40.
