data_PCOD9019406
_publ_section_title
;
Structure prediction by ZEFSAII (Michael W. Deem and Ramdas Pophale) SiO2 
 PCOD9019406
Probable space group: P -1
;
_chemical_formula_sum "Si O2"
_cell_formula_units_Z 16
_cell_length_a 7.576984
_cell_length_b 16.140428
_cell_length_c 22.209311
_cell_angle_alpha 161.895043
_cell_angle_beta 116.702500
_cell_angle_gamma 71.099496
_cell_volume 700.018487
_symmetry_space_group_name_H-M "P -1"
_symmetry_group_IT_number 2
_symmetry_cell_setting 'triclinic'
loop_
_space_group_symop_operation_xyz
x,y,z
-x,-y,-z
loop_
_atom_site_type_symbol
_atom_site_label
_atom_site_fract_x
_atom_site_fract_y
_atom_site_fract_z
Si Si1 0.191278 0.885767 0.452631
Si Si2 0.751979 0.506668 0.907252
Si Si3 0.212530 0.606532 0.470945
Si Si4 0.893091 0.721055 0.654967
Si Si5 0.951862 0.665722 0.865374
Si Si6 0.585079 0.226936 0.948148
Si Si7 0.626686 0.217786 0.805475
Si Si8 0.876497 0.887496 0.641215
O O1 0.244766 0.774948 0.320390
O O2 0.135570 0.602492 0.289133
O O3 0.388727 0.123603 0.679978
O O4 0.000000 0.000000 0.500000
O O5 0.765477 0.469235 0.955711
O O6 0.535350 0.566317 0.905971
O O7 0.943483 0.788653 0.107538
O O8 0.230204 0.415078 0.397591
O O9 0.167725 0.427215 0.279597
O O10 0.002475 0.691888 0.503727
O O11 0.409890 0.905871 0.704984
O O12 0.783006 0.773413 0.613918
O O13 0.000000 0.500000 0.500000
O O14 0.065599 0.036900 0.912106
O O15 0.206792 0.737517 0.956573
O O16 0.643184 0.279176 0.921717
O O17 0.692464 0.941525 0.614024
#
# Coordination Sequence:
#
# PCOD9019406 Si02
#       8
#     2   2   2   2   2   2   2   2
#     4  12  27  43  66 102 143 180 231 280 334 416
#     4  11  24  42  67  95 138 186 222 278 350 397
#     4  10  24  42  70  99 137 178 225 283 348 396
#     4  10  21  44  71  98 133 179 232 283 344 397
#     4  12  23  45  69  98 143 176 229 282 340 400
#     4  11  24  43  68 105 136 178 230 282 334 416
#     4  12  23  41  66  99 139 178 233 278 338 407
#     4  10  22  42  67  97 133 179 228 283 332 415
#
# _framework density 22.856541
#
# number of rings (size 3 to 8) (size 9 to 14) (size 15 to 20)
#    0.000    1.000    3.750    2.250    3.500    1.500 
#    0.000    0.000    0.000    5.250    0.000    0.000 
#    0.000    0.000    0.000    0.000    0.000    0.000 
#
# Total GULP energy -89436.595310 kJ/mol
# GULP energy per Si atom -5589.787207 kJ/mol
# Density = 2.280452 g / cm^3
# Si number density = 22.856541 Si / 1000 Ang^3
#
#
#
# Elastic Constant Matrix: (Units=GPa)
#
#
# Indices 1 2 3 4 5 6 
#
# 1 83.9873 32.0042 21.1956 7.7586 -0.5706 -6.1771
# 2 32.0042 126.7006 33.1088 24.7975 9.4701 18.4509
# 3 21.1956 33.1088 88.0843 18.1198 -7.6317 4.6895
# 4 7.7586 24.7975 18.1198 37.3665 -6.4268 1.5177
# 5 -0.5706 9.4701 -7.6317 -6.4268 35.4277 0.6606
# 6 -6.1771 18.4509 4.6895 1.5177 0.6606 40.5063
#
#
#
# Elastic Compliance Matrix: (Units=1/GPa)
#
#
# Indices 1 2 3 4 5 6 
#
# 1 0.014163 -0.003761 -0.002274 0.000626 0.000781 0.004100
# 2 -0.003761 0.011891 -0.002341 -0.006588 -0.004838 -0.005393
# 3 -0.002274 -0.002341 0.013934 -0.004211 0.002842 -0.000782
# 4 0.000626 -0.006588 -0.004211 0.034164 0.007021 0.002189
# 5 0.000781 -0.004838 0.002842 0.007021 0.031395 0.001219
# 6 0.004100 -0.005393 -0.000782 0.002189 0.001219 0.027758
#
#
# Mechanical properties :
#
#
# Convention : Reuss Voigt Hill
#
# Bulk Modulus (GPa) = 43.03799 52.37661 47.70730
# Shear Modulus (GPa) = 31.68526 36.82435 34.25480
#
# Velocity S-wave (km/s) = 3.72730 4.01821 3.87549
# Velocity P-wave (km/s) = 6.11508 6.67032 6.39872
#
# Compressibility (1/GPa) = 0.02323529
#
# Stress axis : x y z
#
# Youngs Moduli (GPa) = 70.60835 84.09816 71.76774
#
# Poissons Ratio (x) = 0.31631 0.16316
# Poissons Ratio (y) = 0.26557 0.16803
# Poissons Ratio (z) = 0.16053 0.19690
#
# Static dielectric constant tensor:
#      x y z
#    x 1.908380 0.018380 -0.017830 
#    y 0.018380 1.856630 0.007760 
#    z -0.017830 0.007760 1.836560 
# 
# From -- ./inp_files/590557.got.cif
#   From: 2010.05.17/outbox.cif.g08.bks.cpg/sg2_296_cif.got.tgz:590557.got - 2010.06.03 11:33:40.
