data_PCOD9019765
_publ_section_title
;
Structure prediction by ZEFSAII (Michael W. Deem and Ramdas Pophale) SiO2 
 PCOD9019765
Probable space group: P -1
;
_chemical_formula_sum "Si O2"
_cell_formula_units_Z 16
_cell_length_a 14.502218
_cell_length_b 9.098827
_cell_length_c 5.898900
_cell_angle_alpha 64.211136
_cell_angle_beta 87.604439
_cell_angle_gamma 79.482589
_cell_volume 688.457668
_symmetry_space_group_name_H-M "P -1"
_symmetry_group_IT_number 2
_symmetry_cell_setting 'triclinic'
loop_
_space_group_symop_operation_xyz
x,y,z
-x,-y,-z
loop_
_atom_site_type_symbol
_atom_site_label
_atom_site_fract_x
_atom_site_fract_y
_atom_site_fract_z
Si Si1 0.524483 0.159879 0.012830
Si Si2 0.664798 0.656547 0.102222
Si Si3 0.782237 0.404366 0.957066
Si Si4 0.643029 0.349185 0.613337
Si Si5 0.784416 0.094058 0.497045
Si Si6 0.091910 0.057259 0.046925
Si Si7 0.011973 0.578027 0.197045
Si Si8 0.282032 0.062122 0.763991
O O1 0.428154 0.247022 0.084255
O O2 0.548371 0.296392 0.743409
O O3 0.500000 0.000000 0.000000
O O4 0.624928 0.083423 0.164004
O O5 0.750068 0.572100 0.992234
O O6 0.637546 0.496172 0.336718
O O7 0.692465 0.782722 0.204695
O O8 0.793820 0.244141 0.226378
O O9 0.700719 0.397524 0.789255
O O10 0.880484 0.396949 0.828964
O O11 0.702774 0.182197 0.611937
O O12 0.880743 0.030716 0.658252
O O13 0.753035 0.933924 0.493411
O O14 0.189604 0.018179 0.925232
O O15 0.063025 0.253586 0.920855
O O16 0.000000 0.000000 0.000000
O O17 0.000000 0.500000 0.500000
O O18 0.000000 0.500000 0.000000
#
# Coordination Sequence:
#
# PCOD9019765 Si02
#       8
#     2   2   2   2   2   2   2   2
#     4  10  21  45  68 105 149 191 250 303 372 453
#     4  10  25  42  75 102 149 193 248 304 381 446
#     4  11  25  47  73 105 147 198 251 314 377 455
#     4  11  22  45  69 105 146 195 244 310 374 451
#     4  11  23  44  77 103 145 194 252 309 379 447
#     4  12  27  46  76 104 145 197 254 309 386 452
#     4  12  31  50  75 113 155 198 255 319 387 463
#     4  11  23  45  68 107 143 188 246 314 367 451
#
# _framework density 23.240355999999998
#
# number of rings (size 3 to 8) (size 9 to 14) (size 15 to 20)
#    0.000    1.000    2.500    2.625    8.750    2.500 
#    2.250    1.250    0.000    0.000    0.000    0.000 
#    0.000    0.000    0.000    0.000    0.000    0.000 
#
# Total GULP energy -89318.127368 kJ/mol
# GULP energy per Si atom -5582.382960 kJ/mol
# Density = 2.318746 g / cm^3
# Si number density = 23.240356 Si / 1000 Ang^3
#
#
#
# Elastic Constant Matrix: (Units=GPa)
#
#
# Indices 1 2 3 4 5 6 
#
# 1 134.7193 33.7112 30.5304 -4.9192 7.2093 -12.4323
# 2 33.7112 115.0919 35.5408 12.8661 13.6784 -17.7371
# 3 30.5304 35.5408 71.2366 0.0188 10.9212 -16.9105
# 4 -4.9192 12.8661 0.0188 26.0583 1.1305 9.2449
# 5 7.2093 13.6784 10.9212 1.1305 28.1392 -5.8229
# 6 -12.4323 -17.7371 -16.9105 9.2449 -5.8229 41.8799
#
#
#
# Elastic Compliance Matrix: (Units=1/GPa)
#
#
# Indices 1 2 3 4 5 6 
#
# 1 0.008631 -0.001949 -0.002668 0.002593 -0.000324 0.000042
# 2 -0.001949 0.012349 -0.003838 -0.007926 -0.002771 0.004466
# 3 -0.002668 -0.003838 0.018782 -0.000114 -0.003770 0.004667
# 4 0.002593 -0.007926 -0.000114 0.047572 -0.001438 -0.013335
# 5 -0.000324 -0.002771 -0.003770 -0.001438 0.039101 0.002962
# 6 0.000042 0.004466 0.004667 -0.013335 0.002962 0.031022
#
#
# Mechanical properties :
#
#
# Convention : Reuss Voigt Hill
#
# Bulk Modulus (GPa) = 43.76155 57.84584 50.80370
# Shear Modulus (GPa) = 27.47490 33.96650 30.72070
#
# Velocity S-wave (km/s) = 3.44205 3.82714 3.63970
# Velocity P-wave (km/s) = 5.88794 6.66886 6.29053
#
# Compressibility (1/GPa) = 0.02285111
#
# Stress axis : x y z
#
# Youngs Moduli (GPa) = 115.86105 80.98071 53.24235
#
# Poissons Ratio (x) = 0.15784 0.14203
# Poissons Ratio (y) = 0.22583 0.20437
# Poissons Ratio (z) = 0.30907 0.31084
#
# Static dielectric constant tensor:
#      x y z
#    x 1.876600 0.003700 -0.020210 
#    y 0.003700 1.895110 0.054990 
#    z -0.020210 0.054990 1.995240 
# 
# From -- ./inp_files/89862.got.cif
#   From: 2010.05.17/outbox.cif.g08.bks.cpg/sg2_45_cif.got.tgz:89862.got - 2010.06.03 11:33:40.
