data_PCOD9019495
_publ_section_title
;
Structure prediction by ZEFSAII (Michael W. Deem and Ramdas Pophale) SiO2 
 PCOD9019495
Probable space group: P -1
;
_chemical_formula_sum "Si O2"
_cell_formula_units_Z 15
_cell_length_a 12.252803
_cell_length_b 22.401947
_cell_length_c 7.870008
_cell_angle_alpha 138.969955
_cell_angle_beta 56.965220
_cell_angle_gamma 154.265367
_cell_volume 542.995116
_symmetry_space_group_name_H-M "P -1"
_symmetry_group_IT_number 2
_symmetry_cell_setting 'triclinic'
loop_
_space_group_symop_operation_xyz
x,y,z
-x,-y,-z
loop_
_atom_site_type_symbol
_atom_site_label
_atom_site_fract_x
_atom_site_fract_y
_atom_site_fract_z
Si Si1 0.255574 0.696702 0.412635
Si Si2 0.074417 0.679630 0.082260
Si Si3 0.633641 0.385593 0.316001
Si Si4 0.744308 0.932669 0.752216
Si Si5 0.339011 0.943799 0.729728
Si Si6 0.871633 0.962411 0.204800
Si Si7 0.260947 0.377118 0.808086
Si Si8 0.500000 0.500000 0.500000
O O1 0.532033 0.826669 0.553075
O O2 0.382450 0.869115 0.600726
O O3 0.960253 0.559882 0.442155
O O4 0.093372 0.503744 0.074906
O O5 0.191092 0.828309 0.431148
O O6 0.872720 0.611935 0.989550
O O7 0.351903 0.818930 0.047604
O O8 0.455416 0.249493 0.342568
O O9 0.589060 0.460275 0.446617
O O10 0.454676 0.221267 0.964173
O O11 0.038280 0.057020 0.773029
O O12 0.829949 0.083933 0.085324
O O13 0.031893 0.153845 0.522316
O O14 0.000000 0.000000 0.000000
O O15 0.377963 0.465476 0.708830
O O16 0.500000 0.500000 0.000000
#
# Coordination Sequence:
#
# PCOD9019495 Si02
#       8
#     2   2   2   2   2   2   2   1
#     4  12  25  44  74 108 147 191 261 316 377 464
#     4  11  25  45  70 101 151 192 243 322 378 446
#     4  11  24  41  76 103 148 204 252 306 393 453
#     4  11  22  45  71 104 147 193 251 324 383 441
#     4  11  25  43  70 102 143 199 242 307 391 457
#     4  10  21  44  72  98 149 205 242 307 395 448
#     4  12  26  48  75 111 153 197 259 321 381 457
#     4  12  26  46  76 110 148 210 258 304 388 480
#
# _framework density 27.624559000000001
#
# number of rings (size 3 to 8) (size 9 to 14) (size 15 to 20)
#    0.000    0.800    4.000    4.400    3.733    0.000 
#    2.400    0.667    0.000    0.000    0.000    0.000 
#    0.000    0.000    0.000    0.000    0.000    0.000 
#
# Total GULP energy -83617.752877 kJ/mol
# GULP energy per Si atom -5574.516858 kJ/mol
# Density = 2.756168 g / cm^3
# Si number density = 27.624559 Si / 1000 Ang^3
#
#
#
# Elastic Constant Matrix: (Units=GPa)
#
#
# Indices 1 2 3 4 5 6 
#
# 1 200.7503 26.4305 26.1050 21.6803 -11.1151 16.9762
# 2 26.4305 76.9755 14.1270 21.2254 2.7276 -4.5670
# 3 26.1050 14.1270 114.3860 22.9598 -24.4259 -3.4940
# 4 21.6803 21.2254 22.9598 30.5599 2.5964 -7.7410
# 5 -11.1151 2.7276 -24.4259 2.5964 51.2681 8.1142
# 6 16.9762 -4.5670 -3.4940 -7.7410 8.1142 36.9799
#
#
#
# Elastic Compliance Matrix: (Units=1/GPa)
#
#
# Indices 1 2 3 4 5 6 
#
# 1 0.006178 -0.001102 0.000125 -0.005073 0.002436 -0.004557
# 2 -0.001102 0.016280 0.000267 -0.010570 -0.000513 0.000442
# 3 0.000125 0.000267 0.012187 -0.010662 0.006769 -0.002590
# 4 -0.005073 -0.010570 -0.010662 0.056158 -0.010696 0.014119
# 5 0.002436 -0.000513 0.006769 -0.010696 0.025141 -0.008297
# 6 -0.004557 0.000442 -0.002590 0.014119 -0.008297 0.033719
#
#
# Mechanical properties :
#
#
# Convention : Reuss Voigt Hill
#
# Bulk Modulus (GPa) = 30.09819 58.38188 44.24003
# Shear Modulus (GPa) = 30.83396 45.45818 38.14607
#
# Velocity S-wave (km/s) = 3.34455 4.06097 3.72004
# Velocity P-wave (km/s) = 5.08270 6.57027 5.87377
#
# Compressibility (1/GPa) = 0.03322459
#
# Stress axis : x y z
#
# Youngs Moduli (GPa) = 161.85916 61.42646 82.05323
#
# Poissons Ratio (x) = 0.06771 -0.01029
# Poissons Ratio (y) = 0.17840 -0.02188
# Poissons Ratio (z) = -0.02029 -0.01638
#
# Static dielectric constant tensor:
#      x y z
#    x 2.208440 0.080610 0.102320 
#    y 0.080610 2.280490 0.013580 
#    z 0.102320 0.013580 2.217730 
# 
# From -- ./inp_files/285021.got.cif
#   From: 2010.05.17/outbox.cif.g08.bks.cpg/sg2_143_cif.got.tgz:285021.got - 2010.06.03 11:33:40.
