data_PCOD9019873
_publ_section_title
;
Structure prediction by ZEFSAII (Michael W. Deem and Ramdas Pophale) SiO2 
 PCOD9019873
Probable space group: P -1
;
_chemical_formula_sum "Si O2"
_cell_formula_units_Z 16
_cell_length_a 11.128964
_cell_length_b 11.164123
_cell_length_c 26.492831
_cell_angle_alpha 33.971039
_cell_angle_beta 29.526477
_cell_angle_gamma 53.884692
_cell_volume 795.149813
_symmetry_space_group_name_H-M "P -1"
_symmetry_group_IT_number 2
_symmetry_cell_setting 'triclinic'
loop_
_space_group_symop_operation_xyz
x,y,z
-x,-y,-z
loop_
_atom_site_type_symbol
_atom_site_label
_atom_site_fract_x
_atom_site_fract_y
_atom_site_fract_z
Si Si1 0.319325 0.756075 0.735863
Si Si2 0.217921 0.718154 0.610383
Si Si3 0.695062 0.323055 0.592290
Si Si4 0.623591 0.537969 0.271117
Si Si5 0.906789 0.028083 0.112737
Si Si6 0.169392 0.398010 0.649977
Si Si7 0.286714 0.597535 0.910872
Si Si8 0.854821 0.922487 0.636667
O O1 0.430840 0.670077 0.677554
O O2 0.363343 0.622466 0.815347
O O3 0.479232 0.044850 0.584840
O O4 0.987811 0.651047 0.888526
O O5 0.235480 0.538231 0.707957
O O6 0.121225 0.574676 0.643268
O O7 0.018581 0.838603 0.644587
O O8 0.641223 0.434277 0.624074
O O9 0.864622 0.547760 0.413790
O O10 0.371963 0.161447 0.748343
O O11 0.816290 0.137568 0.602392
O O12 0.848294 0.794950 0.075254
O O13 0.816451 0.200995 0.115307
O O14 0.983391 0.872630 0.177735
O O15 0.500000 0.500000 0.500000
O O16 0.553835 0.693057 0.814773
O O17 0.000000 0.000000 0.500000
#
# Coordination Sequence:
#
# PCOD9019873 Si02
#       8
#     2   2   2   2   2   2   2   2
#     4  10  20  36  55  86 119 151 193 235 282 352
#     4  12  21  34  59  89 115 149 192 241 287 344
#     4  10  19  33  54  87 112 150 192 240 287 337
#     4  11  22  34  57  87 120 154 189 236 292 346
#     4   9  18  34  56  82 116 143 195 247 280 321
#     4  10  17  30  57  85 110 141 198 248 277 321
#     4   9  19  36  60  84 112 154 197 236 287 338
#     4  11  20  36  60  87 119 147 194 248 290 328
#
# _framework density 20.121994000000001
#
# number of rings (size 3 to 8) (size 9 to 14) (size 15 to 20)
#    0.000    1.750    5.000    2.250    0.000    0.000 
#    0.000    6.250    0.000    0.000    3.250    6.125 
#    0.000    0.000    0.000    0.000    0.000    0.000 
#
# Total GULP energy -89141.088387 kJ/mol
# GULP energy per Si atom -5571.318024 kJ/mol
# Density = 2.007620 g / cm^3
# Si number density = 20.121994 Si / 1000 Ang^3
#
#
#
# Elastic Constant Matrix: (Units=GPa)
#
#
# Indices 1 2 3 4 5 6 
#
# 1 30.0330 25.6997 27.7005 3.4632 2.9346 -4.8156
# 2 25.6997 95.1592 27.3629 16.0792 24.4784 -9.6648
# 3 27.7005 27.3629 116.2866 -13.7004 10.5123 -11.9159
# 4 3.4632 16.0792 -13.7004 22.8078 6.4455 9.8106
# 5 2.9346 24.4784 10.5123 6.4455 25.8841 3.3715
# 6 -4.8156 -9.6648 -11.9159 9.8106 3.3715 32.1997
#
#
#
# Elastic Compliance Matrix: (Units=1/GPa)
#
#
# Indices 1 2 3 4 5 6 
#
# 1 0.056569 -0.012851 -0.012897 -0.012037 0.013707 0.002062
# 2 -0.012851 0.022043 -0.001209 -0.013997 -0.016750 0.010266
# 3 -0.012897 -0.001209 0.014040 0.013233 -0.006332 -0.000465
# 4 -0.012037 -0.013997 0.013233 0.075388 -0.006498 -0.023393
# 5 0.013707 -0.016750 -0.006332 -0.006498 0.058341 -0.009449
# 6 0.002062 0.010266 -0.000465 -0.023393 -0.009449 0.042391
#
#
# Mechanical properties :
#
#
# Convention : Reuss Voigt Hill
#
# Bulk Modulus (GPa) = 25.81453 44.77835 35.29644
# Shear Modulus (GPa) = 14.89875 26.89269 20.89572
#
# Velocity S-wave (km/s) = 2.72402 3.65976 3.22600
# Velocity P-wave (km/s) = 4.76976 6.33721 5.60851
#
# Compressibility (1/GPa) = 0.03873787
#
# Stress axis : x y z
#
# Youngs Moduli (GPa) = 17.67760 45.36485 71.22572
#
# Poissons Ratio (x) = 0.58300 0.91861
# Poissons Ratio (y) = 0.22718 0.08608
# Poissons Ratio (z) = 0.22799 0.05483
#
# Static dielectric constant tensor:
#      x y z
#    x 1.770300 0.034500 -0.003380 
#    y 0.034500 1.837660 0.016520 
#    z -0.003380 0.016520 1.746770 
# 
# From -- ./inp_files/618409.got.cif
#   From: 2010.05.17/outbox.cif.g08.bks.cpg/sg2_310_cif.got.tgz:618409.got - 2010.06.03 11:33:40.
