data_PCOD9019804
_publ_section_title
;
Structure prediction by ZEFSAII (Michael W. Deem and Ramdas Pophale) SiO2 
 PCOD9019804
Probable space group: P -1
;
_chemical_formula_sum "Si O2"
_cell_formula_units_Z 16
_cell_length_a 20.294275
_cell_length_b 24.138745
_cell_length_c 5.353937
_cell_angle_alpha 110.451147
_cell_angle_beta 70.905894
_cell_angle_gamma 165.196831
_cell_volume 627.254076
_symmetry_space_group_name_H-M "P -1"
_symmetry_group_IT_number 2
_symmetry_cell_setting 'triclinic'
loop_
_space_group_symop_operation_xyz
x,y,z
-x,-y,-z
loop_
_atom_site_type_symbol
_atom_site_label
_atom_site_fract_x
_atom_site_fract_y
_atom_site_fract_z
Si Si1 0.069765 0.492243 0.793403
Si Si2 0.553515 0.887511 0.081317
Si Si3 0.767007 0.551332 0.490053
Si Si4 0.333003 0.813515 0.546801
Si Si5 0.500026 0.281852 0.892867
Si Si6 0.785016 0.146778 0.808944
Si Si7 0.435505 0.391940 0.587877
Si Si8 0.950565 0.007546 0.868206
O O1 0.368296 0.720538 0.811210
O O2 0.954398 0.400789 0.510741
O O3 0.933249 0.329605 0.870730
O O4 0.000000 0.500000 0.000000
O O5 0.556159 0.831634 0.154007
O O6 0.786130 0.112701 0.014783
O O7 0.399849 0.809647 0.306737
O O8 0.655361 0.435190 0.181330
O O9 0.679291 0.549165 0.608637
O O10 0.068831 0.778346 0.447364
O O11 0.639525 0.414771 0.672571
O O12 0.500000 0.000000 0.500000
O O13 0.487428 0.925200 0.783865
O O14 0.217025 0.079075 0.934517
O O15 0.500000 0.500000 0.500000
O O16 0.241759 0.182925 0.386559
O O17 0.235361 0.257607 0.819844
O O18 0.000000 0.000000 0.000000
#
# Coordination Sequence:
#
# PCOD9019804 Si02
#       8
#     2   2   2   2   2   2   2   2
#     4   9  20  43  67  94 139 179 228 292 355 418
#     4  11  24  41  68 102 136 189 234 288 357 426
#     4  11  25  47  70 103 150 190 230 298 352 424
#     4   9  22  41  65  99 134 177 228 298 344 418
#     4  11  25  46  73 100 149 192 235 287 364 415
#     4  11  24  41  65 103 140 177 240 287 353 421
#     4  10  23  43  71 104 140 188 241 289 353 411
#     4  10  21  45  69 100 140 186 237 295 339 417
#
# _framework density 25.508002999999999
#
# number of rings (size 3 to 8) (size 9 to 14) (size 15 to 20)
#    0.000    1.750    2.500    0.000    5.250    5.500 
#    2.250    7.500    0.000    0.000    0.000    0.000 
#    0.000    0.000    0.000    0.000    0.000    0.000 
#
# Total GULP energy -89265.453254 kJ/mol
# GULP energy per Si atom -5579.090828 kJ/mol
# Density = 2.544995 g / cm^3
# Si number density = 25.508003 Si / 1000 Ang^3
#
#
#
# Elastic Constant Matrix: (Units=GPa)
#
#
# Indices 1 2 3 4 5 6 
#
# 1 213.9120 64.0011 35.4478 -27.1094 5.9675 -14.5735
# 2 64.0011 105.8059 36.1955 -36.4905 5.7684 -8.2555
# 3 35.4478 36.1955 80.0358 -24.7745 12.7848 -7.8234
# 4 -27.1094 -36.4905 -24.7745 49.8306 -8.5482 13.1225
# 5 5.9675 5.7684 12.7848 -8.5482 39.3574 -13.6141
# 6 -14.5735 -8.2555 -7.8234 13.1225 -13.6141 54.4485
#
#
#
# Elastic Compliance Matrix: (Units=1/GPa)
#
#
# Indices 1 2 3 4 5 6 
#
# 1 0.005849 -0.003026 -0.001110 0.000209 0.000299 0.000971
# 2 -0.003026 0.015071 -0.003149 0.008155 0.000786 -0.000746
# 3 -0.001110 -0.003149 0.016443 0.004740 -0.003862 -0.000520
# 4 0.000209 0.008155 0.004740 0.030128 0.002132 -0.004754
# 5 0.000299 0.000786 -0.003862 0.002132 0.029189 0.006429
# 6 0.000971 -0.000746 -0.000520 -0.004754 0.006429 0.021191
#
#
# Mechanical properties :
#
#
# Convention : Reuss Voigt Hill
#
# Bulk Modulus (GPa) = 43.87507 74.56028 59.21768
# Shear Modulus (GPa) = 35.70416 46.33458 41.01937
#
# Velocity S-wave (km/s) = 3.74535 4.26663 4.01446
# Velocity P-wave (km/s) = 5.99511 7.31887 6.68981
#
# Compressibility (1/GPa) = 0.02279198
#
# Stress axis : x y z
#
# Youngs Moduli (GPa) = 170.98215 66.35310 60.81485
#
# Poissons Ratio (x) = 0.20082 0.06748
# Poissons Ratio (y) = 0.51747 0.19153
# Poissons Ratio (z) = 0.18972 0.20897
#
# Static dielectric constant tensor:
#      x y z
#    x 1.985370 0.082630 0.072530 
#    y 0.082630 2.042160 0.066830 
#    z 0.072530 0.066830 2.253080 
# 
# From -- ./inp_files/112437.got.cif
#   From: 2010.05.17/outbox.cif.g08.bks.cpg/sg2_57_cif.got.tgz:112437.got - 2010.06.03 11:33:40.
