data_PCOD9019636
_publ_section_title
;
Structure prediction by ZEFSAII (Michael W. Deem and Ramdas Pophale) SiO2 
 PCOD9019636
Probable space group: P -1
;
_chemical_formula_sum "Si O2"
_cell_formula_units_Z 16
_cell_length_a 9.434299
_cell_length_b 13.726685
_cell_length_c 9.140837
_cell_angle_alpha 84.543727
_cell_angle_beta 70.537919
_cell_angle_gamma 130.535668
_cell_volume 763.837243
_symmetry_space_group_name_H-M "P -1"
_symmetry_group_IT_number 2
_symmetry_cell_setting 'triclinic'
loop_
_space_group_symop_operation_xyz
x,y,z
-x,-y,-z
loop_
_atom_site_type_symbol
_atom_site_label
_atom_site_fract_x
_atom_site_fract_y
_atom_site_fract_z
Si Si1 0.531033 0.673568 0.235593
Si Si2 0.027013 0.097481 0.861187
Si Si3 0.265921 0.748078 0.278409
Si Si4 0.902289 0.044508 0.608438
Si Si5 0.081306 0.734558 0.034804
Si Si6 0.493581 0.965280 0.676195
Si Si7 0.118280 0.344886 0.409145
Si Si8 0.259417 0.369951 0.039083
O O1 0.712699 0.775294 0.283726
O O2 0.395874 0.707585 0.243958
O O3 0.351846 0.503400 0.345203
O O4 0.693657 0.711093 0.045844
O O5 0.879175 0.002619 0.788199
O O6 0.941115 0.162321 0.929760
O O7 0.000000 0.000000 0.000000
O O8 0.428924 0.910860 0.257216
O O9 0.065753 0.664603 0.474782
O O10 0.160505 0.717684 0.157718
O O11 0.676089 0.969368 0.628484
O O12 0.054844 0.213811 0.528886
O O13 0.000000 0.000000 0.500000
O O14 0.847374 0.608842 0.050229
O O15 0.266604 0.817084 0.835768
O O16 0.500000 0.000000 0.500000
O O17 0.114391 0.314126 0.242894
O O18 0.500000 0.500000 0.000000
#
# Coordination Sequence:
#
# PCOD9019636 Si02
#       8
#     2   2   2   2   2   2   2   2
#     4  10  23  39  71  92 128 179 220 267 334 391
#     4  11  24  40  64  94 129 173 218 270 331 386
#     4  11  22  39  66  99 129 169 224 274 329 393
#     4  11  26  41  63  99 130 171 221 273 328 395
#     4  11  21  40  64  92 129 169 217 277 325 391
#     4  11  24  40  65  94 136 175 213 273 338 393
#     4  10  21  45  64  91 136 167 220 269 331 397
#     4   9  21  42  64  89 126 179 213 263 333 392
#
# _framework density 20.946871000000002
#
# number of rings (size 3 to 8) (size 9 to 14) (size 15 to 20)
#    0.000    1.500    2.500    3.000    8.750    0.500 
#    2.250    2.500    0.000    0.000    0.000    0.000 
#    0.000    0.000    0.000    0.000    0.000    0.000 
#
# Total GULP energy -89132.679128 kJ/mol
# GULP energy per Si atom -5570.792446 kJ/mol
# Density = 2.089919 g / cm^3
# Si number density = 20.946871 Si / 1000 Ang^3
#
#
#
# Elastic Constant Matrix: (Units=GPa)
#
#
# Indices 1 2 3 4 5 6 
#
# 1 185.5713 31.8572 61.1513 11.0876 -6.9016 14.9904
# 2 31.8572 46.3014 -4.9299 -5.3378 -10.0092 16.7900
# 3 61.1513 -4.9299 92.2425 16.3042 -8.5189 11.2198
# 4 11.0876 -5.3378 16.3042 29.2811 10.2161 0.3484
# 5 -6.9016 -10.0092 -8.5189 10.2161 34.0284 6.8718
# 6 14.9904 16.7900 11.2198 0.3484 6.8718 36.4381
#
#
#
# Elastic Compliance Matrix: (Units=1/GPa)
#
#
# Indices 1 2 3 4 5 6 
#
# 1 0.008781 -0.008552 -0.006939 0.000023 -0.003094 0.003048
# 2 -0.008552 0.040927 0.012895 -0.002839 0.019002 -0.022867
# 3 -0.006939 0.012895 0.020765 -0.011088 0.013313 -0.011886
# 4 0.000023 -0.002839 -0.011088 0.046376 -0.019120 0.007875
# 5 -0.003094 0.019002 0.013313 -0.019120 0.047535 -0.020364
# 6 0.003048 -0.022867 -0.011886 0.007875 -0.020364 0.044152
#
#
# Mechanical properties :
#
#
# Convention : Reuss Voigt Hill
#
# Bulk Modulus (GPa) = 15.31816 55.58583 35.45200
# Shear Modulus (GPa) = 21.23254 35.68529 28.45892
#
# Velocity S-wave (km/s) = 3.18722 4.13196 3.68995
# Velocity P-wave (km/s) = 4.56873 7.02555 5.92586
#
# Compressibility (1/GPa) = 0.06528198
#
# Stress axis : x y z
#
# Youngs Moduli (GPa) = 113.88638 24.43352 48.15780
#
# Poissons Ratio (x) = 0.20895 0.33415
# Poissons Ratio (y) = 0.97392 -0.62098
# Poissons Ratio (z) = 0.79022 -0.31506
#
# Static dielectric constant tensor:
#      x y z
#    x 1.729740 0.085680 0.021220 
#    y 0.085680 1.963440 0.039650 
#    z 0.021220 0.039650 1.761340 
# 
# From -- ./inp_files/206898.got.cif
#   From: 2010.05.17/outbox.cif.g08.bks.cpg/sg2_104_cif.got.tgz:206898.got - 2010.06.03 11:33:40.
