data_PCOD9019179
_publ_section_title
;
Structure prediction by ZEFSAII (Michael W. Deem and Ramdas Pophale) SiO2 
 PCOD9019179
Probable space group: P -1
;
_chemical_formula_sum "Si O2"
_cell_formula_units_Z 16
_cell_length_a 7.366607
_cell_length_b 8.458618
_cell_length_c 19.707169
_cell_angle_alpha 57.109410
_cell_angle_beta 37.525558
_cell_angle_gamma 56.558841
_cell_volume 610.434711
_symmetry_space_group_name_H-M "P -1"
_symmetry_group_IT_number 2
_symmetry_cell_setting 'triclinic'
loop_
_space_group_symop_operation_xyz
x,y,z
-x,-y,-z
loop_
_atom_site_type_symbol
_atom_site_label
_atom_site_fract_x
_atom_site_fract_y
_atom_site_fract_z
Si Si1 0.153278 0.530982 0.017553
Si Si2 0.780507 0.425304 0.269092
Si Si3 0.525606 0.228374 0.221974
Si Si4 0.676655 0.951687 0.787460
Si Si5 0.362536 0.861975 0.023700
Si Si6 0.918888 0.917204 0.257314
Si Si7 0.167114 0.356676 0.423696
Si Si8 0.547061 0.311087 0.577938
O O1 0.334875 0.687916 0.903677
O O2 0.411089 0.344519 0.004766
O O3 0.000000 0.500000 0.000000
O O4 0.888514 0.545209 0.147659
O O5 0.506093 0.313532 0.365848
O O6 0.644655 0.591873 0.323418
O O7 0.075231 0.257174 0.239751
O O8 0.420116 0.043790 0.263507
O O9 0.280793 0.378872 0.305428
O O10 0.804307 0.135750 0.211452
O O11 0.382003 0.963019 0.921743
O O12 0.867019 0.087175 0.739021
O O13 0.095693 0.821885 0.159625
O O14 0.500000 0.000000 0.000000
O O15 0.621835 0.834180 0.376750
O O16 0.000000 0.500000 0.500000
O O17 0.904625 0.243155 0.509656
O O18 0.500000 0.500000 0.500000
#
# Coordination Sequence:
#
# PCOD9019179 Si02
#       8
#     2   2   2   2   2   2   2   2
#     4  11  21  38  75 108 143 190 226 292 362 433
#     4  10  21  44  69 102 142 179 239 294 348 426
#     4  12  24  43  73 107 142 189 238 281 373 428
#     4  10  22  43  70 101 145 187 228 287 357 428
#     4   9  21  40  63 102 151 184 225 286 350 421
#     4  11  25  48  66 103 152 182 235 304 343 427
#     4  10  22  45  69  97 140 181 238 300 337 415
#     4  11  26  45  70  98 135 193 247 292 354 415
#
# _framework density 26.210830000000001
#
# number of rings (size 3 to 8) (size 9 to 14) (size 15 to 20)
#    0.000    1.500    2.500    2.250    5.250    2.000 
#   11.250    1.250    0.000    0.000    0.000    0.000 
#    0.000    0.000    0.000    0.000    0.000    0.000 
#
# Total GULP energy -89078.226759 kJ/mol
# GULP energy per Si atom -5567.389172 kJ/mol
# Density = 2.615117 g / cm^3
# Si number density = 26.210830 Si / 1000 Ang^3
#
#
#
# Elastic Constant Matrix: (Units=GPa)
#
#
# Indices 1 2 3 4 5 6 
#
# 1 94.4007 9.6765 35.9558 5.4343 -11.6891 33.5022
# 2 9.6765 39.6840 26.5247 0.4835 1.0463 14.4074
# 3 35.9558 26.5247 141.5579 12.9128 -6.6117 13.6320
# 4 5.4343 0.4835 12.9128 52.8908 16.8879 1.1081
# 5 -11.6891 1.0463 -6.6117 16.8879 54.3397 0.2969
# 6 33.5022 14.4074 13.6320 1.1081 0.2969 41.2839
#
#
#
# Elastic Compliance Matrix: (Units=1/GPa)
#
#
# Indices 1 2 3 4 5 6 
#
# 1 0.016959 0.002876 -0.003168 -0.001950 0.003888 -0.013696
# 2 0.002876 0.032763 -0.005914 0.001454 -0.001119 -0.011846
# 3 -0.003168 -0.005914 0.009079 -0.002266 0.001232 0.001689
# 4 -0.001950 0.001454 -0.002266 0.022040 -0.007580 0.001286
# 5 0.003888 -0.001119 0.001232 -0.007580 0.021783 -0.003125
# 6 -0.013696 -0.011846 0.001689 0.001286 -0.003125 0.038901
#
#
# Mechanical properties :
#
#
# Convention : Reuss Voigt Hill
#
# Bulk Modulus (GPa) = 21.55700 46.66184 34.10942
# Shear Modulus (GPa) = 29.51589 43.26858 36.39223
#
# Velocity S-wave (km/s) = 3.35937 4.06740 3.73022
# Velocity P-wave (km/s) = 4.82592 6.31660 5.62090
#
# Compressibility (1/GPa) = 0.04638865
#
# Stress axis : x y z
#
# Youngs Moduli (GPa) = 58.96488 30.52232 110.14916
#
# Poissons Ratio (x) = -0.08777 0.34897
# Poissons Ratio (y) = -0.16957 0.65138
# Poissons Ratio (z) = 0.18681 0.18050
#
# Static dielectric constant tensor:
#      x y z
#    x 0.886060 0.606630 -1.870120 
#    y 0.606630 1.873270 0.813660 
#    z -1.870120 0.813660 -0.719870 
# 
# From -- ./inp_files/606379.got.cif
#   From: 2010.05.17/outbox.cif.g08.bks.cpg/sg2_304_cif.got.tgz:606379.got - 2010.06.03 11:33:40.
