data_PCOD9019585
_publ_section_title
;
Structure prediction by ZEFSAII (Michael W. Deem and Ramdas Pophale) SiO2 
 PCOD9019585
Probable space group: P -1
;
_chemical_formula_sum "Si O2"
_cell_formula_units_Z 12
_cell_length_a 13.854019
_cell_length_b 13.159178
_cell_length_c 4.932417
_cell_angle_alpha 97.348509
_cell_angle_beta 91.257630
_cell_angle_gamma 148.912652
_cell_volume 445.054989
_symmetry_space_group_name_H-M "P -1"
_symmetry_group_IT_number 2
_symmetry_cell_setting 'triclinic'
loop_
_space_group_symop_operation_xyz
x,y,z
-x,-y,-z
loop_
_atom_site_type_symbol
_atom_site_label
_atom_site_fract_x
_atom_site_fract_y
_atom_site_fract_z
Si Si1 0.599514 0.911799 0.465071
Si Si2 0.511864 0.608509 0.341578
Si Si3 0.339222 0.702938 0.867574
Si Si4 0.121012 0.358410 0.314539
Si Si5 0.107720 0.048735 0.775311
Si Si6 0.876416 0.305850 0.257536
O O1 0.622905 0.814297 0.531487
O O2 0.444550 0.759814 0.159154
O O3 0.757074 0.128980 0.408299
O O4 0.500685 0.872954 0.703932
O O5 0.500000 0.500000 0.500000
O O6 0.292675 0.446263 0.235981
O O7 0.662142 0.721789 0.148066
O O8 0.245142 0.726102 0.935540
O O9 0.208993 0.497661 0.632135
O O10 0.018813 0.355795 0.138482
O O11 0.949000 0.122161 0.285275
O O12 0.000000 0.000000 0.500000
O O13 0.000000 0.000000 0.000000
O O14 0.000000 0.500000 0.500000
#
# Coordination Sequence:
#
# PCOD9019585 Si02
#       6
#     2   2   2   2   2   2
#     4  11  23  46  72 110 149 202 247 315 373 452
#     4  11  24  48  76 109 152 196 254 313 377 444
#     4  10  24  44  75 105 151 194 255 305 380 448
#     4  10  23  48  71 113 148 197 250 307 379 448
#     4  12  27  48  75 108 150 201 254 316 380 450
#     4  10  21  44  75 110 153 197 251 310 378 457
#
# _framework density 26.962958
#
# number of rings (size 3 to 8) (size 9 to 14) (size 15 to 20)
#    0.000    1.333    3.333    1.000    0.000    6.000 
#    0.000   25.833    0.000    0.000    0.000    0.000 
#    0.000    0.000    0.000    0.000    0.000    0.000 
#
# Total GULP energy -67139.246750 kJ/mol
# GULP energy per Si atom -5594.937229 kJ/mol
# Density = 2.690159 g / cm^3
# Si number density = 26.962958 Si / 1000 Ang^3
#
#
#
# Elastic Constant Matrix: (Units=GPa)
#
#
# Indices 1 2 3 4 5 6 
#
# 1 198.2597 87.6912 61.3881 -21.7395 -16.7562 -19.2589
# 2 87.6912 199.4776 14.1174 -15.8098 -10.1581 -28.5490
# 3 61.3881 14.1174 108.0339 -14.6319 0.0308 -2.6446
# 4 -21.7395 -15.8098 -14.6319 40.3119 -3.6141 -17.8279
# 5 -16.7562 -10.1581 0.0308 -3.6141 30.4309 -12.7347
# 6 -19.2589 -28.5490 -2.6446 -17.8279 -12.7347 56.6114
#
#
#
# Elastic Compliance Matrix: (Units=1/GPa)
#
#
# Indices 1 2 3 4 5 6 
#
# 1 0.008845 -0.002124 -0.003905 0.005342 0.006886 0.004987
# 2 -0.002124 0.007240 0.001048 0.004839 0.004090 0.005421
# 3 -0.003905 0.001048 0.011685 0.002515 -0.001422 0.000218
# 4 0.005342 0.004839 0.002515 0.041769 0.018601 0.021713
# 5 0.006886 0.004090 -0.001422 0.018601 0.049120 0.021246
# 6 0.004987 0.005421 0.000218 0.021713 0.021246 0.033722
#
#
# Mechanical properties :
#
#
# Convention : Reuss Voigt Hill
#
# Bulk Modulus (GPa) = 56.15538 92.46273 74.30905
# Shear Modulus (GPa) = 29.71278 48.30913 39.01095
#
# Velocity S-wave (km/s) = 3.32322 4.23742 3.80786
# Velocity P-wave (km/s) = 5.96633 7.63596 6.85219
#
# Compressibility (1/GPa) = 0.01780773
#
# Stress axis : x y z
#
# Youngs Moduli (GPa) = 113.06424 138.11544 85.58328
#
# Poissons Ratio (x) = 0.29335 0.33416
# Poissons Ratio (y) = 0.24014 -0.08966
# Poissons Ratio (z) = 0.44146 -0.14470
#
# Static dielectric constant tensor:
#      x y z
#    x -0.022140 0.630280 -1.803420 
#    y 0.630280 2.053110 0.443520 
#    z -1.803420 0.443520 0.651470 
# 
# From -- ./inp_files/96082.got.cif
#   From: 2010.05.17/outbox.cif.g08.bks.cpg/sg2_49_cif.got.tgz:96082.got - 2010.06.03 11:33:40.
