data_PCOD9019122
_publ_section_title
;
Structure prediction by ZEFSAII (Michael W. Deem and Ramdas Pophale) SiO2 
 PCOD9019122
Probable space group: P -1
;
_chemical_formula_sum "Si O2"
_cell_formula_units_Z 15
_cell_length_a 12.415605
_cell_length_b 10.989026
_cell_length_c 6.666306
_cell_angle_alpha 70.373287
_cell_angle_beta 57.436380
_cell_angle_gamma 71.315158
_cell_volume 710.755663
_symmetry_space_group_name_H-M "P -1"
_symmetry_group_IT_number 2
_symmetry_cell_setting 'triclinic'
loop_
_space_group_symop_operation_xyz
x,y,z
-x,-y,-z
loop_
_atom_site_type_symbol
_atom_site_label
_atom_site_fract_x
_atom_site_fract_y
_atom_site_fract_z
Si Si1 0.189426 0.467703 0.680891
Si Si2 0.964194 0.253427 0.323705
Si Si3 0.269653 0.861843 0.189388
Si Si4 0.885810 0.934342 0.057735
Si Si5 0.500000 0.000000 0.000000
Si Si6 0.352209 0.288438 0.932023
Si Si7 0.842074 0.723057 0.521266
Si Si8 0.573281 0.412944 0.801183
O O1 0.095463 0.599878 0.772206
O O2 0.240676 0.359776 0.856850
O O3 0.129926 0.398048 0.593876
O O4 0.318405 0.517015 0.445152
O O5 0.847991 0.176181 0.542140
O O6 0.051386 0.167431 0.119847
O O7 0.045090 0.269191 0.435576
O O8 0.352184 0.724604 0.109003
O O9 0.213858 0.952694 0.011307
O O10 0.368324 0.934212 0.171246
O O11 0.824823 0.854172 0.332746
O O12 0.000000 0.000000 0.000000
O O13 0.414702 0.138251 0.911564
O O14 0.466469 0.373691 0.779538
O O15 0.286458 0.287180 0.218004
O O16 0.500000 0.500000 0.000000
#
# Coordination Sequence:
#
# PCOD9019122 Si02
#       8
#     2   2   2   2   1   2   2   2
#     4  11  24  43  70 100 130 178 226 267 348 394
#     4  11  25  43  68  97 137 175 219 282 331 398
#     4  10  22  43  68  96 131 175 220 276 333 396
#     4  12  26  44  69  99 134 180 227 267 342 401
#     4  10  22  42  68  92 130 174 220 274 334 380
#     4  11  24  43  67  96 137 172 225 283 325 400
#     4  12  24  42  69  96 137 174 222 282 328 402
#     4  10  21  44  68  96 135 174 221 278 333 394
#
# _framework density 21.104298
#
# number of rings (size 3 to 8) (size 9 to 14) (size 15 to 20)
#    0.000    1.067    2.667    3.600    1.867    4.267 
#    2.400    2.000    0.000    0.000    0.000    0.000 
#    0.000    0.000    0.000    0.000    0.000    0.000 
#
# Total GULP energy -83623.940554 kJ/mol
# GULP energy per Si atom -5574.929370 kJ/mol
# Density = 2.105626 g / cm^3
# Si number density = 21.104298 Si / 1000 Ang^3
#
#
#
# Elastic Constant Matrix: (Units=GPa)
#
#
# Indices 1 2 3 4 5 6 
#
# 1 110.9213 52.3401 40.5696 -13.5747 2.6417 3.4767
# 2 52.3401 115.6614 50.3886 -16.1846 20.6838 -9.4690
# 3 40.5696 50.3886 80.4717 -18.1025 3.0076 -0.9525
# 4 -13.5747 -16.1846 -18.1025 30.7740 2.8352 -0.8539
# 5 2.6417 20.6838 3.0076 2.8352 36.9991 -17.2712
# 6 3.4767 -9.4690 -0.9525 -0.8539 -17.2712 47.1208
#
#
#
# Elastic Compliance Matrix: (Units=1/GPa)
#
#
# Indices 1 2 3 4 5 6 
#
# 1 0.012440 -0.004304 -0.003385 0.001097 0.001031 -0.001454
# 2 -0.004304 0.015215 -0.006372 0.003077 -0.007691 0.000483
# 3 -0.003385 -0.006372 0.019515 0.006474 0.001784 0.000135
# 4 0.001097 0.003077 0.006474 0.038905 -0.005628 -0.000690
# 5 0.001031 -0.007691 0.001784 -0.005628 0.037100 0.011911
# 6 -0.001454 0.000483 0.000135 -0.000690 0.011911 0.025782
#
#
# Mechanical properties :
#
#
# Convention : Reuss Voigt Hill
#
# Bulk Modulus (GPa) = 52.50258 65.96124 59.23191
# Shear Modulus (GPa) = 27.25860 33.89586 30.57723
#
# Velocity S-wave (km/s) = 3.59780 4.01198 3.81052
# Velocity P-wave (km/s) = 6.49543 7.26526 6.89110
#
# Compressibility (1/GPa) = 0.01904668
#
# Stress axis : x y z
#
# Youngs Moduli (GPa) = 80.38621 65.72367 51.24391
#
# Poissons Ratio (x) = 0.28291 0.17347
# Poissons Ratio (y) = 0.34602 0.32652
# Poissons Ratio (z) = 0.27212 0.41878
#
# Static dielectric constant tensor:
#      x y z
#    x 1.767690 0.008710 -0.013790 
#    y 0.008710 1.754560 -0.010150 
#    z -0.013790 -0.010150 1.743920 
# 
# From -- ./inp_files/68301.got.cif
#   From: 2010.05.17/outbox.cif.g08.bks.cpg/sg2_35_cif.got.tgz:68301.got - 2010.06.03 11:33:40.
