data_PCOD9019284
_publ_section_title
;
Structure prediction by ZEFSAII (Michael W. Deem and Ramdas Pophale) SiO2 
 PCOD9019284
Probable space group: P -1
;
_chemical_formula_sum "Si O2"
_cell_formula_units_Z 16
_cell_length_a 8.710284
_cell_length_b 6.239870
_cell_length_c 17.128760
_cell_angle_alpha 85.613121
_cell_angle_beta 59.116284
_cell_angle_gamma 66.453119
_cell_volume 722.591470
_symmetry_space_group_name_H-M "P -1"
_symmetry_group_IT_number 2
_symmetry_cell_setting 'triclinic'
loop_
_space_group_symop_operation_xyz
x,y,z
-x,-y,-z
loop_
_atom_site_type_symbol
_atom_site_label
_atom_site_fract_x
_atom_site_fract_y
_atom_site_fract_z
Si Si1 0.430170 0.146808 0.094062
Si Si2 0.588321 0.866623 0.733470
Si Si3 0.302709 0.708215 0.724028
Si Si4 0.061245 0.588678 0.402587
Si Si5 0.842385 0.896339 0.049931
Si Si6 0.974673 0.546361 0.879556
Si Si7 0.289779 0.996875 0.570178
Si Si8 0.337409 0.773833 0.402477
O O1 0.397031 0.031339 0.187396
O O2 0.226688 0.378115 0.122484
O O3 0.641064 0.126091 0.070813
O O4 0.500000 0.000000 0.000000
O O5 0.405507 0.800291 0.762319
O O6 0.781067 0.624574 0.680386
O O7 0.598617 0.035911 0.658278
O O8 0.250383 0.896128 0.663291
O O9 0.477875 0.476680 0.647955
O O10 0.125581 0.644604 0.800191
O O11 0.163286 0.757670 0.398192
O O12 0.000000 0.500000 0.500000
O O13 0.867109 0.734589 0.401967
O O14 0.894966 0.726321 0.118912
O O15 0.883132 0.702590 0.976424
O O16 0.000000 0.000000 0.000000
O O17 0.270704 0.844592 0.506220
O O18 0.500000 0.000000 0.500000
#
# Coordination Sequence:
#
# PCOD9019284 Si02
#       8
#     2   2   2   2   2   2   2   2
#     4  10  23  43  69 101 133 175 227 280 348 412
#     4  11  23  44  66  95 136 177 229 281 345 411
#     4  11  24  41  65 101 134 178 231 283 342 412
#     4  11  24  42  64  95 133 182 230 281 343 407
#     4  10  21  44  70  92 134 171 213 282 345 404
#     4  10  23  41  65  99 129 170 223 277 339 407
#     4  12  23  43  64  97 139 181 232 281 342 412
#     4  11  23  42  67  91 135 185 222 286 344 400
#
# _framework density 22.142527000000001
#
# number of rings (size 3 to 8) (size 9 to 14) (size 15 to 20)
#    0.000    1.250    2.500    3.000    1.750    1.500 
#    4.500    2.500    0.000    0.000    0.000    0.000 
#    0.000    0.000    0.000    0.000    0.000    0.000 
#
# Total GULP energy -89150.816262 kJ/mol
# GULP energy per Si atom -5571.926016 kJ/mol
# Density = 2.209213 g / cm^3
# Si number density = 22.142527 Si / 1000 Ang^3
#
#
#
# Elastic Constant Matrix: (Units=GPa)
#
#
# Indices 1 2 3 4 5 6 
#
# 1 81.9967 51.2362 37.5235 -19.3871 -25.5840 -28.8740
# 2 51.2362 91.3278 22.2446 -18.6609 -8.1912 -26.5051
# 3 37.5235 22.2446 108.2090 -19.9628 14.9090 -11.0466
# 4 -19.3871 -18.6609 -19.9628 37.8646 2.3317 2.2522
# 5 -25.5840 -8.1912 14.9090 2.3317 51.2578 5.0875
# 6 -28.8740 -26.5051 -11.0466 2.2522 5.0875 41.4379
#
#
#
# Elastic Compliance Matrix: (Units=1/GPa)
#
#
# Indices 1 2 3 4 5 6 
#
# 1 0.033880 -0.010630 -0.009660 0.005285 0.016599 0.011908
# 2 -0.010630 0.018594 0.001714 0.004538 -0.003548 0.005132
# 3 -0.009660 0.001714 0.014054 0.003906 -0.008711 -0.001031
# 4 0.005285 0.004538 0.003906 0.033057 0.000146 0.005812
# 5 0.016599 -0.003548 -0.008711 0.000146 0.029421 0.003354
# 6 0.011908 0.005132 -0.001031 0.005812 0.003354 0.034711
#
#
# Mechanical properties :
#
#
# Convention : Reuss Voigt Hill
#
# Bulk Modulus (GPa) = 34.04019 55.94914 44.99467
# Shear Modulus (GPa) = 23.73473 37.48066 30.60770
#
# Velocity S-wave (km/s) = 3.27755 4.11871 3.72197
# Velocity P-wave (km/s) = 5.45250 6.92394 6.23180
#
# Compressibility (1/GPa) = 0.02937704
#
# Stress axis : x y z
#
# Youngs Moduli (GPa) = 29.51566 53.78038 71.15252
#
# Poissons Ratio (x) = 0.57167 0.68732
# Poissons Ratio (y) = 0.31375 -0.12193
# Poissons Ratio (z) = 0.28511 -0.09216
#
# Static dielectric constant tensor:
#      x y z
#    x 1.895290 -0.034060 -0.019820 
#    y -0.034060 1.647250 0.192340 
#    z -0.019820 0.192340 1.950040 
# 
# From -- ./inp_files/99818.got.cif
#   From: 2010.05.17/outbox.cif.g08.bks.cpg/sg2_50_cif.got.tgz:99818.got - 2010.06.03 11:33:40.
