data_PCOD9019075
_publ_section_title
;
Structure prediction by ZEFSAII (Michael W. Deem and Ramdas Pophale) SiO2 
 PCOD9019075
Probable space group: P -1
;
_chemical_formula_sum "Si O2"
_cell_formula_units_Z 14
_cell_length_a 9.515149
_cell_length_b 5.150909
_cell_length_c 16.184876
_cell_angle_alpha 70.944866
_cell_angle_beta 117.485874
_cell_angle_gamma 107.358693
_cell_volume 654.753414
_symmetry_space_group_name_H-M "P -1"
_symmetry_group_IT_number 2
_symmetry_cell_setting 'triclinic'
loop_
_space_group_symop_operation_xyz
x,y,z
-x,-y,-z
loop_
_atom_site_type_symbol
_atom_site_label
_atom_site_fract_x
_atom_site_fract_y
_atom_site_fract_z
Si Si1 0.370135 0.655377 0.331057
Si Si2 0.839234 0.286137 0.166023
Si Si3 0.628535 0.845112 0.512369
Si Si4 0.624362 0.499282 0.958998
Si Si5 0.511914 0.045491 0.836475
Si Si6 0.969440 0.185605 0.737917
Si Si7 0.051100 0.814882 0.460648
O O1 0.536512 0.695411 0.424688
O O2 0.301961 0.345782 0.381353
O O3 0.435839 0.750148 0.248556
O O4 0.220281 0.813747 0.294993
O O5 0.932102 0.524139 0.228016
O O6 0.676608 0.104669 0.184528
O O7 0.953043 0.077284 0.184264
O O8 0.782560 0.448043 0.054840
O O9 0.500000 0.000000 0.500000
O O10 0.760536 0.095607 0.493754
O O11 0.562965 0.240513 0.909270
O O12 0.614945 0.794571 0.883254
O O13 0.500000 0.500000 0.000000
O O14 0.997493 0.158998 0.650000
O O15 0.000000 0.500000 0.500000
O O16 0.000000 0.000000 0.500000
#
# Coordination Sequence:
#
# PCOD9019075 Si02
#       7
#     2   2   2   2   2   2   2
#     4  11  27  45  67 102 138 187 230 276 345 413
#     4  11  23  43  71  99 136 179 225 285 349 396
#     4  11  25  48  70  91 144 189 224 281 346 402
#     4  10  21  44  68 103 138 174 222 293 344 394
#     4  11  24  42  75 102 132 178 241 275 329 427
#     4  12  25  44  65  99 140 180 218 287 350 399
#     4  12  27  45  68 100 136 175 234 287 334 399
#
# _framework density 21.382093999999999
#
# number of rings (size 3 to 8) (size 9 to 14) (size 15 to 20)
#    0.000    0.857    1.429    6.857    8.000    0.000 
#    0.000    4.286    0.000    0.000    0.000    0.000 
#    0.000    0.000    0.000    0.000    0.000    0.000 
#
# Total GULP energy -78006.287529 kJ/mol
# GULP energy per Si atom -5571.877681 kJ/mol
# Density = 2.133343 g / cm^3
# Si number density = 21.382094 Si / 1000 Ang^3
#
#
#
# Elastic Constant Matrix: (Units=GPa)
#
#
# Indices 1 2 3 4 5 6 
#
# 1 104.5829 49.8573 39.2034 -7.3010 14.3011 -4.7553
# 2 49.8573 140.2284 37.2311 19.8103 5.2463 -5.7219
# 3 39.2034 37.2311 96.8720 5.7027 1.3755 1.9843
# 4 -7.3010 19.8103 5.7027 41.6831 -8.5139 3.9455
# 5 14.3011 5.2463 1.3755 -8.5139 34.8435 -8.0122
# 6 -4.7553 -5.7219 1.9843 3.9455 -8.0122 38.3830
#
#
#
# Elastic Compliance Matrix: (Units=1/GPa)
#
#
# Indices 1 2 3 4 5 6 
#
# 1 0.014041 -0.004332 -0.004216 0.004297 -0.003881 0.000060
# 2 -0.004332 0.010017 -0.001790 -0.005553 -0.000676 0.001479
# 3 -0.004216 -0.001790 0.012807 -0.001348 0.000907 -0.001124
# 4 0.004297 -0.005553 -0.001348 0.028927 0.005733 -0.002002
# 5 -0.003881 -0.000676 0.000907 0.005733 0.033067 0.005685
# 6 0.000060 0.001479 -0.001124 -0.002002 0.005685 0.027732
#
#
# Mechanical properties :
#
#
# Convention : Reuss Voigt Hill
#
# Bulk Modulus (GPa) = 61.77866 66.02964 63.90415
# Shear Modulus (GPa) = 32.75184 37.34136 35.04660
#
# Velocity S-wave (km/s) = 3.91799 4.18351 4.05293
# Velocity P-wave (km/s) = 7.03015 7.36774 7.20092
#
# Compressibility (1/GPa) = 0.01618682
#
# Stress axis : x y z
#
# Youngs Moduli (GPa) = 71.22089 99.83148 78.08307
#
# Poissons Ratio (x) = 0.43247 0.32922
# Poissons Ratio (y) = 0.30853 0.13981
# Poissons Ratio (z) = 0.30029 0.17875
#
# Static dielectric constant tensor:
#      x y z
#    x 1.760580 0.027120 0.028310 
#    y 0.027120 1.833230 -0.067140 
#    z 0.028310 -0.067140 1.754570 
# 
# From -- ./inp_files/135829.got.cif
#   From: 2010.05.17/outbox.cif.g08.bks.cpg/sg2_68_cif.got.tgz:135829.got - 2010.06.03 11:33:40.
