data_PCOD9019699
_publ_section_title
;
Structure prediction by ZEFSAII (Michael W. Deem and Ramdas Pophale) SiO2 
 PCOD9019699
Probable space group: P -1
;
_chemical_formula_sum "Si O2"
_cell_formula_units_Z 16
_cell_length_a 16.138767
_cell_length_b 12.285122
_cell_length_c 9.694014
_cell_angle_alpha 37.652588
_cell_angle_beta 49.538996
_cell_angle_gamma 33.224835
_cell_volume 642.804162
_symmetry_space_group_name_H-M "P -1"
_symmetry_group_IT_number 2
_symmetry_cell_setting 'triclinic'
loop_
_space_group_symop_operation_xyz
x,y,z
-x,-y,-z
loop_
_atom_site_type_symbol
_atom_site_label
_atom_site_fract_x
_atom_site_fract_y
_atom_site_fract_z
Si Si1 0.123298 0.567933 0.144511
Si Si2 0.417620 0.778703 0.767597
Si Si3 0.331848 0.653301 0.729797
Si Si4 0.096492 0.405343 0.837603
Si Si5 0.281432 0.367295 0.428037
Si Si6 0.331267 0.859341 0.089498
Si Si7 0.072649 0.070750 0.442664
Si Si8 0.896082 0.117942 0.826044
O O1 0.215765 0.350784 0.377352
O O2 0.038580 0.537815 0.157399
O O3 0.240499 0.573962 0.942881
O O4 0.979339 0.852241 0.065199
O O5 0.332110 0.804891 0.698126
O O6 0.543380 0.785625 0.590866
O O7 0.347927 0.913323 0.856735
O O8 0.500000 0.500000 0.000000
O O9 0.251359 0.834260 0.503340
O O10 0.504575 0.389446 0.790456
O O11 0.197470 0.400442 0.621441
O O12 0.014060 0.646553 0.779381
O O13 0.228094 0.115503 0.028043
O O14 0.205822 0.649237 0.198758
O O15 0.222637 0.815215 0.226623
O O16 0.020875 0.086949 0.640436
O O17 0.000000 0.000000 0.500000
#
# Coordination Sequence:
#
# PCOD9019699 Si02
#       8
#     2   2   2   2   2   2   2   2
#     4  10  18  32  51  86 120 156 182 216 277 339
#     4  10  17  30  56  86 120 157 186 211 257 344
#     4  10  19  37  62  82 112 159 194 213 269 348
#     4  10  24  35  53  85 119 144 184 248 280 314
#     4  11  17  31  51  85 123 157 185 212 267 332
#     4  10  18  37  56  87 121 149 181 217 274 341
#     4  10  23  44  61  78 104 144 198 250 292 325
#     4   9  18  32  58  78 111 153 192 226 262 337
#
# _framework density 24.890938999999999
#
# number of rings (size 3 to 8) (size 9 to 14) (size 15 to 20)
#    0.000    2.000    5.000    0.750    0.000    6.500 
#    2.250    6.875    0.000    0.000    0.000    0.000 
#    0.000    0.000    0.000    0.000    0.000    0.000 
#
# Total GULP energy -89243.677562 kJ/mol
# GULP energy per Si atom -5577.729848 kJ/mol
# Density = 2.483429 g / cm^3
# Si number density = 24.890939 Si / 1000 Ang^3
#
#
#
# Elastic Constant Matrix: (Units=GPa)
#
#
# Indices 1 2 3 4 5 6 
#
# 1 132.4927 45.6414 44.7982 -21.6164 6.1809 -28.9464
# 2 45.6414 150.0261 28.3131 -21.0822 -3.8904 -17.4243
# 3 44.7982 28.3131 70.9096 -23.6831 16.2272 -6.5923
# 4 -21.6164 -21.0822 -23.6831 50.3149 -1.9119 -9.0139
# 5 6.1809 -3.8904 16.2272 -1.9119 41.5270 -4.9141
# 6 -28.9464 -17.4243 -6.5923 -9.0139 -4.9141 49.4167
#
#
#
# Elastic Compliance Matrix: (Units=1/GPa)
#
#
# Indices 1 2 3 4 5 6 
#
# 1 0.011694 -0.001322 -0.005526 0.003046 0.001183 0.006320
# 2 -0.001322 0.008105 -0.001806 0.002506 0.002074 0.002506
# 3 -0.005526 -0.001806 0.022431 0.007064 -0.007831 -0.000371
# 4 0.003046 0.002506 0.007064 0.027048 -0.000731 0.008471
# 5 0.001183 0.002074 -0.007831 -0.000731 0.027478 0.002979
# 6 0.006320 0.002506 -0.000371 0.008471 0.002979 0.026614
#
#
# Mechanical properties :
#
#
# Convention : Reuss Voigt Hill
#
# Bulk Modulus (GPa) = 40.12274 65.65931 52.89103
# Shear Modulus (GPa) = 33.56050 43.89674 38.72862
#
# Velocity S-wave (km/s) = 3.67591 4.20404 3.94881
# Velocity P-wave (km/s) = 5.84558 7.07116 6.48738
#
# Compressibility (1/GPa) = 0.02492352
#
# Stress axis : x y z
#
# Youngs Moduli (GPa) = 85.51494 123.37353 44.58099
#
# Poissons Ratio (x) = 0.16310 0.24634
# Poissons Ratio (y) = 0.11305 0.08050
# Poissons Ratio (z) = 0.47253 0.22278
#
# Static dielectric constant tensor:
#      x y z
#    x 2.076610 0.090380 -0.005240 
#    y 0.090380 2.091500 -0.010760 
#    z -0.005240 -0.010760 2.145070 
# 
# From -- ./inp_files/203116.got.cif
#   From: 2010.05.17/outbox.cif.g08.bks.cpg/sg2_102_cif.got.tgz:203116.got - 2010.06.03 11:33:40.
