data_PCOD9019470
_publ_section_title
;
Structure prediction by ZEFSAII (Michael W. Deem and Ramdas Pophale) SiO2 
 PCOD9019470
Probable space group: P -1
;
_chemical_formula_sum "Si O2"
_cell_formula_units_Z 14
_cell_length_a 9.848430
_cell_length_b 4.969177
_cell_length_c 13.461148
_cell_angle_alpha 98.310626
_cell_angle_beta 118.691716
_cell_angle_gamma 64.750750
_cell_volume 521.163317
_symmetry_space_group_name_H-M "P -1"
_symmetry_group_IT_number 2
_symmetry_cell_setting 'triclinic'
loop_
_space_group_symop_operation_xyz
x,y,z
-x,-y,-z
loop_
_atom_site_type_symbol
_atom_site_label
_atom_site_fract_x
_atom_site_fract_y
_atom_site_fract_z
Si Si1 0.003072 0.725463 0.097246
Si Si2 0.343128 0.937470 0.898713
Si Si3 0.173473 0.722917 0.537710
Si Si4 0.163400 0.329444 0.329450
Si Si5 0.498646 0.296038 0.396410
Si Si6 0.708000 0.133342 0.765332
Si Si7 0.376987 0.340947 0.774784
O O1 0.079604 0.516197 0.212601
O O2 0.140013 0.849579 0.115253
O O3 0.817000 0.955878 0.078507
O O4 0.000000 0.500000 0.000000
O O5 0.293864 0.154365 0.796407
O O6 0.392276 0.599889 0.861882
O O7 0.500000 0.000000 0.000000
O O8 0.154523 0.510032 0.433178
O O9 0.306788 0.868857 0.566709
O O10 0.251327 0.520297 0.650550
O O11 0.000000 0.000000 0.500000
O O12 0.371049 0.145404 0.366789
O O13 0.152515 0.019411 0.291749
O O14 0.500000 0.500000 0.500000
O O15 0.408050 0.533536 0.293580
O O16 0.563215 0.109913 0.788774
#
# Coordination Sequence:
#
# PCOD9019470 Si02
#       7
#     2   2   2   2   2   2   2
#     4  11  26  47  74 104 142 192 254 312 373 446
#     4  12  28  52  77 111 153 197 251 316 382 448
#     4  10  21  44  72 108 151 198 244 303 377 450
#     4  10  22  43  69 104 141 188 249 309 363 447
#     4   8  18  36  61  94 135 183 234 291 353 428
#     4  10  23  42  73 103 141 191 252 300 376 437
#     4  11  27  48  78 112 155 198 250 308 386 452
#
# _framework density 26.86298
#
# number of rings (size 3 to 8) (size 9 to 14) (size 15 to 20)
#    0.000    1.714    0.000    2.143   10.000    5.714 
#    5.143    1.429    0.000    0.000    0.000    0.000 
#    0.000    0.000    0.000    0.000    0.000    0.000 
#
# Total GULP energy -78136.079624 kJ/mol
# GULP energy per Si atom -5581.148545 kJ/mol
# Density = 2.680184 g / cm^3
# Si number density = 26.862980 Si / 1000 Ang^3
#
#
#
# Elastic Constant Matrix: (Units=GPa)
#
#
# Indices 1 2 3 4 5 6 
#
# 1 16.6510 -4.9834 -49.0146 -66.0150 -84.0883 -74.1917
# 2 -4.9834 130.9804 16.6589 7.3708 -43.2120 -43.9785
# 3 -49.0146 16.6589 98.6039 -31.9247 -64.6654 -50.4688
# 4 -66.0150 7.3708 -31.9247 15.7165 -59.1702 -29.2285
# 5 -84.0883 -43.2120 -64.6654 -59.1702 -36.0091 -41.0179
# 6 -74.1917 -43.9785 -50.4688 -29.2285 -41.0179 47.0743
#
#
#
# Elastic Compliance Matrix: (Units=1/GPa)
#
#
# Indices 1 2 3 4 5 6 
#
# 1 0.007132 -0.001989 -0.001836 -0.001860 -0.007550 -0.000320
# 2 -0.001989 0.009472 -0.001757 -0.004950 0.001857 0.002377
# 3 -0.001836 -0.001757 0.007083 -0.002149 -0.002387 -0.000356
# 4 -0.001860 -0.004950 -0.002149 0.016782 -0.007062 -0.005593
# 5 -0.007550 0.001857 -0.002387 -0.007062 0.011547 -0.007046
# 6 -0.000320 0.002377 -0.000356 -0.005593 -0.007046 0.012966
#
#
# Mechanical properties :
#
#
# Convention : Reuss Voigt Hill
#
# Bulk Modulus (GPa) = 79.84931 19.06191 49.45561
# Shear Modulus (GPa) = 62.25269 24.26129 43.25699
#
# Velocity S-wave (km/s) = 4.81918 3.00851 4.01719
# Velocity P-wave (km/s) = 7.79456 4.37944 6.32197
#
# Compressibility (1/GPa) = 0.01252359
#
# Stress axis : x y z
#
# Youngs Moduli (GPa) = 140.22083 105.57546 141.19264
#
# Poissons Ratio (x) = 0.20995 0.25924
# Poissons Ratio (y) = 0.27884 0.24802
# Poissons Ratio (z) = 0.25745 0.18545
#
# Static dielectric constant tensor:
#      x y z
#    x 2.188440 -0.107990 -0.093630 
#    y -0.107990 1.989920 -0.098220 
#    z -0.093630 -0.098220 2.158180 
# 
# From -- ./inp_files/510508.got.cif
#   From: 2010.05.17/outbox.cif.g08.bks.cpg/sg2_256_cif.got.tgz:510508.got - 2010.06.03 11:33:40.
