data_PCOD9019929
_publ_section_title
;
Structure prediction by ZEFSAII (Michael W. Deem and Ramdas Pophale) SiO2 
 PCOD9019929
Probable space group: P -1
;
_chemical_formula_sum "Si O2"
_cell_formula_units_Z 13
_cell_length_a 6.606306
_cell_length_b 12.432487
_cell_length_c 8.350664
_cell_angle_alpha 99.294110
_cell_angle_beta 63.637629
_cell_angle_gamma 103.185288
_cell_volume 596.908462
_symmetry_space_group_name_H-M "P -1"
_symmetry_group_IT_number 2
_symmetry_cell_setting 'triclinic'
loop_
_space_group_symop_operation_xyz
x,y,z
-x,-y,-z
loop_
_atom_site_type_symbol
_atom_site_label
_atom_site_fract_x
_atom_site_fract_y
_atom_site_fract_z
Si Si1 0.267864 0.429185 0.999501
Si Si2 0.351714 0.319256 0.461673
Si Si3 0.000000 0.000000 0.000000
Si Si4 0.332474 0.940426 0.405381
Si Si5 0.828900 0.881827 0.716297
Si Si6 0.702540 0.802755 0.210119
Si Si7 0.820101 0.480173 0.302213
O O1 0.274822 0.301618 0.932095
O O2 0.227220 0.478868 0.850604
O O3 0.500000 0.500000 0.000000
O O4 0.063635 0.443589 0.194539
O O5 0.300769 0.241234 0.307500
O O6 0.302059 0.241314 0.615957
O O7 0.614635 0.380782 0.391952
O O8 0.201081 0.416317 0.551534
O O9 0.139499 0.084663 0.103389
O O10 0.092459 0.092510 0.850468
O O11 0.464878 0.846290 0.271848
O O12 0.083142 0.893520 0.552496
O O13 0.500000 0.000000 0.500000
O O14 0.305230 0.032103 0.305346
#
# Coordination Sequence:
#
# PCOD9019929 Si02
#       7
#     2   2   1   2   2   2   2
#     4  10  23  43  67 105 137 178 221 294 349 412
#     4  10  21  45  72  98 133 195 225 289 340 421
#     4  12  26  44  62 108 136 178 230 288 350 424
#     4  11  21  45  65  96 130 181 230 286 334 432
#     4  11  24  40  69  95 136 178 232 282 357 406
#     4  11  24  42  67  98 140 175 235 277 349 410
#     4   9  22  44  67 100 142 171 240 280 346 413
#
# _framework density 21.778884000000001
#
# number of rings (size 3 to 8) (size 9 to 14) (size 15 to 20)
#    0.000    1.538    3.077    0.923    4.308    3.077 
#    2.769    2.308    0.000    0.000    0.000    0.000 
#    0.000    0.000    0.000    0.000    0.000    0.000 
#
# Total GULP energy -72480.336076 kJ/mol
# GULP energy per Si atom -5575.410467 kJ/mol
# Density = 2.172931 g / cm^3
# Si number density = 21.778884 Si / 1000 Ang^3
#
#
#
# Elastic Constant Matrix: (Units=GPa)
#
#
# Indices 1 2 3 4 5 6 
#
# 1 81.8402 57.0398 44.1139 30.1128 -6.8409 -5.7471
# 2 57.0398 135.6393 46.3255 -0.6476 -6.6575 12.6542
# 3 44.1139 46.3255 79.3021 8.5105 3.1852 -3.5934
# 4 30.1128 -0.6476 8.5105 42.9315 3.6901 -3.4726
# 5 -6.8409 -6.6575 3.1852 3.6901 39.2844 9.3085
# 6 -5.7471 12.6542 -3.5934 -3.4726 9.3085 20.3803
#
#
#
# Elastic Compliance Matrix: (Units=1/GPa)
#
#
# Indices 1 2 3 4 5 6 
#
# 1 0.035778 -0.012489 -0.009880 -0.022914 0.004684 0.010058
# 2 -0.012489 0.015357 -0.003669 0.008332 0.003199 -0.013745
# 3 -0.009880 -0.003669 0.020362 0.003863 -0.005879 0.006425
# 4 -0.022914 0.008332 0.003863 0.039144 -0.006227 -0.001440
# 5 0.004684 0.003199 -0.005879 -0.006227 0.031992 -0.017375
# 6 0.010058 -0.013745 0.006425 -0.001440 -0.017375 0.069261
#
#
# Mechanical properties :
#
#
# Convention : Reuss Voigt Hill
#
# Bulk Modulus (GPa) = 51.49221 65.74889 58.62055
# Shear Modulus (GPa) = 18.48819 30.47274 24.48046
#
# Velocity S-wave (km/s) = 2.91676 3.74463 3.35632
# Velocity P-wave (km/s) = 5.91927 6.99651 6.48031
#
# Compressibility (1/GPa) = 0.01942041
#
# Stress axis : x y z
#
# Youngs Moduli (GPa) = 27.95034 65.11834 49.11083
#
# Poissons Ratio (x) = 0.81325 0.48522
# Poissons Ratio (y) = 0.34907 0.18019
# Poissons Ratio (z) = 0.27615 0.23892
#
# Static dielectric constant tensor:
#      x y z
#    x 1.765270 -0.015930 -0.021200 
#    y -0.015930 1.780720 -0.003930 
#    z -0.021200 -0.003930 1.816490 
# 
# From -- ./inp_files/24325.got.cif
#   From: 2010.05.17/outbox.cif.g08.bks.cpg/sg2_13_cif.got.tgz:24325.got - 2010.06.03 11:33:40.
