data_PCOD9019362
_publ_section_title
;
Structure prediction by ZEFSAII (Michael W. Deem and Ramdas Pophale) SiO2 
 PCOD9019362
Probable space group: P -1
;
_chemical_formula_sum "Si O2"
_cell_formula_units_Z 15
_cell_length_a 24.261519
_cell_length_b 18.398015
_cell_length_c 9.793838
_cell_angle_alpha 29.263820
_cell_angle_beta 40.920107
_cell_angle_gamma 19.850319
_cell_volume 667.840950
_symmetry_space_group_name_H-M "P -1"
_symmetry_group_IT_number 2
_symmetry_cell_setting 'triclinic'
loop_
_space_group_symop_operation_xyz
x,y,z
-x,-y,-z
loop_
_atom_site_type_symbol
_atom_site_label
_atom_site_fract_x
_atom_site_fract_y
_atom_site_fract_z
Si Si1 0.743455 0.222047 0.810584
Si Si2 0.139625 0.368540 0.046260
Si Si3 0.000000 0.000000 0.500000
Si Si4 0.521295 0.842845 0.602054
Si Si5 0.685777 0.399150 0.237717
Si Si6 0.344200 0.314275 0.685619
Si Si7 0.834131 0.768441 0.470955
Si Si8 0.412779 0.758104 0.377577
O O1 0.900693 0.025190 0.738420
O O2 0.686075 0.465002 0.590953
O O3 0.577078 0.432534 0.684762
O O4 0.788014 0.015276 0.162319
O O5 0.120293 0.366059 0.245413
O O6 0.319050 0.017392 0.227592
O O7 0.166540 0.502113 0.752453
O O8 0.000000 0.500000 0.000000
O O9 0.835898 0.245459 0.294593
O O10 0.604731 0.781071 0.410619
O O11 0.500000 0.000000 0.500000
O O12 0.335471 0.056363 0.557416
O O13 0.651852 0.520632 0.954423
O O14 0.503120 0.693872 0.183306
O O15 0.715072 0.176600 0.533926
O O16 0.500000 0.000000 0.000000
O O17 0.000000 0.500000 0.500000
#
# Coordination Sequence:
#
# PCOD9019362 Si02
#       8
#     2   2   1   2   2   2   2   2
#     4  11  25  46  77 105 149 195 252 306 375 444
#     4  12  29  47  75 108 153 195 248 314 378 448
#     4  10  26  42  70 106 152 190 248 308 374 434
#     4  12  27  46  77 104 153 193 253 306 375 447
#     4  10  23  41  71 105 142 196 245 303 365 450
#     4  12  26  49  76 110 146 200 253 306 380 444
#     4  12  30  49  75 112 153 197 254 315 378 437
#     4  10  21  44  71 103 141 191 250 294 373 447
#
# _framework density 22.460436999999999
#
# number of rings (size 3 to 8) (size 9 to 14) (size 15 to 20)
#    0.000    0.800    4.000    0.800   13.067    1.067 
#    0.000    1.333    0.000    0.000    0.000    0.000 
#    0.000    0.000    0.000    0.000    0.000    0.000 
#
# Total GULP energy -83677.534627 kJ/mol
# GULP energy per Si atom -5578.502308 kJ/mol
# Density = 2.240932 g / cm^3
# Si number density = 22.460437 Si / 1000 Ang^3
#
#
#
# Elastic Constant Matrix: (Units=GPa)
#
#
# Indices 1 2 3 4 5 6 
#
# 1 140.5359 46.1836 63.9251 11.5759 11.0499 -14.2173
# 2 46.1836 75.6423 39.0815 22.6698 10.0878 -7.9944
# 3 63.9251 39.0815 109.9035 24.7190 10.1214 4.5576
# 4 11.5759 22.6698 24.7190 30.1811 11.4177 7.5457
# 5 11.0499 10.0878 10.1214 11.4177 47.5110 -1.5517
# 6 -14.2173 -7.9944 4.5576 7.5457 -1.5517 55.2805
#
#
#
# Elastic Compliance Matrix: (Units=1/GPa)
#
#
# Indices 1 2 3 4 5 6 
#
# 1 0.011248 -0.004665 -0.005714 0.003810 -0.001254 0.002134
# 2 -0.004665 0.021694 -0.002062 -0.013978 0.000409 0.004027
# 3 -0.005714 -0.002062 0.015057 -0.008315 0.000496 -0.001860
# 4 0.003810 -0.013978 -0.008315 0.054607 -0.009534 -0.008078
# 5 -0.001254 0.000409 0.000496 -0.009534 0.023492 0.001656
# 6 0.002134 0.004027 -0.001860 -0.008078 0.001656 0.020523
#
#
# Mechanical properties :
#
#
# Convention : Reuss Voigt Hill
#
# Bulk Modulus (GPa) = 43.25509 69.38468 56.31989
# Shear Modulus (GPa) = 27.90053 38.38727 33.14390
#
# Velocity S-wave (km/s) = 3.52832 4.13862 3.84560
# Velocity P-wave (km/s) = 5.99157 7.33461 6.69684
#
# Compressibility (1/GPa) = 0.02311867
#
# Stress axis : x y z
#
# Youngs Moduli (GPa) = 88.90327 46.09627 66.41469
#
# Poissons Ratio (x) = 0.21502 0.37947
# Poissons Ratio (y) = 0.41470 0.13693
# Poissons Ratio (z) = 0.50797 0.09504
#
# Static dielectric constant tensor:
#      x y z
#    x 1.865900 0.000480 -0.046770 
#    y 0.000480 1.857620 -0.043110 
#    z -0.046770 -0.043110 1.879860 
# 
# From -- ./inp_files/354987.got.cif
#   From: 2010.05.17/outbox.cif.g08.bks.cpg/sg2_178_cif.got.tgz:354987.got - 2010.06.03 11:33:40.
