data_PCOD9019142
_publ_section_title
;
Structure prediction by ZEFSAII (Michael W. Deem and Ramdas Pophale) SiO2 
 PCOD9019142
Probable space group: P -1
;
_chemical_formula_sum "Si O2"
_cell_formula_units_Z 10
_cell_length_a 9.964458
_cell_length_b 10.419369
_cell_length_c 9.595724
_cell_angle_alpha 119.747018
_cell_angle_beta 139.963344
_cell_angle_gamma 40.258671
_cell_volume 404.747362
_symmetry_space_group_name_H-M "P -1"
_symmetry_group_IT_number 2
_symmetry_cell_setting 'triclinic'
loop_
_space_group_symop_operation_xyz
x,y,z
-x,-y,-z
loop_
_atom_site_type_symbol
_atom_site_label
_atom_site_fract_x
_atom_site_fract_y
_atom_site_fract_z
Si Si1 0.657606 0.073149 0.612924
Si Si2 0.745796 0.281815 0.014599
Si Si3 0.873894 0.476954 0.029234
Si Si4 0.362127 0.721988 0.561405
Si Si5 0.830767 0.795825 0.159897
O O1 0.574663 0.187287 0.459753
O O2 0.500000 0.000000 0.500000
O O3 0.625892 0.207546 0.785065
O O4 0.003540 0.889856 0.775852
O O5 0.500000 0.500000 0.000000
O O6 0.906705 0.318169 0.062445
O O7 0.544250 0.656113 0.810377
O O8 0.063586 0.332310 0.969379
O O9 0.913615 0.610945 0.218374
O O10 0.500000 0.500000 0.500000
O O11 0.029654 0.838411 0.373999
O O12 0.500000 0.000000 0.000000
#
# Coordination Sequence:
#
# PCOD9019142 Si02
#       5
#     2   2   2   2   2
#     4  11  26  45  72  99 141 184 229 286 346 403
#     4  11  26  46  69  99 145 183 226 282 351 412
#     4  10  23  42  68  96 137 173 226 289 332 400
#     4  10  21  44  68  98 135 174 228 287 331 398
#     4  10  22  38  69  99 129 172 227 278 344 392
#
# _framework density 24.706769000000001
#
# number of rings (size 3 to 8) (size 9 to 14) (size 15 to 20)
#    0.000    1.600    4.000    0.000   11.200    1.600 
#    0.000    0.000    0.000    0.000    0.000    0.000 
#    0.000    0.000    0.000    0.000    0.000    0.000 
#
# Total GULP energy -55812.156476 kJ/mol
# GULP energy per Si atom -5581.215648 kJ/mol
# Density = 2.465054 g / cm^3
# Si number density = 24.706769 Si / 1000 Ang^3
#
#
#
# Elastic Constant Matrix: (Units=GPa)
#
#
# Indices 1 2 3 4 5 6 
#
# 1 35.7831 23.5370 25.5209 -0.2561 9.4879 13.0785
# 2 23.5370 146.5664 45.5817 15.5552 6.9421 -3.0986
# 3 25.5209 45.5817 134.7957 -9.7893 15.9764 2.6872
# 4 -0.2561 15.5552 -9.7893 54.4225 11.1226 17.6917
# 5 9.4879 6.9421 15.9764 11.1226 33.8741 -10.2991
# 6 13.0785 -3.0986 2.6872 17.6917 -10.2991 57.0211
#
#
#
# Elastic Compliance Matrix: (Units=1/GPa)
#
#
# Indices 1 2 3 4 5 6 
#
# 1 0.046692 -0.007315 -0.002831 0.011707 -0.019605 -0.018147
# 2 -0.007315 0.009402 -0.002913 -0.005906 0.004973 0.005057
# 3 -0.002831 -0.002913 0.009968 0.004512 -0.005515 -0.002375
# 4 0.011707 -0.005906 0.004512 0.029964 -0.018877 -0.015925
# 5 -0.019605 0.004973 -0.005515 -0.018877 0.048781 0.019695
# 6 -0.018147 0.005057 -0.002375 -0.015925 0.019695 0.030585
#
#
# Mechanical properties :
#
#
# Convention : Reuss Voigt Hill
#
# Bulk Modulus (GPa) = 25.03578 56.26940 40.65259
# Shear Modulus (GPa) = 23.27477 43.89725 33.58601
#
# Velocity S-wave (km/s) = 3.07260 4.21970 3.69098
# Velocity P-wave (km/s) = 4.76896 6.82389 5.88678
#
# Compressibility (1/GPa) = 0.03994284
#
# Stress axis : x y z
#
# Youngs Moduli (GPa) = 21.41711 106.36243 100.31742
#
# Poissons Ratio (x) = 0.77808 0.28397
# Poissons Ratio (y) = 0.15667 0.29226
# Poissons Ratio (z) = 0.06063 0.30987
#
# Static dielectric constant tensor:
#      x y z
#    x 0.152630 0.236740 -0.778040 
#    y 0.236740 2.353910 -0.040310 
#    z -0.778040 -0.040310 1.689440 
# 
# From -- ./inp_files/374893.got.cif
#   From: 2010.05.17/outbox.cif.g08.bks.cpg/sg2_188_cif.got.tgz:374893.got - 2010.06.03 11:33:40.
