data_PCOD9019837
_publ_section_title
;
Structure prediction by ZEFSAII (Michael W. Deem and Ramdas Pophale) SiO2 
 PCOD9019837
Probable space group: P -1
;
_chemical_formula_sum "Si O2"
_cell_formula_units_Z 14
_cell_length_a 8.243750
_cell_length_b 13.053127
_cell_length_c 7.757344
_cell_angle_alpha 105.740420
_cell_angle_beta 128.231679
_cell_angle_gamma 83.327700
_cell_volume 629.637420
_symmetry_space_group_name_H-M "P -1"
_symmetry_group_IT_number 2
_symmetry_cell_setting 'triclinic'
loop_
_space_group_symop_operation_xyz
x,y,z
-x,-y,-z
loop_
_atom_site_type_symbol
_atom_site_label
_atom_site_fract_x
_atom_site_fract_y
_atom_site_fract_z
Si Si1 0.569098 0.729299 0.137748
Si Si2 0.353389 0.894435 0.886392
Si Si3 0.983484 0.610006 0.324046
Si Si4 0.119268 0.627603 0.819712
Si Si5 0.967561 0.144324 0.036749
Si Si6 0.795244 0.189624 0.588230
Si Si7 0.608478 0.890084 0.548235
O O1 0.758051 0.656899 0.203682
O O2 0.632342 0.822637 0.359283
O O3 0.497308 0.794735 0.954518
O O4 0.361953 0.659503 0.027849
O O5 0.196398 0.872186 0.615004
O O6 0.220225 0.890627 0.972713
O O7 0.500000 0.000000 0.000000
O O8 0.958299 0.485692 0.205340
O O9 0.082073 0.619552 0.585276
O O10 0.118581 0.689471 0.326457
O O11 0.000994 0.727876 0.852497
O O12 0.172790 0.093152 0.207593
O O13 0.087434 0.865219 0.204389
O O14 0.555528 0.180621 0.478259
O O15 0.500000 0.000000 0.500000
#
# Coordination Sequence:
#
# PCOD9019837 Si02
#       7
#     2   2   2   2   2   2   2
#     4  11  21  46  68 100 140 176 226 287 336 404
#     4  11  24  46  71 100 138 182 231 280 339 406
#     4  11  23  41  75  97 135 184 224 282 349 402
#     4  10  21  45  69  99 135 181 227 278 348 406
#     4  11  25  48  70  98 143 180 225 287 337 406
#     4  12  25  44  70 104 136 177 236 277 339 413
#     4  12  26  45  69 100 142 184 224 283 342 401
#
# _framework density 22.235019000000001
#
# number of rings (size 3 to 8) (size 9 to 14) (size 15 to 20)
#    0.000    0.857    7.143    1.286    2.000    2.286 
#    0.000    3.571    0.000    0.000    0.000    0.000 
#    0.000    0.000    0.000    0.000    0.000    0.000 
#
# Total GULP energy -78347.582269 kJ/mol
# GULP energy per Si atom -5596.255876 kJ/mol
# Density = 2.218441 g / cm^3
# Si number density = 22.235019 Si / 1000 Ang^3
#
#
#
# Elastic Constant Matrix: (Units=GPa)
#
#
# Indices 1 2 3 4 5 6 
#
# 1 56.4353 54.4532 29.8528 -16.5668 9.7409 16.5826
# 2 54.4532 167.5583 44.2511 6.9389 3.7652 19.2453
# 3 29.8528 44.2511 136.3703 -9.6394 -10.4494 12.4382
# 4 -16.5668 6.9389 -9.6394 32.9311 -2.6848 0.6872
# 5 9.7409 3.7652 -10.4494 -2.6848 40.3995 0.9345
# 6 16.5826 19.2453 12.4382 0.6872 0.9345 45.1970
#
#
#
# Elastic Compliance Matrix: (Units=1/GPa)
#
#
# Indices 1 2 3 4 5 6 
#
# 1 0.042449 -0.012561 -0.003391 0.022536 -0.008225 -0.009465
# 2 -0.012561 0.010677 -0.001307 -0.008873 0.001093 0.000534
# 3 -0.003391 -0.001307 0.008930 0.001473 0.003364 -0.000749
# 4 0.022536 -0.008873 0.001473 0.044025 -0.001172 -0.005541
# 5 -0.008225 0.001093 0.003364 -0.001172 0.027401 0.001077
# 6 -0.009465 0.000534 -0.000749 -0.005541 0.001077 0.025639
#
#
# Mechanical properties :
#
#
# Convention : Reuss Voigt Hill
#
# Bulk Modulus (GPa) = 36.31273 68.60868 52.46070
# Shear Modulus (GPa) = 24.65274 39.15932 31.90603
#
# Velocity S-wave (km/s) = 3.33338 4.20116 3.79218
# Velocity P-wave (km/s) = 5.58408 7.37944 6.54363
#
# Compressibility (1/GPa) = 0.02753855
#
# Stress axis : x y z
#
# Youngs Moduli (GPa) = 23.55755 93.66058 111.98795
#
# Poissons Ratio (x) = 1.17647 0.37970
# Poissons Ratio (y) = 0.29591 0.14637
# Poissons Ratio (z) = 0.07987 0.12241
#
# Static dielectric constant tensor:
#      x y z
#    x 1.814150 0.012560 -0.031490 
#    y 0.012560 1.819060 0.022610 
#    z -0.031490 0.022610 1.873130 
# 
# From -- ./inp_files/188847.got.cif
#   From: 2010.05.17/outbox.cif.g08.bks.cpg/sg2_95_cif.got.tgz:188847.got - 2010.06.03 11:33:40.
