data_PCOD9019779
_publ_section_title
;
Structure prediction by ZEFSAII (Michael W. Deem and Ramdas Pophale) SiO2 
 PCOD9019779
Probable space group: P -1
;
_chemical_formula_sum "Si O2"
_cell_formula_units_Z 14
_cell_length_a 23.263803
_cell_length_b 11.737425
_cell_length_c 8.463684
_cell_angle_alpha 148.907969
_cell_angle_beta 141.680987
_cell_angle_gamma 29.556526
_cell_volume 581.535261
_symmetry_space_group_name_H-M "P -1"
_symmetry_group_IT_number 2
_symmetry_cell_setting 'triclinic'
loop_
_space_group_symop_operation_xyz
x,y,z
-x,-y,-z
loop_
_atom_site_type_symbol
_atom_site_label
_atom_site_fract_x
_atom_site_fract_y
_atom_site_fract_z
Si Si1 0.326383 0.263446 0.573961
Si Si2 0.681709 0.156617 0.153873
Si Si3 0.176600 0.722964 0.569899
Si Si4 0.984378 0.277499 0.995455
Si Si5 0.333713 0.035633 0.767520
Si Si6 0.527379 0.768966 0.610052
Si Si7 0.128748 0.466850 0.633425
O O1 0.295382 0.486363 0.639000
O O2 0.222083 0.441945 0.689050
O O3 0.451383 0.056466 0.684718
O O4 0.317208 0.042990 0.204353
O O5 0.795420 0.135744 0.333002
O O6 0.571470 0.483587 0.285543
O O7 0.675017 0.080279 0.226744
O O8 0.119659 0.598623 0.209902
O O9 0.083320 0.962881 0.775207
O O10 0.938259 0.297211 0.096387
O O11 0.039389 0.440950 0.316231
O O12 0.214750 0.183305 0.587188
O O13 0.443684 0.819580 0.634374
O O14 0.359548 0.257339 0.120610
#
# Coordination Sequence:
#
# PCOD9019779 Si02
#       7
#     2   2   2   2   2   2   2
#     4  11  24  41  66  97 133 166 217 271 318 387
#     4  12  22  41  65  97 131 177 207 270 319 392
#     4  11  25  44  65  99 131 170 219 267 324 385
#     4  10  22  46  66  93 131 171 223 265 323 382
#     4  10  23  44  66  96 131 170 214 269 318 390
#     4  10  23  43  67  95 130 171 218 261 324 384
#     4  10  21  45  68  96 129 169 220 270 319 382
#
# _framework density 24.074204999999999
#
# number of rings (size 3 to 8) (size 9 to 14) (size 15 to 20)
#    0.000    1.429    1.429    3.429    0.000    4.571 
#   20.571    0.000    0.000    0.000    0.000    0.000 
#    0.000    0.000    0.000    0.000    0.000    0.000 
#
# Total GULP energy -78300.899168 kJ/mol
# GULP energy per Si atom -5592.921369 kJ/mol
# Density = 2.401941 g / cm^3
# Si number density = 24.074205 Si / 1000 Ang^3
#
#
#
# Elastic Constant Matrix: (Units=GPa)
#
#
# Indices 1 2 3 4 5 6 
#
# 1 127.9140 53.7553 40.9608 4.4862 -12.9689 -1.7289
# 2 53.7553 63.8866 13.2982 1.2602 -7.4748 -0.0910
# 3 40.9608 13.2982 70.8281 0.0081 -28.4348 -9.6893
# 4 4.4862 1.2602 0.0081 30.6234 -4.2813 -8.1825
# 5 -12.9689 -7.4748 -28.4348 -4.2813 24.0538 3.2429
# 6 -1.7289 -0.0910 -9.6893 -8.1825 3.2429 31.6457
#
#
#
# Elastic Compliance Matrix: (Units=1/GPa)
#
#
# Indices 1 2 3 4 5 6 
#
# 1 0.015154 -0.011492 -0.009892 -0.003407 -0.007383 -0.002358
# 2 -0.011492 0.025133 0.005287 0.001981 0.008117 0.000744
# 3 -0.009892 0.005287 0.035644 0.008989 0.038869 0.008730
# 4 -0.003407 0.001981 0.008989 0.038038 0.014705 0.010900
# 5 -0.007383 0.008117 0.038869 0.014705 0.087828 0.006323
# 6 -0.002358 0.000744 0.008730 0.010900 0.006323 0.036316
#
#
# Mechanical properties :
#
#
# Convention : Reuss Voigt Hill
#
# Bulk Modulus (GPa) = 22.86375 53.18413 38.02394
# Shear Modulus (GPa) = 17.55082 27.57222 22.56152
#
# Velocity S-wave (km/s) = 2.70298 3.38790 3.06464
# Velocity P-wave (km/s) = 4.38854 6.11911 5.32461
#
# Compressibility (1/GPa) = 0.04373736
#
# Stress axis : x y z
#
# Youngs Moduli (GPa) = 65.99002 39.78820 28.05488
#
# Poissons Ratio (x) = 0.45723 0.27753
# Poissons Ratio (y) = 0.75833 -0.14832
# Poissons Ratio (z) = 0.65280 -0.21036
#
# Static dielectric constant tensor:
#      x y z
#    x 1.912480 -0.011900 -0.050440 
#    y -0.011900 1.928210 -0.009700 
#    z -0.050440 -0.009700 1.892080 
# 
# From -- ./inp_files/138764.got.cif
#   From: 2010.05.17/outbox.cif.g08.bks.cpg/sg2_70_cif.got.tgz:138764.got - 2010.06.03 11:33:40.
