data_PCOD9019606
_publ_section_title
;
Structure prediction by ZEFSAII (Michael W. Deem and Ramdas Pophale) SiO2 
 PCOD9019606
Probable space group: P -1
;
_chemical_formula_sum "Si O2"
_cell_formula_units_Z 12
_cell_length_a 8.718985
_cell_length_b 8.862638
_cell_length_c 12.396553
_cell_angle_alpha 74.579276
_cell_angle_beta 145.441443
_cell_angle_gamma 120.845435
_cell_volume 441.826298
_symmetry_space_group_name_H-M "P -1"
_symmetry_group_IT_number 2
_symmetry_cell_setting 'triclinic'
loop_
_space_group_symop_operation_xyz
x,y,z
-x,-y,-z
loop_
_atom_site_type_symbol
_atom_site_label
_atom_site_fract_x
_atom_site_fract_y
_atom_site_fract_z
Si Si1 0.864578 0.991542 0.804361
Si Si2 0.139904 0.554957 0.951874
Si Si3 0.233644 0.694032 0.387820
Si Si4 0.642966 0.459528 0.251923
Si Si5 0.915540 0.225495 0.416835
Si Si6 0.202848 0.059535 0.766987
O O1 0.747986 0.134921 0.698330
O O2 0.122701 0.043056 0.848984
O O3 0.566027 0.793288 0.626936
O O4 0.000000 0.000000 0.000000
O O5 0.318658 0.447293 0.044960
O O6 0.434346 0.768512 0.076633
O O7 0.852438 0.469197 0.715762
O O8 0.000000 0.500000 0.000000
O O9 0.924056 0.603104 0.305334
O O10 0.233656 0.427471 0.585325
O O11 0.653119 0.277205 0.277675
O O12 0.959479 0.099275 0.552705
O O13 0.858525 0.124999 0.290159
#
# Coordination Sequence:
#
# PCOD9019606 Si02
#       6
#     2   2   2   2   2   2
#     4  11  26  48  80 119 159 218 278 328 411 489
#     4  11  25  45  78 117 161 213 269 335 408 481
#     4  11  25  49  76 114 166 211 271 339 403 487
#     4  10  21  44  77 118 160 211 266 332 413 482
#     4   9  20  40  82 114 152 220 265 331 423 470
#     4  10  22  46  77 116 169 206 273 341 400 485
#
# _framework density 27.159994999999999
#
# number of rings (size 3 to 8) (size 9 to 14) (size 15 to 20)
#    0.000    1.667    3.333    0.500    7.000    4.000 
#    3.000    2.500    0.000    0.000    0.000    0.000 
#    0.000    0.000    0.000    0.000    0.000    0.000 
#
# Total GULP energy -67191.289581 kJ/mol
# GULP energy per Si atom -5599.274132 kJ/mol
# Density = 2.709818 g / cm^3
# Si number density = 27.159995 Si / 1000 Ang^3
#
#
#
# Elastic Constant Matrix: (Units=GPa)
#
#
# Indices 1 2 3 4 5 6 
#
# 1 133.2142 65.2058 73.2914 19.8935 -35.3347 23.3458
# 2 65.2058 164.5955 75.7091 28.0122 -9.6419 -8.0461
# 3 73.2914 75.7091 201.0722 25.8053 -37.0084 5.0197
# 4 19.8935 28.0122 25.8053 67.6500 -11.2644 9.2126
# 5 -35.3347 -9.6419 -37.0084 -11.2644 55.5631 4.9989
# 6 23.3458 -8.0461 5.0197 9.2126 4.9989 64.0577
#
#
#
# Elastic Compliance Matrix: (Units=1/GPa)
#
#
# Indices 1 2 3 4 5 6 
#
# 1 0.013660 -0.004532 -0.001849 0.000613 0.007338 -0.006063
# 2 -0.004532 0.009361 -0.002284 -0.002788 -0.003676 0.003694
# 3 -0.001849 -0.002284 0.007173 -0.000688 0.003094 -0.000317
# 4 0.000613 -0.002788 -0.000688 0.016985 0.003180 -0.003210
# 5 0.007338 -0.003676 0.003094 0.003180 0.025255 -0.005807
# 6 -0.006063 0.003694 -0.000317 -0.003210 -0.005807 0.019224
#
#
# Mechanical properties :
#
#
# Convention : Reuss Voigt Hill
#
# Bulk Modulus (GPa) = 77.73525 103.03271 90.38398
# Shear Modulus (GPa) = 44.13984 56.43251 50.28618
#
# Velocity S-wave (km/s) = 4.03572 4.56321 4.30755
# Velocity P-wave (km/s) = 7.09926 8.11059 7.62172
#
# Compressibility (1/GPa) = 0.01286418
#
# Stress axis : x y z
#
# Youngs Moduli (GPa) = 73.20655 106.82717 139.40780
#
# Poissons Ratio (x) = 0.48410 0.25782
# Poissons Ratio (y) = 0.33174 0.31840
# Poissons Ratio (z) = 0.13539 0.24399
#
# Static dielectric constant tensor:
#      x y z
#    x 2.108070 0.030640 -0.005020 
#    y 0.030640 2.192630 -0.092530 
#    z -0.005020 -0.092530 2.278320 
# 
# From -- ./inp_files/373911.got.cif
#   From: 2010.05.17/outbox.cif.g08.bks.cpg/sg2_187_cif.got.tgz:373911.got - 2010.06.03 11:33:40.
