data_PCOD9019405
_publ_section_title
;
Structure prediction by ZEFSAII (Michael W. Deem and Ramdas Pophale) SiO2 
 PCOD9019405
Probable space group: P -1
;
_chemical_formula_sum "Si O2"
_cell_formula_units_Z 16
_cell_length_a 8.899676
_cell_length_b 19.002002
_cell_length_c 5.401342
_cell_angle_alpha 120.772742
_cell_angle_beta 96.162885
_cell_angle_gamma 62.274213
_cell_volume 684.380815
_symmetry_space_group_name_H-M "P -1"
_symmetry_group_IT_number 2
_symmetry_cell_setting 'triclinic'
loop_
_space_group_symop_operation_xyz
x,y,z
-x,-y,-z
loop_
_atom_site_type_symbol
_atom_site_label
_atom_site_fract_x
_atom_site_fract_y
_atom_site_fract_z
Si Si1 0.169676 0.442569 0.656523
Si Si2 0.932282 0.258126 0.751308
Si Si3 0.613236 0.019906 0.254886
Si Si4 0.446315 0.274900 0.131439
Si Si5 0.080250 0.613353 0.634651
Si Si6 0.285544 0.151496 0.752503
Si Si7 0.684038 0.462469 0.843187
Si Si8 0.336724 0.808037 0.485479
O O1 0.315195 0.380888 0.372170
O O2 0.063407 0.548295 0.725658
O O3 0.052271 0.393515 0.594764
O O4 0.258956 0.460084 0.939292
O O5 0.808775 0.357809 0.783276
O O6 0.836668 0.197812 0.597627
O O7 0.133068 0.201252 0.615804
O O8 0.951351 0.289005 0.090135
O O9 0.469027 0.085136 0.542767
O O10 0.691011 0.086829 0.312148
O O11 0.745491 0.920305 0.214039
O O12 0.500000 0.000000 0.000000
O O13 0.577539 0.238402 0.320587
O O14 0.325387 0.225533 0.031660
O O15 0.541390 0.247874 0.832118
O O16 0.276348 0.560033 0.477985
O O17 0.500000 0.500000 0.000000
#
# Coordination Sequence:
#
# PCOD9019405 Si02
#       8
#     2   2   2   2   2   2   2   2
#     4  10  22  39  63  91 127 176 232 280 341 388
#     4  11  25  42  62 102 134 180 228 283 342 402
#     4  10  21  44  71  98 131 175 222 279 351 418
#     4  11  23  43  69 100 133 184 229 284 339 421
#     4  10  23  41  60  91 133 174 231 285 335 400
#     4  10  22  43  70  98 135 171 229 282 342 417
#     4  11  25  40  62  93 139 185 229 284 346 403
#     4  11  26  42  69 101 139 176 228 278 354 411
#
# _framework density 23.378798
#
# number of rings (size 3 to 8) (size 9 to 14) (size 15 to 20)
#    0.000    1.500    2.500    1.125    7.000    4.500 
#    0.000    0.625    0.000    0.000    0.000    0.000 
#    0.000    0.000    0.000    0.000    0.000    0.000 
#
# Total GULP energy -89217.972741 kJ/mol
# GULP energy per Si atom -5576.123296 kJ/mol
# Density = 2.332559 g / cm^3
# Si number density = 23.378798 Si / 1000 Ang^3
#
#
#
# Elastic Constant Matrix: (Units=GPa)
#
#
# Indices 1 2 3 4 5 6 
#
# 1 96.8333 17.4830 7.1849 -2.1679 31.9396 -4.2104
# 2 17.4830 86.7767 4.8522 13.6357 10.6375 -7.7917
# 3 7.1849 4.8522 69.6928 -0.1334 23.5167 11.5761
# 4 -2.1679 13.6357 -0.1334 30.7272 7.4124 3.1947
# 5 31.9396 10.6375 23.5167 7.4124 45.6469 6.5154
# 6 -4.2104 -7.7917 11.5761 3.1947 6.5154 23.0533
#
#
#
# Elastic Compliance Matrix: (Units=1/GPa)
#
#
# Indices 1 2 3 4 5 6 
#
# 1 0.014851 -0.001965 0.002131 0.004500 -0.012310 0.003833
# 2 -0.001965 0.013712 -0.001509 -0.006671 -0.000844 0.006197
# 3 0.002131 -0.001509 0.019021 0.004212 -0.010586 -0.007264
# 4 0.004500 -0.006671 0.004212 0.038705 -0.009146 -0.006326
# 5 -0.012310 -0.000844 -0.010586 -0.009146 0.038636 -0.006870
# 6 0.003833 0.006197 -0.007264 -0.006326 -0.006870 0.052638
#
#
# Mechanical properties :
#
#
# Convention : Reuss Voigt Hill
#
# Bulk Modulus (GPa) = 22.27288 34.70478 28.48883
# Shear Modulus (GPa) = 25.61267 34.80432 30.20850
#
# Velocity S-wave (km/s) = 3.31350 3.86257 3.59852
# Velocity P-wave (km/s) = 4.91800 5.89656 5.42937
#
# Compressibility (1/GPa) = 0.04489765
#
# Stress axis : x y z
#
# Youngs Moduli (GPa) = 67.33412 72.92737 52.57444
#
# Poissons Ratio (x) = 0.14332 -0.11205
# Poissons Ratio (y) = 0.13233 0.07935
# Poissons Ratio (z) = -0.14351 0.11007
#
# Static dielectric constant tensor:
#      x y z
#    x 1.949600 -0.025550 -0.013480 
#    y -0.025550 2.047390 -0.052160 
#    z -0.013480 -0.052160 2.011500 
# 
# From -- ./inp_files/46294.got.cif
#   From: 2010.05.17/outbox.cif.g08.bks.cpg/sg2_24_cif.got.tgz:46294.got - 2010.06.03 11:33:40.
