data_PCOD9019647
_publ_section_title
;
Structure prediction by ZEFSAII (Michael W. Deem and Ramdas Pophale) SiO2 
 PCOD9019647
Probable space group: P -1
;
_chemical_formula_sum "Si O2"
_cell_formula_units_Z 16
_cell_length_a 7.908241
_cell_length_b 10.106096
_cell_length_c 14.827056
_cell_angle_alpha 55.080151
_cell_angle_beta 126.491496
_cell_angle_gamma 136.662113
_cell_volume 632.456264
_symmetry_space_group_name_H-M "P -1"
_symmetry_group_IT_number 2
_symmetry_cell_setting 'triclinic'
loop_
_space_group_symop_operation_xyz
x,y,z
-x,-y,-z
loop_
_atom_site_type_symbol
_atom_site_label
_atom_site_fract_x
_atom_site_fract_y
_atom_site_fract_z
Si Si1 0.174732 0.853243 0.082696
Si Si2 0.682547 0.272980 0.075583
Si Si3 0.110579 0.020601 0.181196
Si Si4 0.765399 0.481049 0.839865
Si Si5 0.268596 0.264912 0.669072
Si Si6 0.674285 0.299762 0.263357
Si Si7 0.153828 0.535572 0.442923
Si Si8 0.290710 0.068376 0.590959
O O1 0.137113 0.896950 0.157476
O O2 0.171788 0.664265 0.130526
O O3 0.456588 0.048751 0.071265
O O4 0.989639 0.871649 0.949903
O O5 0.644092 0.336483 0.135494
O O6 0.959862 0.309168 0.153151
O O7 0.685232 0.403086 0.946000
O O8 0.925373 0.865443 0.260630
O O9 0.382404 0.191285 0.249082
O O10 0.531703 0.451403 0.723465
O O11 0.189231 0.359337 0.531894
O O12 0.326948 0.133428 0.681041
O O13 0.936162 0.482259 0.320366
O O14 0.706619 0.121289 0.345310
O O15 0.440846 0.742637 0.443542
O O16 0.000000 0.500000 0.500000
O O17 0.000000 0.000000 0.500000
#
# Coordination Sequence:
#
# PCOD9019647 Si02
#       8
#     2   2   2   2   2   2   2   2
#     4  10  21  45  64  97 147 179 228 273 350 408
#     4  10  22  40  67  98 132 176 226 286 338 410
#     4  10  23  40  71 101 138 191 220 284 345 427
#     4  11  23  40  68 101 137 176 232 286 343 409
#     4  12  24  44  74 102 142 181 238 286 352 407
#     4  11  25  48  70  99 143 181 237 283 355 414
#     4  12  29  50  71 103 144 185 233 292 352 417
#     4  12  27  46  75 103 136 185 239 297 340 404
#
# _framework density 25.298193999999999
#
# number of rings (size 3 to 8) (size 9 to 14) (size 15 to 20)
#    0.000    1.000    2.500    3.750    5.250    2.000 
#    4.500    5.625    0.000    0.000    0.000    0.000 
#    0.000    0.000    0.000    0.000    0.000    0.000 
#
# Total GULP energy -89525.369726 kJ/mol
# GULP energy per Si atom -5595.335608 kJ/mol
# Density = 2.524061 g / cm^3
# Si number density = 25.298194 Si / 1000 Ang^3
#
#
#
# Elastic Constant Matrix: (Units=GPa)
#
#
# Indices 1 2 3 4 5 6 
#
# 1 84.8307 56.5947 25.4535 0.8526 -16.9792 23.6121
# 2 56.5947 134.2154 44.0811 13.0800 2.9860 27.4703
# 3 25.4535 44.0811 89.6199 25.7000 3.5862 11.7117
# 4 0.8526 13.0800 25.7000 49.7714 11.6476 7.0370
# 5 -16.9792 2.9860 3.5862 11.6476 46.1081 6.8292
# 6 23.6121 27.4703 11.7117 7.0370 6.8292 42.4170
#
#
#
# Elastic Compliance Matrix: (Units=1/GPa)
#
#
# Indices 1 2 3 4 5 6 
#
# 1 0.021279 -0.006792 -0.002450 0.001719 0.009299 -0.008552
# 2 -0.006792 0.012081 -0.003485 -0.000291 -0.002550 -0.002622
# 3 -0.002450 -0.003485 0.015542 -0.007103 -0.000170 0.000535
# 4 0.001719 -0.000291 -0.007103 0.025255 -0.004847 -0.002216
# 5 0.009299 -0.002550 -0.000170 -0.004847 0.027569 -0.007112
# 6 -0.008552 -0.002622 0.000535 -0.002216 -0.007112 0.031399
#
#
# Mechanical properties :
#
#
# Convention : Reuss Voigt Hill
#
# Bulk Modulus (GPa) = 42.64738 62.32496 52.48617
# Shear Modulus (GPa) = 30.04897 39.82842 34.93869
#
# Velocity S-wave (km/s) = 3.45017 3.97212 3.72031
# Velocity P-wave (km/s) = 5.72417 6.76215 6.26469
#
# Compressibility (1/GPa) = 0.02344810
#
# Stress axis : x y z
#
# Youngs Moduli (GPa) = 46.99446 82.77422 64.34132
#
# Poissons Ratio (x) = 0.56220 0.15765
# Poissons Ratio (y) = 0.31918 0.22423
# Poissons Ratio (z) = 0.11514 0.28846
#
# Static dielectric constant tensor:
#      x y z
#    x 2.528600 -0.168600 0.461000 
#    y -0.168600 2.089080 -0.147010 
#    z 0.461000 -0.147010 2.417750 
# 
# From -- ./inp_files/500094.got.cif
#   From: 2010.05.17/outbox.cif.g08.bks.cpg/sg2_251_cif.got.tgz:500094.got - 2010.06.03 11:33:40.
