data_PCOD9019377
_publ_section_title
;
Structure prediction by ZEFSAII (Michael W. Deem and Ramdas Pophale) SiO2 
 PCOD9019377
Probable space group: P -1
;
_chemical_formula_sum "Si O2"
_cell_formula_units_Z 12
_cell_length_a 5.384486
_cell_length_b 12.573714
_cell_length_c 7.322286
_cell_angle_alpha 82.157035
_cell_angle_beta 66.598339
_cell_angle_gamma 105.402750
_cell_volume 421.903162
_symmetry_space_group_name_H-M "P -1"
_symmetry_group_IT_number 2
_symmetry_cell_setting 'triclinic'
loop_
_space_group_symop_operation_xyz
x,y,z
-x,-y,-z
loop_
_atom_site_type_symbol
_atom_site_label
_atom_site_fract_x
_atom_site_fract_y
_atom_site_fract_z
Si Si1 0.798997 0.904863 0.717143
Si Si2 0.144056 0.258469 0.654295
Si Si3 0.240218 0.486826 0.759643
Si Si4 0.389025 0.650285 0.969204
Si Si5 0.803635 0.078258 0.083368
Si Si6 0.707566 0.316755 0.573929
O O1 0.575181 0.773199 0.807531
O O2 0.543550 0.960420 0.818865
O O3 0.051725 0.885132 0.771736
O O4 0.000000 0.000000 0.500000
O O5 0.298506 0.392410 0.634748
O O6 0.424561 0.224010 0.586992
O O7 0.950694 0.261400 0.541621
O O8 0.927756 0.182181 0.882585
O O9 0.458280 0.557845 0.836539
O O10 0.169874 0.573933 0.620053
O O11 0.953946 0.399167 0.961430
O O12 0.379719 0.659614 0.193682
O O13 0.000000 0.000000 0.000000
#
# Coordination Sequence:
#
# PCOD9019377 Si02
#       6
#     2   2   2   2   2   2
#     4  12  26  50  75 109 156 199 259 328 380 461
#     4  11  21  43  69 102 149 186 245 317 373 452
#     4  10  22  40  75 108 151 197 246 303 397 464
#     4  10  21  44  71 108 151 194 246 313 390 451
#     4  12  25  49  79 106 146 207 263 319 388 449
#     4  11  22  42  69 103 151 190 245 304 379 463
#
# _framework density 28.442542
#
# number of rings (size 3 to 8) (size 9 to 14) (size 15 to 20)
#    0.000    1.000    5.000    3.500    0.000    2.000 
#    0.000    6.667    0.000    0.000    0.000    0.000 
#    0.000    0.000    0.000    0.000    0.000    0.000 
#
# Total GULP energy -66836.633122 kJ/mol
# GULP energy per Si atom -5569.719427 kJ/mol
# Density = 2.837781 g / cm^3
# Si number density = 28.442542 Si / 1000 Ang^3
#
#
#
# Elastic Constant Matrix: (Units=GPa)
#
#
# Indices 1 2 3 4 5 6 
#
# 1 187.6603 19.5642 88.1386 -9.4965 -0.9310 -5.5040
# 2 19.5642 97.1374 72.7204 -18.5801 16.6142 3.1643
# 3 88.1386 72.7204 196.5548 -25.9348 4.1828 11.2585
# 4 -9.4965 -18.5801 -25.9348 63.4644 2.4503 2.6168
# 5 -0.9310 16.6142 4.1828 2.4503 69.8053 -2.6223
# 6 -5.5040 3.1643 11.2585 2.6168 -2.6223 28.2425
#
#
#
# Elastic Compliance Matrix: (Units=1/GPa)
#
#
# Indices 1 2 3 4 5 6 
#
# 1 0.007070 0.001292 -0.003845 -0.000256 0.000131 0.002802
# 2 0.001292 0.015521 -0.005950 0.002423 -0.003392 0.000345
# 3 -0.003845 -0.005950 0.009449 0.001684 0.000591 -0.003951
# 4 -0.000256 0.002423 0.001684 0.017282 -0.001390 -0.002723
# 5 0.000131 -0.003392 0.000591 -0.001390 0.015212 0.001711
# 6 0.002802 0.000345 -0.003951 -0.002723 0.001711 0.037901
#
#
# Mechanical properties :
#
#
# Convention : Reuss Voigt Hill
#
# Bulk Modulus (GPa) = 66.51463 93.57766 80.04615
# Shear Modulus (GPa) = 40.17572 52.36440 46.27006
#
# Velocity S-wave (km/s) = 3.76243 4.29541 4.03772
# Velocity P-wave (km/s) = 6.50468 7.58767 7.06695
#
# Compressibility (1/GPa) = 0.01503429
#
# Stress axis : x y z
#
# Youngs Moduli (GPa) = 141.44175 64.42875 105.82887
#
# Poissons Ratio (x) = -0.08326 0.40696
# Poissons Ratio (y) = -0.18277 0.62966
# Poissons Ratio (z) = 0.54391 0.38333
#
# Static dielectric constant tensor:
#      x y z
#    x 2.148050 -0.205560 -0.135680 
#    y -0.205560 2.453030 0.310910 
#    z -0.135680 0.310910 2.313560 
# 
# From -- ./inp_files/134166.got.cif
#   From: 2010.05.17/outbox.cif.g08.bks.cpg/sg2_68_cif.got.tgz:134166.got - 2010.06.03 11:33:40.
