data_PCOD9019894
_publ_section_title
;
Structure prediction by ZEFSAII (Michael W. Deem and Ramdas Pophale) SiO2 
 PCOD9019894
Probable space group: P -1
;
_chemical_formula_sum "Si O2"
_cell_formula_units_Z 14
_cell_length_a 11.091898
_cell_length_b 10.509522
_cell_length_c 7.591530
_cell_angle_alpha 116.868595
_cell_angle_beta 111.690464
_cell_angle_gamma 42.901134
_cell_volume 536.299622
_symmetry_space_group_name_H-M "P -1"
_symmetry_group_IT_number 2
_symmetry_cell_setting 'triclinic'
loop_
_space_group_symop_operation_xyz
x,y,z
-x,-y,-z
loop_
_atom_site_type_symbol
_atom_site_label
_atom_site_fract_x
_atom_site_fract_y
_atom_site_fract_z
Si Si1 0.148757 0.284865 0.522738
Si Si2 0.656935 0.513744 0.706737
Si Si3 0.976594 0.682930 0.137312
Si Si4 0.008163 0.124987 0.214689
Si Si5 0.611042 0.060382 0.136684
Si Si6 0.698762 0.172073 0.581177
Si Si7 0.665580 0.581607 0.352432
O O1 0.069246 0.286445 0.661893
O O2 0.154350 0.145515 0.308146
O O3 0.305768 0.280948 0.623441
O O4 0.000000 0.500000 0.500000
O O5 0.499922 0.718113 0.846353
O O6 0.659337 0.344814 0.558111
O O7 0.683931 0.573350 0.571883
O O8 0.832750 0.395221 0.844975
O O9 0.812863 0.880075 0.075050
O O10 0.000000 0.500000 0.000000
O O11 0.819675 0.350289 0.246803
O O12 0.097148 0.983486 0.347380
O O13 0.000000 0.000000 0.000000
O O14 0.644163 0.078474 0.372182
O O15 0.500000 0.000000 0.000000
O O16 0.539829 0.305535 0.722151
#
# Coordination Sequence:
#
# PCOD9019894 Si02
#       7
#     2   2   2   2   2   2   2
#     4  10  21  45  71  96 136 181 228 282 342 408
#     4  11  23  43  69  99 138 182 221 287 347 404
#     4  12  23  42  72 102 139 177 227 288 347 400
#     4  11  24  44  68 102 135 184 234 273 348 413
#     4  11  22  41  67 104 134 170 233 277 344 411
#     4  11  25  45  69  99 140 182 228 283 347 405
#     4  10  22  45  70  91 139 178 227 288 338 400
#
# _framework density 26.104811999999999
#
# number of rings (size 3 to 8) (size 9 to 14) (size 15 to 20)
#    0.000    1.143    5.714    1.714    0.000    6.857 
#    0.000    5.714    0.000    0.000    0.000    0.000 
#    0.000    0.000    0.000    0.000    0.000    0.000 
#
# Total GULP energy -77986.149321 kJ/mol
# GULP energy per Si atom -5570.439237 kJ/mol
# Density = 2.604540 g / cm^3
# Si number density = 26.104812 Si / 1000 Ang^3
#
#
#
# Elastic Constant Matrix: (Units=GPa)
#
#
# Indices 1 2 3 4 5 6 
#
# 1 21.2463 23.1815 12.9954 2.7976 6.5790 -4.8632
# 2 23.1815 181.0140 48.7566 39.1786 1.2007 -18.9947
# 3 12.9954 48.7566 148.9196 19.9513 24.4046 -0.1792
# 4 2.7976 39.1786 19.9513 42.5649 15.2624 4.2766
# 5 6.5790 1.2007 24.4046 15.2624 37.3556 1.8810
# 6 -4.8632 -18.9947 -0.1792 4.2766 1.8810 38.1572
#
#
#
# Elastic Compliance Matrix: (Units=1/GPa)
#
#
# Indices 1 2 3 4 5 6 
#
# 1 0.061635 -0.009241 -0.001400 0.009766 -0.013776 0.002833
# 2 -0.009241 0.009999 -0.002168 -0.010472 0.006768 0.004630
# 3 -0.001400 -0.002168 0.008376 0.000106 -0.005150 -0.000976
# 4 0.009766 -0.010472 0.000106 0.039347 -0.017150 -0.007532
# 5 -0.013776 0.006768 -0.005150 -0.017150 0.039270 0.001575
# 6 0.002833 0.004630 -0.000976 -0.007532 0.001575 0.029635
#
#
# Mechanical properties :
#
#
# Convention : Reuss Voigt Hill
#
# Bulk Modulus (GPa) = 18.38550 57.89409 38.13979
# Shear Modulus (GPa) = 21.55067 41.36530 31.45799
#
# Velocity S-wave (km/s) = 2.87635 3.98500 3.47517
# Velocity P-wave (km/s) = 4.25316 6.58782 5.54476
#
# Compressibility (1/GPa) = 0.05439069
#
# Stress axis : x y z
#
# Youngs Moduli (GPa) = 16.22460 100.00611 119.39538
#
# Poissons Ratio (x) = 0.92418 0.16720
# Poissons Ratio (y) = 0.14993 0.25884
# Poissons Ratio (z) = 0.02272 0.21681
#
# Static dielectric constant tensor:
#      x y z
#    x 2.188650 0.015930 0.015900 
#    y 0.015930 2.197570 -0.067980 
#    z 0.015900 -0.067980 2.157780 
# 
# From -- ./inp_files/263539.got.cif
#   From: 2010.05.17/outbox.cif.g08.bks.cpg/sg2_132_cif.got.tgz:263539.got - 2010.06.03 11:33:40.
