data_PCOD9019784
_publ_section_title
;
Structure prediction by ZEFSAII (Michael W. Deem and Ramdas Pophale) SiO2 
 PCOD9019784
Probable space group: P -1
;
_chemical_formula_sum "Si O2"
_cell_formula_units_Z 16
_cell_length_a 16.647150
_cell_length_b 6.787325
_cell_length_c 8.248520
_cell_angle_alpha 74.542204
_cell_angle_beta 51.434925
_cell_angle_gamma 87.265923
_cell_volume 693.638272
_symmetry_space_group_name_H-M "P -1"
_symmetry_group_IT_number 2
_symmetry_cell_setting 'triclinic'
loop_
_space_group_symop_operation_xyz
x,y,z
-x,-y,-z
loop_
_atom_site_type_symbol
_atom_site_label
_atom_site_fract_x
_atom_site_fract_y
_atom_site_fract_z
Si Si1 0.797751 0.360143 0.233184
Si Si2 0.357673 0.058172 0.482892
Si Si3 0.155680 0.506970 0.482848
Si Si4 0.033679 0.823734 0.110808
Si Si5 0.708344 0.748933 0.811668
Si Si6 0.108280 0.937018 0.324114
Si Si7 0.500307 0.832038 0.180617
Si Si8 0.610068 0.542735 0.442999
O O1 0.813026 0.436145 0.382842
O O2 0.714359 0.493496 0.235588
O O3 0.736854 0.127933 0.343291
O O4 0.907687 0.344727 0.016366
O O5 0.331358 0.168159 0.326052
O O6 0.368222 0.227073 0.570165
O O7 0.463335 0.960004 0.349444
O O8 0.244877 0.452627 0.260786
O O9 0.112378 0.703701 0.424921
O O10 0.068369 0.304018 0.649330
O O11 0.108873 0.936881 0.129314
O O12 0.000000 0.000000 0.000000
O O13 0.798833 0.912337 0.741391
O O14 0.609044 0.748360 0.052553
O O15 0.000000 0.000000 0.500000
O O16 0.413379 0.625554 0.341048
O O17 0.500000 0.000000 0.000000
O O18 0.500000 0.500000 0.500000
#
# Coordination Sequence:
#
# PCOD9019784 Si02
#       8
#     2   2   2   2   2   2   2   2
#     4  11  24  44  71 101 139 191 227 279 357 409
#     4  10  21  45  68  96 144 176 227 288 344 406
#     4  12  24  47  73  99 141 187 236 287 344 415
#     4  12  27  46  70 106 145 185 229 290 352 422
#     4  11  22  41  72 101 134 181 231 289 343 403
#     4  12  26  46  71 102 140 179 237 290 345 408
#     4   9  23  41  67 102 131 174 230 280 340 406
#     4  11  25  43  68 101 140 183 226 283 348 418
#
# _framework density 23.066776000000001
#
# number of rings (size 3 to 8) (size 9 to 14) (size 15 to 20)
#    0.000    1.000    3.750    2.250    0.000    8.000 
#    0.000    0.000    0.000    0.000    0.000    0.000 
#    0.000    0.000    0.000    0.000    0.000    0.000 
#
# Total GULP energy -89407.113375 kJ/mol
# GULP energy per Si atom -5587.944586 kJ/mol
# Density = 2.301428 g / cm^3
# Si number density = 23.066776 Si / 1000 Ang^3
#
#
#
# Elastic Constant Matrix: (Units=GPa)
#
#
# Indices 1 2 3 4 5 6 
#
# 1 115.7520 34.4318 16.3774 19.8199 -0.7261 -6.4342
# 2 34.4318 126.7721 23.0095 25.7651 -10.8243 -5.1687
# 3 16.3774 23.0095 69.6773 25.2442 -24.1724 -12.2000
# 4 19.8199 25.7651 25.2442 39.2452 -10.7933 -7.4870
# 5 -0.7261 -10.8243 -24.1724 -10.7933 37.9424 8.0983
# 6 -6.4342 -5.1687 -12.2000 -7.4870 8.0983 52.5637
#
#
#
# Elastic Compliance Matrix: (Units=1/GPa)
#
#
# Indices 1 2 3 4 5 6 
#
# 1 0.010004 -0.001961 -0.001065 -0.003565 -0.002192 0.000614
# 2 -0.001961 0.009561 -0.000744 -0.004594 0.000968 -0.000276
# 3 -0.001065 -0.000744 0.022653 -0.010182 0.010891 0.001926
# 4 -0.003565 -0.004594 -0.010182 0.037879 0.002535 0.001753
# 5 -0.002192 0.000968 0.010891 0.002535 0.034815 -0.002648
# 6 0.000614 -0.000276 0.001926 0.001753 -0.002648 0.020177
#
#
# Mechanical properties :
#
#
# Convention : Reuss Voigt Hill
#
# Bulk Modulus (GPa) = 28.83804 51.09320 39.96562
# Shear Modulus (GPa) = 32.42775 41.84242 37.13509
#
# Velocity S-wave (km/s) = 3.75350 4.26369 4.01670
# Velocity P-wave (km/s) = 5.59590 6.81447 6.23502
#
# Compressibility (1/GPa) = 0.03467642
#
# Stress axis : x y z
#
# Youngs Moduli (GPa) = 99.95861 104.59057 44.14523
#
# Poissons Ratio (x) = 0.20514 0.04701
# Poissons Ratio (y) = 0.19606 0.03287
# Poissons Ratio (z) = 0.10644 0.07787
#
# Static dielectric constant tensor:
#      x y z
#    x 1.915410 -0.051190 0.030450 
#    y -0.051190 1.832980 0.020310 
#    z 0.030450 0.020310 1.922210 
# 
# From -- ./inp_files/323526.got.cif
#   From: 2010.05.17/outbox.cif.g08.bks.cpg/sg2_162_cif.got.tgz:323526.got - 2010.06.03 11:33:40.
