data_PCOD9019761
_publ_section_title
;
Structure prediction by ZEFSAII (Michael W. Deem and Ramdas Pophale) SiO2 
 PCOD9019761
Probable space group: P -1
;
_chemical_formula_sum "Si O2"
_cell_formula_units_Z 16
_cell_length_a 9.863530
_cell_length_b 9.769013
_cell_length_c 15.488508
_cell_angle_alpha 46.838448
_cell_angle_beta 128.027511
_cell_angle_gamma 94.359379
_cell_volume 685.291729
_symmetry_space_group_name_H-M "P -1"
_symmetry_group_IT_number 2
_symmetry_cell_setting 'triclinic'
loop_
_space_group_symop_operation_xyz
x,y,z
-x,-y,-z
loop_
_atom_site_type_symbol
_atom_site_label
_atom_site_fract_x
_atom_site_fract_y
_atom_site_fract_z
Si Si1 0.043387 0.634187 0.391661
Si Si2 0.473897 0.566850 0.359765
Si Si3 0.364111 0.015110 0.188313
Si Si4 0.775865 0.968004 0.405701
Si Si5 0.864874 0.538844 0.203988
Si Si6 0.513134 0.481698 0.117037
Si Si7 0.396335 0.895837 0.452749
Si Si8 0.070653 0.930873 0.751257
O O1 0.292829 0.521858 0.542439
O O2 0.000000 0.500000 0.500000
O O3 0.975497 0.607095 0.283810
O O4 0.911788 0.903031 0.250330
O O5 0.500000 0.500000 0.500000
O O6 0.443612 0.391625 0.371146
O O7 0.330983 0.850032 0.187820
O O8 0.609874 0.929741 0.314382
O O9 0.341471 0.985516 0.293121
O O10 0.221549 0.282339 0.985580
O O11 0.631948 0.208866 0.299277
O O12 0.955639 0.734589 0.628046
O O13 0.111298 0.992011 0.645274
O O14 0.668941 0.554931 0.166943
O O15 0.500000 0.500000 0.000000
O O16 0.267375 0.665645 0.968085
O O17 0.500000 0.000000 0.500000
O O18 0.166784 0.992865 0.361837
#
# Coordination Sequence:
#
# PCOD9019761 Si02
#       8
#     2   2   2   2   2   2   2   2
#     4  11  21  40  69 103 139 177 227 297 351 403
#     4   9  20  44  69  97 145 184 234 286 341 433
#     4  11  22  45  73 107 138 185 241 284 345 442
#     4  11  22  45  73  98 143 180 238 283 349 424
#     4  12  23  39  74 105 136 188 232 285 359 418
#     4  10  22  41  64 101 141 184 229 290 344 428
#     4  10  24  45  76 104 142 190 233 295 359 406
#     4  10  21  45  68 103 144 177 235 297 347 415
#
# _framework density 23.347719999999999
#
# number of rings (size 3 to 8) (size 9 to 14) (size 15 to 20)
#    0.000    1.500    5.000    0.375    0.000    3.500 
#    0.000    6.250    2.750    0.000    0.000    0.000 
#    0.000    0.000    0.000    0.000    0.000    0.000 
#
# Total GULP energy -89455.240260 kJ/mol
# GULP energy per Si atom -5590.952516 kJ/mol
# Density = 2.329458 g / cm^3
# Si number density = 23.347720 Si / 1000 Ang^3
#
#
#
# Elastic Constant Matrix: (Units=GPa)
#
#
# Indices 1 2 3 4 5 6 
#
# 1 102.1115 29.7425 38.3231 -16.9078 -2.9054 1.9073
# 2 29.7425 167.5384 48.6891 -30.5216 1.3374 10.1845
# 3 38.3231 48.6891 146.8821 -37.0482 -13.1772 -3.1126
# 4 -16.9078 -30.5216 -37.0482 39.7387 -2.8439 2.1508
# 5 -2.9054 1.3374 -13.1772 -2.8439 20.3703 -4.4215
# 6 1.9073 10.1845 -3.1126 2.1508 -4.4215 28.4271
#
#
#
# Elastic Compliance Matrix: (Units=1/GPa)
#
#
# Indices 1 2 3 4 5 6 
#
# 1 0.011228 -0.000960 -0.002016 0.002236 0.000516 -0.000719
# 2 -0.000960 0.007519 -0.001437 0.004086 -0.001720 -0.003364
# 3 -0.002016 -0.001437 0.010792 0.008574 0.008529 0.002510
# 4 0.002236 0.004086 0.008574 0.038103 0.010499 -0.001925
# 5 0.000516 -0.001720 0.008529 0.010499 0.058389 0.009803
# 6 -0.000719 -0.003364 0.002510 -0.001925 0.009803 0.038376
#
#
# Mechanical properties :
#
#
# Convention : Reuss Voigt Hill
#
# Bulk Modulus (GPa) = 48.28125 72.22683 60.25404
# Shear Modulus (GPa) = 27.75656 37.69239 32.72448
#
# Velocity S-wave (km/s) = 3.45169 4.02231 3.74787
# Velocity P-wave (km/s) = 6.05059 7.25082 6.67773
#
# Compressibility (1/GPa) = 0.02071197
#
# Stress axis : x y z
#
# Youngs Moduli (GPa) = 89.06348 132.98836 92.66529
#
# Poissons Ratio (x) = 0.12773 0.18682
# Poissons Ratio (y) = 0.08554 0.13315
# Poissons Ratio (z) = 0.17956 0.19109
#
# Static dielectric constant tensor:
#      x y z
#    x 1.896760 0.004670 -0.009170 
#    y 0.004670 1.954430 -0.012540 
#    z -0.009170 -0.012540 1.886640 
# 
# From -- ./inp_files/566562.got.cif
#   From: 2010.05.17/outbox.cif.g08.bks.cpg/sg2_284_cif.got.tgz:566562.got - 2010.06.03 11:33:40.
