data_PCOD9019126
_publ_section_title
;
Structure prediction by ZEFSAII (Michael W. Deem and Ramdas Pophale) SiO2 
 PCOD9019126
Probable space group: P -1
;
_chemical_formula_sum "Si O2"
_cell_formula_units_Z 16
_cell_length_a 13.549583
_cell_length_b 11.486039
_cell_length_c 14.365922
_cell_angle_alpha 149.820673
_cell_angle_beta 129.287718
_cell_angle_gamma 38.641928
_cell_volume 695.545536
_symmetry_space_group_name_H-M "P -1"
_symmetry_group_IT_number 2
_symmetry_cell_setting 'triclinic'
loop_
_space_group_symop_operation_xyz
x,y,z
-x,-y,-z
loop_
_atom_site_type_symbol
_atom_site_label
_atom_site_fract_x
_atom_site_fract_y
_atom_site_fract_z
Si Si1 0.042249 0.193105 0.837004
Si Si2 0.530676 0.694558 0.091802
Si Si3 0.077871 0.736441 0.791366
Si Si4 0.488645 0.269181 0.222089
Si Si5 0.314973 0.801462 0.873356
Si Si6 0.717613 0.868068 0.408456
Si Si7 0.805021 0.151038 0.779927
Si Si8 0.747801 0.134776 0.432503
O O1 0.899857 0.192547 0.788763
O O2 0.170210 0.066637 0.910455
O O3 0.114743 0.996395 0.652168
O O4 0.000000 0.500000 0.000000
O O5 0.562137 0.887387 0.304061
O O6 0.500000 0.500000 0.000000
O O7 0.398287 0.855332 0.043213
O O8 0.701679 0.450546 0.979986
O O9 0.231019 0.677177 0.788269
O O10 0.143106 0.447475 0.686419
O O11 0.935008 0.871471 0.725488
O O12 0.000000 0.000000 0.000000
O O13 0.553776 0.366486 0.246033
O O14 0.606029 0.169418 0.310884
O O15 0.319865 0.549381 0.350003
O O16 0.500000 0.000000 0.000000
O O17 0.689171 0.089836 0.623542
O O18 0.777758 0.932941 0.396879
#
# Coordination Sequence:
#
# PCOD9019126 Si02
#       8
#     2   2   2   2   2   2   2   2
#     4  10  23  45  74 105 145 188 235 299 351 428
#     4  12  23  44  67 100 141 186 236 288 351 423
#     4  11  22  46  68  96 140 192 234 289 352 423
#     4  10  21  44  68  96 141 179 225 290 348 419
#     4  10  22  41  71  99 134 188 238 281 361 417
#     4  12  24  41  71 102 140 176 237 297 340 426
#     4  11  25  44  69 100 140 185 240 286 361 411
#     4  10  23  41  67 104 132 179 233 280 355 417
#
# _framework density 23.003526000000001
#
# number of rings (size 3 to 8) (size 9 to 14) (size 15 to 20)
#    0.000    1.250    2.500    2.625    1.750    4.000 
#    4.500    0.000    0.000    0.000    0.000    0.000 
#    0.000    0.000    0.000    0.000    0.000    0.000 
#
# Total GULP energy -89479.237104 kJ/mol
# GULP energy per Si atom -5592.452319 kJ/mol
# Density = 2.295117 g / cm^3
# Si number density = 23.003526 Si / 1000 Ang^3
#
#
#
# Elastic Constant Matrix: (Units=GPa)
#
#
# Indices 1 2 3 4 5 6 
#
# 1 115.6639 22.2852 27.3627 6.8109 -17.0267 14.2468
# 2 22.2852 122.1426 42.4575 -12.1457 15.1878 25.3012
# 3 27.3627 42.4575 118.0432 -9.0223 0.4835 3.7915
# 4 6.8109 -12.1457 -9.0223 47.9890 -8.9174 5.3875
# 5 -17.0267 15.1878 0.4835 -8.9174 25.5250 0.0359
# 6 14.2468 25.3012 3.7915 5.3875 0.0359 38.7896
#
#
#
# Elastic Compliance Matrix: (Units=1/GPa)
#
#
# Indices 1 2 3 4 5 6 
#
# 1 0.011034 -0.001938 -0.001857 -0.000569 0.008353 -0.002536
# 2 -0.001938 0.012529 -0.003625 0.002121 -0.007927 -0.007394
# 3 -0.001857 -0.003625 0.010239 0.001279 0.001168 0.001867
# 4 -0.000569 0.002121 0.001279 0.023420 0.006523 -0.004559
# 5 0.008353 -0.007927 0.001168 0.006523 0.051721 0.001035
# 6 -0.002536 -0.007394 0.001867 -0.004559 0.001035 0.031984
#
#
# Mechanical properties :
#
#
# Convention : Reuss Voigt Hill
#
# Bulk Modulus (GPa) = 52.73651 60.00673 56.37162
# Shear Modulus (GPa) = 30.84767 40.04369 35.44568
#
# Velocity S-wave (km/s) = 3.66594 4.17677 3.92966
# Velocity P-wave (km/s) = 6.39484 7.02873 6.71926
#
# Compressibility (1/GPa) = 0.01896220
#
# Stress axis : x y z
#
# Youngs Moduli (GPa) = 90.62994 79.81502 97.66785
#
# Poissons Ratio (x) = 0.15465 0.18137
# Poissons Ratio (y) = 0.17560 0.35406
# Poissons Ratio (z) = 0.16830 0.28934
#
# Static dielectric constant tensor:
#      x y z
#    x 1.894320 -0.008370 0.005460 
#    y -0.008370 1.893810 -0.028960 
#    z 0.005460 -0.028960 1.839500 
# 
# From -- ./inp_files/532168.got.cif
#   From: 2010.05.17/outbox.cif.g08.bks.cpg/sg2_267_cif.got.tgz:532168.got - 2010.06.03 11:33:40.
