data_PCOD9019634
_publ_section_title
;
Structure prediction by ZEFSAII (Michael W. Deem and Ramdas Pophale) SiO2 
 PCOD9019634
Probable space group: P -1
;
_chemical_formula_sum "Si O2"
_cell_formula_units_Z 16
_cell_length_a 8.844434
_cell_length_b 11.576148
_cell_length_c 13.897368
_cell_angle_alpha 31.311851
_cell_angle_beta 95.592350
_cell_angle_gamma 106.731254
_cell_volume 675.898378
_symmetry_space_group_name_H-M "P -1"
_symmetry_group_IT_number 2
_symmetry_cell_setting 'triclinic'
loop_
_space_group_symop_operation_xyz
x,y,z
-x,-y,-z
loop_
_atom_site_type_symbol
_atom_site_label
_atom_site_fract_x
_atom_site_fract_y
_atom_site_fract_z
Si Si1 0.252666 0.351453 0.818208
Si Si2 0.666268 0.245736 0.621121
Si Si3 0.767684 0.923582 0.717462
Si Si4 0.302477 0.886660 0.081966
Si Si5 0.967772 0.674231 0.000781
Si Si6 0.951311 0.752191 0.617785
Si Si7 0.686978 0.129258 0.124268
Si Si8 0.398012 0.425325 0.209115
O O1 0.262968 0.524489 0.606158
O O2 0.097129 0.297361 0.916719
O O3 0.423541 0.488725 0.791539
O O4 0.250498 0.102066 0.955444
O O5 0.734383 0.288031 0.704117
O O6 0.702048 0.028627 0.727650
O O7 0.465355 0.127840 0.697420
O O8 0.640780 0.791298 0.716913
O O9 0.925171 0.162549 0.524490
O O10 0.829585 0.716029 0.899549
O O11 0.249432 0.802363 0.031286
O O12 0.500000 0.000000 0.000000
O O13 0.992723 0.424723 0.187464
O O14 0.140631 0.855347 0.834795
O O15 0.753344 0.662008 0.661358
O O16 0.000000 0.000000 0.500000
O O17 0.625363 0.337849 0.003956
#
# Coordination Sequence:
#
# PCOD9019634 Si02
#       8
#     2   2   2   2   2   2   2   2
#     4  12  23  41  65  97 124 165 216 259 314 372
#     4  11  23  41  66  94 124 169 209 258 319 370
#     4  11  22  42  64  93 133 165 210 258 316 373
#     4  10  21  45  64  90 132 160 209 268 313 369
#     4  11  23  41  66  93 129 165 210 262 314 375
#     4   9  21  40  58  92 130 164 203 260 309 369
#     4  10  23  43  65  93 126 167 209 260 318 375
#     4  10  22  41  64  93 130 169 205 260 313 381
#
# _framework density 23.672197000000001
#
# number of rings (size 3 to 8) (size 9 to 14) (size 15 to 20)
#    0.000    1.500    5.000    0.000    1.750    9.500 
#    2.250    0.625    0.000    0.000    0.000    0.000 
#    0.000    0.000    0.000    0.000    0.000    0.000 
#
# Total GULP energy -89257.070951 kJ/mol
# GULP energy per Si atom -5578.566934 kJ/mol
# Density = 2.361832 g / cm^3
# Si number density = 23.672197 Si / 1000 Ang^3
#
#
#
# Elastic Constant Matrix: (Units=GPa)
#
#
# Indices 1 2 3 4 5 6 
#
# 1 82.3940 -5.8699 4.3901 1.7297 -5.4993 -10.2053
# 2 -5.8699 46.4579 -13.6718 8.8150 6.2345 -6.4619
# 3 4.3901 -13.6718 70.3605 12.2795 3.0939 2.6946
# 4 1.7297 8.8150 12.2795 27.8724 -5.0514 -0.9475
# 5 -5.4993 6.2345 3.0939 -5.0514 41.2449 2.5380
# 6 -10.2053 -6.4619 2.6946 -0.9475 2.5380 21.8776
#
#
#
# Elastic Compliance Matrix: (Units=1/GPa)
#
#
# Indices 1 2 3 4 5 6 
#
# 1 0.013275 0.002588 -0.000441 -0.001058 0.000860 0.006865
# 2 0.002588 0.028908 0.007798 -0.013673 -0.006837 0.008986
# 3 -0.000441 0.007798 0.017856 -0.011020 -0.003919 -0.000124
# 4 -0.001058 -0.013673 -0.011020 0.046607 0.008593 -0.002153
# 5 0.000860 -0.006837 -0.003919 0.008593 0.026980 -0.003893
# 6 0.006865 0.008986 -0.000124 -0.002153 -0.003893 0.051939
#
#
# Mechanical properties :
#
#
# Convention : Reuss Voigt Hill
#
# Bulk Modulus (GPa) = 12.51121 18.76769 15.63945
# Shear Modulus (GPa) = 25.99863 32.48991 29.24427
#
# Velocity S-wave (km/s) = 3.31762 3.70874 3.51862
# Velocity P-wave (km/s) = 4.46902 5.12689 4.80922
#
# Compressibility (1/GPa) = 0.07992829
#
# Stress axis : x y z
#
# Youngs Moduli (GPa) = 75.33175 34.59191 56.00441
#
# Poissons Ratio (x) = -0.08951 0.02472
# Poissons Ratio (y) = -0.19494 -0.43675
# Poissons Ratio (z) = 0.03325 -0.26976
#
# Static dielectric constant tensor:
#      x y z
#    x 1.925300 -0.062720 -0.142530 
#    y -0.062720 1.745720 -0.141500 
#    z -0.142530 -0.141500 1.767450 
# 
# From -- ./inp_files/403056.got.cif
#   From: 2010.05.17/outbox.cif.g08.bks.cpg/sg2_202_cif.got.tgz:403056.got - 2010.06.03 11:33:40.
