data_PCOD9019995
_publ_section_title
;
Structure prediction by ZEFSAII (Michael W. Deem and Ramdas Pophale) SiO2 
 PCOD9019995
Probable space group: P -1
;
_chemical_formula_sum "Si O2"
_cell_formula_units_Z 16
_cell_length_a 5.006644
_cell_length_b 17.773651
_cell_length_c 14.413956
_cell_angle_alpha 32.974759
_cell_angle_beta 105.866608
_cell_angle_gamma 94.729356
_cell_volume 644.527870
_symmetry_space_group_name_H-M "P -1"
_symmetry_group_IT_number 2
_symmetry_cell_setting 'triclinic'
loop_
_space_group_symop_operation_xyz
x,y,z
-x,-y,-z
loop_
_atom_site_type_symbol
_atom_site_label
_atom_site_fract_x
_atom_site_fract_y
_atom_site_fract_z
Si Si1 0.081573 0.213571 0.596573
Si Si2 0.572071 0.621607 0.672828
Si Si3 0.117553 0.860849 0.593701
Si Si4 0.745745 0.688579 0.814718
Si Si5 0.221929 0.252842 0.036563
Si Si6 0.195416 0.949044 0.783169
Si Si7 0.253669 0.369303 0.616594
Si Si8 0.652123 0.420682 0.734337
O O1 0.221495 0.310682 0.440794
O O2 0.126651 0.261687 0.656766
O O3 0.741881 0.266066 0.484479
O O4 0.214183 0.039576 0.783227
O O5 0.677637 0.598219 0.814196
O O6 0.557586 0.474542 0.773152
O O7 0.455617 0.824288 0.643944
O O8 0.032859 0.730308 0.769503
O O9 0.000000 0.000000 0.500000
O O10 0.912681 0.908864 0.437384
O O11 0.765540 0.660367 0.956240
O O12 0.526194 0.163253 0.117035
O O13 0.055148 0.130250 0.164918
O O14 0.995715 0.354566 0.840186
O O15 0.488435 0.318924 0.772996
O O16 0.412658 0.438471 0.481106
O O17 0.000000 0.500000 0.500000
#
# Coordination Sequence:
#
# PCOD9019995 Si02
#       8
#     2   2   2   2   2   2   2   2
#     4  11  22  38  66  99 117 153 218 266 297 354
#     4  11  21  37  64  92 125 158 213 266 291 349
#     4  12  20  34  57  85 122 169 225 236 274 360
#     4  12  21  35  59  92 124 172 206 250 296 351
#     4  12  26  39  60  91 139 171 197 244 318 378
#     4  12  23  39  60  93 132 170 202 254 301 362
#     4  10  21  45  76  88 111 158 215 270 313 363
#     4  10  25  43  64  97 120 159 210 260 321 376
#
# _framework density 24.824373999999999
#
# number of rings (size 3 to 8) (size 9 to 14) (size 15 to 20)
#    0.000    0.750    6.250    1.875    1.750    0.500 
#    0.000    1.250    0.000    5.250    0.000    0.000 
#    0.000    0.000    0.000    0.000    0.000    0.000 
#
# Total GULP energy -89359.420228 kJ/mol
# GULP energy per Si atom -5584.963764 kJ/mol
# Density = 2.476787 g / cm^3
# Si number density = 24.824374 Si / 1000 Ang^3
#
#
#
# Elastic Constant Matrix: (Units=GPa)
#
#
# Indices 1 2 3 4 5 6 
#
# 1 85.0395 25.1000 18.2846 6.0952 13.4150 -7.8111
# 2 25.1000 199.7323 30.6878 10.3128 7.3722 11.5362
# 3 18.2846 30.6878 60.0393 8.0138 7.4734 -1.3316
# 4 6.0952 10.3128 8.0138 38.0479 -0.4434 11.9775
# 5 13.4150 7.3722 7.4734 -0.4434 31.5545 2.0961
# 6 -7.8111 11.5362 -1.3316 11.9775 2.0961 36.0382
#
#
#
# Elastic Compliance Matrix: (Units=1/GPa)
#
#
# Indices 1 2 3 4 5 6 
#
# 1 0.014189 -0.001321 -0.002465 -0.002940 -0.005493 0.004704
# 2 -0.001321 0.005695 -0.002537 -0.000117 -0.000026 -0.002163
# 3 -0.002465 -0.002537 0.019680 -0.003882 -0.003240 0.002484
# 4 -0.002940 -0.000117 -0.003882 0.031203 0.003387 -0.011311
# 5 -0.005493 -0.000026 -0.003240 0.003387 0.035145 -0.004472
# 6 0.004704 -0.002163 0.002484 -0.011311 -0.004472 0.033571
#
#
# Mechanical properties :
#
#
# Convention : Reuss Voigt Hill
#
# Bulk Modulus (GPa) = 37.15343 54.77290 45.96317
# Shear Modulus (GPa) = 31.03624 39.17735 35.10680
#
# Velocity S-wave (km/s) = 3.53970 3.97694 3.76467
# Velocity P-wave (km/s) = 5.63072 6.57268 6.11985
#
# Compressibility (1/GPa) = 0.02691541
#
# Stress axis : x y z
#
# Youngs Moduli (GPa) = 70.47856 175.60762 50.81317
#
# Poissons Ratio (x) = 0.23205 0.12526
# Poissons Ratio (y) = 0.09313 0.12893
# Poissons Ratio (z) = 0.17373 0.44558
#
# Static dielectric constant tensor:
#      x y z
#    x 1.969120 -0.044580 -0.046250 
#    y -0.044580 2.476610 0.079250 
#    z -0.046250 0.079250 1.997660 
# 
# From -- ./inp_files/485216.got.cif
#   From: 2010.05.17/outbox.cif.g08.bks.cpg/sg2_243_cif.got.tgz:485216.got - 2010.06.03 11:33:40.
