data_PCOD9019486
_publ_section_title
;
Structure prediction by ZEFSAII (Michael W. Deem and Ramdas Pophale) SiO2 
 PCOD9019486
Probable space group: P -1
;
_chemical_formula_sum "Si O2"
_cell_formula_units_Z 14
_cell_length_a 11.850283
_cell_length_b 13.721506
_cell_length_c 11.729370
_cell_angle_alpha 132.328267
_cell_angle_beta 143.757530
_cell_angle_gamma 32.479862
_cell_volume 605.360209
_symmetry_space_group_name_H-M "P -1"
_symmetry_group_IT_number 2
_symmetry_cell_setting 'triclinic'
loop_
_space_group_symop_operation_xyz
x,y,z
-x,-y,-z
loop_
_atom_site_type_symbol
_atom_site_label
_atom_site_fract_x
_atom_site_fract_y
_atom_site_fract_z
Si Si1 0.334432 0.443623 0.823195
Si Si2 0.302956 0.501693 0.197922
Si Si3 0.165215 0.901721 0.942130
Si Si4 0.419610 0.815117 0.659694
Si Si5 0.040564 0.462197 0.226317
Si Si6 0.934441 0.914562 0.226946
Si Si7 0.782887 0.396754 0.372797
O O1 0.088007 0.564878 0.800723
O O2 0.255389 0.471392 0.649542
O O3 0.500000 0.500000 0.000000
O O4 0.534260 0.244749 0.884016
O O5 0.470722 0.369134 0.334822
O O6 0.505493 0.480420 0.263179
O O7 0.068666 0.711712 0.197935
O O8 0.161385 0.451263 0.974838
O O9 0.105484 0.787114 0.742832
O O10 0.124666 0.025687 0.905771
O O11 0.000000 0.000000 0.000000
O O12 0.675107 0.730596 0.728691
O O13 0.164046 0.907752 0.448282
O O14 0.313825 0.949093 0.785465
O O15 0.066150 0.599265 0.401239
#
# Coordination Sequence:
#
# PCOD9019486 Si02
#       7
#     2   2   2   2   2   2   2
#     4  10  21  44  72  96 137 189 232 292 357 412
#     4  12  23  46  74 100 148 190 229 295 358 419
#     4  11  23  42  74 103 142 190 239 293 357 417
#     4  11  25  44  72 109 145 190 238 289 355 429
#     4  12  24  41  76 106 137 187 249 282 360 434
#     4  11  24  44  73 108 145 191 237 289 359 422
#     4  11  23  44  74 103 140 192 235 291 361 420
#
# _framework density 23.126726999999999
#
# number of rings (size 3 to 8) (size 9 to 14) (size 15 to 20)
#    0.000    0.857    5.714    2.143    2.000    0.571 
#    0.000    3.571    0.000    0.000    0.000    0.000 
#    0.000    0.000    0.000    0.000    0.000    0.000 
#
# Total GULP energy -78238.828267 kJ/mol
# GULP energy per Si atom -5588.487733 kJ/mol
# Density = 2.307409 g / cm^3
# Si number density = 23.126727 Si / 1000 Ang^3
#
#
#
# Elastic Constant Matrix: (Units=GPa)
#
#
# Indices 1 2 3 4 5 6 
#
# 1 156.8901 68.7599 33.0240 -13.5877 -10.6287 -38.0690
# 2 68.7599 129.5431 17.7237 3.1668 -10.1965 -22.6095
# 3 33.0240 17.7237 85.7200 7.2768 4.7351 -5.0915
# 4 -13.5877 3.1668 7.2768 35.8102 3.6588 -6.4006
# 5 -10.6287 -10.1965 4.7351 3.6588 38.2361 -12.9235
# 6 -38.0690 -22.6095 -5.0915 -6.4006 -12.9235 49.9992
#
#
#
# Elastic Compliance Matrix: (Units=1/GPa)
#
#
# Indices 1 2 3 4 5 6 
#
# 1 0.012285 -0.004057 -0.004228 0.007007 0.005353 0.009369
# 2 -0.004057 0.010553 -0.000450 -0.002289 0.002647 0.002028
# 3 -0.004228 -0.000450 0.013775 -0.004619 -0.003771 -0.003586
# 4 0.007007 -0.002289 -0.004619 0.033076 0.001611 0.008480
# 5 0.005353 0.002647 -0.003771 0.001611 0.033290 0.013699
# 6 0.009369 0.002028 -0.003586 0.008480 0.013699 0.032312
#
#
# Mechanical properties :
#
#
# Convention : Reuss Voigt Hill
#
# Bulk Modulus (GPa) = 52.24055 67.90761 60.07408
# Shear Modulus (GPa) = 31.41856 41.65214 36.53535
#
# Velocity S-wave (km/s) = 3.68984 4.24847 3.97897
# Velocity P-wave (km/s) = 6.38679 7.31389 6.86600
#
# Compressibility (1/GPa) = 0.01914222
#
# Stress axis : x y z
#
# Youngs Moduli (GPa) = 81.40270 94.76270 72.59381
#
# Poissons Ratio (x) = 0.38444 0.30692
# Poissons Ratio (y) = 0.33024 0.03270
# Poissons Ratio (z) = 0.34416 0.04268
#
# Static dielectric constant tensor:
#      x y z
#    x 1.902550 -0.002940 -0.019120 
#    y -0.002940 1.879070 0.039110 
#    z -0.019120 0.039110 1.933250 
# 
# From -- ./inp_files/433264.got.cif
#   From: 2010.05.17/outbox.cif.g08.bks.cpg/sg2_217_cif.got.tgz:433264.got - 2010.06.03 11:33:40.
