data_PCOD9019663
_publ_section_title
;
Structure prediction by ZEFSAII (Michael W. Deem and Ramdas Pophale) SiO2 
 PCOD9019663
Probable space group: P -1
;
_chemical_formula_sum "Si O2"
_cell_formula_units_Z 16
_cell_length_a 8.953082
_cell_length_b 13.944814
_cell_length_c 12.364694
_cell_angle_alpha 53.147261
_cell_angle_beta 120.267583
_cell_angle_gamma 77.092380
_cell_volume 692.573304
_symmetry_space_group_name_H-M "P -1"
_symmetry_group_IT_number 2
_symmetry_cell_setting 'triclinic'
loop_
_space_group_symop_operation_xyz
x,y,z
-x,-y,-z
loop_
_atom_site_type_symbol
_atom_site_label
_atom_site_fract_x
_atom_site_fract_y
_atom_site_fract_z
Si Si1 0.985477 0.249056 0.194114
Si Si2 0.075648 0.250391 0.690273
Si Si3 0.775963 0.127750 0.500190
Si Si4 0.122301 0.170114 0.528814
Si Si5 0.920465 0.021772 0.078831
Si Si6 0.518636 0.395404 0.811306
Si Si7 0.661397 0.736470 0.036126
Si Si8 0.799463 0.661842 0.904691
O O1 0.026188 0.278569 0.308918
O O2 0.191712 0.203962 0.219534
O O3 0.696055 0.403591 0.928282
O O4 0.051317 0.073728 0.346853
O O5 0.755411 0.417302 0.467496
O O6 0.142219 0.240545 0.595616
O O7 0.178371 0.062297 0.881207
O O8 0.196080 0.279889 0.797783
O O9 0.480255 0.255562 0.270661
O O10 0.901964 0.185204 0.467384
O O11 0.828137 0.095450 0.669548
O O12 0.404994 0.953699 0.765885
O O13 0.702165 0.229810 0.903287
O O14 0.000000 0.000000 0.000000
O O15 0.441886 0.338405 0.913345
O O16 0.848859 0.632428 0.070343
O O17 0.000000 0.500000 0.000000
#
# Coordination Sequence:
#
# PCOD9019663 Si02
#       8
#     2   2   2   2   2   2   2   2
#     4  11  23  43  69  99 132 182 230 284 352 404
#     4  11  26  42  72 106 139 188 227 282 353 410
#     4  10  21  45  65  99 131 175 233 277 346 408
#     4  11  22  43  77 100 131 185 236 284 342 420
#     4  10  24  43  71 102 139 186 233 285 342 420
#     4  11  25  46  70 103 139 186 239 282 348 411
#     4  12  24  48  69  99 148 179 236 290 338 425
#     4  12  29  41  65 104 139 179 227 292 355 403
#
# _framework density 23.102247999999999
#
# number of rings (size 3 to 8) (size 9 to 14) (size 15 to 20)
#    0.000    1.000    5.000    2.250    8.750    2.000 
#    0.000    0.000    0.000    0.000    0.000    0.000 
#    0.000    0.000    0.000    0.000    0.000    0.000 
#
# Total GULP energy -89541.790166 kJ/mol
# GULP energy per Si atom -5596.361885 kJ/mol
# Density = 2.304967 g / cm^3
# Si number density = 23.102248 Si / 1000 Ang^3
#
#
#
# Elastic Constant Matrix: (Units=GPa)
#
#
# Indices 1 2 3 4 5 6 
#
# 1 75.7592 50.4466 23.0038 26.8529 -6.4780 -17.3658
# 2 50.4466 129.7087 36.1289 29.5284 -7.4387 -23.1911
# 3 23.0038 36.1289 89.8524 13.8599 17.2161 -3.1973
# 4 26.8529 29.5284 13.8599 46.5101 -5.8185 -7.1582
# 5 -6.4780 -7.4387 17.2161 -5.8185 27.5167 10.5408
# 6 -17.3658 -23.1911 -3.1973 -7.1582 10.5408 43.5187
#
#
#
# Elastic Compliance Matrix: (Units=1/GPa)
#
#
# Indices 1 2 3 4 5 6 
#
# 1 0.020917 -0.004970 -0.002504 -0.007324 0.002147 0.003790
# 2 -0.004970 0.011952 -0.003437 -0.002919 0.002419 0.003067
# 3 -0.002504 -0.003437 0.015950 -0.002532 -0.012387 0.000925
# 4 -0.007324 -0.002919 -0.002532 0.028847 0.005666 -0.001292
# 5 0.002147 0.002419 -0.012387 0.005666 0.050285 -0.010012
# 6 0.003790 0.003067 0.000925 -0.001292 -0.010012 0.028406
#
#
# Mechanical properties :
#
#
# Convention : Reuss Voigt Hill
#
# Bulk Modulus (GPa) = 37.04165 57.16433 47.10299
# Shear Modulus (GPa) = 26.71265 35.89185 31.30225
#
# Velocity S-wave (km/s) = 3.40410 3.94586 3.68495
# Velocity P-wave (km/s) = 5.61419 6.74963 6.20792
#
# Compressibility (1/GPa) = 0.02699664
#
# Stress axis : x y z
#
# Youngs Moduli (GPa) = 47.80694 83.67026 62.69784
#
# Poissons Ratio (x) = 0.41584 0.15698
# Poissons Ratio (y) = 0.23760 0.21551
# Poissons Ratio (z) = 0.11970 0.28760
#
# Static dielectric constant tensor:
#      x y z
#    x 1.850250 0.037490 -0.019020 
#    y 0.037490 1.924170 -0.030750 
#    z -0.019020 -0.030750 1.888200 
# 
# From -- ./inp_files/357448.got.cif
#   From: 2010.05.17/outbox.cif.g08.bks.cpg/sg2_179_cif.got.tgz:357448.got - 2010.06.03 11:33:40.
