data_PCOD9019137
_publ_section_title
;
Structure prediction by ZEFSAII (Michael W. Deem and Ramdas Pophale) SiO2 
 PCOD9019137
Probable space group: P -1
;
_chemical_formula_sum "Si O2"
_cell_formula_units_Z 16
_cell_length_a 19.098846
_cell_length_b 6.015670
_cell_length_c 21.547409
_cell_angle_alpha 58.779024
_cell_angle_beta 21.014652
_cell_angle_gamma 69.009079
_cell_volume 692.561067
_symmetry_space_group_name_H-M "P -1"
_symmetry_group_IT_number 2
_symmetry_cell_setting 'triclinic'
loop_
_space_group_symop_operation_xyz
x,y,z
-x,-y,-z
loop_
_atom_site_type_symbol
_atom_site_label
_atom_site_fract_x
_atom_site_fract_y
_atom_site_fract_z
Si Si1 0.567559 0.334992 0.128436
Si Si2 0.082288 0.910939 0.324530
Si Si3 0.785547 0.557433 0.046469
Si Si4 0.670706 0.308177 0.761955
Si Si5 0.932611 0.172720 0.795662
Si Si6 0.864601 0.692247 0.186249
Si Si7 0.477221 0.683390 0.578188
Si Si8 0.210071 0.793482 0.455357
O O1 0.649114 0.451552 0.112051
O O2 0.511146 0.569836 0.104915
O O3 0.360582 0.033269 0.343177
O O4 0.747477 0.265849 0.956375
O O5 0.881819 0.606852 0.543726
O O6 0.104144 0.937350 0.228758
O O7 0.000818 0.139801 0.386775
O O8 0.279331 0.874024 0.199863
O O9 0.622736 0.432300 0.255885
O O10 0.967810 0.437788 0.915627
O O11 0.905905 0.900395 0.897846
O O12 0.673714 0.168016 0.712810
O O13 0.143203 0.468970 0.579000
O O14 0.708955 0.686985 0.372111
O O15 0.698993 0.512887 0.296408
O O16 0.000000 0.000000 0.000000
O O17 0.500000 0.000000 0.500000
#
# Coordination Sequence:
#
# PCOD9019137 Si02
#       8
#     2   2   2   2   2   2   2   2
#     4  11  25  45  64 105 142 185 236 289 357 420
#     4   9  19  40  68  98 133 186 243 295 356 411
#     4  12  27  50  73 106 155 187 232 296 353 432
#     4   9  19  40  68  97 137 182 241 303 348 415
#     4  11  25  45  64 103 143 186 235 289 360 422
#     4  11  26  52  80 112 142 182 237 291 349 430
#     4  11  26  52  79 113 140 184 237 287 356 425
#     4  10  21  44  68  97 140 182 246 292 352 422
#
# _framework density 23.102654999999999
#
# number of rings (size 3 to 8) (size 9 to 14) (size 15 to 20)
#    0.000    1.500    1.250    2.250    1.750    1.500 
#   29.250    4.375    0.000    0.000    0.000    0.000 
#    0.000    0.000    0.000    0.000    0.000    0.000 
#
# Total GULP energy -89551.631941 kJ/mol
# GULP energy per Si atom -5596.976996 kJ/mol
# Density = 2.305007 g / cm^3
# Si number density = 23.102655 Si / 1000 Ang^3
#
#
#
# Elastic Constant Matrix: (Units=GPa)
#
#
# Indices 1 2 3 4 5 6 
#
# 1 72.2846 48.8738 39.8944 -11.8088 -1.5214 -21.6017
# 2 48.8738 128.3185 48.9470 -12.7680 9.1249 -11.2943
# 3 39.8944 48.9470 95.9194 -9.1341 4.0444 -15.0696
# 4 -11.8088 -12.7680 -9.1341 62.5861 -1.1268 -6.1045
# 5 -1.5214 9.1249 4.0444 -1.1268 41.3545 -7.2134
# 6 -21.6017 -11.2943 -15.0696 -6.1045 -7.2134 29.6423
#
#
#
# Elastic Compliance Matrix: (Units=1/GPa)
#
#
# Indices 1 2 3 4 5 6 
#
# 1 0.027331 -0.006984 -0.004894 0.004812 0.006167 0.017260
# 2 -0.006984 0.011723 -0.003407 0.000225 -0.003036 -0.003047
# 3 -0.004894 -0.003407 0.014711 0.000784 -0.000378 0.002684
# 4 0.004812 0.000225 0.000784 0.017876 0.001959 0.008149
# 5 0.006167 -0.003036 -0.000378 0.001959 0.026930 0.010102
# 6 0.017260 -0.003047 0.002684 0.008149 0.010102 0.050654
#
#
# Mechanical properties :
#
#
# Convention : Reuss Voigt Hill
#
# Bulk Modulus (GPa) = 43.10897 63.55034 53.32966
# Shear Modulus (GPa) = 26.66294 37.30373 31.98334
#
# Velocity S-wave (km/s) = 3.40090 4.02269 3.72479
# Velocity P-wave (km/s) = 5.84138 7.01024 6.45234
#
# Compressibility (1/GPa) = 0.02319703
#
# Stress axis : x y z
#
# Youngs Moduli (GPa) = 36.58853 85.30601 67.97408
#
# Poissons Ratio (x) = 0.59574 0.33265
# Poissons Ratio (y) = 0.25552 0.23156
# Poissons Ratio (z) = 0.17906 0.29061
#
# Static dielectric constant tensor:
#      x y z
#    x 1.861890 -0.003260 -0.010590 
#    y -0.003260 1.845360 -0.021340 
#    z -0.010590 -0.021340 1.922620 
# 
# From -- ./inp_files/600755.got.cif
#   From: 2010.05.17/outbox.cif.g08.bks.cpg/sg2_301_cif.got.tgz:600755.got - 2010.06.03 11:33:40.
