data_PCOD9019884
_publ_section_title
;
Structure prediction by ZEFSAII (Michael W. Deem and Ramdas Pophale) SiO2 
 PCOD9019884
Probable space group: P -1
;
_chemical_formula_sum "Si O2"
_cell_formula_units_Z 16
_cell_length_a 11.667710
_cell_length_b 7.825928
_cell_length_c 11.100918
_cell_angle_alpha 50.966393
_cell_angle_beta 70.520446
_cell_angle_gamma 52.301488
_cell_volume 620.791861
_symmetry_space_group_name_H-M "P -1"
_symmetry_group_IT_number 2
_symmetry_cell_setting 'triclinic'
loop_
_space_group_symop_operation_xyz
x,y,z
-x,-y,-z
loop_
_atom_site_type_symbol
_atom_site_label
_atom_site_fract_x
_atom_site_fract_y
_atom_site_fract_z
Si Si1 0.504470 0.562610 0.111978
Si Si2 0.251510 0.907425 0.293614
Si Si3 0.943900 0.996673 0.888763
Si Si4 0.814036 0.302604 0.228557
Si Si5 0.223836 0.444595 0.619935
Si Si6 0.287357 0.413168 0.297699
Si Si7 0.898280 0.776423 0.553843
Si Si8 0.484863 0.021031 0.199775
O O1 0.661301 0.383587 0.193389
O O2 0.403114 0.490682 0.250771
O O3 0.500000 0.500000 0.000000
O O4 0.474772 0.852652 0.977745
O O5 0.179636 0.013925 0.139831
O O6 0.251084 0.653196 0.452768
O O7 0.148131 0.124252 0.335745
O O8 0.410368 0.862318 0.263887
O O9 0.865477 0.311601 0.760278
O O10 0.084279 0.738509 0.898669
O O11 0.000000 0.000000 0.000000
O O12 0.790137 0.493512 0.259758
O O13 0.898719 0.009093 0.383954
O O14 0.062876 0.521867 0.605984
O O15 0.371549 0.157300 0.689782
O O16 0.234836 0.233596 0.451172
O O17 0.356312 0.263887 0.213855
#
# Coordination Sequence:
#
# PCOD9019884 Si02
#       8
#     2   2   2   2   2   2   2   2
#     4  10  23  47  63  96 147 183 229 278 341 420
#     4  10  21  45  71 105 138 177 242 287 340 410
#     4  12  24  44  69  99 147 186 220 288 354 417
#     4  11  23  44  74 100 137 184 233 294 342 402
#     4  11  21  43  77 105 135 174 241 300 333 401
#     4  10  25  44  65 102 143 180 232 280 347 416
#     4  10  21  46  74 103 132 182 243 288 340 400
#     4  10  23  44  72 102 136 190 234 280 348 414
#
# _framework density 25.773534000000001
#
# number of rings (size 3 to 8) (size 9 to 14) (size 15 to 20)
#    0.000    1.500    2.500    2.625    1.750    4.500 
#    6.750    1.875    0.000    0.000    0.000    0.000 
#    0.000    0.000    0.000    0.000    0.000    0.000 
#
# Total GULP energy -89090.624303 kJ/mol
# GULP energy per Si atom -5568.164019 kJ/mol
# Density = 2.571487 g / cm^3
# Si number density = 25.773534 Si / 1000 Ang^3
#
#
#
# Elastic Constant Matrix: (Units=GPa)
#
#
# Indices 1 2 3 4 5 6 
#
# 1 162.8450 15.1719 47.9186 -12.6531 8.4249 -20.9041
# 2 15.1719 77.6461 33.3889 16.4551 4.0142 -5.9789
# 3 47.9186 33.3889 45.0220 8.6513 16.8433 2.4300
# 4 -12.6531 16.4551 8.6513 33.7461 10.7809 -2.1269
# 5 8.4249 4.0142 16.8433 10.7809 51.2092 3.4865
# 6 -20.9041 -5.9789 2.4300 -2.1269 3.4865 25.6881
#
#
#
# Elastic Compliance Matrix: (Units=1/GPa)
#
#
# Indices 1 2 3 4 5 6 
#
# 1 0.016054 0.007319 -0.026118 0.009577 0.002151 0.017740
# 2 0.007319 0.025313 -0.028944 -0.003278 0.006103 0.013486
# 3 -0.026118 -0.028944 0.081649 -0.014027 -0.014964 -0.034845
# 4 0.009577 -0.003278 -0.014027 0.041207 -0.006239 0.012616
# 5 0.002151 0.006103 -0.014964 -0.006239 0.024883 0.000693
# 6 0.017740 0.013486 -0.034845 0.012616 0.000693 0.060750
#
#
# Mechanical properties :
#
#
# Convention : Reuss Voigt Hill
#
# Bulk Modulus (GPa) = 36.32237 53.16355 44.74296
# Shear Modulus (GPa) = 14.10363 34.73093 24.41728
#
# Velocity S-wave (km/s) = 2.34180 3.67487 3.08129
# Velocity P-wave (km/s) = 4.62985 6.21918 5.48241
#
# Compressibility (1/GPa) = 0.02753124
#
# Stress axis : x y z
#
# Youngs Moduli (GPa) = 62.28805 39.50607 12.24752
#
# Poissons Ratio (x) = -0.28916 0.31988
# Poissons Ratio (y) = -0.45590 0.35449
# Poissons Ratio (z) = 1.62685 1.14345
#
# Static dielectric constant tensor:
#      x y z
#    x 2.121710 0.130350 -0.054950 
#    y 0.130350 2.153560 0.028610 
#    z -0.054950 0.028610 2.060310 
# 
# From -- ./inp_files/418889.got.cif
#   From: 2010.05.17/outbox.cif.g08.bks.cpg/sg2_210_cif.got.tgz:418889.got - 2010.06.03 11:33:40.
