data_PCOD9019070
_publ_section_title
;
Structure prediction by ZEFSAII (Michael W. Deem and Ramdas Pophale) SiO2 
 PCOD9019070
Probable space group: P -1
;
_chemical_formula_sum "Si O2"
_cell_formula_units_Z 12
_cell_length_a 9.959055
_cell_length_b 6.791254
_cell_length_c 9.733245
_cell_angle_alpha 130.291611
_cell_angle_beta 119.741362
_cell_angle_gamma 74.863708
_cell_volume 434.211005
_symmetry_space_group_name_H-M "P -1"
_symmetry_group_IT_number 2
_symmetry_cell_setting 'triclinic'
loop_
_space_group_symop_operation_xyz
x,y,z
-x,-y,-z
loop_
_atom_site_type_symbol
_atom_site_label
_atom_site_fract_x
_atom_site_fract_y
_atom_site_fract_z
Si Si1 0.532664 0.745353 0.222720
Si Si2 0.199131 0.781798 0.159477
Si Si3 0.135097 0.210780 0.544369
Si Si4 0.146766 0.296263 0.114430
Si Si5 0.376284 0.474227 0.542969
Si Si6 0.812906 0.194812 0.273950
O O1 0.361944 0.852338 0.194922
O O2 0.711821 0.833876 0.308893
O O3 0.561935 0.682337 0.369525
O O4 0.500000 0.500000 0.000000
O O5 0.203955 0.527770 0.143411
O O6 0.157801 0.005713 0.342422
O O7 0.039493 0.718749 0.965862
O O8 0.157428 0.517260 0.651617
O O9 0.948438 0.169614 0.445534
O O10 0.225890 0.358208 0.328686
O O11 0.186287 0.036787 0.937887
O O12 0.500000 0.500000 0.500000
O O13 0.348948 0.756703 0.715764
#
# Coordination Sequence:
#
# PCOD9019070 Si02
#       6
#     2   2   2   2   2   2
#     4  11  24  44  67 102 141 182 226 284 343 409
#     4  10  21  44  68 102 135 180 226 283 344 403
#     4   9  20  44  66  95 141 179 222 281 341 410
#     4  10  22  44  73  97 137 181 228 283 340 408
#     4  11  23  46  70  99 138 184 228 282 341 414
#     4   9  21  43  68 102 132 179 231 278 340 412
#
# _framework density 27.636333
#
# number of rings (size 3 to 8) (size 9 to 14) (size 15 to 20)
#    0.000    2.000    1.667    0.500    2.333    0.667 
#   21.000   10.000    0.000    0.000    0.000    0.000 
#    0.000    0.000    0.000    0.000    0.000    0.000 
#
# Total GULP energy -67037.988485 kJ/mol
# GULP energy per Si atom -5586.499040 kJ/mol
# Density = 2.757343 g / cm^3
# Si number density = 27.636333 Si / 1000 Ang^3
#
#
#
# Elastic Constant Matrix: (Units=GPa)
#
#
# Indices 1 2 3 4 5 6 
#
# 1 149.1303 29.6171 31.8818 9.7205 15.4447 -45.2342
# 2 29.6171 131.6273 45.9045 13.1395 -0.8121 -9.1674
# 3 31.8818 45.9045 164.1585 -11.1277 5.0361 -8.0765
# 4 9.7205 13.1395 -11.1277 54.9762 -24.4552 5.2389
# 5 15.4447 -0.8121 5.0361 -24.4552 54.3261 -0.3776
# 6 -45.2342 -9.1674 -8.0765 5.2389 -0.3776 49.2324
#
#
#
# Elastic Compliance Matrix: (Units=1/GPa)
#
#
# Indices 1 2 3 4 5 6 
#
# 1 0.011369 -0.000692 -0.001707 -0.005676 -0.005566 0.010598
# 2 -0.000692 0.008984 -0.002509 -0.002961 -0.000763 0.000934
# 3 -0.001707 -0.002509 0.007235 0.002968 0.001105 -0.001156
# 4 -0.005676 -0.002961 0.002968 0.027286 0.013521 -0.008079
# 5 -0.005566 -0.000763 0.001105 0.013521 0.025919 -0.006314
# 6 0.010598 0.000934 -0.001156 -0.008079 -0.006314 0.030845
#
#
# Mechanical properties :
#
#
# Convention : Reuss Voigt Hill
#
# Bulk Modulus (GPa) = 56.27112 73.30257 64.78684
# Shear Modulus (GPa) = 39.25321 54.20780 46.73051
#
# Velocity S-wave (km/s) = 3.77284 4.43365 4.11653
# Velocity P-wave (km/s) = 6.27571 7.26576 6.78881
#
# Compressibility (1/GPa) = 0.01777111
#
# Stress axis : x y z
#
# Youngs Moduli (GPa) = 87.95919 111.30924 138.21290
#
# Poissons Ratio (x) = 0.07708 0.23592
# Poissons Ratio (y) = 0.06091 0.34679
# Poissons Ratio (z) = 0.15014 0.27929
#
# Static dielectric constant tensor:
#      x y z
#    x 2.328320 0.047500 0.105960 
#    y 0.047500 2.227740 0.029140 
#    z 0.105960 0.029140 2.091460 
# 
# From -- ./inp_files/82396.got.cif
#   From: 2010.05.17/outbox.cif.g08.bks.cpg/sg2_42_cif.got.tgz:82396.got - 2010.06.03 11:33:40.
