data_PCOD9019848
_publ_section_title
;
Structure prediction by ZEFSAII (Michael W. Deem and Ramdas Pophale) SiO2 
 PCOD9019848
Probable space group: P -1
;
_chemical_formula_sum "Si O2"
_cell_formula_units_Z 16
_cell_length_a 16.383730
_cell_length_b 5.582007
_cell_length_c 14.176074
_cell_angle_alpha 108.976339
_cell_angle_beta 145.639212
_cell_angle_gamma 81.749016
_cell_volume 672.736671
_symmetry_space_group_name_H-M "P -1"
_symmetry_group_IT_number 2
_symmetry_cell_setting 'triclinic'
loop_
_space_group_symop_operation_xyz
x,y,z
-x,-y,-z
loop_
_atom_site_type_symbol
_atom_site_label
_atom_site_fract_x
_atom_site_fract_y
_atom_site_fract_z
Si Si1 0.047736 0.455981 0.804058
Si Si2 0.883100 0.765082 0.969168
Si Si3 0.598694 0.734018 0.336191
Si Si4 0.123264 0.092138 0.514456
Si Si5 0.701110 0.095231 0.955475
Si Si6 0.826511 0.147059 0.273922
Si Si7 0.438644 0.686155 0.892259
Si Si8 0.832819 0.772276 0.712600
O O1 0.976622 0.179265 0.657056
O O2 0.915903 0.605703 0.703664
O O3 0.102820 0.435517 0.961554
O O4 0.190202 0.616436 0.906252
O O5 0.826283 0.667851 0.799506
O O6 0.772292 0.933821 0.926772
O O7 0.050085 0.947031 0.139860
O O8 0.464509 0.876451 0.216600
O O9 0.547347 0.435951 0.212567
O O10 0.674682 0.766080 0.514988
O O11 0.732999 0.846407 0.406243
O O12 0.168837 0.041987 0.657678
O O13 0.995603 0.252902 0.415274
O O14 0.732710 0.002755 0.077730
O O15 0.734180 0.347979 0.249185
O O16 0.500000 0.500000 0.000000
O O17 0.500000 0.000000 0.000000
#
# Coordination Sequence:
#
# PCOD9019848 Si02
#       8
#     2   2   2   2   2   2   2   2
#     4  11  21  43  68 100 133 187 235 291 364 428
#     4  10  21  45  70 103 136 184 230 295 365 425
#     4  12  25  47  67 108 139 188 238 298 361 435
#     4  11  24  42  75 101 139 184 252 304 351 442
#     4  11  25  41  69  97 144 186 233 292 366 440
#     4  11  24  44  68 101 137 191 239 300 358 433
#     4  12  27  46  71 104 149 195 243 296 374 444
#     4  10  22  41  74 102 138 176 239 296 355 430
#
# _framework density 23.783452
#
# number of rings (size 3 to 8) (size 9 to 14) (size 15 to 20)
#    0.000    1.000    3.750    2.625    1.750    3.500 
#    2.250    0.625    0.000    0.000    0.000    0.000 
#    0.000    0.000    0.000    0.000    0.000    0.000 
#
# Total GULP energy -89540.260379 kJ/mol
# GULP energy per Si atom -5596.266274 kJ/mol
# Density = 2.372932 g / cm^3
# Si number density = 23.783452 Si / 1000 Ang^3
#
#
#
# Elastic Constant Matrix: (Units=GPa)
#
#
# Indices 1 2 3 4 5 6 
#
# 1 87.8310 18.8638 55.6056 -11.6719 0.4106 1.7019
# 2 18.8638 67.5557 53.4007 -22.1041 13.9013 -5.1083
# 3 55.6056 53.4007 166.3071 -40.7077 1.0936 -1.2531
# 4 -11.6719 -22.1041 -40.7077 44.9878 -1.8823 3.7282
# 5 0.4106 13.9013 1.0936 -1.8823 55.1296 -11.9060
# 6 1.7019 -5.1083 -1.2531 3.7282 -11.9060 41.9555
#
#
#
# Elastic Compliance Matrix: (Units=1/GPa)
#
#
# Indices 1 2 3 4 5 6 
#
# 1 0.014497 -0.000493 -0.004905 -0.000861 -0.000075 -0.000739
# 2 -0.000493 0.022279 -0.005610 0.005475 -0.005185 0.000607
# 3 -0.004905 -0.005610 0.010888 0.005905 0.001373 -0.000294
# 4 -0.000861 0.005475 0.005905 0.030171 -0.000906 -0.002060
# 5 -0.000075 -0.005185 0.001373 -0.000906 0.020538 0.005322
# 6 -0.000739 0.000607 -0.000294 -0.002060 0.005322 0.025623
#
#
# Mechanical properties :
#
#
# Convention : Reuss Voigt Hill
#
# Bulk Modulus (GPa) = 38.98824 64.15933 51.57379
# Shear Modulus (GPa) = 32.34946 41.33615 36.84281
#
# Velocity S-wave (km/s) = 3.69205 4.17348 3.94012
# Velocity P-wave (km/s) = 5.88248 7.08935 6.51393
#
# Compressibility (1/GPa) = 0.02564876
#
# Stress axis : x y z
#
# Youngs Moduli (GPa) = 68.98108 44.88506 91.84035
#
# Poissons Ratio (x) = 0.02214 0.45043
# Poissons Ratio (y) = 0.03402 0.51523
# Poissons Ratio (z) = 0.33832 0.25181
#
# Static dielectric constant tensor:
#      x y z
#    x 1.918160 0.023200 0.010390 
#    y 0.023200 1.960720 0.026930 
#    z 0.010390 0.026930 1.923240 
# 
# From -- ./inp_files/536430.got.cif
#   From: 2010.05.17/outbox.cif.g08.bks.cpg/sg2_269_cif.got.tgz:536430.got - 2010.06.03 11:33:40.
