data_PCOD9019007
_publ_section_title
;
Structure prediction by ZEFSAII (Michael W. Deem and Ramdas Pophale) SiO2 
 PCOD9019007
Probable space group: P -1
;
_chemical_formula_sum "Si O2"
_cell_formula_units_Z 14
_cell_length_a 10.237007
_cell_length_b 7.361237
_cell_length_c 23.680797
_cell_angle_alpha 142.115860
_cell_angle_beta 31.426517
_cell_angle_gamma 138.148276
_cell_volume 556.974680
_symmetry_space_group_name_H-M "P -1"
_symmetry_group_IT_number 2
_symmetry_cell_setting 'triclinic'
loop_
_space_group_symop_operation_xyz
x,y,z
-x,-y,-z
loop_
_atom_site_type_symbol
_atom_site_label
_atom_site_fract_x
_atom_site_fract_y
_atom_site_fract_z
Si Si1 0.976315 0.101723 0.813853
Si Si2 0.177542 0.890322 0.248084
Si Si3 0.405371 0.322929 0.434392
Si Si4 0.233970 0.444844 0.938856
Si Si5 0.936621 0.224073 0.182786
Si Si6 0.062468 0.770170 0.485111
Si Si7 0.493524 0.450773 0.248164
O O1 0.251878 0.334749 0.769273
O O2 0.996752 0.876693 0.802847
O O3 0.930870 0.991335 0.740201
O O4 0.759452 0.296873 0.954058
O O5 0.247758 0.565585 0.390501
O O6 0.461652 0.104523 0.194815
O O7 0.029197 0.990541 0.380777
O O8 0.500000 0.500000 0.500000
O O9 0.666582 0.326048 0.306609
O O10 0.185182 0.420551 0.503188
O O11 0.260001 0.983134 0.421481
O O12 0.470995 0.512705 0.824315
O O13 0.132588 0.091134 0.903911
O O14 0.000000 0.500000 0.000000
O O15 0.144525 0.530445 0.168031
#
# Coordination Sequence:
#
# PCOD9019007 Si02
#       7
#     2   2   2   2   2   2   2
#     4  10  24  46  70  92 134 181 218 267 336 387
#     4  12  26  38  68 107 130 170 226 265 333 394
#     4  11  22  40  67  95 131 179 220 262 329 396
#     4   8  18  44  71  88 129 182 218 265 333 382
#     4  10  21  44  67  94 131 176 219 272 322 388
#     4  11  24  39  64 101 135 172 218 265 330 399
#     4  10  22  42  62  97 137 172 218 279 319 390
#
# _framework density 25.135794000000001
#
# number of rings (size 3 to 8) (size 9 to 14) (size 15 to 20)
#    0.000    2.000    4.286    0.429    4.000    1.714 
#    0.000    6.429    0.000    0.000    0.000    0.000 
#    0.000    0.000    0.000    0.000    0.000    0.000 
#
# Total GULP energy -78160.232671 kJ/mol
# GULP energy per Si atom -5582.873762 kJ/mol
# Density = 2.507858 g / cm^3
# Si number density = 25.135794 Si / 1000 Ang^3
#
#
#
# Elastic Constant Matrix: (Units=GPa)
#
#
# Indices 1 2 3 4 5 6 
#
# 1 93.3292 28.7338 21.8470 -7.4613 8.4609 5.1353
# 2 28.7338 140.3780 9.9790 12.8733 -11.3903 -20.7887
# 3 21.8470 9.9790 91.2068 8.0048 2.1523 5.1867
# 4 -7.4613 12.8733 8.0048 20.7186 -3.8527 -2.8780
# 5 8.4609 -11.3903 2.1523 -3.8527 29.7294 -0.5737
# 6 5.1353 -20.7887 5.1867 -2.8780 -0.5737 33.6042
#
#
#
# Elastic Compliance Matrix: (Units=1/GPa)
#
#
# Indices 1 2 3 4 5 6 
#
# 1 0.013990 -0.004236 -0.003238 0.007580 -0.004459 -0.003686
# 2 -0.004236 0.009817 0.000004 -0.005951 0.004317 0.006284
# 3 -0.003238 0.000004 0.012434 -0.006405 -0.000846 -0.001985
# 4 0.007580 -0.005951 -0.006405 0.057994 0.003565 0.001176
# 5 -0.004459 0.004317 -0.000846 0.003565 0.037168 0.004422
# 6 -0.003686 0.006284 -0.001985 0.001176 0.004422 0.034692
#
#
# Mechanical properties :
#
#
# Convention : Reuss Voigt Hill
#
# Bulk Modulus (GPa) = 46.94756 49.55929 48.25342
# Shear Modulus (GPa) = 26.57646 34.43405 30.50525
#
# Velocity S-wave (km/s) = 3.25517 3.70526 3.48748
# Velocity P-wave (km/s) = 5.73117 6.16966 5.95445
#
# Compressibility (1/GPa) = 0.02130036
#
# Stress axis : x y z
#
# Youngs Moduli (GPa) = 71.47975 101.86361 80.42250
#
# Poissons Ratio (x) = 0.43151 0.26041
# Poissons Ratio (y) = 0.30280 -0.00030
# Poissons Ratio (z) = 0.23145 -0.00038
#
# Static dielectric constant tensor:
#      x y z
#    x 2.091670 -0.052430 0.094670 
#    y -0.052430 2.045300 0.021890 
#    z 0.094670 0.021890 2.087780 
# 
# From -- ./inp_files/606243.got.cif
#   From: 2010.05.17/outbox.cif.g08.bks.cpg/sg2_304_cif.got.tgz:606243.got - 2010.06.03 11:33:40.
