data_PCOD9019747
_publ_section_title
;
Structure prediction by ZEFSAII (Michael W. Deem and Ramdas Pophale) SiO2 
 PCOD9019747
Probable space group: P -1
;
_chemical_formula_sum "Si O2"
_cell_formula_units_Z 14
_cell_length_a 20.873823
_cell_length_b 13.843180
_cell_length_c 6.048099
_cell_angle_alpha 113.929928
_cell_angle_beta 101.880403
_cell_angle_gamma 22.124100
_cell_volume 523.252006
_symmetry_space_group_name_H-M "P -1"
_symmetry_group_IT_number 2
_symmetry_cell_setting 'triclinic'
loop_
_space_group_symop_operation_xyz
x,y,z
-x,-y,-z
loop_
_atom_site_type_symbol
_atom_site_label
_atom_site_fract_x
_atom_site_fract_y
_atom_site_fract_z
Si Si1 0.931465 0.730513 0.839358
Si Si2 0.525153 0.291002 0.154407
Si Si3 0.352617 0.294392 0.385481
Si Si4 0.341744 0.088128 0.430885
Si Si5 0.081501 0.696629 0.201833
Si Si6 0.234115 0.861569 0.233670
Si Si7 0.799606 0.259607 0.284927
O O1 0.126696 0.369633 0.584913
O O2 0.753514 0.956815 0.070251
O O3 0.818262 0.950307 0.750898
O O4 0.031708 0.677457 0.985255
O O5 0.536409 0.181535 0.875805
O O6 0.432723 0.538908 0.213251
O O7 0.377719 0.486700 0.428821
O O8 0.320319 0.228777 0.405435
O O9 0.208026 0.606608 0.660930
O O10 0.297168 0.373025 0.159958
O O11 0.552825 0.037089 0.384975
O O12 0.938741 0.893396 0.488649
O O13 0.001038 0.923536 0.238294
O O14 0.233073 0.772655 0.963883
#
# Coordination Sequence:
#
# PCOD9019747 Si02
#       7
#     2   2   2   2   2   2   2
#     4  11  24  44  68 100 134 173 224 269 330 395
#     4  11  24  44  68 100 134 173 224 269 330 395
#     4  11  23  46  66  95 140 173 222 270 326 400
#     4  11  25  44  70  98 131 185 214 268 336 391
#     4  10  23  42  70 104 128 174 221 274 334 382
#     4  10  21  45  68 100 132 175 221 272 334 378
#     4  10  23  42  70 104 128 174 221 274 334 382
#
# _framework density 26.755749000000002
#
# number of rings (size 3 to 8) (size 9 to 14) (size 15 to 20)
#    0.000    1.429    2.857    1.286    0.000   11.429 
#    0.000    1.429    0.000    0.000    0.000    0.000 
#    0.000    0.000    0.000    0.000    0.000    0.000 
#
# Total GULP energy -78401.685856 kJ/mol
# GULP energy per Si atom -5600.120418 kJ/mol
# Density = 2.669485 g / cm^3
# Si number density = 26.755749 Si / 1000 Ang^3
#
#
#
# Elastic Constant Matrix: (Units=GPa)
#
#
# Indices 1 2 3 4 5 6 
#
# 1 81.9983 48.5443 26.5039 11.6704 11.2020 1.4612
# 2 48.5443 168.2945 19.7482 18.4163 -19.9220 -3.5956
# 3 26.5039 19.7482 149.1256 22.7020 -20.6243 -0.4176
# 4 11.6704 18.4163 22.7020 20.6940 -11.4337 -1.1657
# 5 11.2020 -19.9220 -20.6243 -11.4337 38.1482 16.0370
# 6 1.4612 -3.5956 -0.4176 -1.1657 16.0370 51.7115
#
#
#
# Elastic Compliance Matrix: (Units=1/GPa)
#
#
# Indices 1 2 3 4 5 6 
#
# 1 0.020603 -0.006146 -0.003356 -0.011061 -0.015925 0.003653
# 2 -0.006146 0.008557 0.001176 -0.001641 0.007021 -0.001436
# 3 -0.003356 0.001176 0.008771 -0.006004 0.005169 -0.001491
# 4 -0.011061 -0.001641 -0.006004 0.075658 0.024196 -0.005648
# 5 -0.015925 0.007021 0.005169 0.024196 0.050552 -0.014152
# 6 0.003653 -0.001436 -0.001491 -0.005648 -0.014152 0.023385
#
#
# Mechanical properties :
#
#
# Convention : Reuss Voigt Hill
#
# Bulk Modulus (GPa) = 46.99500 65.44572 56.22036
# Shear Modulus (GPa) = 23.66622 42.41887 33.04255
#
# Velocity S-wave (km/s) = 2.97733 3.98604 3.51803
# Velocity P-wave (km/s) = 5.42420 6.76005 6.12863
#
# Compressibility (1/GPa) = 0.02127886
#
# Stress axis : x y z
#
# Youngs Moduli (GPa) = 48.53581 116.86721 114.00844
#
# Poissons Ratio (x) = 0.71825 0.38265
# Poissons Ratio (y) = 0.29829 -0.13407
# Poissons Ratio (z) = 0.16290 -0.13743
#
# Static dielectric constant tensor:
#      x y z
#    x 2.076690 -0.007180 0.015520 
#    y -0.007180 2.131660 0.028330 
#    z 0.015520 0.028330 2.110950 
# 
# From -- ./inp_files/124358.got.cif
#   From: 2010.05.17/outbox.cif.g08.bks.cpg/sg2_63_cif.got.tgz:124358.got - 2010.06.03 11:33:40.
