data_PCOD9019558
_publ_section_title
;
Structure prediction by ZEFSAII (Michael W. Deem and Ramdas Pophale) SiO2 
 PCOD9019558
Probable space group: P -1
;
_chemical_formula_sum "Si O2"
_cell_formula_units_Z 12
_cell_length_a 5.342064
_cell_length_b 17.376763
_cell_length_c 5.591534
_cell_angle_alpha 67.205988
_cell_angle_beta 95.461646
_cell_angle_gamma 80.760778
_cell_volume 465.187794
_symmetry_space_group_name_H-M "P -1"
_symmetry_group_IT_number 2
_symmetry_cell_setting 'triclinic'
loop_
_space_group_symop_operation_xyz
x,y,z
-x,-y,-z
loop_
_atom_site_type_symbol
_atom_site_label
_atom_site_fract_x
_atom_site_fract_y
_atom_site_fract_z
Si Si1 0.072749 0.401933 0.539717
Si Si2 0.339576 0.956553 0.353129
Si Si3 0.524018 0.446058 0.313182
Si Si4 0.701981 0.739595 0.890091
Si Si5 0.845680 0.204422 0.425239
Si Si6 0.242489 0.127347 0.893462
O O1 0.286185 0.399783 0.359773
O O2 0.199797 0.343454 0.838680
O O3 0.000000 0.500000 0.500000
O O4 0.806226 0.385711 0.432756
O O5 0.166641 0.894756 0.517658
O O6 0.553112 0.897544 0.272879
O O7 0.500000 0.000000 0.500000
O O8 0.194434 0.038507 0.094062
O O9 0.500000 0.500000 0.500000
O O10 0.500000 0.500000 0.000000
O O11 0.633511 0.819702 0.968781
O O12 0.439529 0.742933 0.717692
O O13 0.944518 0.758166 0.745822
O O14 0.974163 0.188682 0.717233
#
# Coordination Sequence:
#
# PCOD9019558 Si02
#       6
#     2   2   2   2   2   2
#     4  10  23  48  71 103 143 189 243 300 369 437
#     4  11  23  47  72 102 142 188 237 293 358 438
#     4  10  21  44  74 107 140 184 244 305 365 443
#     4  12  27  47  71 102 150 184 242 299 361 429
#     4  12  25  47  68 107 140 188 235 299 360 427
#     4  11  25  44  71 104 141 187 240 290 365 425
#
# _framework density 25.796033000000001
#
# number of rings (size 3 to 8) (size 9 to 14) (size 15 to 20)
#    0.000    1.000    3.333    2.000    2.333    2.667 
#   18.000    0.000    0.000    0.000    0.000    0.000 
#    0.000    0.000    0.000    0.000    0.000    0.000 
#
# Total GULP energy -67198.144151 kJ/mol
# GULP energy per Si atom -5599.845346 kJ/mol
# Density = 2.573732 g / cm^3
# Si number density = 25.796033 Si / 1000 Ang^3
#
#
#
# Elastic Constant Matrix: (Units=GPa)
#
#
# Indices 1 2 3 4 5 6 
#
# 1 225.5354 35.9312 97.9686 -16.5859 6.0152 -3.3984
# 2 35.9312 104.7331 30.3931 -2.2559 6.0861 -17.7829
# 3 97.9686 30.3931 193.7143 -50.5958 14.9258 -11.6645
# 4 -16.5859 -2.2559 -50.5958 64.7596 3.1974 3.9046
# 5 6.0152 6.0861 14.9258 3.1974 52.5845 -4.4911
# 6 -3.3984 -17.7829 -11.6645 3.9046 -4.4911 31.7547
#
#
#
# Elastic Compliance Matrix: (Units=1/GPa)
#
#
# Indices 1 2 3 4 5 6 
#
# 1 0.005905 -0.001352 -0.003103 -0.000908 0.000322 -0.001108
# 2 -0.001352 0.011296 -0.000988 -0.001066 -0.000303 0.005907
# 3 -0.003103 -0.000988 0.008706 0.006008 -0.002260 0.001254
# 4 -0.000908 -0.001066 0.006008 0.020087 -0.002815 -0.001355
# 5 0.000322 -0.000303 -0.002260 -0.002815 0.020017 0.002212
# 6 -0.001108 0.005907 0.001254 -0.001355 0.002212 0.035621
#
#
# Mechanical properties :
#
#
# Convention : Reuss Voigt Hill
#
# Bulk Modulus (GPa) = 66.57374 94.72986 80.65180
# Shear Modulus (GPa) = 42.54454 53.79908 48.17181
#
# Velocity S-wave (km/s) = 4.06552 4.57174 4.32604
# Velocity P-wave (km/s) = 6.92111 8.04178 7.50240
#
# Compressibility (1/GPa) = 0.01502094
#
# Stress axis : x y z
#
# Youngs Moduli (GPa) = 169.34509 88.52622 114.86904
#
# Poissons Ratio (x) = 0.11966 0.35645
# Poissons Ratio (y) = 0.22891 0.11350
# Poissons Ratio (z) = 0.52550 0.08747
#
# Static dielectric constant tensor:
#      x y z
#    x 2.030340 -0.135180 -0.078940 
#    y -0.135180 1.245260 -0.463920 
#    z -0.078940 -0.463920 1.781220 
# 
# From -- ./inp_files/6203.got.cif
#   From: 2010.05.17/outbox.cif.g08.bks.cpg/sg2_4_cif.got.tgz:6203.got - 2010.06.03 11:33:40.
