data_PCOD9019316
_publ_section_title
;
Structure prediction by ZEFSAII (Michael W. Deem and Ramdas Pophale) SiO2 
 PCOD9019316
Probable space group: P -1
;
_chemical_formula_sum "Si O2"
_cell_formula_units_Z 14
_cell_length_a 21.833410
_cell_length_b 8.213240
_cell_length_c 13.260571
_cell_angle_alpha 67.776326
_cell_angle_beta 151.206449
_cell_angle_gamma 132.765385
_cell_volume 664.212229
_symmetry_space_group_name_H-M "P -1"
_symmetry_group_IT_number 2
_symmetry_cell_setting 'triclinic'
loop_
_space_group_symop_operation_xyz
x,y,z
-x,-y,-z
loop_
_atom_site_type_symbol
_atom_site_label
_atom_site_fract_x
_atom_site_fract_y
_atom_site_fract_z
Si Si1 0.982684 0.984892 0.597899
Si Si2 0.697382 0.978280 0.420607
Si Si3 0.909844 0.776988 0.006080
Si Si4 0.616901 0.598714 0.792013
Si Si5 0.625527 0.295212 0.567349
Si Si6 0.293620 0.633158 0.569915
Si Si7 0.388798 0.195494 0.883272
O O1 0.858044 0.685097 0.536404
O O2 0.847800 0.014600 0.409233
O O3 0.000000 0.000000 0.500000
O O4 0.204473 0.222059 0.909930
O O5 0.550436 0.729149 0.348729
O O6 0.579208 0.839976 0.175764
O O7 0.757613 0.236336 0.483895
O O8 0.902903 0.084670 0.688752
O O9 0.735542 0.685486 0.839808
O O10 0.812768 0.517123 0.861921
O O11 0.000000 0.000000 0.000000
O O12 0.506619 0.667683 0.624540
O O13 0.694844 0.348609 0.538825
O O14 0.500000 0.000000 0.500000
O O15 0.517225 0.830116 0.891676
O O16 0.500000 0.500000 0.000000
#
# Coordination Sequence:
#
# PCOD9019316 Si02
#       7
#     2   2   2   2   2   2   2
#     4  11  22  42  71 103 135 183 229 286 351 419
#     4  12  25  46  72 104 140 184 229 292 351 413
#     4  12  26  45  70 100 142 188 236 282 347 415
#     4  12  24  46  69 100 139 183 238 283 348 413
#     4  12  27  45  71 104 140 187 236 287 345 416
#     4  11  25  45  70 103 143 180 231 294 349 411
#     4  10  21  44  70  98 137 176 229 281 348 413
#
# _framework density 21.0776
#
# number of rings (size 3 to 8) (size 9 to 14) (size 15 to 20)
#    0.000    0.571    2.857    6.857    4.000    0.571 
#    2.571    1.429    0.000    0.000    0.000    0.000 
#    0.000    0.000    0.000    0.000    0.000    0.000 
#
# Total GULP energy -78217.110131 kJ/mol
# GULP energy per Si atom -5586.936438 kJ/mol
# Density = 2.102963 g / cm^3
# Si number density = 21.077600 Si / 1000 Ang^3
#
#
#
# Elastic Constant Matrix: (Units=GPa)
#
#
# Indices 1 2 3 4 5 6 
#
# 1 113.6276 3.8250 -5.9651 0.7878 -17.9982 24.3243
# 2 3.8250 63.5556 -12.9798 16.1518 -3.2925 12.6352
# 3 -5.9651 -12.9798 89.4617 4.7822 -14.4473 2.3418
# 4 0.7878 16.1518 4.7822 29.7650 -0.9432 1.2874
# 5 -17.9982 -3.2925 -14.4473 -0.9432 45.4292 -6.8059
# 6 24.3243 12.6352 2.3418 1.2874 -6.8059 36.0771
#
#
#
# Elastic Compliance Matrix: (Units=1/GPa)
#
#
# Indices 1 2 3 4 5 6 
#
# 1 0.011056 0.001651 0.001866 -0.001044 0.003968 -0.007368
# 2 0.001651 0.021249 0.004383 -0.011864 0.002141 -0.008013
# 3 0.001866 0.004383 0.012995 -0.004254 0.004712 -0.002596
# 4 -0.001044 -0.011864 -0.004254 0.040556 -0.001268 0.003449
# 5 0.003968 0.002141 0.004712 -0.001268 0.025377 0.001101
# 6 -0.007368 -0.008013 -0.002596 0.003449 0.001101 0.035746
#
#
# Mechanical properties :
#
#
# Convention : Reuss Voigt Hill
#
# Bulk Modulus (GPa) = 16.36638 26.26726 21.31682
# Shear Modulus (GPa) = 32.99367 41.03856 37.01612
#
# Velocity S-wave (km/s) = 3.96073 4.41729 4.19523
# Velocity P-wave (km/s) = 5.35707 6.20531 5.79673
#
# Compressibility (1/GPa) = 0.06110086
#
# Stress axis : x y z
#
# Youngs Moduli (GPa) = 90.44794 47.06116 76.95476
#
# Poissons Ratio (x) = -0.07772 -0.14362
# Poissons Ratio (y) = -0.14937 -0.33728
# Poissons Ratio (z) = -0.16880 -0.20626
#
# Static dielectric constant tensor:
#      x y z
#    x 2.012900 0.079830 0.003920 
#    y 0.079830 1.734640 -0.025450 
#    z 0.003920 -0.025450 1.748480 
# 
# From -- ./inp_files/289238.got.cif
#   From: 2010.05.17/outbox.cif.g08.bks.cpg/sg2_145_cif.got.tgz:289238.got - 2010.06.03 11:33:40.
