data_PCOD9019803
_publ_section_title
;
Structure prediction by ZEFSAII (Michael W. Deem and Ramdas Pophale) SiO2 
 PCOD9019803
Probable space group: P -1
;
_chemical_formula_sum "Si O2"
_cell_formula_units_Z 16
_cell_length_a 17.413421
_cell_length_b 8.896940
_cell_length_c 17.100292
_cell_angle_alpha 150.600766
_cell_angle_beta 32.316735
_cell_angle_gamma 136.687640
_cell_volume 694.874998
_symmetry_space_group_name_H-M "P -1"
_symmetry_group_IT_number 2
_symmetry_cell_setting 'triclinic'
loop_
_space_group_symop_operation_xyz
x,y,z
-x,-y,-z
loop_
_atom_site_type_symbol
_atom_site_label
_atom_site_fract_x
_atom_site_fract_y
_atom_site_fract_z
Si Si1 0.927290 0.426353 0.690406
Si Si2 0.606885 0.852800 0.275778
Si Si3 0.377240 0.756493 0.717196
Si Si4 0.167015 0.898429 0.215381
Si Si5 0.160478 0.465746 0.871926
Si Si6 0.342295 0.387204 0.103726
Si Si7 0.833933 0.097938 0.285607
Si Si8 0.626447 0.600315 0.741918
O O1 0.877665 0.281118 0.749304
O O2 0.787469 0.498990 0.789419
O O3 0.013177 0.743300 0.772278
O O4 0.041984 0.173053 0.439758
O O5 0.534828 0.524514 0.176698
O O6 0.500000 0.000000 0.500000
O O7 0.601242 0.054811 0.294497
O O8 0.771793 0.878308 0.172430
O O9 0.500000 0.500000 0.500000
O O10 0.241192 0.562734 0.768051
O O11 0.366218 0.021740 0.911537
O O12 0.319956 0.062868 0.168652
O O13 0.177943 0.686144 0.032598
O O14 0.191119 0.117173 0.715368
O O15 0.000000 0.500000 0.000000
O O16 0.312978 0.473381 0.257060
O O17 0.500000 0.500000 0.000000
O O18 0.722893 0.386108 0.505188
#
# Coordination Sequence:
#
# PCOD9019803 Si02
#       8
#     2   2   2   2   2   2   2   2
#     4  10  25  48  71 104 140 192 240 293 363 434
#     4  10  22  45  71 101 140 187 239 286 361 431
#     4  12  26  46  69 105 143 187 243 296 361 427
#     4  10  24  46  72 105 143 183 242 300 359 423
#     4  12  27  42  68 109 143 187 240 303 359 431
#     4  12  25  44  70 100 137 187 236 291 354 428
#     4  10  24  44  73  96 142 191 228 296 359 426
#     4  10  21  45  69 100 136 182 237 289 356 418
#
# _framework density 23.025724
#
# number of rings (size 3 to 8) (size 9 to 14) (size 15 to 20)
#    0.000    1.250    2.500    2.250    5.250    1.500 
#    9.000    1.250    0.000    0.000    0.000    0.000 
#    0.000    0.000    0.000    0.000    0.000    0.000 
#
# Total GULP energy -89229.169014 kJ/mol
# GULP energy per Si atom -5576.823063 kJ/mol
# Density = 2.297332 g / cm^3
# Si number density = 23.025724 Si / 1000 Ang^3
#
#
#
# Elastic Constant Matrix: (Units=GPa)
#
#
# Indices 1 2 3 4 5 6 
#
# 1 80.6629 62.8008 26.8116 4.3770 -1.5634 27.2170
# 2 62.8008 207.8683 38.3814 -12.0711 -9.9909 10.7103
# 3 26.8116 38.3814 94.3094 10.2203 -6.6578 -4.2865
# 4 4.3770 -12.0711 10.2203 44.8548 -4.9122 -0.1615
# 5 -1.5634 -9.9909 -6.6578 -4.9122 29.9424 -12.3751
# 6 27.2170 10.7103 -4.2865 -0.1615 -12.3751 31.5035
#
#
#
# Elastic Compliance Matrix: (Units=1/GPa)
#
#
# Indices 1 2 3 4 5 6 
#
# 1 0.032231 -0.007657 -0.008195 -0.005351 -0.017283 -0.033174
# 2 -0.007657 0.007356 -0.000564 0.003422 0.004974 0.006009
# 3 -0.008195 -0.000564 0.014422 -0.001796 0.007293 0.012090
# 4 -0.005351 0.003422 -0.001796 0.024944 0.007087 0.006127
# 5 -0.017283 0.004974 0.007293 0.007087 0.051139 0.034357
# 6 -0.033174 0.006009 0.012090 0.006127 0.034357 0.073533
#
#
# Mechanical properties :
#
#
# Convention : Reuss Voigt Hill
#
# Bulk Modulus (GPa) = 47.21827 70.98093 59.09960
# Shear Modulus (GPa) = 20.53262 38.24992 29.39127
#
# Velocity S-wave (km/s) = 2.98942 4.08018 3.57663
# Velocity P-wave (km/s) = 5.69796 7.28635 6.54055
#
# Compressibility (1/GPa) = 0.02117824
#
# Stress axis : x y z
#
# Youngs Moduli (GPa) = 31.02575 135.94031 69.34072
#
# Poissons Ratio (x) = 1.04084 0.56826
# Poissons Ratio (y) = 0.23755 0.03908
# Poissons Ratio (z) = 0.25426 0.07661
#
# Static dielectric constant tensor:
#      x y z
#    x 1.887520 0.025760 0.006020 
#    y 0.025760 1.997490 0.052260 
#    z 0.006020 0.052260 1.894040 
# 
# From -- ./inp_files/575616.got.cif
#   From: 2010.05.17/outbox.cif.g08.bks.cpg/sg2_288_cif.got.tgz:575616.got - 2010.06.03 11:33:40.
