data_PCOD9019416
_publ_section_title
;
Structure prediction by ZEFSAII (Michael W. Deem and Ramdas Pophale) SiO2 
 PCOD9019416
Probable space group: P -1
;
_chemical_formula_sum "Si O2"
_cell_formula_units_Z 16
_cell_length_a 17.373764
_cell_length_b 8.644031
_cell_length_c 5.512947
_cell_angle_alpha 117.027398
_cell_angle_beta 99.668028
_cell_angle_gamma 94.048346
_cell_volume 716.790450
_symmetry_space_group_name_H-M "P -1"
_symmetry_group_IT_number 2
_symmetry_cell_setting 'triclinic'
loop_
_space_group_symop_operation_xyz
x,y,z
-x,-y,-z
loop_
_atom_site_type_symbol
_atom_site_label
_atom_site_fract_x
_atom_site_fract_y
_atom_site_fract_z
Si Si1 0.626793 0.957585 0.442394
Si Si2 0.216224 0.186586 0.558449
Si Si3 0.200276 0.381818 0.186480
Si Si4 0.059152 0.978207 0.300311
Si Si5 0.375252 0.547540 0.505934
Si Si6 0.486301 0.347816 0.692894
Si Si7 0.588087 0.101205 0.036440
Si Si8 0.030282 0.338104 0.255138
O O1 0.694818 0.840057 0.377898
O O2 0.542078 0.831056 0.311084
O O3 0.636810 0.067642 0.280715
O O4 0.624722 0.037350 0.765679
O O5 0.210204 0.249267 0.321881
O O6 0.151729 0.010787 0.434248
O O7 0.197790 0.311869 0.858865
O O8 0.284136 0.510929 0.355833
O O9 0.112568 0.423650 0.227985
O O10 0.050738 0.161986 0.282228
O O11 0.000000 0.000000 0.500000
O O12 0.033793 0.780662 0.038998
O O13 0.417160 0.381762 0.490298
O O14 0.432762 0.641263 0.396646
O O15 0.394531 0.688347 0.829542
O O16 0.500000 0.500000 0.000000
O O17 0.500000 0.000000 0.000000
O O18 0.000000 0.500000 0.500000
#
# Coordination Sequence:
#
# PCOD9019416 Si02
#       8
#     2   2   2   2   2   2   2   2
#     4  12  25  43  66  95 128 177 219 274 336 396
#     4  11  23  43  71  98 136 174 231 278 337 413
#     4  11  23  43  67 102 136 176 223 291 337 398
#     4  10  21  44  71  99 135 191 224 281 357 411
#     4  11  25  40  64  95 130 172 225 277 336 397
#     4  11  23  40  68  90 121 177 227 268 323 407
#     4  12  26  44  63  93 137 174 218 280 340 397
#     4  10  23  43  71 103 143 181 233 286 348 425
#
# _framework density 22.321728
#
# number of rings (size 3 to 8) (size 9 to 14) (size 15 to 20)
#    0.000    1.000    3.750    2.625    3.500    1.500 
#    2.250    0.000    0.000    0.000    0.000    0.000 
#    0.000    0.000    0.000    0.000    0.000    0.000 
#
# Total GULP energy -89070.446778 kJ/mol
# GULP energy per Si atom -5566.902924 kJ/mol
# Density = 2.227092 g / cm^3
# Si number density = 22.321728 Si / 1000 Ang^3
#
#
#
# Elastic Constant Matrix: (Units=GPa)
#
#
# Indices 1 2 3 4 5 6 
#
# 1 115.3181 13.9858 22.6185 20.4191 -7.6917 37.8492
# 2 13.9858 63.7082 17.5646 -1.1748 2.9677 6.5155
# 3 22.6185 17.5646 114.1004 21.8537 -17.2951 14.3922
# 4 20.4191 -1.1748 21.8537 42.7512 3.6448 6.2842
# 5 -7.6917 2.9677 -17.2951 3.6448 41.8857 10.6197
# 6 37.8492 6.5155 14.3922 6.2842 10.6197 31.7947
#
#
#
# Elastic Compliance Matrix: (Units=1/GPa)
#
#
# Indices 1 2 3 4 5 6 
#
# 1 0.019490 -0.003274 0.003559 -0.008375 0.012794 -0.026759
# 2 -0.003274 0.017469 -0.003825 0.003975 -0.004462 0.002754
# 3 0.003559 -0.003825 0.012990 -0.007649 0.009764 -0.011083
# 4 -0.008375 0.003975 -0.007649 0.030819 -0.010176 0.009926
# 5 0.012794 -0.004462 0.009764 -0.010176 0.039000 -0.029751
# 6 -0.026759 0.002754 -0.011083 0.009926 -0.029751 0.075734
#
#
# Mechanical properties :
#
#
# Convention : Reuss Voigt Hill
#
# Bulk Modulus (GPa) = 23.32626 44.60717 33.96672
# Shear Modulus (GPa) = 23.05498 39.21687 31.13592
#
# Velocity S-wave (km/s) = 3.21728 4.19608 3.73885
# Velocity P-wave (km/s) = 4.92686 6.59570 5.82139
#
# Compressibility (1/GPa) = 0.04287013
#
# Stress axis : x y z
#
# Youngs Moduli (GPa) = 51.30905 57.24281 76.97945
#
# Poissons Ratio (x) = 0.18739 -0.27398
# Poissons Ratio (y) = 0.16796 0.29447
# Poissons Ratio (z) = -0.18262 0.21897
#
# Static dielectric constant tensor:
#      x y z
#    x 1.977120 -0.098540 -0.017410 
#    y -0.098540 2.006530 0.057240 
#    z -0.017410 0.057240 2.029760 
# 
# From -- ./inp_files/105797.got.cif
#   From: 2010.05.17/outbox.cif.g08.bks.cpg/sg2_53_cif.got.tgz:105797.got - 2010.06.03 11:33:40.
