data_PCOD9019467
_publ_section_title
;
Structure prediction by ZEFSAII (Michael W. Deem and Ramdas Pophale) SiO2 
 PCOD9019467
Probable space group: P -1
;
_chemical_formula_sum "Si O2"
_cell_formula_units_Z 14
_cell_length_a 15.579042
_cell_length_b 6.768680
_cell_length_c 8.145963
_cell_angle_alpha 96.358081
_cell_angle_beta 134.197380
_cell_angle_gamma 62.860133
_cell_volume 518.312543
_symmetry_space_group_name_H-M "P -1"
_symmetry_group_IT_number 2
_symmetry_cell_setting 'triclinic'
loop_
_space_group_symop_operation_xyz
x,y,z
-x,-y,-z
loop_
_atom_site_type_symbol
_atom_site_label
_atom_site_fract_x
_atom_site_fract_y
_atom_site_fract_z
Si Si1 0.735638 0.303767 0.810977
Si Si2 0.166849 0.380676 0.184405
Si Si3 0.310352 0.767490 0.742783
Si Si4 0.483500 0.764881 0.680526
Si Si5 0.222701 0.407801 0.600966
Si Si6 0.982419 0.079391 0.670297
Si Si7 0.693990 0.894962 0.986984
O O1 0.789129 0.426950 0.767309
O O2 0.628475 0.518765 0.806071
O O3 0.635805 0.221551 0.595582
O O4 0.880860 0.093193 0.060410
O O5 0.239078 0.265147 0.444782
O O6 0.221829 0.225805 0.078280
O O7 0.000000 0.500000 0.000000
O O8 0.425586 0.763773 0.781571
O O9 0.319204 0.521060 0.741010
O O10 0.310867 0.877337 0.929005
O O11 0.155886 0.925223 0.464582
O O12 0.538079 0.942234 0.755651
O O13 0.241095 0.277009 0.783122
O O14 0.069812 0.647907 0.395160
O O15 0.000000 0.000000 0.500000
#
# Coordination Sequence:
#
# PCOD9019467 Si02
#       7
#     2   2   2   2   2   2   2
#     4  10  21  44  74 107 156 199 252 321 376 456
#     4  11  25  42  70 111 152 195 250 308 385 450
#     4  10  24  44  75 112 151 196 263 307 387 453
#     4  10  21  44  72 107 150 209 248 307 389 451
#     4  10  25  46  73 112 150 200 250 308 393 444
#     4  10  22  42  70 111 144 199 251 308 383 447
#     4  11  25  48  75 113 158 196 254 329 366 459
#
# _framework density 27.010725999999998
#
# number of rings (size 3 to 8) (size 9 to 14) (size 15 to 20)
#    0.857    0.857    1.429    2.143    4.000    3.429 
#    0.000    2.857    0.000    3.429    0.000    0.000 
#    0.000    0.000    0.000    0.000    0.000    0.000 
#
# Total GULP energy -78382.567256 kJ/mol
# GULP energy per Si atom -5598.754804 kJ/mol
# Density = 2.694925 g / cm^3
# Si number density = 27.010726 Si / 1000 Ang^3
#
#
#
# Elastic Constant Matrix: (Units=GPa)
#
#
# Indices 1 2 3 4 5 6 
#
# 1 186.8634 55.7052 65.6960 10.8256 9.8469 -16.8350
# 2 55.7052 84.5691 60.3999 20.1205 -4.9094 -5.4119
# 3 65.6960 60.3999 207.6172 1.4001 15.0034 -17.0805
# 4 10.8256 20.1205 1.4001 68.0584 -5.9085 -6.8619
# 5 9.8469 -4.9094 15.0034 -5.9085 65.7772 6.5588
# 6 -16.8350 -5.4119 -17.0805 -6.8619 6.5588 58.3125
#
#
#
# Elastic Compliance Matrix: (Units=1/GPa)
#
#
# Indices 1 2 3 4 5 6 
#
# 1 0.007058 -0.004069 -0.000825 0.000142 -0.001317 0.001583
# 2 -0.004069 0.018929 -0.004521 -0.004777 0.002785 -0.001618
# 3 -0.000825 -0.004521 0.006648 0.001343 -0.001774 0.001647
# 4 0.000142 -0.004777 0.001343 0.016293 0.000596 0.001841
# 5 -0.001317 0.002785 -0.001774 0.000596 0.016306 -0.002405
# 6 0.001583 -0.001618 0.001647 0.001841 -0.002405 0.018426
#
#
# Mechanical properties :
#
#
# Convention : Reuss Voigt Hill
#
# Bulk Modulus (GPa) = 72.44459 93.62798 83.03629
# Shear Modulus (GPa) = 46.68909 58.24618 52.46763
#
# Velocity S-wave (km/s) = 4.16208 4.64875 4.41213
# Velocity P-wave (km/s) = 7.06938 7.97202 7.53423
#
# Compressibility (1/GPa) = 0.01380365
#
# Stress axis : x y z
#
# Youngs Moduli (GPa) = 141.67438 52.82955 150.42887
#
# Poissons Ratio (x) = 0.21496 0.12414
# Poissons Ratio (y) = 0.57647 0.68015
# Poissons Ratio (z) = 0.11692 0.23886
#
# Static dielectric constant tensor:
#      x y z
#    x 2.123290 -0.027660 0.004490 
#    y -0.027660 2.274060 -0.009200 
#    z 0.004490 -0.009200 2.124170 
# 
# From -- ./inp_files/295640.got.cif
#   From: 2010.05.17/outbox.cif.g08.bks.cpg/sg2_148_cif.got.tgz:295640.got - 2010.06.03 11:33:40.
