data_PCOD9019342
_publ_section_title
;
Structure prediction by ZEFSAII (Michael W. Deem and Ramdas Pophale) SiO2 
 PCOD9019342
Probable space group: P -1
;
_chemical_formula_sum "Si O2"
_cell_formula_units_Z 12
_cell_length_a 9.810673
_cell_length_b 6.269685
_cell_length_c 10.792868
_cell_angle_alpha 113.468881
_cell_angle_beta 72.328653
_cell_angle_gamma 126.592763
_cell_volume 486.945388
_symmetry_space_group_name_H-M "P -1"
_symmetry_group_IT_number 2
_symmetry_cell_setting 'triclinic'
loop_
_space_group_symop_operation_xyz
x,y,z
-x,-y,-z
loop_
_atom_site_type_symbol
_atom_site_label
_atom_site_fract_x
_atom_site_fract_y
_atom_site_fract_z
Si Si1 0.825345 0.406194 0.692326
Si Si2 0.030154 0.972826 0.132325
Si Si3 0.613969 0.870692 0.932570
Si Si4 0.679795 0.207550 0.430916
Si Si5 0.536861 0.724538 0.192481
Si Si6 0.906980 0.743360 0.365516
O O1 0.892543 0.723259 0.763143
O O2 0.807999 0.314318 0.533781
O O3 0.631893 0.256917 0.763530
O O4 0.962928 0.357302 0.698025
O O5 0.185058 0.923383 0.095661
O O6 0.890682 0.789253 0.234119
O O7 0.000000 0.000000 0.000000
O O8 0.528417 0.583561 0.811199
O O9 0.612966 0.762896 0.045485
O O10 0.500000 0.000000 0.000000
O O11 0.728944 0.489532 0.412720
O O12 0.500000 0.000000 0.500000
O O13 0.678457 0.995045 0.288053
O O14 0.000000 0.000000 0.500000
#
# Coordination Sequence:
#
# PCOD9019342 Si02
#       6
#     2   2   2   2   2   2
#     4  10  22  45  70 101 151 188 242 312 370 434
#     4  11  26  45  72 108 151 195 248 304 370 444
#     4  10  21  44  71 100 143 194 244 301 362 438
#     4  10  22  45  72 103 146 190 243 311 370 435
#     4   9  21  42  66 101 142 190 237 297 373 433
#     4  12  25  44  75 107 142 201 248 299 375 442
#
# _framework density 24.643419999999999
#
# number of rings (size 3 to 8) (size 9 to 14) (size 15 to 20)
#    0.000    1.667    1.667    1.500    2.333    0.667 
#   12.000    1.667    0.000    0.000    0.000    0.000 
#    0.000    0.000    0.000    0.000    0.000    0.000 
#
# Total GULP energy -66865.956165 kJ/mol
# GULP energy per Si atom -5572.163014 kJ/mol
# Density = 2.458733 g / cm^3
# Si number density = 24.643420 Si / 1000 Ang^3
#
#
#
# Elastic Constant Matrix: (Units=GPa)
#
#
# Indices 1 2 3 4 5 6 
#
# 1 93.3695 26.1024 0.6270 6.4526 -15.2862 4.8259
# 2 26.1024 128.3689 50.6299 -22.9274 9.9741 23.8866
# 3 0.6270 50.6299 94.2659 2.0467 27.9861 11.0340
# 4 6.4526 -22.9274 2.0467 52.7210 -3.5616 -4.9459
# 5 -15.2862 9.9741 27.9861 -3.5616 43.6566 1.6689
# 6 4.8259 23.8866 11.0340 -4.9459 1.6689 30.8061
#
#
#
# Elastic Compliance Matrix: (Units=1/GPa)
#
#
# Indices 1 2 3 4 5 6 
#
# 1 0.012701 -0.003668 0.000561 -0.002860 0.004695 -0.000060
# 2 -0.003668 0.013429 -0.006775 0.005993 0.000727 -0.006489
# 3 0.000561 -0.006775 0.017367 -0.004462 -0.009705 -0.001246
# 4 -0.002860 0.005993 -0.004462 0.022332 0.002279 0.000861
# 5 0.004695 0.000727 -0.009705 0.002279 0.030758 0.000876
# 6 -0.000060 -0.006489 -0.001246 0.000861 0.000876 0.038039
#
#
# Mechanical properties :
#
#
# Convention : Reuss Voigt Hill
#
# Bulk Modulus (GPa) = 42.13450 52.30253 47.21852
# Shear Modulus (GPa) = 30.80671 41.34641 36.07656
#
# Velocity S-wave (km/s) = 3.53951 4.10052 3.83030
# Velocity P-wave (km/s) = 5.81713 6.60976 6.22607
#
# Compressibility (1/GPa) = 0.02373352
#
# Stress axis : x y z
#
# Youngs Moduli (GPa) = 78.73224 74.46386 57.57887
#
# Poissons Ratio (x) = 0.27317 -0.03231
# Poissons Ratio (y) = 0.28883 0.39010
# Poissons Ratio (z) = -0.04418 0.50449
#
# Static dielectric constant tensor:
#      x y z
#    x 1.973160 -0.014400 0.207620 
#    y -0.014400 1.937290 0.375790 
#    z 0.207620 0.375790 0.597290 
# 
# From -- ./inp_files/409640.got.cif
#   From: 2010.05.17/outbox.cif.g08.bks.cpg/sg2_205_cif.got.tgz:409640.got - 2010.06.03 11:33:40.
