data_PCOD9019622
_publ_section_title
;
Structure prediction by ZEFSAII (Michael W. Deem and Ramdas Pophale) SiO2 
 PCOD9019622
Probable space group: P -1
;
_chemical_formula_sum "Si O2"
_cell_formula_units_Z 14
_cell_length_a 11.316618
_cell_length_b 8.064873
_cell_length_c 8.333969
_cell_angle_alpha 49.856735
_cell_angle_beta 87.995267
_cell_angle_gamma 88.128596
_cell_volume 581.035461
_symmetry_space_group_name_H-M "P -1"
_symmetry_group_IT_number 2
_symmetry_cell_setting 'triclinic'
loop_
_space_group_symop_operation_xyz
x,y,z
-x,-y,-z
loop_
_atom_site_type_symbol
_atom_site_label
_atom_site_fract_x
_atom_site_fract_y
_atom_site_fract_z
Si Si1 0.816462 0.123390 0.275917
Si Si2 0.285843 0.243182 0.659764
Si Si3 0.784707 0.006917 0.874563
Si Si4 0.125717 0.638668 0.537679
Si Si5 0.543264 0.155180 0.627193
Si Si6 0.977451 0.670772 0.032999
Si Si7 0.428377 0.702583 0.813736
O O1 0.849026 0.206215 0.403052
O O2 0.706646 0.279972 0.134863
O O3 0.923228 0.155909 0.126015
O O4 0.765481 0.876941 0.422938
O O5 0.223220 0.464896 0.576978
O O6 0.427119 0.266286 0.640091
O O7 0.252115 0.062363 0.904219
O O8 0.880480 0.188904 0.713827
O O9 0.663485 0.100405 0.747524
O O10 0.849433 0.786895 0.947449
O O11 0.026941 0.476147 0.713685
O O12 0.572792 0.287286 0.384131
O O13 0.493520 0.919241 0.730232
O O14 0.000000 0.500000 0.000000
O O15 0.500000 0.500000 0.000000
#
# Coordination Sequence:
#
# PCOD9019622 Si02
#       7
#     2   2   2   2   2   2   2
#     4  10  21  45  63  92 131 167 219 271 311 386
#     4  10  24  41  65  95 132 175 211 266 328 379
#     4  11  22  40  65  97 133 169 219 268 317 387
#     4  10  22  42  64  95 127 171 217 266 319 382
#     4  10  22  40  60  97 134 165 216 270 313 393
#     4   9  22  40  66  94 128 174 216 267 325 375
#     4  10  22  38  65  94 127 170 213 264 326 380
#
# _framework density 24.094912999999998
#
# number of rings (size 3 to 8) (size 9 to 14) (size 15 to 20)
#    0.000    2.000    1.429    0.429    6.000    7.429 
#    0.000    8.571    0.000    0.000    0.000    0.000 
#    0.000    0.000    0.000    0.000    0.000    0.000 
#
# Total GULP energy -78096.377175 kJ/mol
# GULP energy per Si atom -5578.312655 kJ/mol
# Density = 2.404007 g / cm^3
# Si number density = 24.094913 Si / 1000 Ang^3
#
#
#
# Elastic Constant Matrix: (Units=GPa)
#
#
# Indices 1 2 3 4 5 6 
#
# 1 97.9627 46.9072 3.6090 6.8050 -22.4138 -15.2739
# 2 46.9072 104.8579 27.5753 1.7345 -2.5424 -12.2725
# 3 3.6090 27.5753 81.0109 -11.8196 -8.7410 -14.5401
# 4 6.8050 1.7345 -11.8196 18.5256 -5.5297 -4.6601
# 5 -22.4138 -2.5424 -8.7410 -5.5297 26.6234 4.2246
# 6 -15.2739 -12.2725 -14.5401 -4.6601 4.2246 53.3619
#
#
#
# Elastic Compliance Matrix: (Units=1/GPa)
#
#
# Indices 1 2 3 4 5 6 
#
# 1 0.018261 -0.008721 0.004990 0.003037 0.016245 0.003560
# 2 -0.008721 0.014958 -0.006546 -0.005222 -0.009055 -0.000579
# 3 0.004990 -0.006546 0.018987 0.015937 0.012244 0.005519
# 4 0.003037 -0.005222 0.015937 0.071920 0.020857 0.008640
# 5 0.016245 -0.009055 0.012244 0.020857 0.058230 0.003115
# 6 0.003560 -0.000579 0.005519 0.008640 0.003115 0.021637
#
#
# Mechanical properties :
#
#
# Convention : Reuss Voigt Hill
#
# Bulk Modulus (GPa) = 31.59383 48.89048 40.24216
# Shear Modulus (GPa) = 21.26781 33.41819 27.34300
#
# Velocity S-wave (km/s) = 2.97420 3.72820 3.37234
# Velocity P-wave (km/s) = 4.99351 6.23438 5.64813
#
# Compressibility (1/GPa) = 0.03165175
#
# Stress axis : x y z
#
# Youngs Moduli (GPa) = 54.76256 66.85236 52.66850
#
# Poissons Ratio (x) = 0.58299 -0.26280
# Poissons Ratio (y) = 0.47756 0.34477
# Poissons Ratio (z) = -0.27325 0.43761
#
# Static dielectric constant tensor:
#      x y z
#    x 1.998400 0.067020 -0.018740 
#    y 0.067020 1.963310 0.032290 
#    z -0.018740 0.032290 1.898960 
# 
# From -- ./inp_files/241983.got.cif
#   From: 2010.05.17/outbox.cif.g08.bks.cpg/sg2_121_cif.got.tgz:241983.got - 2010.06.03 11:33:40.
