data_PCOD9019879
_publ_section_title
;
Structure prediction by ZEFSAII (Michael W. Deem and Ramdas Pophale) SiO2 
 PCOD9019879
Probable space group: P -1
;
_chemical_formula_sum "Si O2"
_cell_formula_units_Z 12
_cell_length_a 5.014736
_cell_length_b 15.349358
_cell_length_c 24.408353
_cell_angle_alpha 17.494893
_cell_angle_beta 62.577448
_cell_angle_gamma 65.917859
_cell_volume 497.898334
_symmetry_space_group_name_H-M "P -1"
_symmetry_group_IT_number 2
_symmetry_cell_setting 'triclinic'
loop_
_space_group_symop_operation_xyz
x,y,z
-x,-y,-z
loop_
_atom_site_type_symbol
_atom_site_label
_atom_site_fract_x
_atom_site_fract_y
_atom_site_fract_z
Si Si1 0.445850 0.650373 0.859018
Si Si2 0.926871 0.971403 0.447690
Si Si3 0.532467 0.582851 0.511503
Si Si4 0.518969 0.530604 0.809637
Si Si5 0.038882 0.118829 0.619612
Si Si6 0.645483 0.983367 0.055847
O O1 0.467099 0.439655 0.931889
O O2 0.724303 0.903023 0.667532
O O3 0.139264 0.798322 0.804123
O O4 0.500000 0.500000 0.000000
O O5 0.733724 0.245917 0.308664
O O6 0.832324 0.735814 0.644531
O O7 0.825901 0.797405 0.504580
O O8 0.500000 0.500000 0.500000
O O9 0.831597 0.720663 0.433521
O O10 0.302517 0.825695 0.389196
O O11 0.430019 0.303976 0.726920
O O12 0.527906 0.248984 0.941089
O O13 0.500000 0.000000 0.000000
O O14 0.000000 0.000000 0.000000
#
# Coordination Sequence:
#
# PCOD9019879 Si02
#       6
#     2   2   2   2   2   2
#     4  11  25  42  74 106 142 185 234 307 359 422
#     4  10  21  45  71 102 137 184 231 301 362 421
#     4  12  26  46  73 103 144 198 237 290 357 433
#     4  10  24  41  72 104 138 184 237 295 357 425
#     4  11  24  46  73 101 143 185 240 289 364 422
#     4  12  28  47  71 108 145 188 242 295 350 425
#
# _framework density 24.101309000000001
#
# number of rings (size 3 to 8) (size 9 to 14) (size 15 to 20)
#    0.000    1.000    1.667    4.000    4.667    4.000 
#    0.000    0.000    0.000    0.000    0.000    0.000 
#    0.000    0.000    0.000    0.000    0.000    0.000 
#
# Total GULP energy -67025.482105 kJ/mol
# GULP energy per Si atom -5585.456842 kJ/mol
# Density = 2.404645 g / cm^3
# Si number density = 24.101309 Si / 1000 Ang^3
#
#
#
# Elastic Constant Matrix: (Units=GPa)
#
#
# Indices 1 2 3 4 5 6 
#
# 1 117.9784 31.9219 13.2862 4.8594 17.3143 12.1218
# 2 31.9219 175.0285 27.7199 -3.8321 16.1749 44.0016
# 3 13.2862 27.7199 89.7689 20.4387 13.0857 12.3067
# 4 4.8594 -3.8321 20.4387 46.6237 9.5198 8.8145
# 5 17.3143 16.1749 13.0857 9.5198 34.9387 2.9582
# 6 12.1218 44.0016 12.3067 8.8145 2.9582 49.0380
#
#
#
# Elastic Compliance Matrix: (Units=1/GPa)
#
#
# Indices 1 2 3 4 5 6 
#
# 1 0.009495 -0.001014 -0.000380 0.000129 -0.004034 -0.001122
# 2 -0.001014 0.008373 -0.001810 0.003586 -0.003058 -0.007269
# 3 -0.000380 -0.001810 0.013416 -0.005382 -0.002487 -0.000532
# 4 0.000129 0.003586 -0.005382 0.026589 -0.006421 -0.006291
# 5 -0.004034 -0.003058 -0.002487 -0.006421 0.034426 0.003442
# 6 -0.001122 -0.007269 -0.000532 -0.006291 0.003442 0.028248
#
#
# Mechanical properties :
#
#
# Convention : Reuss Voigt Hill
#
# Bulk Modulus (GPa) = 40.19766 58.73686 49.46726
# Shear Modulus (GPa) = 36.96950 46.77658 41.87304
#
# Velocity S-wave (km/s) = 3.92078 4.41027 4.17271
# Velocity P-wave (km/s) = 6.10012 7.09631 6.61699
#
# Compressibility (1/GPa) = 0.02487707
#
# Stress axis : x y z
#
# Youngs Moduli (GPa) = 105.31616 119.42774 74.54030
#
# Poissons Ratio (x) = 0.12109 0.02831
# Poissons Ratio (y) = 0.10678 0.13490
# Poissons Ratio (z) = 0.04000 0.21613
#
# Static dielectric constant tensor:
#      x y z
#    x 1.975970 0.060760 -0.070970 
#    y 0.060760 1.990760 0.012750 
#    z -0.070970 0.012750 1.912480 
# 
# From -- ./inp_files/108021.got.cif
#   From: 2010.05.17/outbox.cif.g08.bks.cpg/sg2_55_cif.got.tgz:108021.got - 2010.06.03 11:33:40.
