data_PCOD9019708
_publ_section_title
;
Structure prediction by ZEFSAII (Michael W. Deem and Ramdas Pophale) SiO2 
 PCOD9019708
Probable space group: P -1
;
_chemical_formula_sum "Si O2"
_cell_formula_units_Z 14
_cell_length_a 15.840834
_cell_length_b 17.968985
_cell_length_c 6.235772
_cell_angle_alpha 45.646706
_cell_angle_beta 122.152593
_cell_angle_gamma 150.270040
_cell_volume 615.207873
_symmetry_space_group_name_H-M "P -1"
_symmetry_group_IT_number 2
_symmetry_cell_setting 'triclinic'
loop_
_space_group_symop_operation_xyz
x,y,z
-x,-y,-z
loop_
_atom_site_type_symbol
_atom_site_label
_atom_site_fract_x
_atom_site_fract_y
_atom_site_fract_z
Si Si1 0.713515 0.949011 0.542044
Si Si2 0.632586 0.707211 0.225225
Si Si3 0.100123 0.739266 0.535952
Si Si4 0.792112 0.396409 0.126953
Si Si5 0.937885 0.864110 0.514991
Si Si6 0.487010 0.747476 0.262465
Si Si7 0.810855 0.569586 0.190048
O O1 0.607689 0.903536 0.290294
O O2 0.753732 0.068125 0.537381
O O3 0.612638 0.762807 0.878417
O O4 0.900322 0.063727 0.494943
O O5 0.500000 0.500000 0.500000
O O6 0.825792 0.825313 0.260072
O O7 0.603160 0.762150 0.269221
O O8 0.174720 0.697573 0.620181
O O9 0.955279 0.581654 0.836066
O O10 0.996290 0.715599 0.265352
O O11 0.785830 0.451580 0.231656
O O12 0.617344 0.270418 0.009649
O O13 0.810703 0.673766 0.843428
O O14 0.000000 0.000000 0.500000
O O15 0.333757 0.557941 0.565992
#
# Coordination Sequence:
#
# PCOD9019708 Si02
#       7
#     2   2   2   2   2   2   2
#     4  12  25  44  65 102 135 171 221 277 324 391
#     4  12  27  43  66  94 135 182 221 266 328 394
#     4  10  23  40  74  97 132 170 221 277 330 387
#     4  10  21  45  67 101 129 177 217 270 337 390
#     4  12  24  42  67  97 133 175 220 275 329 383
#     4  11  25  43  65  96 139 172 221 267 327 400
#     4  11  23  44  68  97 135 173 223 272 325 399
#
# _framework density 22.756535
#
# number of rings (size 3 to 8) (size 9 to 14) (size 15 to 20)
#    0.000    0.857    2.857    4.286    4.000    1.714 
#    0.000    2.857    0.000    0.000    0.000    0.000 
#    0.000    0.000    0.000    0.000    0.000    0.000 
#
# Total GULP energy -78394.631218 kJ/mol
# GULP energy per Si atom -5599.616516 kJ/mol
# Density = 2.270474 g / cm^3
# Si number density = 22.756535 Si / 1000 Ang^3
#
#
#
# Elastic Constant Matrix: (Units=GPa)
#
#
# Indices 1 2 3 4 5 6 
#
# 1 52.7555 2.1313 -2.4608 -14.9502 1.0448 -1.9873
# 2 2.1313 109.4017 1.4305 15.4756 9.3377 -3.2796
# 3 -2.4608 1.4305 37.3970 -1.6388 -0.6487 6.3521
# 4 -14.9502 15.4756 -1.6388 33.5527 1.6930 -5.8011
# 5 1.0448 9.3377 -0.6487 1.6930 29.0323 -3.1289
# 6 -1.9873 -3.2796 6.3521 -5.8011 -3.1289 34.0714
#
#
#
# Elastic Compliance Matrix: (Units=1/GPa)
#
#
# Indices 1 2 3 4 5 6 
#
# 1 0.022480 -0.001959 0.001584 0.011497 -0.000519 0.002737
# 2 -0.001959 0.010212 -0.000779 -0.005506 -0.002931 -0.000193
# 3 0.001584 -0.000779 0.027774 0.001569 0.000197 -0.004875
# 4 0.011497 -0.005506 0.001569 0.038660 -0.000171 0.006415
# 5 -0.000519 -0.002931 0.000197 -0.000171 0.035733 0.002903
# 6 0.002737 -0.000193 -0.004875 0.006415 0.002903 0.031759
#
#
# Mechanical properties :
#
#
# Convention : Reuss Voigt Hill
#
# Bulk Modulus (GPa) = 17.19408 22.41734 19.80571
# Shear Modulus (GPa) = 26.55163 32.56151 29.55657
#
# Velocity S-wave (km/s) = 3.41951 3.78678 3.60782
# Velocity P-wave (km/s) = 4.81277 5.38442 5.10660
#
# Compressibility (1/GPa) = 0.05815957
#
# Stress axis : x y z
#
# Youngs Moduli (GPa) = 44.48452 97.92118 36.00432
#
# Poissons Ratio (x) = 0.19178 -0.05703
# Poissons Ratio (y) = 0.08713 0.02804
# Poissons Ratio (z) = -0.07046 0.07627
#
# Static dielectric constant tensor:
#      x y z
#    x 1.785350 0.020260 -0.026130 
#    y 0.020260 1.853050 -0.022790 
#    z -0.026130 -0.022790 1.821490 
# 
# From -- ./inp_files/99508.got.cif
#   From: 2010.05.17/outbox.cif.g08.bks.cpg/sg2_50_cif.got.tgz:99508.got - 2010.06.03 11:33:40.
