data_PCOD9019885
_publ_section_title
;
Structure prediction by ZEFSAII (Michael W. Deem and Ramdas Pophale) SiO2 
 PCOD9019885
Probable space group: P -1
;
_chemical_formula_sum "Si O2"
_cell_formula_units_Z 15
_cell_length_a 17.513555
_cell_length_b 5.295543
_cell_length_c 9.927611
_cell_angle_alpha 79.116667
_cell_angle_beta 132.913530
_cell_angle_gamma 112.563837
_cell_volume 619.120353
_symmetry_space_group_name_H-M "P -1"
_symmetry_group_IT_number 2
_symmetry_cell_setting 'triclinic'
loop_
_space_group_symop_operation_xyz
x,y,z
-x,-y,-z
loop_
_atom_site_type_symbol
_atom_site_label
_atom_site_fract_x
_atom_site_fract_y
_atom_site_fract_z
Si Si1 0.305664 0.058357 0.453594
Si Si2 0.430726 0.472706 0.111648
Si Si3 0.935405 0.591060 0.292021
Si Si4 0.500000 0.500000 0.500000
Si Si5 0.388565 0.735278 0.792029
Si Si6 0.186489 0.258330 0.502875
Si Si7 0.070805 0.588666 0.209982
Si Si8 0.805630 0.980174 0.197999
O O1 0.388822 0.216473 0.422086
O O2 0.252221 0.253248 0.446170
O O3 0.374734 0.974003 0.661971
O O4 0.196341 0.797356 0.308916
O O5 0.455157 0.526133 0.291559
O O6 0.530685 0.391928 0.175706
O O7 0.419961 0.729144 0.986636
O O8 0.318665 0.209212 0.975770
O O9 0.883666 0.813982 0.257259
O O10 0.000000 0.500000 0.500000
O O11 0.011749 0.709185 0.240495
O O12 0.842528 0.296952 0.166351
O O13 0.263276 0.516525 0.655332
O O14 0.080463 0.324857 0.324733
O O15 0.181126 0.017552 0.622867
O O16 0.000000 0.500000 0.000000
#
# Coordination Sequence:
#
# PCOD9019885 Si02
#       8
#     2   2   2   1   2   2   2   2
#     4  11  25  45  76 103 148 195 247 313 377 465
#     4  10  23  45  69 108 143 189 250 317 371 464
#     4  12  25  48  73 111 144 197 249 319 366 447
#     4  12  26  44  70 108 146 186 246 314 390 438
#     4   9  21  46  69 100 138 193 246 295 385 445
#     4  10  21  45  71 106 141 192 244 301 373 454
#     4  11  27  45  72 103 149 199 242 303 386 450
#     4  11  26  43  78 110 148 190 261 311 373 446
#
# _framework density 24.227920000000001
#
# number of rings (size 3 to 8) (size 9 to 14) (size 15 to 20)
#    0.000    1.333    2.667    1.200    7.467    3.733 
#    0.000    0.000    0.000    0.000    0.000    0.000 
#    0.000    0.000    0.000    0.000    0.000    0.000 
#
# Total GULP energy -83625.218815 kJ/mol
# GULP energy per Si atom -5575.014588 kJ/mol
# Density = 2.417278 g / cm^3
# Si number density = 24.227920 Si / 1000 Ang^3
#
#
#
# Elastic Constant Matrix: (Units=GPa)
#
#
# Indices 1 2 3 4 5 6 
#
# 1 65.3712 42.3532 42.3302 -14.1625 3.9706 9.9483
# 2 42.3532 126.5452 36.2690 6.1058 -3.3414 37.6886
# 3 42.3302 36.2690 187.8058 16.7720 -14.9971 18.2654
# 4 -14.1625 6.1058 16.7720 34.1308 10.1394 2.5702
# 5 3.9706 -3.3414 -14.9971 10.1394 30.1469 -5.1644
# 6 9.9483 37.6886 18.2654 2.5702 -5.1644 51.0825
#
#
#
# Elastic Compliance Matrix: (Units=1/GPa)
#
#
# Indices 1 2 3 4 5 6 
#
# 1 0.036793 -0.011768 -0.010372 0.028456 -0.020587 0.001713
# 2 -0.011768 0.014219 0.002006 -0.009611 0.006016 -0.007824
# 3 -0.010372 0.002006 0.009275 -0.012131 0.010086 -0.001147
# 4 0.028456 -0.009611 -0.012131 0.057795 -0.030301 -0.000085
# 5 -0.020587 0.006016 0.010086 -0.030301 0.052232 0.002770
# 6 0.001713 -0.007824 -0.001147 -0.000085 0.002770 0.025710
#
#
# Mechanical properties :
#
#
# Convention : Reuss Voigt Hill
#
# Bulk Modulus (GPa) = 49.95269 69.06966 59.51117
# Shear Modulus (GPa) = 20.57912 40.32336 30.45124
#
# Velocity S-wave (km/s) = 2.91760 4.08405 3.54908
# Velocity P-wave (km/s) = 5.65796 7.12808 6.43514
#
# Compressibility (1/GPa) = 0.02001894
#
# Stress axis : x y z
#
# Youngs Moduli (GPa) = 27.17938 70.32925 107.81375
#
# Poissons Ratio (x) = 0.82764 1.11824
# Poissons Ratio (y) = 0.31985 -0.21629
# Poissons Ratio (z) = 0.28190 -0.14109
#
# Static dielectric constant tensor:
#      x y z
#    x 1.959260 0.033140 0.036300 
#    y 0.033140 2.029870 0.041890 
#    z 0.036300 0.041890 1.893900 
# 
# From -- ./inp_files/323490.got.cif
#   From: 2010.05.17/outbox.cif.g08.bks.cpg/sg2_162_cif.got.tgz:323490.got - 2010.06.03 11:33:40.
