data_PCOD9019381
_publ_section_title
;
Structure prediction by ZEFSAII (Michael W. Deem and Ramdas Pophale) SiO2 
 PCOD9019381
Probable space group: P -1
;
_chemical_formula_sum "Si O2"
_cell_formula_units_Z 10
_cell_length_a 8.311927
_cell_length_b 18.325897
_cell_length_c 10.528446
_cell_angle_alpha 30.448741
_cell_angle_beta 44.038851
_cell_angle_gamma 30.260455
_cell_volume 407.466950
_symmetry_space_group_name_H-M "P -1"
_symmetry_group_IT_number 2
_symmetry_cell_setting 'triclinic'
loop_
_space_group_symop_operation_xyz
x,y,z
-x,-y,-z
loop_
_atom_site_type_symbol
_atom_site_label
_atom_site_fract_x
_atom_site_fract_y
_atom_site_fract_z
Si Si1 0.565398 0.307100 0.216707
Si Si2 0.411547 0.904336 0.940358
Si Si3 0.779742 0.294769 0.580616
Si Si4 0.288419 0.998643 0.220935
Si Si5 0.288319 0.237751 0.262006
O O1 0.581360 0.206766 0.488067
O O2 0.329157 0.324609 0.228659
O O3 0.500000 0.500000 0.000000
O O4 0.911093 0.147704 0.188771
O O5 0.563574 0.756586 0.955900
O O6 0.673774 0.908690 0.819969
O O7 0.342022 0.813102 0.222369
O O8 0.079344 0.126912 0.757487
O O9 0.500000 0.500000 0.500000
O O10 0.934044 0.323218 0.339421
O O11 0.500000 0.000000 0.000000
O O12 0.500000 0.000000 0.500000
#
# Coordination Sequence:
#
# PCOD9019381 Si02
#       5
#     2   2   2   2   2
#     4  11  26  47  69 103 139 181 233 283 346 408
#     4  10  23  43  67  98 132 177 228 279 342 404
#     4  10  22  38  67 100 129 166 232 283 335 389
#     4  11  26  45  72  97 145 185 223 281 356 409
#     4  10  21  44  71  92 137 177 224 285 333 400
#
# _framework density 24.541868999999998
#
# number of rings (size 3 to 8) (size 9 to 14) (size 15 to 20)
#    0.000    1.600    4.000    0.000   11.200    1.600 
#    3.600    0.000    0.000    0.000    0.000    0.000 
#    0.000    0.000    0.000    0.000    0.000    0.000 
#
# Total GULP energy -55832.344376 kJ/mol
# GULP energy per Si atom -5583.234438 kJ/mol
# Density = 2.448601 g / cm^3
# Si number density = 24.541869 Si / 1000 Ang^3
#
#
#
# Elastic Constant Matrix: (Units=GPa)
#
#
# Indices 1 2 3 4 5 6 
#
# 1 39.5734 -5.1958 35.2982 3.5723 -20.1269 4.1040
# 2 -5.1958 132.2472 69.7060 16.5650 11.8897 -2.0808
# 3 35.2982 69.7060 188.5568 5.1389 -15.5643 4.4854
# 4 3.5723 16.5650 5.1389 53.1148 5.8465 -8.9213
# 5 -20.1269 11.8897 -15.5643 5.8465 38.5282 7.9304
# 6 4.1040 -2.0808 4.4854 -8.9213 7.9304 32.6963
#
#
#
# Elastic Compliance Matrix: (Units=1/GPa)
#
#
# Indices 1 2 3 4 5 6 
#
# 1 0.047494 0.004929 -0.008200 -0.008703 0.023911 -0.012697
# 2 0.004929 0.011094 -0.005178 -0.002891 -0.002635 0.000648
# 3 -0.008200 -0.005178 0.008793 0.001169 0.000766 -0.000373
# 4 -0.008703 -0.002891 0.001169 0.022641 -0.008466 0.008979
# 5 0.023911 -0.002635 0.000766 -0.008466 0.044210 -0.016307
# 6 -0.012697 0.000648 -0.000373 0.008979 -0.016307 0.038676
#
#
# Mechanical properties :
#
#
# Convention : Reuss Voigt Hill
#
# Bulk Modulus (GPa) = 19.80891 62.22158 41.01525
# Shear Modulus (GPa) = 24.19738 42.23913 33.21825
#
# Velocity S-wave (km/s) = 3.14341 4.15312 3.68303
# Velocity P-wave (km/s) = 4.61126 6.95745 5.90211
#
# Compressibility (1/GPa) = 0.05048234
#
# Stress axis : x y z
#
# Youngs Moduli (GPa) = 21.05514 90.14089 113.72735
#
# Poissons Ratio (x) = -0.44428 0.93258
# Poissons Ratio (y) = -0.10378 0.58887
# Poissons Ratio (z) = 0.17266 0.46674
#
# Static dielectric constant tensor:
#      x y z
#    x 2.051080 0.059650 0.039650 
#    y 0.059650 1.934510 0.029080 
#    z 0.039650 0.029080 2.029640 
# 
# From -- ./inp_files/255626.got.cif
#   From: 2010.05.17/outbox.cif.g08.bks.cpg/sg2_128_cif.got.tgz:255626.got - 2010.06.03 11:33:40.
