data_PCOD9019382
_publ_section_title
;
Structure prediction by ZEFSAII (Michael W. Deem and Ramdas Pophale) SiO2 
 PCOD9019382
Probable space group: P -1
;
_chemical_formula_sum "Si O2"
_cell_formula_units_Z 16
_cell_length_a 15.982716
_cell_length_b 14.809369
_cell_length_c 15.787454
_cell_angle_alpha 42.114463
_cell_angle_beta 18.537329
_cell_angle_gamma 39.707033
_cell_volume 757.559461
_symmetry_space_group_name_H-M "P -1"
_symmetry_group_IT_number 2
_symmetry_cell_setting 'triclinic'
loop_
_space_group_symop_operation_xyz
x,y,z
-x,-y,-z
loop_
_atom_site_type_symbol
_atom_site_label
_atom_site_fract_x
_atom_site_fract_y
_atom_site_fract_z
Si Si1 0.720535 0.122192 0.674255
Si Si2 0.455199 0.574842 0.401718
Si Si3 0.929907 0.582984 0.814398
Si Si4 0.955499 0.059591 0.097504
Si Si5 0.566148 0.915918 0.672339
Si Si6 0.241485 0.631996 0.991392
Si Si7 0.393603 0.120160 0.141024
Si Si8 0.208649 0.372679 0.441454
O O1 0.716820 0.261089 0.532153
O O2 0.556048 0.037121 0.836476
O O3 0.618292 0.164573 0.838548
O O4 0.000000 0.000000 0.500000
O O5 0.500000 0.500000 0.500000
O O6 0.252686 0.521436 0.572013
O O7 0.739751 0.576159 0.083087
O O8 0.826039 0.493897 0.906238
O O9 0.866929 0.744759 0.729570
O O10 0.776570 0.985965 0.377151
O O11 0.804219 0.227730 0.119015
O O12 0.000000 0.000000 0.000000
O O13 0.259899 0.015939 0.875391
O O14 0.596244 0.894247 0.758969
O O15 0.628396 0.760382 0.679880
O O16 0.998458 0.675137 0.264862
O O17 0.548152 0.587481 0.768998
O O18 0.000000 0.500000 0.500000
#
# Coordination Sequence:
#
# PCOD9019382 Si02
#       8
#     2   2   2   2   2   2   2   2
#     4  10  21  44  71  92 139 175 215 277 348 395
#     4  11  24  43  70  98 136 176 220 276 340 410
#     4  11  24  44  66  98 137 174 218 281 334 400
#     4  12  24  45  66  92 136 181 220 278 344 389
#     4  12  25  42  70 100 130 173 235 280 323 414
#     4  12  25  43  68  92 137 179 221 266 351 402
#     4  10  24  41  67 103 129 175 225 279 337 395
#     4  12  24  42  67  97 130 176 221 282 329 397
#
# _framework density 21.120455
#
# number of rings (size 3 to 8) (size 9 to 14) (size 15 to 20)
#    0.000    0.750    3.750    3.375    1.750    3.000 
#    0.000    0.000    0.000    0.000    0.000    0.000 
#    0.000    0.000    0.000    0.000    0.000    0.000 
#
# Total GULP energy -89307.893788 kJ/mol
# GULP energy per Si atom -5581.743362 kJ/mol
# Density = 2.107238 g / cm^3
# Si number density = 21.120455 Si / 1000 Ang^3
#
#
#
# Elastic Constant Matrix: (Units=GPa)
#
#
# Indices 1 2 3 4 5 6 
#
# 1 114.3325 39.2957 52.3099 -8.1881 21.4676 -20.5418
# 2 39.2957 104.7498 21.0732 -11.9444 0.7403 -12.8669
# 3 52.3099 21.0732 102.7426 -4.2352 -7.8491 -16.5449
# 4 -8.1881 -11.9444 -4.2352 29.6026 -9.8356 -5.5516
# 5 21.4676 0.7403 -7.8491 -9.8356 30.0601 -4.2774
# 6 -20.5418 -12.8669 -16.5449 -5.5516 -4.2774 33.1680
#
#
#
# Elastic Compliance Matrix: (Units=1/GPa)
#
#
# Indices 1 2 3 4 5 6 
#
# 1 0.017506 -0.004769 -0.008915 -0.003106 -0.015439 0.002034
# 2 -0.004769 0.012338 0.001381 0.006797 0.006323 0.004475
# 3 -0.008915 0.001381 0.016184 0.005919 0.013320 0.005796
# 4 -0.003106 0.006797 0.005919 0.046001 0.020644 0.014028
# 5 -0.015439 0.006323 0.013320 0.020644 0.055819 0.010189
# 6 0.002034 0.004475 0.005796 0.014028 0.010189 0.039698
#
#
# Mechanical properties :
#
#
# Convention : Reuss Voigt Hill
#
# Bulk Modulus (GPa) = 46.67990 60.79808 53.73899
# Shear Modulus (GPa) = 22.80066 32.50920 27.65493
#
# Velocity S-wave (km/s) = 3.28922 3.92756 3.62248
# Velocity P-wave (km/s) = 6.04773 7.02968 6.55711
#
# Compressibility (1/GPa) = 0.02142250
#
# Stress axis : x y z
#
# Youngs Moduli (GPa) = 57.12235 81.05247 61.79121
#
# Poissons Ratio (x) = 0.38654 0.55086
# Poissons Ratio (y) = 0.27241 -0.08535
# Poissons Ratio (z) = 0.50924 -0.11196
#
# Static dielectric constant tensor:
#      x y z
#    x 1.695040 -0.073850 -0.147280 
#    y -0.073850 1.729510 -0.140430 
#    z -0.147280 -0.140430 1.773180 
# 
# From -- ./inp_files/534218.got.cif
#   From: 2010.05.17/outbox.cif.g08.bks.cpg/sg2_268_cif.got.tgz:534218.got - 2010.06.03 11:33:40.
