data_PCOD9019650
_publ_section_title
;
Structure prediction by ZEFSAII (Michael W. Deem and Ramdas Pophale) SiO2 
 PCOD9019650
Probable space group: P -1
;
_chemical_formula_sum "Si O2"
_cell_formula_units_Z 14
_cell_length_a 8.092469
_cell_length_b 5.743245
_cell_length_c 15.824136
_cell_angle_alpha 80.743447
_cell_angle_beta 53.507829
_cell_angle_gamma 63.156829
_cell_volume 521.573499
_symmetry_space_group_name_H-M "P -1"
_symmetry_group_IT_number 2
_symmetry_cell_setting 'triclinic'
loop_
_space_group_symop_operation_xyz
x,y,z
-x,-y,-z
loop_
_atom_site_type_symbol
_atom_site_label
_atom_site_fract_x
_atom_site_fract_y
_atom_site_fract_z
Si Si1 0.379539 0.682249 0.373752
Si Si2 0.913996 0.495312 0.925103
Si Si3 0.490911 0.589800 0.150291
Si Si4 0.943697 0.761357 0.586660
Si Si5 0.861791 0.129236 0.124141
Si Si6 0.232234 0.838126 0.649360
Si Si7 0.973252 0.365001 0.727184
O O1 0.475826 0.666051 0.249890
O O2 0.149582 0.645767 0.463584
O O3 0.563756 0.458562 0.390293
O O4 0.272290 0.996219 0.403597
O O5 0.970518 0.505634 0.807662
O O6 0.036162 0.655832 0.922469
O O7 0.650825 0.638581 0.029943
O O8 0.004813 0.176286 0.924237
O O9 0.621607 0.270417 0.138366
O O10 0.231246 0.718784 0.191079
O O11 0.062917 0.844996 0.624802
O O12 0.872827 0.571133 0.670514
O O13 0.823912 0.122327 0.235654
O O14 0.211335 0.136018 0.631831
#
# Coordination Sequence:
#
# PCOD9019650 Si02
#       7
#     2   2   2   2   2   2   2
#     4  10  24  42  69  97 135 189 227 297 351 422
#     4  11  23  44  69 102 141 188 234 291 359 423
#     4  11  23  42  64 102 138 179 237 288 352 426
#     4  11  22  45  68  98 138 177 241 290 352 425
#     4  10  23  42  70 101 142 187 234 291 357 423
#     4  10  21  45  64  99 142 175 238 287 358 420
#     4  11  24  42  68 101 138 184 229 298 353 423
#
# _framework density 26.841857000000001
#
# number of rings (size 3 to 8) (size 9 to 14) (size 15 to 20)
#    0.000    1.429    2.857    1.714    0.000    4.571 
#    2.571    2.857    0.000    0.000    0.000    0.000 
#    0.000    0.000    0.000    0.000    0.000    0.000 
#
# Total GULP energy -77939.447298 kJ/mol
# GULP energy per Si atom -5567.103378 kJ/mol
# Density = 2.678076 g / cm^3
# Si number density = 26.841857 Si / 1000 Ang^3
#
#
#
# Elastic Constant Matrix: (Units=GPa)
#
#
# Indices 1 2 3 4 5 6 
#
# 1 79.9085 29.9503 28.8580 26.9107 29.7544 -6.5520
# 2 29.9503 112.1755 56.5648 0.1603 -5.3526 -30.7680
# 3 28.8580 56.5648 113.6680 25.6977 21.3754 4.1177
# 4 26.9107 0.1603 25.6977 30.5916 9.2717 -6.4704
# 5 29.7544 -5.3526 21.3754 9.2717 43.3684 16.1605
# 6 -6.5520 -30.7680 4.1177 -6.4704 16.1605 39.6518
#
#
#
# Elastic Compliance Matrix: (Units=1/GPa)
#
#
# Indices 1 2 3 4 5 6 
#
# 1 0.034858 -0.019052 0.013358 -0.036559 -0.022323 -0.007278
# 2 -0.019052 0.034530 -0.024325 0.039985 0.010129 0.028568
# 3 0.013358 -0.024325 0.028614 -0.037066 -0.010345 -0.021472
# 4 -0.036559 0.039985 -0.037066 0.100832 0.011618 0.040554
# 5 -0.022323 0.010129 -0.010345 0.011618 0.046665 -0.011878
# 6 -0.007278 0.028568 -0.021472 0.040554 -0.011878 0.059873
#
#
# Mechanical properties :
#
#
# Convention : Reuss Voigt Hill
#
# Bulk Modulus (GPa) = 26.34162 59.61091 42.97626
# Shear Modulus (GPa) = 13.22524 35.41428 24.31976
#
# Velocity S-wave (km/s) = 2.22211 3.63625 3.01331
# Velocity P-wave (km/s) = 4.05199 6.31555 5.30588
#
# Compressibility (1/GPa) = 0.03796274
#
# Stress axis : x y z
#
# Youngs Moduli (GPa) = 28.68761 28.96072 34.94743
#
# Poissons Ratio (x) = 0.55176 -0.46682
# Poissons Ratio (y) = 0.54655 0.85011
# Poissons Ratio (z) = -0.38320 0.70448
#
# Static dielectric constant tensor:
#      x y z
#    x 2.229960 0.010840 -0.015030 
#    y 0.010840 2.309060 0.052760 
#    z -0.015030 0.052760 2.234260 
# 
# From -- ./inp_files/52334.got.cif
#   From: 2010.05.17/outbox.cif.g08.bks.cpg/sg2_27_cif.got.tgz:52334.got - 2010.06.03 11:33:40.
