data_PCOD9019442
_publ_section_title
;
Structure prediction by ZEFSAII (Michael W. Deem and Ramdas Pophale) SiO2 
 PCOD9019442
Probable space group: P -1
;
_chemical_formula_sum "Si O2"
_cell_formula_units_Z 14
_cell_length_a 7.876942
_cell_length_b 18.214190
_cell_length_c 13.468463
_cell_angle_alpha 138.515605
_cell_angle_beta 137.047513
_cell_angle_gamma 31.094143
_cell_volume 637.552754
_symmetry_space_group_name_H-M "P -1"
_symmetry_group_IT_number 2
_symmetry_cell_setting 'triclinic'
loop_
_space_group_symop_operation_xyz
x,y,z
-x,-y,-z
loop_
_atom_site_type_symbol
_atom_site_label
_atom_site_fract_x
_atom_site_fract_y
_atom_site_fract_z
Si Si1 0.823982 0.946539 0.321952
Si Si2 0.852705 0.413695 0.619241
Si Si3 0.994469 0.654010 0.152603
Si Si4 0.067177 0.905129 0.172537
Si Si5 0.680134 0.558023 0.106274
Si Si6 0.790233 0.170648 0.047980
Si Si7 0.125526 0.132570 0.333651
O O1 0.030894 0.770264 0.251075
O O2 0.815572 0.967284 0.220296
O O3 0.468872 0.037267 0.319440
O O4 0.000000 0.000000 0.500000
O O5 0.500000 0.500000 0.500000
O O6 0.872212 0.394499 0.727358
O O7 0.998575 0.493853 0.746803
O O8 0.093627 0.243994 0.506919
O O9 0.592694 0.748869 0.060312
O O10 0.194787 0.511109 0.020724
O O11 0.418086 0.739328 0.186488
O O12 0.103168 0.023077 0.274097
O O13 0.014156 0.855098 0.995152
O O14 0.500000 0.500000 0.000000
O O15 0.825761 0.233972 0.224795
O O16 0.000000 0.000000 0.000000
#
# Coordination Sequence:
#
# PCOD9019442 Si02
#       7
#     2   2   2   2   2   2   2
#     4  12  24  40  71 107 142 181 236 297 360 415
#     4  12  27  47  76 102 140 194 241 296 364 428
#     4  12  24  45  73 102 141 190 242 286 356 440
#     4  11  23  44  73 103 140 192 237 290 358 423
#     4  12  25  44  72 105 146 189 239 291 364 432
#     4  10  21  44  72 102 134 182 237 289 350 424
#     4  11  25  47  71 105 145 180 247 299 353 424
#
# _framework density 21.958967000000001
#
# number of rings (size 3 to 8) (size 9 to 14) (size 15 to 20)
#    0.000    0.571    5.714    3.000    2.000    2.286 
#    0.000    2.143    0.000    0.000    0.000    0.000 
#    0.000    0.000    0.000    0.000    0.000    0.000 
#
# Total GULP energy -78122.009219 kJ/mol
# GULP energy per Si atom -5580.143516 kJ/mol
# Density = 2.190899 g / cm^3
# Si number density = 21.958967 Si / 1000 Ang^3
#
#
#
# Elastic Constant Matrix: (Units=GPa)
#
#
# Indices 1 2 3 4 5 6 
#
# 1 149.7842 53.2718 69.7402 -1.8705 -4.0751 6.1408
# 2 53.2718 93.2147 54.8564 -1.7956 2.3759 -0.5814
# 3 69.7402 54.8564 175.4210 2.3672 6.4784 5.7284
# 4 -1.8705 -1.7956 2.3672 46.0401 -3.1037 -2.8158
# 5 -4.0751 2.3759 6.4784 -3.1037 48.7472 9.0565
# 6 6.1408 -0.5814 5.7284 -2.8158 9.0565 27.6970
#
#
#
# Elastic Compliance Matrix: (Units=1/GPa)
#
#
# Indices 1 2 3 4 5 6 
#
# 1 0.009381 -0.003945 -0.002493 0.000339 0.001734 -0.002180
# 2 -0.003945 0.014875 -0.003127 0.000649 -0.001012 0.002231
# 3 -0.002493 -0.003127 0.007744 -0.000740 -0.000970 -0.000873
# 4 0.000339 0.000649 -0.000740 0.021993 0.001132 0.001957
# 5 0.001734 -0.001012 -0.000970 0.001132 0.022280 -0.007375
# 6 -0.002180 0.002231 -0.000873 0.001957 -0.007375 0.039426
#
#
# Mechanical properties :
#
#
# Convention : Reuss Voigt Hill
#
# Bulk Modulus (GPa) = 77.70862 86.01741 81.86302
# Shear Modulus (GPa) = 35.93993 40.53362 38.23678
#
# Velocity S-wave (km/s) = 4.04999 4.30103 4.17740
# Velocity P-wave (km/s) = 7.57197 7.99513 7.78643
#
# Compressibility (1/GPa) = 0.01286859
#
# Stress axis : x y z
#
# Youngs Moduli (GPa) = 106.59751 67.22544 129.13067
#
# Poissons Ratio (x) = 0.26522 0.32196
# Poissons Ratio (y) = 0.42055 0.40385
# Poissons Ratio (z) = 0.26577 0.21024
#
# Static dielectric constant tensor:
#      x y z
#    x 1.887410 -0.022820 0.004500 
#    y -0.022820 1.866570 -0.027900 
#    z 0.004500 -0.027900 1.877170 
# 
# From -- ./inp_files/404967.got.cif
#   From: 2010.05.17/outbox.cif.g08.bks.cpg/sg2_203_cif.got.tgz:404967.got - 2010.06.03 11:33:40.
