data_PCOD9019464
_publ_section_title
;
Structure prediction by ZEFSAII (Michael W. Deem and Ramdas Pophale) SiO2 
 PCOD9019464
Probable space group: P -1
;
_chemical_formula_sum "Si O2"
_cell_formula_units_Z 8
_cell_length_a 5.577608
_cell_length_b 11.751017
_cell_length_c 7.094540
_cell_angle_alpha 75.565423
_cell_angle_beta 43.509212
_cell_angle_gamma 85.568593
_cell_volume 306.269491
_symmetry_space_group_name_H-M "P -1"
_symmetry_group_IT_number 2
_symmetry_cell_setting 'triclinic'
loop_
_space_group_symop_operation_xyz
x,y,z
-x,-y,-z
loop_
_atom_site_type_symbol
_atom_site_label
_atom_site_fract_x
_atom_site_fract_y
_atom_site_fract_z
Si Si1 0.585484 0.477745 0.677573
Si Si2 0.627584 0.923115 0.291047
Si Si3 0.486917 0.278856 0.266093
Si Si4 0.682156 0.226635 0.785140
O O1 0.500000 0.500000 0.500000
O O2 0.469150 0.337755 0.835318
O O3 0.000000 0.500000 0.500000
O O4 0.598670 0.421068 0.155983
O O5 0.527287 0.791598 0.500147
O O6 0.467369 0.891981 0.189230
O O7 0.500000 0.000000 0.500000
O O8 0.000000 0.000000 0.000000
O O9 0.071367 0.260107 0.466021
O O10 0.689006 0.220677 0.010878
#
# Coordination Sequence:
#
# PCOD9019464 Si02
#       4
#     2   2   2   2
#     4  10  21  44  72 107 141 181 230 292 360 425
#     4  12  26  43  66  97 132 182 234 284 340 412
#     4  11  24  44  68  99 135 178 225 289 350 416
#     4  11  24  44  68  99 135 178 225 289 350 416
#
# _framework density 26.12079
#
# number of rings (size 3 to 8) (size 9 to 14) (size 15 to 20)
#    0.000    1.000    2.500    3.750    0.000    6.000 
#    0.000    5.000    0.000    0.000    0.000    0.000 
#    0.000    0.000    0.000    0.000    0.000    0.000 
#
# Total GULP energy -44649.751842 kJ/mol
# GULP energy per Si atom -5581.218980 kJ/mol
# Density = 2.606134 g / cm^3
# Si number density = 26.120790 Si / 1000 Ang^3
#
#
#
# Elastic Constant Matrix: (Units=GPa)
#
#
# Indices 1 2 3 4 5 6 
#
# 1 66.9091 32.3088 25.8028 6.2589 26.1149 11.7011
# 2 32.3088 147.6140 39.8010 22.1648 17.8204 14.7911
# 3 25.8028 39.8010 174.5624 21.2435 10.4683 9.6941
# 4 6.2589 22.1648 21.2435 54.9778 -4.3317 26.7130
# 5 26.1149 17.8204 10.4683 -4.3317 37.8786 -5.6300
# 6 11.7011 14.7911 9.6941 26.7130 -5.6300 52.7175
#
#
#
# Elastic Compliance Matrix: (Units=1/GPa)
#
#
# Indices 1 2 3 4 5 6 
#
# 1 0.023986 -0.002329 -0.001805 0.000781 -0.015808 -0.006422
# 2 -0.002329 0.008303 -0.001060 -0.002588 -0.002387 -0.000561
# 3 -0.001805 -0.001060 0.006481 -0.002172 -0.000210 0.000584
# 4 0.000781 -0.002588 -0.002172 0.025985 0.002475 -0.011950
# 5 -0.015808 -0.002387 -0.000210 0.002475 0.039836 0.007217
# 6 -0.006422 -0.000561 0.000584 -0.011950 0.007217 0.027271
#
#
# Mechanical properties :
#
#
# Convention : Reuss Voigt Hill
#
# Bulk Modulus (GPa) = 35.23065 64.99007 50.11036
# Shear Modulus (GPa) = 32.95782 48.52632 40.74207
#
# Velocity S-wave (km/s) = 3.55596 4.31486 3.95366
# Velocity P-wave (km/s) = 5.51150 7.05398 6.32990
#
# Compressibility (1/GPa) = 0.02838438
#
# Stress axis : x y z
#
# Youngs Moduli (GPa) = 41.69073 120.44039 154.28562
#
# Poissons Ratio (x) = 0.28045 0.27847
# Poissons Ratio (y) = 0.09708 0.16348
# Poissons Ratio (z) = 0.07525 0.12762
#
# Static dielectric constant tensor:
#      x y z
#    x 2.117380 -0.110000 0.049930 
#    y -0.110000 2.100980 -0.036340 
#    z 0.049930 -0.036340 1.970710 
# 
# From -- ./inp_files/1852.got.cif
#   From: 2010.05.17/outbox.cif.g08.bks.cpg/sg2_1_cif.got.tgz:1852.got - 2010.06.03 11:33:40.
