data_PCOD9019720
_publ_section_title
;
Structure prediction by ZEFSAII (Michael W. Deem and Ramdas Pophale) SiO2 
 PCOD9019720
Probable space group: P -1
;
_chemical_formula_sum "Si O2"
_cell_formula_units_Z 16
_cell_length_a 5.224364
_cell_length_b 8.598385
_cell_length_c 20.241516
_cell_angle_alpha 103.009435
_cell_angle_beta 118.254125
_cell_angle_gamma 51.260799
_cell_volume 621.377174
_symmetry_space_group_name_H-M "P -1"
_symmetry_group_IT_number 2
_symmetry_cell_setting 'triclinic'
loop_
_space_group_symop_operation_xyz
x,y,z
-x,-y,-z
loop_
_atom_site_type_symbol
_atom_site_label
_atom_site_fract_x
_atom_site_fract_y
_atom_site_fract_z
Si Si1 0.044763 0.807289 0.016590
Si Si2 0.288440 0.759104 0.519301
Si Si3 0.068905 0.765659 0.162139
Si Si4 0.896784 0.414887 0.245005
Si Si5 0.970219 0.756321 0.615511
Si Si6 0.902076 0.449746 0.110382
Si Si7 0.858796 0.349636 0.646279
Si Si8 0.667179 0.133476 0.688214
O O1 0.897630 0.855648 0.078283
O O2 0.471727 0.617054 0.059079
O O3 0.914270 0.707357 0.942856
O O4 0.000000 0.000000 0.000000
O O5 0.682200 0.711855 0.563452
O O6 0.197989 0.703136 0.572045
O O7 0.233200 0.662209 0.441149
O O8 0.000000 0.000000 0.500000
O O9 0.507766 0.623382 0.202043
O O10 0.013239 0.918993 0.226014
O O11 0.010014 0.597281 0.151269
O O12 0.993364 0.318534 0.175303
O O13 0.153858 0.472365 0.305298
O O14 0.881961 0.310016 0.297202
O O15 0.763812 0.990967 0.624704
O O16 0.307084 0.175809 0.681701
O O17 0.617551 0.317697 0.661224
#
# Coordination Sequence:
#
# PCOD9019720 Si02
#       8
#     2   2   2   2   2   2   2   2
#     4  10  23  41  67 104 128 169 224 269 332 408
#     4  12  23  41  64  92 129 171 222 286 339 393
#     4  10  22  42  64  89 133 175 208 268 339 393
#     4  10  25  41  60  95 127 171 219 273 333 397
#     4  12  25  39  65  96 126 171 229 278 334 400
#     4  10  21  45  67  88 142 173 210 280 337 394
#     4  11  22  41  65  87 130 171 218 271 338 395
#     4  11  21  39  65  93 124 174 222 266 326 401
#
# _framework density 25.749253
#
# number of rings (size 3 to 8) (size 9 to 14) (size 15 to 20)
#    0.000    1.250    3.750    1.500    3.500    1.500 
#    2.250    0.000    0.000    0.000    0.000    0.000 
#    0.000    0.000    0.000    0.000    0.000    0.000 
#
# Total GULP energy -89290.090241 kJ/mol
# GULP energy per Si atom -5580.630640 kJ/mol
# Density = 2.569065 g / cm^3
# Si number density = 25.749253 Si / 1000 Ang^3
#
#
#
# Elastic Constant Matrix: (Units=GPa)
#
#
# Indices 1 2 3 4 5 6 
#
# 1 103.1466 19.2518 58.2919 8.7217 -7.8399 14.6607
# 2 19.2518 52.8051 28.7921 12.1296 -3.3707 16.1104
# 3 58.2919 28.7921 183.3642 14.6761 -13.2818 7.9197
# 4 8.7217 12.1296 14.6761 53.8599 18.0631 -4.7971
# 5 -7.8399 -3.3707 -13.2818 18.0631 39.3831 -2.9351
# 6 14.6607 16.1104 7.9197 -4.7971 -2.9351 34.0528
#
#
#
# Elastic Compliance Matrix: (Units=1/GPa)
#
#
# Indices 1 2 3 4 5 6 
#
# 1 0.012724 -0.000865 -0.003428 -0.001949 0.001870 -0.004385
# 2 -0.000865 0.026268 -0.002454 -0.007455 0.003758 -0.012211
# 3 -0.003428 -0.002454 0.007178 -0.001536 0.002303 0.000950
# 4 -0.001949 -0.007455 -0.001536 0.025956 -0.012907 0.007267
# 5 0.001870 0.003758 0.002303 -0.012907 0.032624 -0.002125
# 6 -0.004385 -0.012211 0.000950 0.007267 -0.002125 0.037651
#
#
# Mechanical properties :
#
#
# Convention : Reuss Voigt Hill
#
# Bulk Modulus (GPa) = 30.60266 61.33194 45.96730
# Shear Modulus (GPa) = 29.97852 40.99115 35.48483
#
# Velocity S-wave (km/s) = 3.41581 3.99423 3.71629
# Velocity P-wave (km/s) = 5.24096 6.71882 6.02537
#
# Compressibility (1/GPa) = 0.03267689
#
# Stress axis : x y z
#
# Youngs Moduli (GPa) = 78.59136 38.06845 139.32364
#
# Poissons Ratio (x) = 0.03292 0.47765
# Poissons Ratio (y) = 0.06796 0.34183
# Poissons Ratio (z) = 0.26944 0.09340
#
# Static dielectric constant tensor:
#      x y z
#    x 2.055910 -0.021560 -0.046870 
#    y -0.021560 2.121010 -0.045820 
#    z -0.046870 -0.045820 2.153570 
# 
# From -- ./inp_files/324117.got.cif
#   From: 2010.05.17/outbox.cif.g08.bks.cpg/sg2_163_cif.got.tgz:324117.got - 2010.06.03 11:33:40.
