data_PCOD9019372
_publ_section_title
;
Structure prediction by ZEFSAII (Michael W. Deem and Ramdas Pophale) SiO2 
 PCOD9019372
Probable space group: P -1
;
_chemical_formula_sum "Si O2"
_cell_formula_units_Z 15
_cell_length_a 9.418042
_cell_length_b 21.512534
_cell_length_c 5.230493
_cell_angle_alpha 57.292980
_cell_angle_beta 114.073977
_cell_angle_gamma 135.385127
_cell_volume 625.791010
_symmetry_space_group_name_H-M "P -1"
_symmetry_group_IT_number 2
_symmetry_cell_setting 'triclinic'
loop_
_space_group_symop_operation_xyz
x,y,z
-x,-y,-z
loop_
_atom_site_type_symbol
_atom_site_label
_atom_site_fract_x
_atom_site_fract_y
_atom_site_fract_z
Si Si1 0.030249 0.717755 0.917258
Si Si2 0.977717 0.797445 0.202726
Si Si3 0.559064 0.210257 0.793606
Si Si4 0.801692 0.519742 0.049905
Si Si5 0.610588 0.999769 0.834371
Si Si6 0.500000 0.500000 0.500000
Si Si7 0.540771 0.679327 0.257004
Si Si8 0.805363 0.367411 0.253105
O O1 0.962031 0.736816 0.566585
O O2 0.880243 0.603788 0.123909
O O3 0.033284 0.774303 0.030691
O O4 0.255301 0.754795 0.959782
O O5 0.750634 0.757461 0.088297
O O6 0.155486 0.906172 0.177525
O O7 0.452230 0.255995 0.661672
O O8 0.690703 0.263133 0.518089
O O9 0.415864 0.096451 0.954280
O O10 0.596736 0.482500 0.848847
O O11 0.975643 0.579561 0.822487
O O12 0.813059 0.437024 0.312326
O O13 0.500000 0.000000 0.500000
O O14 0.500000 0.000000 0.000000
O O15 0.523852 0.586631 0.489881
O O16 0.341609 0.642243 0.041471
#
# Coordination Sequence:
#
# PCOD9019372 Si02
#       8
#     2   2   2   2   2   1   2   2
#     4  12  24  45  78 101 146 193 251 300 362 442
#     4  12  26  48  73 112 142 197 246 310 369 436
#     4  12  26  44  76 105 149 191 256 303 378 441
#     4  10  21  44  71 106 149 198 248 297 374 444
#     4  12  26  48  79 111 142 195 253 313 374 443
#     4  10  22  42  70 104 152 194 252 294 372 430
#     4  11  26  43  71 106 156 192 246 306 372 442
#     4  10  24  44  67 108 150 195 241 311 366 448
#
# _framework density 23.969667000000001
#
# number of rings (size 3 to 8) (size 9 to 14) (size 15 to 20)
#    0.000    0.800    5.333    0.800    3.733    2.133 
#    0.000    3.333    0.000    0.000    0.000    0.000 
#    0.000    0.000    0.000    0.000    0.000    0.000 
#
# Total GULP energy -83620.671047 kJ/mol
# GULP energy per Si atom -5574.711403 kJ/mol
# Density = 2.391511 g / cm^3
# Si number density = 23.969667 Si / 1000 Ang^3
#
#
#
# Elastic Constant Matrix: (Units=GPa)
#
#
# Indices 1 2 3 4 5 6 
#
# 1 97.4786 29.3341 18.4019 -8.2173 0.5196 -17.9289
# 2 29.3341 135.6534 31.2672 -22.2800 -2.2050 -9.6099
# 3 18.4019 31.2672 91.2290 -9.4029 -5.5715 -17.8517
# 4 -8.2173 -22.2800 -9.4029 46.7529 -0.1523 0.8346
# 5 0.5196 -2.2050 -5.5715 -0.1523 13.0318 -1.0654
# 6 -17.9289 -9.6099 -17.8517 0.8346 -1.0654 38.9844
#
#
#
# Elastic Compliance Matrix: (Units=1/GPa)
#
#
# Indices 1 2 3 4 5 6 
#
# 1 0.011917 -0.001927 -0.000793 0.000932 -0.000753 0.004602
# 2 -0.001927 0.008894 -0.002215 0.003452 0.000695 0.000237
# 3 -0.000793 -0.002215 0.013437 0.001431 0.005857 0.005372
# 4 0.000932 0.003452 0.001431 0.023465 0.001554 0.001475
# 5 -0.000753 0.000695 0.005857 0.001554 0.079786 0.004654
# 6 0.004602 0.000237 0.005372 0.001475 0.004654 0.030382
#
#
# Mechanical properties :
#
#
# Convention : Reuss Voigt Hill
#
# Bulk Modulus (GPa) = 41.02025 53.59637 47.30831
# Shear Modulus (GPa) = 26.89959 36.11099 31.50529
#
# Velocity S-wave (km/s) = 3.35361 3.88561 3.62937
# Velocity P-wave (km/s) = 5.66976 6.52221 6.11087
#
# Compressibility (1/GPa) = 0.02437821
#
# Stress axis : x y z
#
# Youngs Moduli (GPa) = 83.91108 112.43359 74.42243
#
# Poissons Ratio (x) = 0.21671 0.05899
# Poissons Ratio (y) = 0.16174 0.16484
# Poissons Ratio (z) = 0.06651 0.24903
#
# Static dielectric constant tensor:
#      x y z
#    x 0.980390 0.352060 0.741470 
#    y 0.352060 1.882550 -0.276540 
#    z 0.741470 -0.276540 1.369290 
# 
# From -- ./inp_files/52534.got.cif
#   From: 2010.05.17/outbox.cif.g08.bks.cpg/sg2_27_cif.got.tgz:52534.got - 2010.06.03 11:33:40.
