data_PCOD9019568
_publ_section_title
;
Structure prediction by ZEFSAII (Michael W. Deem and Ramdas Pophale) SiO2 
 PCOD9019568
Probable space group: P -1
;
_chemical_formula_sum "Si O2"
_cell_formula_units_Z 14
_cell_length_a 13.932220
_cell_length_b 11.653397
_cell_length_c 5.565225
_cell_angle_alpha 50.584171
_cell_angle_beta 120.098731
_cell_angle_gamma 112.605998
_cell_volume 600.977965
_symmetry_space_group_name_H-M "P -1"
_symmetry_group_IT_number 2
_symmetry_cell_setting 'triclinic'
loop_
_space_group_symop_operation_xyz
x,y,z
-x,-y,-z
loop_
_atom_site_type_symbol
_atom_site_label
_atom_site_fract_x
_atom_site_fract_y
_atom_site_fract_z
Si Si1 0.232387 0.226370 0.325917
Si Si2 0.947136 0.885077 0.382744
Si Si3 0.346923 0.689185 0.848297
Si Si4 0.288559 0.521184 0.499452
Si Si5 0.605155 0.766572 0.109739
Si Si6 0.931298 0.605295 0.441162
Si Si7 0.761857 0.016373 0.711007
O O1 0.154588 0.208700 0.483510
O O2 0.355710 0.271062 0.520591
O O3 0.242179 0.065766 0.438413
O O4 0.160931 0.321394 0.936846
O O5 0.994041 0.747551 0.475969
O O6 0.884914 0.991629 0.988580
O O7 0.000000 0.000000 0.500000
O O8 0.326873 0.607383 0.676384
O O9 0.264917 0.817636 0.566985
O O10 0.324616 0.595624 0.190267
O O11 0.474257 0.760976 0.926753
O O12 0.346850 0.367614 0.795539
O O13 0.153208 0.497977 0.358619
O O14 0.669707 0.920995 0.889186
O O15 0.000000 0.500000 0.500000
#
# Coordination Sequence:
#
# PCOD9019568 Si02
#       7
#     2   2   2   2   2   2   2
#     4  10  21  44  74  98 146 189 246 299 373 439
#     4  10  23  45  76 102 140 193 255 314 374 439
#     4  12  29  43  76 115 148 195 250 307 361 448
#     4  12  26  48  71 110 153 193 245 309 370 446
#     4  11  23  47  74 102 150 203 241 296 378 440
#     4  11  25  47  74 105 145 200 245 309 384 448
#     4  10  24  45  72 105 149 191 248 309 365 447
#
# _framework density 23.295365
#
# number of rings (size 3 to 8) (size 9 to 14) (size 15 to 20)
#    0.000    1.143    4.286    2.143    6.000    5.714 
#    2.571    0.000    0.000    0.000    0.000    0.000 
#    0.000    0.000    0.000    0.000    0.000    0.000 
#
# Total GULP energy -78124.930965 kJ/mol
# GULP energy per Si atom -5580.352212 kJ/mol
# Density = 2.324234 g / cm^3
# Si number density = 23.295365 Si / 1000 Ang^3
#
#
#
# Elastic Constant Matrix: (Units=GPa)
#
#
# Indices 1 2 3 4 5 6 
#
# 1 47.8293 -24.2656 -10.9147 31.2271 -0.6676 18.5649
# 2 -24.2656 96.3610 13.9651 70.2037 20.4936 -0.7911
# 3 -10.9147 13.9651 64.1826 18.2708 -2.8163 0.3271
# 4 31.2271 70.2037 18.2708 13.3955 -0.4142 -16.3340
# 5 -0.6676 20.4936 -2.8163 -0.4142 40.4786 -7.1794
# 6 18.5649 -0.7911 0.3271 -16.3340 -7.1794 33.9049
#
#
#
# Elastic Compliance Matrix: (Units=1/GPa)
#
#
# Indices 1 2 3 4 5 6 
#
# 1 0.010065 -0.006499 0.000062 0.011320 0.003677 0.000569
# 2 -0.006499 0.004198 -0.004245 0.007509 -0.001199 0.007061
# 3 0.000062 -0.004245 0.016203 0.001613 0.003512 0.001232
# 4 0.011320 0.007509 0.001613 -0.005284 -0.005278 -0.009702
# 5 0.003677 -0.001199 0.003512 -0.005278 0.025709 0.000826
# 6 0.000569 0.007061 0.001232 -0.009702 0.000826 0.024837
#
#
# Mechanical properties :
#
#
# Convention : Reuss Voigt Hill
#
# Bulk Modulus (GPa) = 109.86022 18.43805 64.14914
# Shear Modulus (GPa) = 49.93694 32.86168 41.39931
#
# Velocity S-wave (km/s) = 4.63497 3.75994 4.22020
# Velocity P-wave (km/s) = 8.71241 5.17510 7.16546
#
# Compressibility (1/GPa) = 0.00910248
#
# Stress axis : x y z
#
# Youngs Moduli (GPa) = 99.35670 238.18294 61.71589
#
# Poissons Ratio (x) = 1.54790 -0.00381
# Poissons Ratio (y) = 0.64570 0.26198
# Poissons Ratio (z) = -0.00613 1.01106
#
# Static dielectric constant tensor:
#      x y z
#    x 1.909160 0.018220 -0.082700 
#    y 0.018220 1.954330 0.049630 
#    z -0.082700 0.049630 1.926440 
# 
# From -- ./inp_files/93081.got.cif
#   From: 2010.05.17/outbox.cif.g08.bks.cpg/sg2_47_cif.got.tgz:93081.got - 2010.06.03 11:33:40.
