data_PCOD9019845
_publ_section_title
;
Structure prediction by ZEFSAII (Michael W. Deem and Ramdas Pophale) SiO2 
 PCOD9019845
Probable space group: P -1
;
_chemical_formula_sum "Si O2"
_cell_formula_units_Z 16
_cell_length_a 15.192573
_cell_length_b 7.736002
_cell_length_c 14.428377
_cell_angle_alpha 84.135448
_cell_angle_beta 28.298630
_cell_angle_gamma 101.110696
_cell_volume 640.115472
_symmetry_space_group_name_H-M "P -1"
_symmetry_group_IT_number 2
_symmetry_cell_setting 'triclinic'
loop_
_space_group_symop_operation_xyz
x,y,z
-x,-y,-z
loop_
_atom_site_type_symbol
_atom_site_label
_atom_site_fract_x
_atom_site_fract_y
_atom_site_fract_z
Si Si1 0.434436 0.117502 0.729586
Si Si2 0.061197 0.831113 0.959027
Si Si3 0.182282 0.464441 0.243924
Si Si4 0.598174 0.524273 0.765495
Si Si5 0.298696 0.381981 0.538879
Si Si6 0.221512 0.854852 0.264327
Si Si7 0.816893 0.933369 0.869746
Si Si8 0.177594 0.923354 0.649073
O O1 0.495134 0.358611 0.652631
O O2 0.320155 0.975518 0.751124
O O3 0.656551 0.127359 0.544677
O O4 0.234015 0.975778 0.999607
O O5 0.059753 0.771027 0.857664
O O6 0.880421 0.660641 0.212306
O O7 0.000000 0.000000 0.000000
O O8 0.282931 0.441026 0.248531
O O9 0.157869 0.654130 0.270930
O O10 0.919346 0.243791 0.504006
O O11 0.386402 0.542550 0.976968
O O12 0.750347 0.636520 0.526398
O O13 0.447162 0.272732 0.894615
O O14 0.314125 0.178127 0.541435
O O15 0.125333 0.964080 0.290287
O O16 0.500000 0.000000 0.000000
O O17 0.983435 0.880774 0.759910
#
# Coordination Sequence:
#
# PCOD9019845 Si02
#       8
#     2   2   2   2   2   2   2   2
#     4  11  24  44  69 102 136 187 230 281 346 421
#     4  10  21  45  70 101 141 177 233 286 339 413
#     4  10  23  42  68  95 132 171 234 282 340 425
#     4  10  22  44  63 100 130 177 230 282 348 409
#     4  10  23  44  70  98 142 179 224 289 343 404
#     4  11  23  43  68  95 133 180 223 285 350 402
#     4  11  23  44  66  99 140 171 235 285 334 416
#     4  11  24  45  69 103 139 186 230 285 347 415
#
# _framework density 24.995488000000002
#
# number of rings (size 3 to 8) (size 9 to 14) (size 15 to 20)
#    0.000    1.500    3.750    1.125    1.750    4.000 
#    9.000    0.000    0.000    0.000    0.000    0.000 
#    0.000    0.000    0.000    0.000    0.000    0.000 
#
# Total GULP energy -89135.444629 kJ/mol
# GULP energy per Si atom -5570.965289 kJ/mol
# Density = 2.493860 g / cm^3
# Si number density = 24.995488 Si / 1000 Ang^3
#
#
#
# Elastic Constant Matrix: (Units=GPa)
#
#
# Indices 1 2 3 4 5 6 
#
# 1 95.2741 13.7049 60.2849 7.2844 10.7097 1.9339
# 2 13.7049 46.9426 27.9603 17.2644 13.6941 -3.0019
# 3 60.2849 27.9603 135.4659 10.1612 12.6555 -6.8328
# 4 7.2844 17.2644 10.1612 47.1590 -5.7569 -2.5823
# 5 10.7097 13.6941 12.6555 -5.7569 42.5881 3.7164
# 6 1.9339 -3.0019 -6.8328 -2.5823 3.7164 16.7008
#
#
#
# Elastic Compliance Matrix: (Units=1/GPa)
#
#
# Indices 1 2 3 4 5 6 
#
# 1 0.015102 0.000381 -0.006742 -0.001466 -0.001741 -0.004278
# 2 0.000381 0.031718 -0.004593 -0.011772 -0.010903 0.004384
# 3 -0.006742 -0.004593 0.011608 0.000411 -0.000650 0.004913
# 4 -0.001466 -0.011772 0.000411 0.026612 0.007572 0.000652
# 5 -0.001741 -0.010903 -0.000650 0.007572 0.029284 -0.007370
# 6 -0.004278 0.004384 0.004913 0.000652 -0.007370 0.064911
#
#
# Mechanical properties :
#
#
# Convention : Reuss Voigt Hill
#
# Bulk Modulus (GPa) = 27.38389 53.50920 40.44654
# Shear Modulus (GPa) = 23.43908 33.00509 28.22209
#
# Velocity S-wave (km/s) = 3.06556 3.63773 3.36383
# Velocity P-wave (km/s) = 4.84867 6.25285 5.59498
#
# Compressibility (1/GPa) = 0.03651783
#
# Stress axis : x y z
#
# Youngs Moduli (GPa) = 66.21506 31.52817 86.14625
#
# Poissons Ratio (x) = -0.01200 0.58084
# Poissons Ratio (y) = -0.02520 0.39569
# Poissons Ratio (z) = 0.44645 0.14481
#
# Static dielectric constant tensor:
#      x y z
#    x 2.211070 -0.074670 0.048090 
#    y -0.074670 2.197050 -0.120700 
#    z 0.048090 -0.120700 2.111710 
# 
# From -- ./inp_files/529605.got.cif
#   From: 2010.05.17/outbox.cif.g08.bks.cpg/sg2_265_cif.got.tgz:529605.got - 2010.06.03 11:33:40.
