data_PCOD9019198
_publ_section_title
;
Structure prediction by ZEFSAII (Michael W. Deem and Ramdas Pophale) SiO2 
 PCOD9019198
Probable space group: P -1
;
_chemical_formula_sum "Si O2"
_cell_formula_units_Z 16
_cell_length_a 9.125460
_cell_length_b 15.518177
_cell_length_c 8.332400
_cell_angle_alpha 94.859241
_cell_angle_beta 132.924447
_cell_angle_gamma 60.807709
_cell_volume 695.473739
_symmetry_space_group_name_H-M "P -1"
_symmetry_group_IT_number 2
_symmetry_cell_setting 'triclinic'
loop_
_space_group_symop_operation_xyz
x,y,z
-x,-y,-z
loop_
_atom_site_type_symbol
_atom_site_label
_atom_site_fract_x
_atom_site_fract_y
_atom_site_fract_z
Si Si1 0.159860 0.067404 0.208748
Si Si2 0.000332 0.613283 0.197196
Si Si3 0.800830 0.733115 0.728534
Si Si4 0.179232 0.519450 0.833076
Si Si5 0.406688 0.000942 0.691484
Si Si6 0.279006 0.782849 0.289426
Si Si7 0.837316 0.826169 0.193455
Si Si8 0.548347 0.549508 0.300522
O O1 0.170468 0.170896 0.253036
O O2 0.230192 0.009691 0.422444
O O3 0.386329 0.993245 0.243836
O O4 0.891647 0.118760 0.944596
O O5 0.878273 0.552564 0.124903
O O6 0.899719 0.711842 0.258308
O O7 0.285178 0.526637 0.440889
O O8 0.932362 0.667737 0.980914
O O9 0.518021 0.773197 0.527018
O O10 0.944394 0.643632 0.683560
O O11 0.267864 0.473531 0.713392
O O12 0.385950 0.517501 0.089276
O O13 0.236842 0.097354 0.700002
O O14 0.588046 0.891786 0.907884
O O15 0.387097 0.671165 0.260426
O O16 0.077113 0.803739 0.275424
#
# Coordination Sequence:
#
# PCOD9019198 Si02
#       8
#     2   2   2   2   2   2   2   2
#     4  10  21  44  69  91 126 168 209 268 321 361
#     4  12  24  40  65  93 131 172 204 259 314 371
#     4  12  24  40  63  96 131 168 213 254 314 382
#     4  11  25  41  62  94 132 171 209 252 313 380
#     4   9  20  43  72  89 122 169 213 267 321 365
#     4  11  23  41  62  95 133 164 212 255 309 385
#     4  10  22  41  68  96 124 168 214 260 319 371
#     4  11  25  42  63  93 134 167 212 254 307 389
#
# _framework density 23.005901000000001
#
# number of rings (size 3 to 8) (size 9 to 14) (size 15 to 20)
#    0.000    1.250    5.000    0.750    3.500    1.000 
#    0.000    6.250    0.000    0.000    0.000    0.000 
#    0.000    0.000    0.000    0.000    0.000    0.000 
#
# Total GULP energy -89491.667653 kJ/mol
# GULP energy per Si atom -5593.229228 kJ/mol
# Density = 2.295354 g / cm^3
# Si number density = 23.005901 Si / 1000 Ang^3
#
#
#
# Elastic Constant Matrix: (Units=GPa)
#
#
# Indices 1 2 3 4 5 6 
#
# 1 78.4785 61.0404 35.4021 -0.5622 7.9597 -18.1492
# 2 61.0404 117.1604 12.3503 -16.9266 5.8322 -29.9854
# 3 35.4021 12.3503 163.7926 -9.4648 5.9642 -13.8949
# 4 -0.5622 -16.9266 -9.4648 29.1221 0.9834 6.5361
# 5 7.9597 5.8322 5.9642 0.9834 32.8112 2.5530
# 6 -18.1492 -29.9854 -13.8949 6.5361 2.5530 47.8000
#
#
#
# Elastic Compliance Matrix: (Units=1/GPa)
#
#
# Indices 1 2 3 4 5 6 
#
# 1 0.026595 -0.014280 -0.005027 -0.009581 -0.002801 0.001139
# 2 -0.014280 0.018694 0.002800 0.010241 -0.001124 0.005779
# 3 -0.005027 0.002800 0.007350 0.003603 -0.000842 0.001537
# 4 -0.009581 0.010241 0.003603 0.041724 -0.001261 -0.001804
# 5 -0.002801 -0.001124 -0.000842 -0.001261 0.031823 -0.003541
# 6 0.001139 0.005779 0.001537 -0.001804 -0.003541 0.025861
#
#
# Mechanical properties :
#
#
# Convention : Reuss Voigt Hill
#
# Bulk Modulus (GPa) = 50.95122 64.11304 57.53213
# Shear Modulus (GPa) = 26.09570 38.65589 32.37580
#
# Velocity S-wave (km/s) = 3.37160 4.10354 3.75545
# Velocity P-wave (km/s) = 6.11163 7.09794 6.62317
#
# Compressibility (1/GPa) = 0.01962662
#
# Stress axis : x y z
#
# Youngs Moduli (GPa) = 37.60050 53.49207 136.05789
#
# Poissons Ratio (x) = 0.76384 0.68391
# Poissons Ratio (y) = 0.53692 -0.38093
# Poissons Ratio (z) = 0.18900 -0.14976
#
# Static dielectric constant tensor:
#      x y z
#    x 1.877720 -0.025180 -0.010170 
#    y -0.025180 1.878920 0.019590 
#    z -0.010170 0.019590 1.883420 
# 
# From -- ./inp_files/217722.got.cif
#   From: 2010.05.17/outbox.cif.g08.bks.cpg/sg2_109_cif.got.tgz:217722.got - 2010.06.03 11:33:40.
