data_PCOD9020965
_publ_section_title
;
Structure prediction by ZEFSAII (Michael W. Deem and Ramdas Pophale) SiO2 
 PCOD9020965
Probable space group: P -1
;
_chemical_formula_sum "Si O2"
_cell_formula_units_Z 14
_cell_length_a 5.557316
_cell_length_b 5.174404
_cell_length_c 21.715819
_cell_angle_alpha 74.376227
_cell_angle_beta 114.230106
_cell_angle_gamma 83.006238
_cell_volume 528.871904
_symmetry_space_group_name_H-M "P -1"
_symmetry_group_IT_number 2
_symmetry_cell_setting 'triclinic'
loop_
_space_group_symop_operation_xyz
x,y,z
-x,-y,-z
loop_
_atom_site_type_symbol
_atom_site_label
_atom_site_fract_x
_atom_site_fract_y
_atom_site_fract_z
Si Si1 0.782256 0.371577 0.571707
Si Si2 0.646280 0.368887 0.687022
Si Si3 0.872533 0.202207 0.377407
Si Si4 0.797516 0.969057 0.820425
Si Si5 0.256134 0.883630 0.956094
Si Si6 0.595886 0.519163 0.905968
Si Si7 0.129782 0.591922 0.770630
O O1 0.500000 0.500000 0.500000
O O2 0.702811 0.235721 0.634872
O O3 0.932039 0.607377 0.591517
O O4 0.991054 0.119937 0.574488
O O5 0.924555 0.416965 0.739274
O O6 0.422898 0.658908 0.634194
O O7 0.561793 0.192159 0.744550
O O8 0.817184 0.251278 0.295236
O O9 0.702480 0.742094 0.864762
O O10 0.972318 0.809956 0.791202
O O11 0.991057 0.077393 0.882241
O O12 0.395377 0.677121 0.928919
O O13 0.186268 0.712744 0.018048
O O14 0.500000 0.000000 0.000000
O O15 0.403765 0.413665 0.844240
#
# Coordination Sequence:
#
# PCOD9020965 Si02
#       7
#     2   2   2   2   2   2   2
#     4  11  26  48  72 108 149 187 236 295 353 430
#     4  11  25  41  71 103 140 186 238 287 362 421
#     4  11  25  43  76 103 147 187 239 292 358 425
#     4  11  22  39  65  93 135 178 238 293 354 422
#     4  10  22  39  58  89 136 177 232 290 353 418
#     4  10  22  37  63  92 127 181 232 291 351 416
#     4  10  22  41  62  96 138 174 237 292 350 416
#
# _framework density 26.471440999999999
#
# number of rings (size 3 to 8) (size 9 to 14) (size 15 to 20)
#    0.000    1.429    1.429    2.571    4.000    5.143 
#    0.000    0.000    0.000    0.000    0.000    0.000 
#    0.000    0.000    0.000    0.000    0.000    0.000 
#
# Total GULP energy -78422.166326 kJ/mol
# GULP energy per Si atom -5601.583309 kJ/mol
# Density = 2.641119 g / cm^3
# Si number density = 26.471441 Si / 1000 Ang^3
#
#
#
# Elastic Constant Matrix: (Units=GPa)
#
#
# Indices 1 2 3 4 5 6 
#
# 1 56.5174 10.4700 25.3986 6.2985 13.6062 6.5090
# 2 10.4700 82.8310 37.7108 -5.0875 12.3719 -5.0704
# 3 25.3986 37.7108 161.7047 -1.7719 34.9039 11.2794
# 4 6.2985 -5.0875 -1.7719 38.3281 -7.0611 11.5732
# 5 13.6062 12.3719 34.9039 -7.0611 34.9296 1.3910
# 6 6.5090 -5.0704 11.2794 11.5732 1.3910 50.3785
#
#
#
# Elastic Compliance Matrix: (Units=1/GPa)
#
#
# Indices 1 2 3 4 5 6 
#
# 1 0.020955 -0.001299 -0.001399 -0.004623 -0.007188 -0.001264
# 2 -0.001299 0.013945 -0.002867 0.001061 -0.001434 0.002009
# 3 -0.001399 -0.002867 0.008747 -0.000551 -0.007222 -0.001740
# 4 -0.004623 0.001061 -0.000551 0.030442 0.008385 -0.006397
# 5 -0.007188 -0.001434 -0.007222 0.008385 0.040874 -0.000653
# 6 -0.001264 0.002009 -0.001740 -0.006397 -0.000653 0.022093
#
#
# Mechanical properties :
#
#
# Convention : Reuss Voigt Hill
#
# Bulk Modulus (GPa) = 30.75526 49.80134 40.27830
# Shear Modulus (GPa) = 31.44184 39.89216 35.66700
#
# Velocity S-wave (km/s) = 3.45013 3.88621 3.67465
# Velocity P-wave (km/s) = 5.24545 6.24427 5.76652
#
# Compressibility (1/GPa) = 0.03251476
#
# Stress axis : x y z
#
# Youngs Moduli (GPa) = 47.72242 71.71257 114.32955
#
# Poissons Ratio (x) = 0.09318 0.15996
# Poissons Ratio (y) = 0.06201 0.32778
# Poissons Ratio (z) = 0.06677 0.20560
#
# Static dielectric constant tensor:
#      x y z
#    x 2.111600 0.008050 -0.005370 
#    y 0.008050 2.126840 -0.063820 
#    z -0.005370 -0.063820 2.040310 
# 
# From -- ./inp_files/7546.got.cif
#   From: 2010.05.17/outbox.cif.g08.bks.cpg/sg2_4_cif.got.tgz:7546.got - 2010.06.03 11:33:40.
