data_PCOD9020995
_publ_section_title
;
Structure prediction by ZEFSAII (Michael W. Deem and Ramdas Pophale) SiO2 
 PCOD9020995
Probable space group: P -1
;
_chemical_formula_sum "Si O2"
_cell_formula_units_Z 14
_cell_length_a 16.416751
_cell_length_b 5.456615
_cell_length_c 11.598603
_cell_angle_alpha 53.090586
_cell_angle_beta 55.967658
_cell_angle_gamma 48.953078
_cell_volume 602.547516
_symmetry_space_group_name_H-M "P -1"
_symmetry_group_IT_number 2
_symmetry_cell_setting 'triclinic'
loop_
_space_group_symop_operation_xyz
x,y,z
-x,-y,-z
loop_
_atom_site_type_symbol
_atom_site_label
_atom_site_fract_x
_atom_site_fract_y
_atom_site_fract_z
Si Si1 0.286818 0.640284 0.764288
Si Si2 0.883595 0.228778 0.463149
Si Si3 0.339588 0.553964 0.180176
Si Si4 0.535701 0.597520 0.110826
Si Si5 0.838105 0.754338 0.952547
Si Si6 0.747737 0.912232 0.541310
Si Si7 0.075539 0.285401 0.859724
O O1 0.388329 0.557051 0.793688
O O2 0.311268 0.745587 0.590265
O O3 0.168928 0.972148 0.801128
O O4 0.254520 0.336926 0.897016
O O5 0.809713 0.569356 0.505466
O O6 0.906727 0.385247 0.282861
O O7 0.827397 0.994060 0.536611
O O8 0.000000 0.000000 0.500000
O O9 0.427203 0.544623 0.207028
O O10 0.329166 0.204321 0.292920
O O11 0.221371 0.910942 0.176626
O O12 0.387982 0.582923 0.010295
O O13 0.500000 0.000000 0.000000
O O14 0.943883 0.425213 0.901946
O O15 0.894503 0.820657 0.001307
#
# Coordination Sequence:
#
# PCOD9020995 Si02
#       7
#     2   2   2   2   2   2   2
#     4  11  22  43  67  97 138 179 225 285 342 405
#     4  11  23  43  65 100 142 187 222 279 341 414
#     4  11  25  43  68 102 129 181 234 284 346 405
#     4  11  24  43  70  94 133 177 233 290 340 407
#     4  11  20  39  65  94 133 174 225 277 329 414
#     4  11  26  43  70  98 143 176 230 284 349 407
#     4  10  22  37  63  98 131 177 226 267 341 402
#
# _framework density 23.234680999999998
#
# number of rings (size 3 to 8) (size 9 to 14) (size 15 to 20)
#    0.000    1.143    4.286    1.714    2.000    1.714 
#    2.571    0.714    0.000    0.000    0.000    0.000 
#    0.000    0.000    0.000    0.000    0.000    0.000 
#
# Total GULP energy -78233.321130 kJ/mol
# GULP energy per Si atom -5588.094366 kJ/mol
# Density = 2.318180 g / cm^3
# Si number density = 23.234681 Si / 1000 Ang^3
#
#
#
# Elastic Constant Matrix: (Units=GPa)
#
#
# Indices 1 2 3 4 5 6 
#
# 1 173.6927 27.5478 61.1959 -21.1815 -13.0947 -2.2364
# 2 27.5478 72.3938 20.4728 -12.9474 -0.6752 -2.3412
# 3 61.1959 20.4728 113.2058 -31.0104 -11.2862 -7.2740
# 4 -21.1815 -12.9474 -31.0104 29.8245 10.5181 -0.2539
# 5 -13.0947 -0.6752 -11.2862 10.5181 41.1910 -8.8924
# 6 -2.2364 -2.3412 -7.2740 -0.2539 -8.8924 29.3980
#
#
#
# Elastic Compliance Matrix: (Units=1/GPa)
#
#
# Indices 1 2 3 4 5 6 
#
# 1 0.007395 -0.001747 -0.003425 0.000491 0.001249 -0.000042
# 2 -0.001747 0.015627 -0.000468 0.005685 -0.001769 0.000510
# 3 -0.003425 -0.000468 0.014378 0.012170 0.000494 0.003514
# 4 0.000491 0.005685 0.012170 0.052382 -0.009563 0.001061
# 5 0.001249 -0.001769 0.000494 -0.009563 0.029123 0.008803
# 6 -0.000042 0.000510 0.003514 0.001061 0.008803 0.037595
#
#
# Mechanical properties :
#
#
# Convention : Reuss Voigt Hill
#
# Bulk Modulus (GPa) = 38.28494 64.19172 51.23833
# Shear Modulus (GPa) = 28.33079 36.75444 32.54261
#
# Velocity S-wave (km/s) = 3.49568 3.98160 3.74653
# Velocity P-wave (km/s) = 5.72768 6.98749 6.38871
#
# Compressibility (1/GPa) = 0.02611993
#
# Stress axis : x y z
#
# Youngs Moduli (GPa) = 135.23344 63.99085 69.54889
#
# Poissons Ratio (x) = 0.11180 0.23820
# Poissons Ratio (y) = 0.23627 0.03255
# Poissons Ratio (z) = 0.46317 0.02995
#
# Static dielectric constant tensor:
#      x y z
#    x 1.861790 -0.008340 -0.047940 
#    y -0.008340 1.968980 0.078500 
#    z -0.047940 0.078500 1.960210 
# 
# From -- ./inp_files/28462.got.cif
#   From: 2010.05.17/outbox.cif.g08.bks.cpg/sg2_15_cif.got.tgz:28462.got - 2010.06.03 11:33:40.
