data_PCOD9020012
_publ_section_title
;
Structure prediction by ZEFSAII (Michael W. Deem and Ramdas Pophale) SiO2 
 PCOD9020012
Probable space group: P -1
;
_chemical_formula_sum "Si O2"
_cell_formula_units_Z 16
_cell_length_a 7.193243
_cell_length_b 8.390691
_cell_length_c 12.792523
_cell_angle_alpha 112.386718
_cell_angle_beta 107.005942
_cell_angle_gamma 66.660876
_cell_volume 646.322890
_symmetry_space_group_name_H-M "P -1"
_symmetry_group_IT_number 2
_symmetry_cell_setting 'triclinic'
loop_
_space_group_symop_operation_xyz
x,y,z
-x,-y,-z
loop_
_atom_site_type_symbol
_atom_site_label
_atom_site_fract_x
_atom_site_fract_y
_atom_site_fract_z
Si Si1 0.871589 0.692172 0.472906
Si Si2 0.952632 0.315600 0.125946
Si Si3 0.202799 0.710408 0.125474
Si Si4 0.567076 0.337099 0.554478
Si Si5 0.169474 0.090043 0.288143
Si Si6 0.625881 0.595928 0.799919
Si Si7 0.859226 0.714895 0.237946
Si Si8 0.596266 0.122766 0.317814
O O1 0.631685 0.701355 0.437761
O O2 0.899352 0.849905 0.591219
O O3 0.935608 0.706884 0.368786
O O4 0.000000 0.500000 0.500000
O O5 0.993287 0.187162 0.201201
O O6 0.181653 0.328130 0.142831
O O7 0.815613 0.523482 0.177425
O O8 0.863030 0.247406 0.993923
O O9 0.368365 0.510678 0.117758
O O10 0.005875 0.706659 0.160629
O O11 0.255616 0.877908 0.226497
O O12 0.500000 0.500000 0.500000
O O13 0.664623 0.426230 0.682908
O O14 0.683539 0.173157 0.454180
O O15 0.357621 0.165455 0.319682
O O16 0.429287 0.746515 0.754951
O O17 0.692959 0.913439 0.252828
#
# Coordination Sequence:
#
# PCOD9020012 Si02
#       8
#     2   2   2   2   2   2   2   2
#     4  11  23  39  63  97 133 158 195 262 321 371
#     4  10  21  46  64  86 125 170 212 258 304 360
#     4  11  24  40  68  89 119 171 222 249 298 371
#     4   9  20  36  62  87 125 168 200 238 316 382
#     4  10  22  41  65  91 125 166 202 253 321 369
#     4   9  19  38  62  86 118 165 206 244 304 365
#     4  11  23  39  63  93 129 157 208 258 312 364
#     4   9  21  39  58  90 130 158 197 255 317 371
#
# _framework density 24.755427000000001
#
# number of rings (size 3 to 8) (size 9 to 14) (size 15 to 20)
#    0.000    2.000    1.250    2.625    7.000    3.500 
#    0.000    6.250    2.750    0.000    0.000    0.000 
#    0.000    0.000    0.000    0.000    0.000    0.000 
#
# Total GULP energy -89317.666553 kJ/mol
# GULP energy per Si atom -5582.354160 kJ/mol
# Density = 2.469908 g / cm^3
# Si number density = 24.755427 Si / 1000 Ang^3
#
#
#
# Elastic Constant Matrix: (Units=GPa)
#
#
# Indices 1 2 3 4 5 6 
#
# 1 64.6622 2.4457 -0.1798 -13.4926 -10.3506 -3.1275
# 2 2.4457 124.6649 20.9244 -0.3993 -4.6842 -9.2173
# 3 -0.1798 20.9244 95.3033 -11.0546 -0.5323 -5.6312
# 4 -13.4926 -0.3993 -11.0546 37.9854 2.8178 -1.0570
# 5 -10.3506 -4.6842 -0.5323 2.8178 21.1373 4.5459
# 6 -3.1275 -9.2173 -5.6312 -1.0570 4.5459 20.9476
#
#
#
# Elastic Compliance Matrix: (Units=1/GPa)
#
#
# Indices 1 2 3 4 5 6 
#
# 1 0.018060 -0.000082 0.000899 0.006148 0.007697 0.001542
# 2 -0.000082 0.008584 -0.001754 -0.000457 0.001233 0.003003
# 3 0.000899 -0.001754 0.011479 0.003777 -0.000766 0.002805
# 4 0.006148 -0.000457 0.003777 0.029834 -0.001751 0.003617
# 5 0.007697 0.001233 -0.000766 -0.001751 0.053775 -0.010273
# 6 0.001542 0.003003 0.002805 0.003617 -0.010273 0.052456
#
#
# Mechanical properties :
#
#
# Convention : Reuss Voigt Hill
#
# Bulk Modulus (GPa) = 27.58607 36.77903 32.18255
# Shear Modulus (GPa) = 26.57517 33.44340 30.00928
#
# Velocity S-wave (km/s) = 3.28000 3.67952 3.48549
# Velocity P-wave (km/s) = 5.05096 5.73943 5.40616
#
# Compressibility (1/GPa) = 0.03625018
#
# Stress axis : x y z
#
# Youngs Moduli (GPa) = 55.37084 116.49118 87.11506
#
# Poissons Ratio (x) = 0.00960 -0.07835
# Poissons Ratio (y) = 0.00456 0.15277
# Poissons Ratio (z) = -0.04980 0.20428
#
# Static dielectric constant tensor:
#      x y z
#    x 2.041980 0.006380 0.023090 
#    y 0.006380 1.964740 -0.014230 
#    z 0.023090 -0.014230 1.963760 
# 
# From -- ./inp_files/181883.got.cif
#   From: 2010.05.17/outbox.cif.g08.bks.cpg/sg2_91_cif.got.tgz:181883.got - 2010.06.03 11:33:40.
