data_PCOD9020008
_publ_section_title
;
Structure prediction by ZEFSAII (Michael W. Deem and Ramdas Pophale) SiO2 
 PCOD9020008
Probable space group: P -1
;
_chemical_formula_sum "Si O2"
_cell_formula_units_Z 13
_cell_length_a 12.293772
_cell_length_b 10.326182
_cell_length_c 9.586506
_cell_angle_alpha 32.173017
_cell_angle_beta 132.327424
_cell_angle_gamma 127.520790
_cell_volume 476.718268
_symmetry_space_group_name_H-M "P -1"
_symmetry_group_IT_number 2
_symmetry_cell_setting 'triclinic'
loop_
_space_group_symop_operation_xyz
x,y,z
-x,-y,-z
loop_
_atom_site_type_symbol
_atom_site_label
_atom_site_fract_x
_atom_site_fract_y
_atom_site_fract_z
Si Si1 0.183594 0.437440 0.872780
Si Si2 0.126988 0.756900 0.285861
Si Si3 0.871475 0.248283 0.211835
Si Si4 0.500000 0.500000 0.500000
Si Si5 0.569557 0.967128 0.244132
Si Si6 0.600480 0.859083 0.819971
Si Si7 0.174629 0.435986 0.372165
O O1 0.145406 0.674289 0.535973
O O2 0.175753 0.519428 0.950428
O O3 0.044849 0.232921 0.910575
O O4 0.334438 0.355550 0.015700
O O5 0.168069 0.523000 0.444739
O O6 0.249858 0.973735 0.159593
O O7 0.040478 0.228775 0.416668
O O8 0.743628 0.040807 0.328468
O O9 0.860699 0.333131 0.965703
O O10 0.511019 0.688877 0.474398
O O11 0.334615 0.389448 0.502920
O O12 0.498224 0.156480 0.112026
O O13 0.500000 0.000000 0.000000
O O14 0.500000 0.000000 0.500000
#
# Coordination Sequence:
#
# PCOD9020008 Si02
#       7
#     2   2   2   1   2   2   2
#     4  10  24  41  71  91 137 173 222 273 331 397
#     4  10  21  46  63  97 128 180 223 269 330 398
#     4  10  22  45  64 100 131 174 218 277 331 398
#     4  12  24  42  70  98 126 178 216 286 324 396
#     4  12  26  43  67  97 134 174 226 271 333 395
#     4  12  26  40  65 101 135 174 219 274 335 397
#     4  10  22  41  72  92 133 169 224 273 331 386
#
# _framework density 27.269774000000002
#
# number of rings (size 3 to 8) (size 9 to 14) (size 15 to 20)
#    0.000    1.231    3.077    1.385    4.308    3.077 
#    0.000    0.000    0.000    0.000    0.000    0.000 
#    0.000    0.000    0.000    0.000    0.000    0.000 
#
# Total GULP energy -72568.388145 kJ/mol
# GULP energy per Si atom -5582.183703 kJ/mol
# Density = 2.720771 g / cm^3
# Si number density = 27.269774 Si / 1000 Ang^3
#
#
#
# Elastic Constant Matrix: (Units=GPa)
#
#
# Indices 1 2 3 4 5 6 
#
# 1 197.1620 47.9793 25.5701 5.1649 45.1479 13.7706
# 2 47.9793 131.4325 12.4338 3.6790 14.9719 33.3751
# 3 25.5701 12.4338 76.1528 10.5167 14.7869 -8.9314
# 4 5.1649 3.6790 10.5167 27.0439 -5.0417 -2.9432
# 5 45.1479 14.9719 14.7869 -5.0417 49.3887 9.7822
# 6 13.7706 33.3751 -8.9314 -2.9432 9.7822 67.6349
#
#
#
# Elastic Compliance Matrix: (Units=1/GPa)
#
#
# Indices 1 2 3 4 5 6 
#
# 1 0.006976 -0.001804 -0.000625 -0.001921 -0.005869 0.000153
# 2 -0.001804 0.009589 -0.001360 -0.000937 -0.000039 -0.004579
# 3 -0.000625 -0.001360 0.015829 -0.006433 -0.005075 0.003343
# 4 -0.001921 -0.000937 -0.006433 0.041550 0.008081 0.000643
# 5 -0.005869 -0.000039 -0.005075 0.008081 0.028611 -0.003242
# 6 0.000153 -0.004579 0.003343 0.000643 -0.003242 0.017952
#
#
# Mechanical properties :
#
#
# Convention : Reuss Voigt Hill
#
# Bulk Modulus (GPa) = 40.29540 64.07930 52.18735
# Shear Modulus (GPa) = 36.66868 50.06443 43.36655
#
# Velocity S-wave (km/s) = 3.67094 4.28938 3.99216
# Velocity P-wave (km/s) = 5.72507 6.93405 6.35836
#
# Compressibility (1/GPa) = 0.02481673
#
# Stress axis : x y z
#
# Youngs Moduli (GPa) = 143.35723 104.28474 63.17439
#
# Poissons Ratio (x) = 0.18810 0.03947
# Poissons Ratio (y) = 0.25857 0.08592
# Poissons Ratio (z) = 0.08958 0.14183
#
# Static dielectric constant tensor:
#      x y z
#    x 2.088170 -0.016640 -0.019850 
#    y -0.016640 2.256630 -0.244640 
#    z -0.019850 -0.244640 2.561140 
# 
# From -- ./inp_files/236974.got.cif
#   From: 2010.05.17/outbox.cif.g08.bks.cpg/sg2_119_cif.got.tgz:236974.got - 2010.06.03 11:33:40.
