data_PCOD9020668
_publ_section_title
;
Structure prediction by ZEFSAII (Michael W. Deem and Ramdas Pophale) SiO2 
 PCOD9020668
Probable space group: P -1
;
_chemical_formula_sum "Si O2"
_cell_formula_units_Z 16
_cell_length_a 9.300858
_cell_length_b 21.428410
_cell_length_c 21.710402
_cell_angle_alpha 160.397006
_cell_angle_beta 33.165919
_cell_angle_gamma 151.377395
_cell_volume 694.021317
_symmetry_space_group_name_H-M "P -1"
_symmetry_group_IT_number 2
_symmetry_cell_setting 'triclinic'
loop_
_space_group_symop_operation_xyz
x,y,z
-x,-y,-z
loop_
_atom_site_type_symbol
_atom_site_label
_atom_site_fract_x
_atom_site_fract_y
_atom_site_fract_z
Si Si1 0.850545 0.313995 0.592456
Si Si2 0.038182 0.723767 0.716810
Si Si3 0.579639 0.806884 0.020532
Si Si4 0.016467 0.759586 0.896877
Si Si5 0.634562 0.298283 0.794113
Si Si6 0.216000 0.018096 0.495324
Si Si7 0.975703 0.227698 0.870867
Si Si8 0.920988 0.995078 0.787558
O O1 0.990481 0.561238 0.758620
O O2 0.715470 0.269085 0.667948
O O3 0.574225 0.189942 0.527448
O O4 0.091295 0.230344 0.423827
O O5 0.000000 0.500000 0.500000
O O6 0.144432 0.762024 0.785667
O O7 0.256718 0.935075 0.797186
O O8 0.727197 0.734227 0.844837
O O9 0.239168 0.728947 0.056249
O O10 0.684860 0.728687 0.969613
O O11 0.170786 0.964686 0.075190
O O12 0.281087 0.155863 0.800076
O O13 0.796545 0.203898 0.692081
O O14 0.760026 0.544572 0.991801
O O15 0.092956 0.091647 0.665462
O O16 0.000000 0.000000 0.500000
O O17 0.800291 0.083962 0.858979
#
# Coordination Sequence:
#
# PCOD9020668 Si02
#       8
#     2   2   2   2   2   2   2   2
#     4  11  21  39  60  85 123 172 206 232 290 357
#     4   9  21  45  66  84 119 153 189 251 326 366
#     4   9  24  39  62  94 114 146 199 253 314 352
#     4  10  22  36  65  90 108 156 207 240 300 366
#     4  11  22  40  57  84 129 176 203 227 300 344
#     4  11  25  35  54  88 127 165 208 248 281 344
#     4  12  22  38  61  88 125 157 199 255 295 339
#     4  11  21  38  59  86 126 168 201 240 283 359
#
# _framework density 23.054048999999999
#
# number of rings (size 3 to 8) (size 9 to 14) (size 15 to 20)
#    0.750    0.750    3.750    1.875    7.000    1.500 
#    0.000    0.625    0.000    1.500    0.000    0.000 
#    0.000    0.000    0.000    0.000    0.000    0.000 
#
# Total GULP energy -89365.179852 kJ/mol
# GULP energy per Si atom -5585.323741 kJ/mol
# Density = 2.300158 g / cm^3
# Si number density = 23.054049 Si / 1000 Ang^3
#
#
#
# Elastic Constant Matrix: (Units=GPa)
#
#
# Indices 1 2 3 4 5 6 
#
# 1 86.6570 5.3014 19.3931 -2.0081 -11.1096 -15.0214
# 2 5.3014 23.0759 20.7797 0.3936 -4.6573 -0.8751
# 3 19.3931 20.7797 135.4397 10.8873 3.9077 -11.6632
# 4 -2.0081 0.3936 10.8873 19.2256 -17.2974 -3.4199
# 5 -11.1096 -4.6573 3.9077 -17.2974 35.2971 -6.0058
# 6 -15.0214 -0.8751 -11.6632 -3.4199 -6.0058 29.6090
#
#
#
# Elastic Compliance Matrix: (Units=1/GPa)
#
#
# Indices 1 2 3 4 5 6 
#
# 1 0.019119 0.005546 -0.005334 0.030239 0.024934 0.016313
# 2 0.005546 0.059346 -0.012757 0.035190 0.029878 0.009667
# 3 -0.005334 -0.012757 0.012048 -0.022866 -0.016642 -0.004354
# 4 0.030239 0.035190 -0.022866 0.177384 0.112234 0.050627
# 5 0.024934 0.029878 -0.016642 0.112234 0.103944 0.041024
# 6 0.016313 0.009667 -0.004354 0.050627 0.041024 0.054789
#
#
# Mechanical properties :
#
#
# Convention : Reuss Voigt Hill
#
# Bulk Modulus (GPa) = 15.28539 37.34678 26.31609
# Shear Modulus (GPa) = 10.55905 30.13958 20.34931
#
# Velocity S-wave (km/s) = 2.14245 3.61964 2.97421
# Velocity P-wave (km/s) = 3.57278 5.80551 4.82020
#
# Compressibility (1/GPa) = 0.06542193
#
# Stress axis : x y z
#
# Youngs Moduli (GPa) = 52.30339 16.85041 83.00315
#
# Poissons Ratio (x) = -0.09345 0.44274
# Poissons Ratio (y) = -0.29008 1.05891
# Poissons Ratio (z) = 0.27898 0.21497
#
# Static dielectric constant tensor:
#      x y z
#    x 1.937470 0.003970 -0.013460 
#    y 0.003970 1.874990 -0.032210 
#    z -0.013460 -0.032210 1.832770 
# 
# From -- ./inp_files/348888.got.cif
#   From: 2010.05.17/outbox.cif.g08.bks.cpg/sg2_175_cif.got.tgz:348888.got - 2010.06.03 11:33:40.
