data_PCOD9020510
_publ_section_title
;
Structure prediction by ZEFSAII (Michael W. Deem and Ramdas Pophale) SiO2 
 PCOD9020510
Probable space group: P -1
;
_chemical_formula_sum "Si O2"
_cell_formula_units_Z 14
_cell_length_a 5.322778
_cell_length_b 11.610275
_cell_length_c 11.202359
_cell_angle_alpha 76.405125
_cell_angle_beta 97.009574
_cell_angle_gamma 76.933417
_cell_volume 644.157741
_symmetry_space_group_name_H-M "P -1"
_symmetry_group_IT_number 2
_symmetry_cell_setting 'triclinic'
loop_
_space_group_symop_operation_xyz
x,y,z
-x,-y,-z
loop_
_atom_site_type_symbol
_atom_site_label
_atom_site_fract_x
_atom_site_fract_y
_atom_site_fract_z
Si Si1 0.756324 0.556514 0.385111
Si Si2 0.631053 0.314988 0.464114
Si Si3 0.543876 0.091691 0.376139
Si Si4 0.832693 0.749691 0.159659
Si Si5 0.037229 0.115665 0.652726
Si Si6 0.804647 0.966949 0.824361
Si Si7 0.268829 0.845101 0.024372
O O1 0.534714 0.646005 0.433161
O O2 0.848651 0.624503 0.263028
O O3 0.000000 0.500000 0.500000
O O4 0.645227 0.440996 0.372641
O O5 0.521510 0.223286 0.399414
O O6 0.922527 0.232014 0.535318
O O7 0.362357 0.102060 0.246226
O O8 0.500000 0.000000 0.500000
O O9 0.828258 0.011418 0.370856
O O10 0.788685 0.848832 0.241669
O O11 0.574908 0.775608 0.055662
O O12 0.091682 0.768161 0.103640
O O13 0.795647 0.085807 0.713972
O O14 0.733707 0.028539 0.934842
O O15 0.101759 0.885611 0.885117
#
# Coordination Sequence:
#
# PCOD9020510 Si02
#       7
#     2   2   2   2   2   2   2
#     4  11  23  39  63  87 122 165 211 267 307 367
#     4  11  24  37  58  94 128 165 207 249 324 377
#     4  12  23  36  60  92 134 166 197 253 324 384
#     4  11  21  39  63  90 123 161 215 264 308 357
#     4  11  21  37  61  90 132 163 196 255 316 389
#     4  10  22  36  58  90 125 166 205 248 318 375
#     4  10  23  38  62  91 125 166 212 260 302 372
#
# _framework density 21.733808
#
# number of rings (size 3 to 8) (size 9 to 14) (size 15 to 20)
#    0.000    1.143    4.286    3.000    4.000    1.714 
#    0.000    0.000    0.000    1.714    0.000    0.000 
#    0.000    0.000    0.000    0.000    0.000    0.000 
#
# Total GULP energy -78115.816337 kJ/mol
# GULP energy per Si atom -5579.701167 kJ/mol
# Density = 2.168434 g / cm^3
# Si number density = 21.733808 Si / 1000 Ang^3
#
#
#
# Elastic Constant Matrix: (Units=GPa)
#
#
# Indices 1 2 3 4 5 6 
#
# 1 101.5072 38.0495 38.8396 -0.0794 5.0849 15.1398
# 2 38.0495 121.6176 36.5251 2.6401 3.2841 29.4068
# 3 38.8396 36.5251 94.8045 -7.5741 18.4582 13.2997
# 4 -0.0794 2.6401 -7.5741 27.2264 6.8298 1.7275
# 5 5.0849 3.2841 18.4582 6.8298 54.5148 -9.2638
# 6 15.1398 29.4068 13.2997 1.7275 -9.2638 36.7986
#
#
#
# Elastic Compliance Matrix: (Units=1/GPa)
#
#
# Indices 1 2 3 4 5 6 
#
# 1 0.012523 -0.002233 -0.004112 -0.000815 0.000154 -0.001804
# 2 -0.002233 0.011516 -0.002385 -0.001098 -0.000828 -0.007579
# 3 -0.004112 -0.002385 0.015373 0.006268 -0.006107 -0.003790
# 4 -0.000815 -0.001098 0.006268 0.040886 -0.007948 -0.004973
# 5 0.000154 -0.000828 -0.006107 -0.007948 0.022965 0.008960
# 6 -0.001804 -0.007579 -0.003790 -0.004973 0.008960 0.037833
#
#
# Mechanical properties :
#
#
# Convention : Reuss Voigt Hill
#
# Bulk Modulus (GPa) = 45.55499 60.52865 53.04182
# Shear Modulus (GPa) = 30.14326 37.34231 33.74278
#
# Velocity S-wave (km/s) = 3.72819 4.14957 3.94451
# Velocity P-wave (km/s) = 6.28796 7.13226 6.72338
#
# Compressibility (1/GPa) = 0.02195149
#
# Stress axis : x y z
#
# Youngs Moduli (GPa) = 79.85490 86.83326 65.04846
#
# Poissons Ratio (x) = 0.19391 0.26748
# Poissons Ratio (y) = 0.17833 0.15516
# Poissons Ratio (z) = 0.32836 0.20712
#
# Static dielectric constant tensor:
#      x y z
#    x 1.961680 -0.024860 -0.059460 
#    y -0.024860 1.795790 0.005560 
#    z -0.059460 0.005560 1.881990 
# 
# From -- ./inp_files/364554.got.cif
#   From: 2010.05.17/outbox.cif.g08.bks.cpg/sg2_183_cif.got.tgz:364554.got - 2010.06.03 11:33:40.
