data_PCOD9020231
_publ_section_title
;
Structure prediction by ZEFSAII (Michael W. Deem and Ramdas Pophale) SiO2 
 PCOD9020231
Probable space group: P -1
;
_chemical_formula_sum "Si O2"
_cell_formula_units_Z 16
_cell_length_a 5.762744
_cell_length_b 9.609111
_cell_length_c 13.378732
_cell_angle_alpha 95.464143
_cell_angle_beta 80.280267
_cell_angle_gamma 110.974902
_cell_volume 681.337671
_symmetry_space_group_name_H-M "P -1"
_symmetry_group_IT_number 2
_symmetry_cell_setting 'triclinic'
loop_
_space_group_symop_operation_xyz
x,y,z
-x,-y,-z
loop_
_atom_site_type_symbol
_atom_site_label
_atom_site_fract_x
_atom_site_fract_y
_atom_site_fract_z
Si Si1 0.053230 0.445706 0.601579
Si Si2 0.186308 0.931048 0.075386
Si Si3 0.290708 0.493527 0.195763
Si Si4 0.412730 0.169236 0.833489
Si Si5 0.316860 0.915903 0.686370
Si Si6 0.046649 0.199995 0.114129
Si Si7 0.027245 0.842095 0.510165
Si Si8 0.549467 0.675563 0.664903
O O1 0.978079 0.266478 0.588744
O O2 0.337570 0.547430 0.611229
O O3 0.000000 0.500000 0.500000
O O4 0.897159 0.483066 0.705328
O O5 0.390826 0.886565 0.119878
O O6 0.888195 0.870084 0.126491
O O7 0.236495 0.108704 0.081366
O O8 0.161525 0.867679 0.960393
O O9 0.467226 0.654065 0.161011
O O10 0.152288 0.377644 0.112042
O O11 0.434553 0.402160 0.238298
O O12 0.413348 0.088115 0.721217
O O13 0.491301 0.825133 0.698730
O O14 0.073748 0.842018 0.769764
O O15 0.259532 0.881455 0.572166
O O16 0.796538 0.735171 0.584543
O O17 0.000000 0.000000 0.500000
#
# Coordination Sequence:
#
# PCOD9020231 Si02
#       8
#     2   2   2   2   2   2   2   2
#     4  12  24  45  63  99 136 178 241 287 352 417
#     4  10  25  47  74 108 142 187 231 301 343 442
#     4  12  26  42  70 100 136 191 224 299 346 430
#     4  11  28  44  70 108 149 179 240 292 367 406
#     4  11  24  45  67 101 136 186 232 295 345 433
#     4  10  21  47  75 101 141 182 239 277 366 419
#     4  12  28  43  68 101 137 182 237 296 355 412
#     4  12  23  43  70  93 131 190 230 289 346 426
#
# _framework density 23.483218000000001
#
# number of rings (size 3 to 8) (size 9 to 14) (size 15 to 20)
#    0.000    0.750    5.000    1.125    7.000    7.000 
#    0.000    0.000    0.000    0.000    0.000    0.000 
#    0.000    0.000    0.000    0.000    0.000    0.000 
#
# Total GULP energy -89370.040281 kJ/mol
# GULP energy per Si atom -5585.627518 kJ/mol
# Density = 2.342977 g / cm^3
# Si number density = 23.483218 Si / 1000 Ang^3
#
#
#
# Elastic Constant Matrix: (Units=GPa)
#
#
# Indices 1 2 3 4 5 6 
#
# 1 89.5667 22.9116 20.5277 -3.0527 -10.4049 4.7954
# 2 22.9116 161.1575 19.4055 33.8881 -21.1484 7.0705
# 3 20.5277 19.4055 52.3465 30.3396 -4.9655 11.0160
# 4 -3.0527 33.8881 30.3396 37.7427 0.6518 2.6168
# 5 -10.4049 -21.1484 -4.9655 0.6518 22.8045 5.0618
# 6 4.7954 7.0705 11.0160 2.6168 5.0618 39.0999
#
#
#
# Elastic Compliance Matrix: (Units=1/GPa)
#
#
# Indices 1 2 3 4 5 6 
#
# 1 0.016158 -0.004320 -0.015338 0.017388 -0.000932 0.002078
# 2 -0.004320 0.011419 0.010798 -0.019158 0.012611 -0.004928
# 3 -0.015338 0.010798 0.060724 -0.059010 0.021478 -0.016011
# 4 0.017388 -0.019158 -0.059010 0.091959 -0.028757 0.015526
# 5 -0.000932 0.012611 0.021478 -0.028757 0.063851 -0.014559
# 6 0.002078 -0.004928 -0.016011 0.015526 -0.014559 0.031568
#
#
# Mechanical properties :
#
#
# Convention : Reuss Voigt Hill
#
# Bulk Modulus (GPa) = 14.16811 47.64004 30.90407
# Shear Modulus (GPa) = 15.77652 35.94448 25.86050
#
# Velocity S-wave (km/s) = 2.59476 3.91659 3.32208
# Velocity P-wave (km/s) = 3.87601 6.38622 5.28239
#
# Compressibility (1/GPa) = 0.07058102
#
# Stress axis : x y z
#
# Youngs Moduli (GPa) = 61.88710 87.57545 16.46798
#
# Poissons Ratio (x) = 0.37832 0.25259
# Poissons Ratio (y) = 0.26735 -0.17783
# Poissons Ratio (z) = 0.94925 -0.94566
#
# Static dielectric constant tensor:
#      x y z
#    x 1.968750 0.022900 -0.030750 
#    y 0.022900 1.943670 0.035400 
#    z -0.030750 0.035400 1.965200 
# 
# From -- ./inp_files/37225.got.cif
#   From: 2010.05.17/outbox.cif.g08.bks.cpg/sg2_19_cif.got.tgz:37225.got - 2010.06.03 11:33:40.
