data_PCOD9020898
_publ_section_title
;
Structure prediction by ZEFSAII (Michael W. Deem and Ramdas Pophale) SiO2 
 PCOD9020898
Probable space group: P -1
;
_chemical_formula_sum "Si O2"
_cell_formula_units_Z 14
_cell_length_a 6.636888
_cell_length_b 8.035647
_cell_length_c 16.565631
_cell_angle_alpha 131.015495
_cell_angle_beta 114.558971
_cell_angle_gamma 65.930242
_cell_volume 594.441369
_symmetry_space_group_name_H-M "P -1"
_symmetry_group_IT_number 2
_symmetry_cell_setting 'triclinic'
loop_
_space_group_symop_operation_xyz
x,y,z
-x,-y,-z
loop_
_atom_site_type_symbol
_atom_site_label
_atom_site_fract_x
_atom_site_fract_y
_atom_site_fract_z
Si Si1 0.197611 0.357185 0.714701
Si Si2 0.846851 0.822665 0.834734
Si Si3 0.624032 0.813716 0.636649
Si Si4 0.131448 0.211675 0.996769
Si Si5 0.799854 0.310375 0.545848
Si Si6 0.714360 0.623847 0.082118
Si Si7 0.610128 0.167808 0.627446
O O1 0.254334 0.280773 0.792444
O O2 0.437012 0.342457 0.707393
O O3 0.033887 0.599420 0.773783
O O4 0.064351 0.236047 0.585569
O O5 0.650998 0.863257 0.749731
O O6 0.986070 0.018603 0.909558
O O7 0.748707 0.814424 0.904916
O O8 0.747409 0.551278 0.568057
O O9 0.363855 0.826798 0.571604
O O10 0.734389 0.986288 0.655991
O O11 0.280283 0.218573 0.944554
O O12 0.942702 0.437931 0.048207
O O13 0.718659 0.309301 0.625762
O O14 0.500000 0.500000 0.000000
O O15 0.500000 0.000000 0.500000
#
# Coordination Sequence:
#
# PCOD9020898 Si02
#       7
#     2   2   2   2   2   2   2
#     4  10  22  39  60  92 123 159 208 250 303 375
#     4   9  19  39  62  90 123 165 204 252 313 366
#     4   9  19  36  62  88 116 160 205 243 307 368
#     4   9  20  40  62  84 128 161 198 260 309 361
#     4   9  20  41  59  85 126 160 197 259 309 355
#     4  10  22  37  61  94 120 160 208 252 305 375
#     4  10  22  39  61  88 122 165 204 258 303 359
#
# _framework density 23.551525000000002
#
# number of rings (size 3 to 8) (size 9 to 14) (size 15 to 20)
#    0.000    2.571    0.000    0.000    4.000    5.714 
#    2.571   24.286    0.000    0.000    0.000    0.000 
#    0.000    0.000    0.000    0.000    0.000    0.000 
#
# Total GULP energy -78008.041722 kJ/mol
# GULP energy per Si atom -5572.002980 kJ/mol
# Density = 2.349792 g / cm^3
# Si number density = 23.551525 Si / 1000 Ang^3
#
#
#
# Elastic Constant Matrix: (Units=GPa)
#
#
# Indices 1 2 3 4 5 6 
#
# 1 68.4822 37.5063 23.5382 -18.8375 -17.9378 10.4227
# 2 37.5063 118.8072 38.4347 -26.4711 -10.7961 4.7887
# 3 23.5382 38.4347 123.3613 -40.0128 0.9288 2.6927
# 4 -18.8375 -26.4711 -40.0128 47.2012 -0.6662 -4.2435
# 5 -17.9378 -10.7961 0.9288 -0.6662 23.1180 -2.9526
# 6 10.4227 4.7887 2.6927 -4.2435 -2.9526 32.4716
#
#
#
# Elastic Compliance Matrix: (Units=1/GPa)
#
#
# Indices 1 2 3 4 5 6 
#
# 1 0.023934 -0.004130 -0.001401 0.005854 0.016265 -0.004713
# 2 -0.004130 0.011173 -0.001653 0.003288 0.002231 0.000448
# 3 -0.001401 -0.001653 0.011609 0.008385 -0.002001 0.000644
# 4 0.005854 0.003288 0.008385 0.032738 0.006920 0.001848
# 5 0.016265 0.002231 -0.002001 0.006920 0.057292 0.000730
# 6 -0.004713 0.000448 0.000644 0.001848 0.000730 0.032497
#
#
# Mechanical properties :
#
#
# Convention : Reuss Voigt Hill
#
# Bulk Modulus (GPa) = 30.91404 56.62325 43.76865
# Shear Modulus (GPa) = 25.72099 34.63624 30.17862
#
# Velocity S-wave (km/s) = 3.30830 3.83908 3.58353
# Velocity P-wave (km/s) = 5.26762 6.61406 5.97886
#
# Compressibility (1/GPa) = 0.03234776
#
# Stress axis : x y z
#
# Youngs Moduli (GPa) = 41.78213 89.50163 86.13828
#
# Poissons Ratio (x) = 0.36966 0.12066
# Poissons Ratio (y) = 0.17257 0.14239
# Poissons Ratio (z) = 0.05853 0.14795
#
# Static dielectric constant tensor:
#      x y z
#    x 1.870310 0.021680 0.024100 
#    y 0.021680 1.963890 0.024750 
#    z 0.024100 0.024750 1.957530 
# 
# From -- ./inp_files/214583.got.cif
#   From: 2010.05.17/outbox.cif.g08.bks.cpg/sg2_108_cif.got.tgz:214583.got - 2010.06.03 11:33:40.
