data_PCOD9020173
_publ_section_title
;
Structure prediction by ZEFSAII (Michael W. Deem and Ramdas Pophale) SiO2 
 PCOD9020173
Probable space group: P -1
;
_chemical_formula_sum "Si O2"
_cell_formula_units_Z 10
_cell_length_a 8.307625
_cell_length_b 8.626184
_cell_length_c 9.007914
_cell_angle_alpha 95.812112
_cell_angle_beta 79.463725
_cell_angle_gamma 44.363707
_cell_volume 417.719923
_symmetry_space_group_name_H-M "P -1"
_symmetry_group_IT_number 2
_symmetry_cell_setting 'triclinic'
loop_
_space_group_symop_operation_xyz
x,y,z
-x,-y,-z
loop_
_atom_site_type_symbol
_atom_site_label
_atom_site_fract_x
_atom_site_fract_y
_atom_site_fract_z
Si Si1 0.500666 0.051737 0.258068
Si Si2 0.625075 0.379792 0.624138
Si Si3 0.380430 0.319490 0.004162
Si Si4 0.172321 0.100286 0.533009
Si Si5 0.227494 0.732217 0.976598
O O1 0.700932 0.975448 0.333452
O O2 0.406486 0.225788 0.154067
O O3 0.274305 0.162617 0.413850
O O4 0.613186 0.820804 0.131345
O O5 0.500000 0.500000 0.500000
O O6 0.404133 0.578110 0.791822
O O7 0.876172 0.298071 0.602027
O O8 0.718457 0.135752 0.579405
O O9 0.619590 0.261786 0.941665
O O10 0.172967 0.599269 0.037225
O O11 0.000000 0.000000 0.000000
#
# Coordination Sequence:
#
# PCOD9020173 Si02
#       5
#     2   2   2   2   2
#     4  10  21  46  77 115 140 192 237 328 366 434
#     4  11  24  44  74 109 142 201 245 304 364 453
#     4  10  23  44  74 105 148 186 256 292 383 425
#     4  10  23  45  77 106 152 179 256 303 384 424
#     4  11  25  45  71 107 148 202 246 296 359 460
#
# _framework density 23.939485999999999
#
# number of rings (size 3 to 8) (size 9 to 14) (size 15 to 20)
#    0.000    1.600    2.000    1.200    2.800    4.800 
#    0.000   22.000    0.000    1.200    0.000    0.000 
#    0.000    0.000    0.000    0.000    0.000    0.000 
#
# Total GULP energy -55920.998281 kJ/mol
# GULP energy per Si atom -5592.099828 kJ/mol
# Density = 2.388500 g / cm^3
# Si number density = 23.939486 Si / 1000 Ang^3
#
#
#
# Elastic Constant Matrix: (Units=GPa)
#
#
# Indices 1 2 3 4 5 6 
#
# 1 113.7183 58.4659 77.6497 4.8333 15.0533 -1.4091
# 2 58.4659 184.6356 98.2515 4.5430 -8.2506 9.1733
# 3 77.6497 98.2515 185.9330 -5.3611 13.4336 -18.7981
# 4 4.8333 4.5430 -5.3611 49.0972 4.0917 1.1522
# 5 15.0533 -8.2506 13.4336 4.0917 45.4373 0.9801
# 6 -1.4091 9.1733 -18.7981 1.1522 0.9801 42.4523
#
#
#
# Elastic Compliance Matrix: (Units=1/GPa)
#
#
# Indices 1 2 3 4 5 6 
#
# 1 0.013288 -0.001909 -0.004442 -0.001318 -0.003295 -0.001001
# 2 -0.001909 0.008892 -0.004631 -0.001364 0.003827 -0.004087
# 3 -0.004442 -0.004631 0.010499 0.002115 -0.002783 0.005509
# 4 -0.001318 -0.001364 0.002115 0.021034 -0.002345 0.000671
# 5 -0.003295 0.003827 -0.002783 -0.002345 0.024887 -0.002680
# 6 -0.001001 -0.004087 0.005509 0.000671 -0.002680 0.026889
#
#
# Mechanical properties :
#
#
# Convention : Reuss Voigt Hill
#
# Bulk Modulus (GPa) = 93.31359 105.89125 99.60242
# Shear Modulus (GPa) = 38.16086 44.05869 41.10977
#
# Velocity S-wave (km/s) = 3.99689 4.29466 4.14845
# Velocity P-wave (km/s) = 7.76941 8.30187 8.04005
#
# Compressibility (1/GPa) = 0.01071655
#
# Stress axis : x y z
#
# Youngs Moduli (GPa) = 75.25616 112.45589 95.24625
#
# Poissons Ratio (x) = 0.21471 0.42304
# Poissons Ratio (y) = 0.14368 0.44105
# Poissons Ratio (z) = 0.33426 0.52074
#
# Static dielectric constant tensor:
#      x y z
#    x 1.950950 0.003770 -0.009990 
#    y 0.003770 2.006470 -0.050740 
#    z -0.009990 -0.050740 1.954990 
# 
# From -- ./inp_files/24769.got.cif
#   From: 2010.05.17/outbox.cif.g08.bks.cpg/sg2_13_cif.got.tgz:24769.got - 2010.06.03 11:33:40.
