data_PCOD9020931
_publ_section_title
;
Structure prediction by ZEFSAII (Michael W. Deem and Ramdas Pophale) SiO2 
 PCOD9020931
Probable space group: P -1
;
_chemical_formula_sum "Si O2"
_cell_formula_units_Z 14
_cell_length_a 5.759947
_cell_length_b 25.392279
_cell_length_c 7.918205
_cell_angle_alpha 140.857863
_cell_angle_beta 123.078251
_cell_angle_gamma 55.948904
_cell_volume 591.774283
_symmetry_space_group_name_H-M "P -1"
_symmetry_group_IT_number 2
_symmetry_cell_setting 'triclinic'
loop_
_space_group_symop_operation_xyz
x,y,z
-x,-y,-z
loop_
_atom_site_type_symbol
_atom_site_label
_atom_site_fract_x
_atom_site_fract_y
_atom_site_fract_z
Si Si1 0.770117 0.313673 0.664230
Si Si2 0.946675 0.849221 0.823346
Si Si3 0.296405 0.525116 0.152382
Si Si4 0.696981 0.976710 0.791096
Si Si5 0.161412 0.574708 0.722375
Si Si6 0.817517 0.712043 0.685574
Si Si7 0.537111 0.877528 0.170316
O O1 0.778162 0.371884 0.646163
O O2 0.436189 0.320704 0.582925
O O3 0.915842 0.214099 0.436939
O O4 0.897549 0.357423 0.976034
O O5 0.683167 0.919111 0.807600
O O6 0.898185 0.780646 0.766598
O O7 0.197529 0.888880 0.095036
O O8 0.506698 0.475922 0.258071
O O9 0.500000 0.500000 0.000000
O O10 0.000000 0.500000 0.000000
O O11 0.688009 0.915790 0.474407
O O12 0.468591 0.063856 0.854891
O O13 0.000000 0.000000 0.000000
O O14 0.000000 0.500000 0.500000
O O15 0.049874 0.631938 0.657034
O O16 0.671649 0.776579 0.941201
#
# Coordination Sequence:
#
# PCOD9020931 Si02
#       7
#     2   2   2   2   2   2   2
#     4  10  23  41  64  88 135 171 222 283 341 404
#     4  10  22  37  62  92 127 170 215 274 332 403
#     4  10  23  44  68  95 134 181 233 293 349 412
#     4   9  18  39  65  90 127 172 209 262 341 398
#     4  11  23  43  67  94 130 180 230 282 348 408
#     4  11  23  41  63  97 130 170 225 278 339 404
#     4   9  20  40  63  92 128 165 217 269 325 414
#
# _framework density 23.657668000000001
#
# number of rings (size 3 to 8) (size 9 to 14) (size 15 to 20)
#    0.000    2.000    1.429    0.857    4.000    1.714 
#   10.286   10.000    0.000    0.000    0.000    0.000 
#    0.000    0.000    0.000    0.000    0.000    0.000 
#
# Total GULP energy -78130.034130 kJ/mol
# GULP energy per Si atom -5580.716724 kJ/mol
# Density = 2.360382 g / cm^3
# Si number density = 23.657668 Si / 1000 Ang^3
#
#
#
# Elastic Constant Matrix: (Units=GPa)
#
#
# Indices 1 2 3 4 5 6 
#
# 1 62.6557 53.0458 29.5056 -6.6480 18.6327 5.7539
# 2 53.0458 223.9354 42.9064 -3.3440 17.1565 5.2579
# 3 29.5056 42.9064 157.4758 -10.8134 10.1998 -0.5716
# 4 -6.6480 -3.3440 -10.8134 38.5839 0.8358 -4.3648
# 5 18.6327 17.1565 10.1998 0.8358 37.6291 8.7786
# 6 5.7539 5.2579 -0.5716 -4.3648 8.7786 49.5395
#
#
#
# Elastic Compliance Matrix: (Units=1/GPa)
#
#
# Indices 1 2 3 4 5 6 
#
# 1 0.023994 -0.004451 -0.002472 0.003204 -0.009150 -0.000439
# 2 -0.004451 0.005667 -0.000735 -0.000491 -0.000144 -0.000111
# 3 -0.002472 -0.000735 0.007164 0.001609 -0.000580 0.000692
# 4 0.003204 -0.000491 0.001609 0.027241 -0.003018 0.002634
# 5 -0.009150 -0.000144 -0.000580 -0.003018 0.032554 -0.004963
# 6 -0.000439 -0.000111 0.000692 0.002634 -0.004963 0.021368
#
#
# Mechanical properties :
#
#
# Convention : Reuss Voigt Hill
#
# Bulk Modulus (GPa) = 46.49034 77.22026 61.85530
# Shear Modulus (GPa) = 35.59383 46.39111 40.99247
#
# Velocity S-wave (km/s) = 3.88304 4.43305 4.16713
# Velocity P-wave (km/s) = 6.30856 7.67555 7.02538
#
# Compressibility (1/GPa) = 0.02150985
#
# Stress axis : x y z
#
# Youngs Moduli (GPa) = 41.67714 176.46033 139.58411
#
# Poissons Ratio (x) = 0.78540 0.34503
# Poissons Ratio (y) = 0.18550 0.10258
# Poissons Ratio (z) = 0.10302 0.12968
#
# Static dielectric constant tensor:
#      x y z
#    x 2.024570 0.013050 -0.083290 
#    y 0.013050 1.941110 0.026190 
#    z -0.083290 0.026190 1.905910 
# 
# From -- ./inp_files/115290.got.cif
#   From: 2010.05.17/outbox.cif.g08.bks.cpg/sg2_58_cif.got.tgz:115290.got - 2010.06.03 11:33:40.
