data_PCOD9020865
_publ_section_title
;
Structure prediction by ZEFSAII (Michael W. Deem and Ramdas Pophale) SiO2 
 PCOD9020865
Probable space group: P -1
;
_chemical_formula_sum "Si O2"
_cell_formula_units_Z 16
_cell_length_a 13.073434
_cell_length_b 12.258964
_cell_length_c 10.793566
_cell_angle_alpha 85.206690
_cell_angle_beta 60.414638
_cell_angle_gamma 34.170321
_cell_volume 630.820370
_symmetry_space_group_name_H-M "P -1"
_symmetry_group_IT_number 2
_symmetry_cell_setting 'triclinic'
loop_
_space_group_symop_operation_xyz
x,y,z
-x,-y,-z
loop_
_atom_site_type_symbol
_atom_site_label
_atom_site_fract_x
_atom_site_fract_y
_atom_site_fract_z
Si Si1 0.656526 0.040119 0.670376
Si Si2 0.734437 0.663907 0.470802
Si Si3 0.531596 0.720379 0.011305
Si Si4 0.451461 0.113748 0.192471
Si Si5 0.086604 0.604949 0.841984
Si Si6 0.866023 0.809036 0.320616
Si Si7 0.674957 0.287650 0.021846
Si Si8 0.276406 0.694278 0.727754
O O1 0.343058 0.322995 0.777001
O O2 0.660286 0.913350 0.726705
O O3 0.865628 0.870113 0.447662
O O4 0.678777 0.103803 0.765218
O O5 0.727797 0.665827 0.622065
O O6 0.902503 0.439999 0.304725
O O7 0.811806 0.724177 0.381351
O O8 0.409310 0.918111 0.608121
O O9 0.577446 0.805310 0.929957
O O10 0.836656 0.421523 0.896859
O O11 0.419285 0.754726 0.955181
O O12 0.781263 0.833694 0.053143
O O13 0.153390 0.675636 0.809601
O O14 0.500000 0.500000 0.000000
O O15 0.610764 0.372376 0.194818
O O16 0.013706 0.998513 0.832423
O O17 0.500000 0.500000 0.500000
#
# Coordination Sequence:
#
# PCOD9020865 Si02
#       8
#     2   2   2   2   2   2   2   2
#     4  10  22  37  60  94 131 170 211 259 324 410
#     4   9  20  36  62  90 128 169 212 257 319 396
#     4  12  23  38  63  91 130 173 212 271 337 396
#     4  11  22  36  60  95 132 169 209 260 325 400
#     4  11  21  40  66  91 124 170 219 271 333 396
#     4   9  20  38  57  92 128 170 214 255 315 400
#     4  11  27  50  72 102 138 182 239 302 359 415
#     4  11  27  48  75 103 137 181 242 300 356 418
#
# _framework density 25.363797999999999
#
# number of rings (size 3 to 8) (size 9 to 14) (size 15 to 20)
#    0.000    1.500    1.250    3.750    1.750    6.500 
#    0.000    0.000    0.000    0.000    0.000    0.000 
#    0.000    0.000    0.000    0.000    0.000    0.000 
#
# Total GULP energy -89525.722240 kJ/mol
# GULP energy per Si atom -5595.357640 kJ/mol
# Density = 2.530607 g / cm^3
# Si number density = 25.363798 Si / 1000 Ang^3
#
#
#
# Elastic Constant Matrix: (Units=GPa)
#
#
# Indices 1 2 3 4 5 6 
#
# 1 97.5955 17.5360 52.3671 -2.7664 33.4159 -17.0137
# 2 17.5360 110.6461 30.4327 13.2962 6.3881 -16.9176
# 3 52.3671 30.4327 140.6813 -7.2081 48.5987 -16.7012
# 4 -2.7664 13.2962 -7.2081 32.1861 -11.6990 -1.0113
# 5 33.4159 6.3881 48.5987 -11.6990 49.4447 -4.5901
# 6 -17.0137 -16.9176 -16.7012 -1.0113 -4.5901 30.6311
#
#
#
# Elastic Compliance Matrix: (Units=1/GPa)
#
#
# Indices 1 2 3 4 5 6 
#
# 1 0.015166 -0.000216 -0.002284 -0.001793 -0.007861 0.005822
# 2 -0.000216 0.010908 -0.001954 -0.004835 -0.000053 0.004671
# 3 -0.002284 -0.001954 0.012123 -0.000188 -0.009907 0.002771
# 4 -0.001793 -0.004835 -0.000188 0.036698 0.010614 -0.000966
# 5 -0.007861 -0.000053 -0.009907 0.010614 0.037436 -0.003836
# 6 0.005822 0.004671 0.002771 -0.000966 -0.003836 0.039365
#
#
# Mechanical properties :
#
#
# Convention : Reuss Voigt Hill
#
# Bulk Modulus (GPa) = 34.14267 61.06604 47.60436
# Shear Modulus (GPa) = 29.34845 39.02486 34.18665
#
# Velocity S-wave (km/s) = 3.40531 3.92676 3.67529
# Velocity P-wave (km/s) = 5.38070 6.68488 6.06793
#
# Compressibility (1/GPa) = 0.02928886
#
# Stress axis : x y z
#
# Youngs Moduli (GPa) = 65.93574 91.67752 82.48945
#
# Poissons Ratio (x) = 0.01980 0.18840
# Poissons Ratio (y) = 0.01424 0.16119
# Poissons Ratio (z) = 0.15059 0.17915
#
# Static dielectric constant tensor:
#      x y z
#    x 2.037600 0.003560 0.039090 
#    y 0.003560 2.077140 0.013930 
#    z 0.039090 0.013930 1.974220 
# 
# From -- ./inp_files/428370.got.cif
#   From: 2010.05.17/outbox.cif.g08.bks.cpg/sg2_215_cif.got.tgz:428370.got - 2010.06.03 11:33:40.
