data_PCOD9020492
_publ_section_title
;
Structure prediction by ZEFSAII (Michael W. Deem and Ramdas Pophale) SiO2 
 PCOD9020492
Probable space group: P -1
;
_chemical_formula_sum "Si O2"
_cell_formula_units_Z 16
_cell_length_a 5.097283
_cell_length_b 6.096931
_cell_length_c 28.909073
_cell_angle_alpha 77.697059
_cell_angle_beta 136.159427
_cell_angle_gamma 89.656392
_cell_volume 590.841177
_symmetry_space_group_name_H-M "P -1"
_symmetry_group_IT_number 2
_symmetry_cell_setting 'triclinic'
loop_
_space_group_symop_operation_xyz
x,y,z
-x,-y,-z
loop_
_atom_site_type_symbol
_atom_site_label
_atom_site_fract_x
_atom_site_fract_y
_atom_site_fract_z
Si Si1 0.205372 0.007093 0.419228
Si Si2 0.073992 0.045200 0.299622
Si Si3 0.304052 0.130561 0.824968
Si Si4 0.641518 0.527764 0.801563
Si Si5 0.665764 0.236226 0.952480
Si Si6 0.965765 0.411042 0.550116
Si Si7 0.427110 0.587548 0.675109
Si Si8 0.967750 0.650511 0.922327
O O1 0.944871 0.859372 0.417640
O O2 0.500000 0.000000 0.500000
O O3 0.231006 0.914846 0.373668
O O4 0.010932 0.272790 0.373394
O O5 0.321825 0.229884 0.311235
O O6 0.646547 0.214077 0.248422
O O7 0.018131 0.908136 0.251853
O O8 0.457970 0.344582 0.813800
O O9 0.310345 0.179974 0.879531
O O10 0.626739 0.885865 0.872344
O O11 0.639437 0.448757 0.751645
O O12 0.995339 0.579263 0.874692
O O13 0.816705 0.444974 0.937829
O O14 0.675198 0.290010 0.006352
O O15 0.000000 0.000000 0.000000
O O16 0.500000 0.500000 0.500000
O O17 0.000000 0.500000 0.500000
O O18 0.306737 0.481301 0.618724
#
# Coordination Sequence:
#
# PCOD9020492 Si02
#       8
#     2   2   2   2   2   2   2   2
#     4  11  23  42  64  87 120 155 202 258 318 378
#     4  10  22  36  57  84 115 155 202 252 309 376
#     4   9  16  31  52  77 115 152 197 251 303 371
#     4   9  19  35  54  80 116 153 199 251 305 370
#     4   8  13  23  47  82 116 152 196 247 303 364
#     4  12  27  43  66  95 125 162 209 263 322 389
#     4  11  24  40  62  86 118 159 203 257 318 381
#     4   8  14  26  48  82 114 152 200 246 301 368
#
# _framework density 27.080036
#
# number of rings (size 3 to 8) (size 9 to 14) (size 15 to 20)
#    0.000    2.250    1.250    1.500    3.500    2.000 
#    0.000    0.000    0.000    0.750    0.000   78.750 
#    0.000    0.000    0.000    0.000    0.000    0.000 
#
# Total GULP energy -89231.829172 kJ/mol
# GULP energy per Si atom -5576.989323 kJ/mol
# Density = 2.701840 g / cm^3
# Si number density = 27.080036 Si / 1000 Ang^3
#
#
#
# Elastic Constant Matrix: (Units=GPa)
#
#
# Indices 1 2 3 4 5 6 
#
# 1 67.1365 15.2510 54.3287 13.1744 -13.8596 7.0636
# 2 15.2510 106.9266 84.3504 44.3240 -19.7973 -8.0281
# 3 54.3287 84.3504 323.8047 70.6921 -12.9697 -9.6696
# 4 13.1744 44.3240 70.6921 91.2100 -9.2333 -1.0775
# 5 -13.8596 -19.7973 -12.9697 -9.2333 46.0769 0.7859
# 6 7.0636 -8.0281 -9.6696 -1.0775 0.7859 36.1520
#
#
#
# Elastic Compliance Matrix: (Units=1/GPa)
#
#
# Indices 1 2 3 4 5 6 
#
# 1 0.018929 0.000431 -0.003225 0.000014 0.005052 -0.004575
# 2 0.000431 0.014157 -0.002532 -0.004492 0.004562 0.002149
# 3 -0.003225 -0.002532 0.004734 -0.002075 -0.001164 0.001298
# 4 0.000014 -0.004492 -0.002075 0.014787 0.000473 -0.001125
# 5 0.005052 0.004562 -0.001164 0.000473 0.024964 -0.000814
# 6 -0.004575 0.002149 0.001298 -0.001125 -0.000814 0.029363
#
#
# Mechanical properties :
#
#
# Convention : Reuss Voigt Hill
#
# Bulk Modulus (GPa) = 36.81180 89.52533 63.16857
# Shear Modulus (GPa) = 39.48088 57.61695 48.54892
#
# Velocity S-wave (km/s) = 3.82243 4.61765 4.23873
# Velocity P-wave (km/s) = 5.75365 7.84612 6.87990
#
# Compressibility (1/GPa) = 0.02716520
#
# Stress axis : x y z
#
# Youngs Moduli (GPa) = 52.82973 70.63864 211.22191
#
# Poissons Ratio (x) = -0.03042 0.68127
# Poissons Ratio (y) = -0.02275 0.53492
# Poissons Ratio (z) = 0.17040 0.17889
#
# Static dielectric constant tensor:
#      x y z
#    x 2.320770 -0.302140 0.137160 
#    y -0.302140 2.166930 -0.109580 
#    z 0.137160 -0.109580 2.169540 
# 
# From -- ./inp_files/47640.got.cif
#   From: 2010.05.17/outbox.cif.g08.bks.cpg/sg2_24_cif.got.tgz:47640.got - 2010.06.03 11:33:40.
