data_PCOD9020221
_publ_section_title
;
Structure prediction by ZEFSAII (Michael W. Deem and Ramdas Pophale) SiO2 
 PCOD9020221
Probable space group: P -1
;
_chemical_formula_sum "Si O2"
_cell_formula_units_Z 16
_cell_length_a 11.529066
_cell_length_b 16.297815
_cell_length_c 4.891266
_cell_angle_alpha 102.107035
_cell_angle_beta 96.950187
_cell_angle_gamma 136.030030
_cell_volume 571.640196
_symmetry_space_group_name_H-M "P -1"
_symmetry_group_IT_number 2
_symmetry_cell_setting 'triclinic'
loop_
_space_group_symop_operation_xyz
x,y,z
-x,-y,-z
loop_
_atom_site_type_symbol
_atom_site_label
_atom_site_fract_x
_atom_site_fract_y
_atom_site_fract_z
Si Si1 0.360692 0.160463 0.158715
Si Si2 0.010293 0.923703 0.257262
Si Si3 0.498885 0.320464 0.822787
Si Si4 0.549613 0.100055 0.292106
Si Si5 0.345550 0.383073 0.157159
Si Si6 0.061781 0.365656 0.141118
Si Si7 0.211370 0.881258 0.379138
Si Si8 0.898449 0.506360 0.255791
O O1 0.357793 0.187249 0.866139
O O2 0.506697 0.165653 0.207220
O O3 0.167410 0.028346 0.145925
O O4 0.453603 0.281454 0.466365
O O5 0.088562 0.889922 0.443877
O O6 0.000000 0.000000 0.500000
O O7 0.828890 0.780740 0.963789
O O8 0.453174 0.388755 0.962204
O O9 0.689140 0.382315 0.008019
O O10 0.749207 0.181153 0.486304
O O11 0.410682 0.023389 0.455359
O O12 0.500000 0.000000 0.000000
O O13 0.500000 0.500000 0.500000
O O14 0.226413 0.401810 0.086759
O O15 0.019299 0.420427 0.964220
O O16 0.888934 0.209399 0.979679
O O17 0.114670 0.420828 0.495205
O O18 0.000000 0.500000 0.500000
#
# Coordination Sequence:
#
# PCOD9020221 Si02
#       8
#     2   2   2   2   2   2   2   2
#     4  11  27  45  76 110 151 197 252 320 385 455
#     4  10  21  47  72 112 150 200 254 323 382 461
#     4  12  27  48  75 109 150 201 258 314 386 457
#     4  10  23  40  69 103 146 192 248 311 384 456
#     4  11  24  49  78 111 153 203 259 317 387 459
#     4  11  26  47  72 106 144 198 249 319 375 455
#     4   9  23  41  66 105 142 191 249 306 389 447
#     4  12  28  47  74 108 150 197 260 309 385 454
#
# _framework density 27.989633000000001
#
# number of rings (size 3 to 8) (size 9 to 14) (size 15 to 20)
#    0.000    1.250    2.500    1.125   10.500    2.000 
#    0.000    0.000    0.000    0.000    0.000    0.000 
#    0.000    0.000    0.000    0.000    0.000    0.000 
#
# Total GULP energy -89308.918821 kJ/mol
# GULP energy per Si atom -5581.807426 kJ/mol
# Density = 2.792593 g / cm^3
# Si number density = 27.989633 Si / 1000 Ang^3
#
#
#
# Elastic Constant Matrix: (Units=GPa)
#
#
# Indices 1 2 3 4 5 6 
#
# 1 169.5532 16.6512 52.1019 10.7902 17.6499 -19.9328
# 2 16.6512 80.6645 30.6152 6.4536 8.0488 8.2170
# 3 52.1019 30.6152 165.1882 15.3862 2.2028 6.1635
# 4 10.7902 6.4536 15.3862 45.9551 4.3827 4.1445
# 5 17.6499 8.0488 2.2028 4.3827 56.6403 3.7872
# 6 -19.9328 8.2170 6.1635 4.1445 3.7872 43.7228
#
#
#
# Elastic Compliance Matrix: (Units=1/GPa)
#
#
# Indices 1 2 3 4 5 6 
#
# 1 0.007460 -0.000802 -0.002231 -0.001046 -0.002322 0.004167
# 2 -0.000802 0.013820 -0.002134 -0.000680 -0.001413 -0.002475
# 3 -0.002231 -0.002134 0.007347 -0.001583 0.000941 -0.001583
# 4 -0.001046 -0.000680 -0.001583 0.022939 -0.001144 -0.002201
# 5 -0.002322 -0.001413 0.000941 -0.001144 0.018795 -0.002445
# 6 0.004167 -0.002475 -0.001583 -0.002201 -0.002445 0.025880
#
#
# Mechanical properties :
#
#
# Convention : Reuss Voigt Hill
#
# Bulk Modulus (GPa) = 54.66703 68.23806 61.45255
# Shear Modulus (GPa) = 44.37591 50.33281 47.35436
#
# Velocity S-wave (km/s) = 3.98608 4.24520 4.11768
# Velocity P-wave (km/s) = 6.38425 6.96144 6.67908
#
# Compressibility (1/GPa) = 0.01829256
#
# Stress axis : x y z
#
# Youngs Moduli (GPa) = 134.04009 72.35897 136.11012
#
# Poissons Ratio (x) = 0.05805 0.30373
# Poissons Ratio (y) = 0.10752 0.29043
# Poissons Ratio (z) = 0.29911 0.15440
#
# Static dielectric constant tensor:
#      x y z
#    x 2.295150 -0.078550 0.070660 
#    y -0.078550 2.402690 0.029180 
#    z 0.070660 0.029180 2.122580 
# 
# From -- ./inp_files/81604.got.cif
#   From: 2010.05.17/outbox.cif.g08.bks.cpg/sg2_41_cif.got.tgz:81604.got - 2010.06.03 11:33:40.
