data_PCOD9020197
_publ_section_title
;
Structure prediction by ZEFSAII (Michael W. Deem and Ramdas Pophale) SiO2 
 PCOD9020197
Probable space group: P -1
;
_chemical_formula_sum "Si O2"
_cell_formula_units_Z 16
_cell_length_a 12.167136
_cell_length_b 5.189014
_cell_length_c 12.800253
_cell_angle_alpha 107.620849
_cell_angle_beta 123.444336
_cell_angle_gamma 94.556196
_cell_volume 611.105458
_symmetry_space_group_name_H-M "P -1"
_symmetry_group_IT_number 2
_symmetry_cell_setting 'triclinic'
loop_
_space_group_symop_operation_xyz
x,y,z
-x,-y,-z
loop_
_atom_site_type_symbol
_atom_site_label
_atom_site_fract_x
_atom_site_fract_y
_atom_site_fract_z
Si Si1 0.619555 0.765880 0.393143
Si Si2 0.670072 0.290075 0.768882
Si Si3 0.769830 0.418665 0.571137
Si Si4 0.837221 0.888912 0.017743
Si Si5 0.861554 0.965957 0.803043
Si Si6 0.027501 0.325286 0.590771
Si Si7 0.419826 0.929011 0.084321
Si Si8 0.349903 0.547349 0.826138
O O1 0.463353 0.644803 0.340442
O O2 0.719732 0.607864 0.480558
O O3 0.619904 0.690954 0.260673
O O4 0.665789 0.102750 0.473728
O O5 0.771551 0.562167 0.912774
O O6 0.599543 0.082816 0.803597
O O7 0.756606 0.127110 0.729546
O O8 0.791829 0.632406 0.706792
O O9 0.916037 0.365743 0.619246
O O10 0.874686 0.041253 0.942428
O O11 0.714634 0.983159 0.015594
O O12 0.985878 0.946977 0.156644
O O13 0.184338 0.461069 0.726557
O O14 0.000000 0.500000 0.500000
O O15 0.000000 0.000000 0.500000
O O16 0.559929 0.162794 0.149700
O O17 0.396458 0.625987 0.979383
#
# Coordination Sequence:
#
# PCOD9020197 Si02
#       8
#     2   2   2   2   2   2   2   2
#     4  12  26  45  72  95 154 181 240 281 353 409
#     4  11  24  44  70 102 135 187 232 301 354 413
#     4  12  26  48  69 109 137 195 230 291 340 433
#     4  10  21  47  69 102 135 182 224 308 352 417
#     4  10  25  43  73  98 143 175 245 283 364 413
#     4  12  24  45  71 100 144 189 226 281 351 418
#     4  10  23  43  71 102 137 180 240 289 359 417
#     4  11  22  45  69 102 140 186 230 293 347 426
#
# _framework density 26.182058999999999
#
# number of rings (size 3 to 8) (size 9 to 14) (size 15 to 20)
#    0.000    1.000    3.750    1.875    3.500    1.500 
#    9.000    0.000    0.000    0.000    0.000    0.000 
#    0.000    0.000    0.000    0.000    0.000    0.000 
#
# Total GULP energy -89556.143484 kJ/mol
# GULP energy per Si atom -5597.258968 kJ/mol
# Density = 2.612247 g / cm^3
# Si number density = 26.182059 Si / 1000 Ang^3
#
#
#
# Elastic Constant Matrix: (Units=GPa)
#
#
# Indices 1 2 3 4 5 6 
#
# 1 147.3045 34.8253 53.7768 10.3676 41.1978 -42.9330
# 2 34.8253 115.8138 35.1578 27.6446 7.4203 -35.6335
# 3 53.7768 35.1578 125.4279 26.7022 14.4645 -20.3294
# 4 10.3676 27.6446 26.7022 44.9864 3.3239 -8.5647
# 5 41.1978 7.4203 14.4645 3.3239 56.6158 3.3428
# 6 -42.9330 -35.6335 -20.3294 -8.5647 3.3428 51.8987
#
#
#
# Elastic Compliance Matrix: (Units=1/GPa)
#
#
# Indices 1 2 3 4 5 6 
#
# 1 0.014011 0.000746 -0.003438 0.001320 -0.010179 0.011629
# 2 0.000746 0.012726 -0.001137 -0.005620 -0.002070 0.008116
# 3 -0.003438 -0.001137 0.010757 -0.004956 0.000208 -0.000242
# 4 0.001320 -0.005620 -0.004956 0.028368 -0.000624 0.000014
# 5 -0.010179 -0.002070 0.000208 -0.000624 0.026006 -0.011538
# 6 0.011629 0.008116 -0.000242 0.000014 -0.011538 0.035111
#
#
# Mechanical properties :
#
#
# Convention : Reuss Voigt Hill
#
# Bulk Modulus (GPa) = 33.51638 70.67401 52.09520
# Shear Modulus (GPa) = 34.58211 48.35259 41.46735
#
# Velocity S-wave (km/s) = 3.63827 4.30208 3.98403
# Velocity P-wave (km/s) = 5.52072 7.19230 6.41122
#
# Compressibility (1/GPa) = 0.02983616
#
# Stress axis : x y z
#
# Youngs Moduli (GPa) = 71.37320 78.57729 92.96015
#
# Poissons Ratio (x) = -0.05861 0.31964
# Poissons Ratio (y) = -0.05324 0.10566
# Poissons Ratio (z) = 0.24542 0.08931
#
# Static dielectric constant tensor:
#      x y z
#    x 2.121700 0.014440 -0.011900 
#    y 0.014440 2.125400 -0.110040 
#    z -0.011900 -0.110040 2.051360 
# 
# From -- ./inp_files/511268.got.cif
#   From: 2010.05.17/outbox.cif.g08.bks.cpg/sg2_256_cif.got.tgz:511268.got - 2010.06.03 11:33:40.
