data_PCOD9020070
_publ_section_title
;
Structure prediction by ZEFSAII (Michael W. Deem and Ramdas Pophale) SiO2 
 PCOD9020070
Probable space group: P -1
;
_chemical_formula_sum "Si O2"
_cell_formula_units_Z 14
_cell_length_a 14.806786
_cell_length_b 20.590747
_cell_length_c 8.584843
_cell_angle_alpha 150.829913
_cell_angle_beta 146.663646
_cell_angle_gamma 23.942338
_cell_volume 508.361016
_symmetry_space_group_name_H-M "P -1"
_symmetry_group_IT_number 2
_symmetry_cell_setting 'triclinic'
loop_
_space_group_symop_operation_xyz
x,y,z
-x,-y,-z
loop_
_atom_site_type_symbol
_atom_site_label
_atom_site_fract_x
_atom_site_fract_y
_atom_site_fract_z
Si Si1 0.871043 0.652904 0.415533
Si Si2 0.487744 0.755216 0.860073
Si Si3 0.976700 0.798154 0.596435
Si Si4 0.969643 0.317901 0.907462
Si Si5 0.506120 0.993304 0.807518
Si Si6 0.957767 0.028522 0.719221
Si Si7 0.354254 0.610802 0.172102
O O1 0.971095 0.699623 0.530054
O O2 0.745032 0.801747 0.685857
O O3 0.657849 0.703330 0.128734
O O4 0.036361 0.437712 0.242902
O O5 0.513091 0.596836 0.492640
O O6 0.226757 0.903822 0.846412
O O7 0.517515 0.845296 0.954576
O O8 0.711669 0.955970 0.483501
O O9 0.088700 0.677782 0.349852
O O10 0.100374 0.861499 0.973071
O O11 0.779383 0.423211 0.990515
O O12 0.081923 0.106195 0.646536
O O13 0.500000 0.000000 0.000000
O O14 0.830110 0.180894 0.721351
O O15 0.500000 0.500000 0.000000
#
# Coordination Sequence:
#
# PCOD9020070 Si02
#       7
#     2   2   2   2   2   2   2
#     4  11  23  46  71 105 145 178 235 289 339 422
#     4  10  21  46  69 100 141 186 226 283 353 408
#     4  11  23  46  70 104 139 190 231 281 356 407
#     4  11  26  42  71 107 135 188 230 288 345 416
#     4  11  24  41  75 100 141 186 233 286 344 421
#     4  11  23  47  73  97 145 181 229 290 349 415
#     4  11  28  46  70 101 143 181 235 296 348 408
#
# _framework density 27.539484999999999
#
# number of rings (size 3 to 8) (size 9 to 14) (size 15 to 20)
#    0.000    1.143    2.857    3.429    8.000    2.286 
#    0.000    1.429    0.000    0.000    0.000    0.000 
#    0.000    0.000    0.000    0.000    0.000    0.000 
#
# Total GULP energy -78267.729095 kJ/mol
# GULP energy per Si atom -5590.552078 kJ/mol
# Density = 2.747680 g / cm^3
# Si number density = 27.539485 Si / 1000 Ang^3
#
#
#
# Elastic Constant Matrix: (Units=GPa)
#
#
# Indices 1 2 3 4 5 6 
#
# 1 179.8032 33.5711 47.9727 29.7002 -13.6087 13.1034
# 2 33.5711 114.4974 11.8743 1.9798 15.0856 10.9684
# 3 47.9727 11.8743 153.3623 1.3303 -0.9484 0.2027
# 4 29.7002 1.9798 1.3303 43.2073 -5.9928 5.4793
# 5 -13.6087 15.0856 -0.9484 -5.9928 50.9107 6.4787
# 6 13.1034 10.9684 0.2027 5.4793 6.4787 44.6020
#
#
#
# Elastic Compliance Matrix: (Units=1/GPa)
#
#
# Indices 1 2 3 4 5 6 
#
# 1 0.007544 -0.002066 -0.002145 -0.004528 0.002243 -0.001468
# 2 -0.002066 0.009906 -0.000145 0.000707 -0.003223 -0.001447
# 3 -0.002145 -0.000145 0.007190 0.001145 -0.000330 0.000540
# 4 -0.004528 0.000707 0.001145 0.026785 0.002065 -0.002439
# 5 0.002243 -0.003223 -0.000330 0.002065 0.021853 -0.003293
# 6 -0.001468 -0.001447 0.000540 -0.002439 -0.003293 0.023983
#
#
# Mechanical properties :
#
#
# Convention : Reuss Voigt Hill
#
# Bulk Modulus (GPa) = 62.78129 70.49990 66.64059
# Shear Modulus (GPa) = 44.93109 51.36032 48.14570
#
# Velocity S-wave (km/s) = 4.04358 4.32322 4.18574
# Velocity P-wave (km/s) = 6.68185 7.11164 6.90009
#
# Compressibility (1/GPa) = 0.01592831
#
# Stress axis : x y z
#
# Youngs Moduli (GPa) = 132.54974 100.95247 139.08306
#
# Poissons Ratio (x) = 0.20858 0.29831
# Poissons Ratio (y) = 0.27387 0.02014
# Poissons Ratio (z) = 0.28430 0.01462
#
# Static dielectric constant tensor:
#      x y z
#    x 2.182020 -0.038750 -0.136230 
#    y -0.038750 2.263380 0.038090 
#    z -0.136230 0.038090 2.270160 
# 
# From -- ./inp_files/319161.got.cif
#   From: 2010.05.17/outbox.cif.g08.bks.cpg/sg2_160_cif.got.tgz:319161.got - 2010.06.03 11:33:40.
