data_PCOD9020226
_publ_section_title
;
Structure prediction by ZEFSAII (Michael W. Deem and Ramdas Pophale) SiO2 
 PCOD9020226
Probable space group: P -1
;
_chemical_formula_sum "Si O2"
_cell_formula_units_Z 14
_cell_length_a 6.892867
_cell_length_b 18.609600
_cell_length_c 7.126365
_cell_angle_alpha 40.106581
_cell_angle_beta 120.218135
_cell_angle_gamma 119.986761
_cell_volume 497.918806
_symmetry_space_group_name_H-M "P -1"
_symmetry_group_IT_number 2
_symmetry_cell_setting 'triclinic'
loop_
_space_group_symop_operation_xyz
x,y,z
-x,-y,-z
loop_
_atom_site_type_symbol
_atom_site_label
_atom_site_fract_x
_atom_site_fract_y
_atom_site_fract_z
Si Si1 0.739921 0.130380 0.194564
Si Si2 0.747798 0.516219 0.272379
Si Si3 0.925681 0.800496 0.272306
Si Si4 0.805366 0.396057 0.174554
Si Si5 0.454829 0.672288 0.198280
Si Si6 0.766247 0.782611 0.664864
Si Si7 0.612557 0.080693 0.673471
O O1 0.676693 0.104055 0.436990
O O2 0.561325 0.040674 0.167174
O O3 0.693391 0.256191 0.894191
O O4 0.866505 0.090154 0.868181
O O5 0.693938 0.445869 0.195077
O O6 0.560627 0.446318 0.464540
O O7 0.000000 0.500000 0.500000
O O8 0.756916 0.650409 0.980490
O O9 0.697997 0.759891 0.121612
O O10 0.827120 0.792354 0.452933
O O11 0.066767 0.702363 0.507143
O O12 0.990221 0.860441 0.717168
O O13 0.664300 0.354873 0.003125
O O14 0.000000 0.500000 0.000000
O O15 0.539992 0.831857 0.498847
#
# Coordination Sequence:
#
# PCOD9020226 Si02
#       7
#     2   2   2   2   2   2   2
#     4  10  21  47  74 110 148 194 258 313 377 444
#     4  12  24  46  77 114 153 199 247 307 386 450
#     4  11  26  45  71 109 154 196 257 305 377 455
#     4  12  23  49  71 106 160 198 245 316 370 448
#     4  12  26  47  76 113 153 198 254 310 374 463
#     4  11  22  46  74 113 152 193 255 316 373 457
#     4  10  23  44  78 105 149 203 246 319 382 433
#
# _framework density 28.117035000000001
#
# number of rings (size 3 to 8) (size 9 to 14) (size 15 to 20)
#    0.000    0.857    7.143    0.429    2.000    4.000 
#    0.000    2.143    0.000    0.000    0.000    1.000 
#    0.000    0.000    0.000    0.000    0.000    0.000 
#
# Total GULP energy -78587.704260 kJ/mol
# GULP energy per Si atom -5613.407447 kJ/mol
# Density = 2.805304 g / cm^3
# Si number density = 28.117035 Si / 1000 Ang^3
#
#
#
# Elastic Constant Matrix: (Units=GPa)
#
#
# Indices 1 2 3 4 5 6 
#
# 1 184.1146 64.2522 31.8977 11.9153 6.9413 28.4070
# 2 64.2522 187.1358 51.8581 19.5404 11.0296 32.5539
# 3 31.8977 51.8581 82.7562 5.9501 -1.1729 9.7157
# 4 11.9153 19.5404 5.9501 48.7583 7.5372 15.4834
# 5 6.9413 11.0296 -1.1729 7.5372 55.8526 7.8892
# 6 28.4070 32.5539 9.7157 15.4834 7.8892 75.8399
#
#
#
# Elastic Compliance Matrix: (Units=1/GPa)
#
#
# Indices 1 2 3 4 5 6 
#
# 1 0.006461 -0.001543 -0.001331 -0.000279 -0.000277 -0.001502
# 2 -0.001543 0.007423 -0.003762 -0.001446 -0.000913 -0.001736
# 3 -0.001331 -0.003762 0.014974 -0.000221 0.001237 0.000111
# 4 -0.000279 -0.001446 -0.000221 0.022687 -0.002231 -0.003646
# 5 -0.000277 -0.000913 0.001237 -0.002231 0.018607 -0.001143
# 6 -0.001502 -0.001736 0.000111 -0.003646 -0.001143 0.015342
#
#
# Mechanical properties :
#
#
# Convention : Reuss Voigt Hill
#
# Bulk Modulus (GPa) = 64.15856 83.33584 73.74720
# Shear Modulus (GPa) = 48.09512 56.49007 52.29259
#
# Velocity S-wave (km/s) = 4.14035 4.48717 4.31724
# Velocity P-wave (km/s) = 6.76199 7.51994 7.15101
#
# Compressibility (1/GPa) = 0.01558638
#
# Stress axis : x y z
#
# Youngs Moduli (GPa) = 154.78662 134.72200 66.78084
#
# Poissons Ratio (x) = 0.20784 0.08889
# Poissons Ratio (y) = 0.23880 0.25122
# Poissons Ratio (z) = 0.20602 0.50680
#
# Static dielectric constant tensor:
#      x y z
#    x 2.221610 0.072290 0.023980 
#    y 0.072290 1.888310 -0.051940 
#    z 0.023980 -0.051940 2.193270 
# 
# From -- ./inp_files/46418.got.cif
#   From: 2010.05.17/outbox.cif.g08.bks.cpg/sg2_24_cif.got.tgz:46418.got - 2010.06.03 11:33:40.
