data_PCOD9020781
_publ_section_title
;
Structure prediction by ZEFSAII (Michael W. Deem and Ramdas Pophale) SiO2 
 PCOD9020781
Probable space group: P -1
;
_chemical_formula_sum "Si O2"
_cell_formula_units_Z 16
_cell_length_a 8.425359
_cell_length_b 14.786089
_cell_length_c 14.416140
_cell_angle_alpha 28.806369
_cell_angle_beta 90.455027
_cell_angle_gamma 73.391508
_cell_volume 687.259834
_symmetry_space_group_name_H-M "P -1"
_symmetry_group_IT_number 2
_symmetry_cell_setting 'triclinic'
loop_
_space_group_symop_operation_xyz
x,y,z
-x,-y,-z
loop_
_atom_site_type_symbol
_atom_site_label
_atom_site_fract_x
_atom_site_fract_y
_atom_site_fract_z
Si Si1 0.343131 0.627035 0.696485
Si Si2 0.366847 0.012012 0.907839
Si Si3 0.792487 0.741975 0.813036
Si Si4 0.922367 0.572901 0.573167
Si Si5 0.707172 0.769903 0.993704
Si Si6 0.610806 0.196789 0.280930
Si Si7 0.095380 0.020451 0.688787
Si Si8 0.705315 0.352686 0.816296
O O1 0.329332 0.416954 0.868557
O O2 0.399280 0.633422 0.795767
O O3 0.515805 0.565538 0.682228
O O4 0.123244 0.854248 0.465302
O O5 0.149210 0.262854 0.667272
O O6 0.500000 0.000000 0.000000
O O7 0.493872 0.981577 0.843854
O O8 0.355991 0.792002 0.111141
O O9 0.602897 0.743671 0.791365
O O10 0.747088 0.948096 0.561194
O O11 0.785751 0.799448 0.871023
O O12 0.000000 0.500000 0.000000
O O13 0.887705 0.771628 0.468239
O O14 0.798825 0.467448 0.666456
O O15 0.137997 0.348081 0.813777
O O16 0.736617 0.144588 0.236996
O O17 0.139125 0.853558 0.925465
#
# Coordination Sequence:
#
# PCOD9020781 Si02
#       8
#     2   2   2   2   2   2   2   2
#     4  10  22  37  58  84 123 165 214 260 307 360
#     4  10  23  45  68  93 125 155 199 263 319 379
#     4  11  24  37  57  89 125 167 216 253 305 356
#     4  10  22  40  66  90 126 158 204 254 313 385
#     4  10  23  42  62  89 124 167 203 257 320 364
#     4  11  24  36  56  85 124 168 220 262 299 359
#     4  10  22  41  55  89 129 167 212 262 306 357
#     4  10  23  38  65  92 120 168 204 248 320 377
#
# _framework density 23.280857999999998
#
# number of rings (size 3 to 8) (size 9 to 14) (size 15 to 20)
#    0.000    1.750    0.000    4.125    8.750    3.000 
#    0.000    0.625    0.000    0.000    0.000    0.000 
#    0.000    0.000    0.000    0.000    0.000    0.000 
#
# Total GULP energy -89350.625666 kJ/mol
# GULP energy per Si atom -5584.414104 kJ/mol
# Density = 2.322787 g / cm^3
# Si number density = 23.280858 Si / 1000 Ang^3
#
#
#
# Elastic Constant Matrix: (Units=GPa)
#
#
# Indices 1 2 3 4 5 6 
#
# 1 69.0920 29.0630 36.8017 -0.7491 2.1314 28.2547
# 2 29.0630 51.7387 19.6847 4.4019 7.7592 25.6228
# 3 36.8017 19.6847 94.3470 -8.0659 13.0460 -1.2452
# 4 -0.7491 4.4019 -8.0659 30.7016 1.4440 11.7601
# 5 2.1314 7.7592 13.0460 1.4440 59.6523 3.8287
# 6 28.2547 25.6228 -1.2452 11.7601 3.8287 38.0751
#
#
#
# Elastic Compliance Matrix: (Units=1/GPa)
#
#
# Indices 1 2 3 4 5 6 
#
# 1 0.032430 -0.001775 -0.012428 0.007564 0.003272 -0.025943
# 2 -0.001775 0.033654 -0.006229 0.001993 -0.001589 -0.021990
# 3 -0.012428 -0.006229 0.017400 -0.000188 -0.003470 0.014390
# 4 0.007564 0.001993 -0.000188 0.039798 -0.000218 -0.019231
# 5 0.003272 -0.001589 -0.003470 -0.000218 0.017823 -0.003198
# 6 -0.025943 -0.021990 0.014390 -0.019231 -0.003198 0.067045
#
#
# Mechanical properties :
#
#
# Convention : Reuss Voigt Hill
#
# Bulk Modulus (GPa) = 23.46332 42.91962 33.19147
# Shear Modulus (GPa) = 18.99552 34.32769 26.66160
#
# Velocity S-wave (km/s) = 2.85955 3.84409 3.38777
# Velocity P-wave (km/s) = 4.58289 6.17886 5.43973
#
# Compressibility (1/GPa) = 0.04261971
#
# Stress axis : x y z
#
# Youngs Moduli (GPa) = 30.83586 29.71438 57.47060
#
# Poissons Ratio (x) = 0.05274 0.71422
# Poissons Ratio (y) = 0.05473 0.35801
# Poissons Ratio (z) = 0.38322 0.18510
#
# Static dielectric constant tensor:
#      x y z
#    x 1.878820 -0.016420 -0.000900 
#    y -0.016420 1.975650 -0.074610 
#    z -0.000900 -0.074610 2.026260 
# 
# From -- ./inp_files/495487.got.cif
#   From: 2010.05.17/outbox.cif.g08.bks.cpg/sg2_248_cif.got.tgz:495487.got - 2010.06.03 11:33:40.
