data_PCOD9020435
_publ_section_title
;
Structure prediction by ZEFSAII (Michael W. Deem and Ramdas Pophale) SiO2 
 PCOD9020435
Probable space group: P -1
;
_chemical_formula_sum "Si O2"
_cell_formula_units_Z 14
_cell_length_a 7.290279
_cell_length_b 9.766107
_cell_length_c 9.610444
_cell_angle_alpha 118.331583
_cell_angle_beta 76.977962
_cell_angle_gamma 113.446984
_cell_volume 551.984235
_symmetry_space_group_name_H-M "P -1"
_symmetry_group_IT_number 2
_symmetry_cell_setting 'triclinic'
loop_
_space_group_symop_operation_xyz
x,y,z
-x,-y,-z
loop_
_atom_site_type_symbol
_atom_site_label
_atom_site_fract_x
_atom_site_fract_y
_atom_site_fract_z
Si Si1 0.690179 0.796815 0.695527
Si Si2 0.128792 0.253576 0.073149
Si Si3 0.767088 0.475494 0.013271
Si Si4 0.296028 0.060300 0.721819
Si Si5 0.718379 0.154598 0.743602
Si Si6 0.662768 0.147475 0.135696
Si Si7 0.836187 0.736201 0.356405
O O1 0.461521 0.730796 0.755889
O O2 0.744154 0.710245 0.511534
O O3 0.823652 0.788073 0.800336
O O4 0.726484 0.986240 0.729963
O O5 0.208291 0.147884 0.900555
O O6 0.890640 0.211049 0.073535
O O7 0.247555 0.439502 0.090808
O O8 0.669891 0.279445 0.924264
O O9 0.727292 0.589003 0.195587
O O10 0.000000 0.500000 0.000000
O O11 0.527524 0.129351 0.667937
O O12 0.180034 0.093879 0.625011
O O13 0.300733 0.905528 0.737452
O O14 0.930081 0.242851 0.677975
O O15 0.500000 0.000000 0.000000
#
# Coordination Sequence:
#
# PCOD9020435 Si02
#       7
#     2   2   2   2   2   2   2
#     4  11  24  39  68  98 127 164 215 272 316 369
#     4  11  23  40  65  96 126 171 215 263 317 379
#     4   9  22  41  68  89 129 172 211 258 319 386
#     4  10  22  35  67  93 126 167 216 260 318 376
#     4  10  22  41  65  95 128 167 215 260 317 381
#     4  11  23  36  62  98 130 160 218 271 311 371
#     4  10  22  40  61  97 131 164 209 268 320 373
#
# _framework density 25.363045
#
# number of rings (size 3 to 8) (size 9 to 14) (size 15 to 20)
#    0.000    1.714    1.429    1.714   12.000    5.714 
#    0.000    4.286    0.000   13.714    0.000    0.000 
#    0.000    0.000    0.000    0.000    0.000    0.000 
#
# Total GULP energy -78129.053351 kJ/mol
# GULP energy per Si atom -5580.646668 kJ/mol
# Density = 2.530532 g / cm^3
# Si number density = 25.363045 Si / 1000 Ang^3
#
#
#
# Elastic Constant Matrix: (Units=GPa)
#
#
# Indices 1 2 3 4 5 6 
#
# 1 185.7546 27.6999 59.1111 -22.9336 -24.7210 8.1285
# 2 27.6999 94.5626 46.3024 0.5987 -2.7944 -7.9206
# 3 59.1111 46.3024 170.1376 -21.1254 0.3400 -6.5099
# 4 -22.9336 0.5987 -21.1254 36.7906 -0.8523 4.7275
# 5 -24.7210 -2.7944 0.3400 -0.8523 24.3280 -9.5058
# 6 8.1285 -7.9206 -6.5099 4.7275 -9.5058 29.1068
#
#
#
# Elastic Compliance Matrix: (Units=1/GPa)
#
#
# Indices 1 2 3 4 5 6 
#
# 1 0.007708 -0.001232 -0.001898 0.004055 0.007410 -0.001151
# 2 -0.001232 0.013028 -0.003383 -0.003431 0.001850 0.004294
# 3 -0.001898 -0.003383 0.007880 0.003332 -0.002277 0.000087
# 4 0.004055 -0.003431 0.003332 0.032477 0.002568 -0.005757
# 5 0.007410 0.001850 -0.002277 0.002568 0.055016 0.015475
# 6 -0.001151 0.004294 0.000087 -0.005757 0.015475 0.041855
#
#
# Mechanical properties :
#
#
# Convention : Reuss Voigt Hill
#
# Bulk Modulus (GPa) = 64.14351 79.63128 71.88739
# Shear Modulus (GPa) = 28.37905 39.20118 33.79011
#
# Velocity S-wave (km/s) = 3.34865 3.93568 3.65397
# Velocity P-wave (km/s) = 6.34794 7.21925 6.79757
#
# Compressibility (1/GPa) = 0.01559004
#
# Stress axis : x y z
#
# Youngs Moduli (GPa) = 129.72974 76.75539 126.91158
#
# Poissons Ratio (x) = 0.09453 0.24092
# Poissons Ratio (y) = 0.15977 0.42937
# Poissons Ratio (z) = 0.24627 0.25968
#
# Static dielectric constant tensor:
#      x y z
#    x 2.012010 0.009230 0.040760 
#    y 0.009230 2.205220 -0.028050 
#    z 0.040760 -0.028050 2.118900 
# 
# From -- ./inp_files/386008.got.cif
#   From: 2010.05.17/outbox.cif.g08.bks.cpg/sg2_194_cif.got.tgz:386008.got - 2010.06.03 11:33:40.
