data_PCOD9020270
_publ_section_title
;
Structure prediction by ZEFSAII (Michael W. Deem and Ramdas Pophale) SiO2 
 PCOD9020270
Probable space group: P -1
;
_chemical_formula_sum "Si O2"
_cell_formula_units_Z 12
_cell_length_a 5.175369
_cell_length_b 17.612555
_cell_length_c 4.901347
_cell_angle_alpha 73.305802
_cell_angle_beta 95.113547
_cell_angle_gamma 74.911291
_cell_volume 406.640086
_symmetry_space_group_name_H-M "P -1"
_symmetry_group_IT_number 2
_symmetry_cell_setting 'triclinic'
loop_
_space_group_symop_operation_xyz
x,y,z
-x,-y,-z
loop_
_atom_site_type_symbol
_atom_site_label
_atom_site_fract_x
_atom_site_fract_y
_atom_site_fract_z
Si Si1 0.294025 0.516423 0.211784
Si Si2 0.000170 0.944806 0.260380
Si Si3 0.470606 0.948835 0.844032
Si Si4 0.285032 0.343278 0.391134
Si Si5 0.356747 0.795761 0.775775
Si Si6 0.866144 0.308208 0.775568
O O1 0.500000 0.500000 0.500000
O O2 0.151551 0.443268 0.271736
O O3 0.123229 0.612777 0.120908
O O4 0.500000 0.500000 0.000000
O O5 0.307543 0.058707 0.872890
O O6 0.168692 0.853203 0.469297
O O7 0.816957 0.050311 0.002339
O O8 0.000000 0.000000 0.500000
O O9 0.521151 0.856141 0.837452
O O10 0.500000 0.000000 0.500000
O O11 0.418131 0.289119 0.198967
O O12 0.565964 0.332400 0.591467
O O13 0.088603 0.301356 0.572260
O O14 0.142053 0.770714 0.971608
#
# Coordination Sequence:
#
# PCOD9020270 Si02
#       6
#     2   2   2   2   2   2
#     4  10  21  50  85 121 174 229 282 344 431 525
#     4   9  22  47  76 112 151 211 277 336 430 510
#     4   8  23  47  74 112 149 211 276 336 428 509
#     4  11  27  50  77 125 164 221 277 348 417 516
#     4  12  24  49  84 114 165 215 280 354 429 496
#     4  11  27  51  76 124 168 216 279 349 417 515
#
# _framework density 29.510124999999999
#
# number of rings (size 3 to 8) (size 9 to 14) (size 15 to 20)
#    1.000    0.667    1.667    1.000    2.333    3.333 
#   12.000    3.333    0.000    5.000    0.000    1.167 
#    0.000    0.000    0.000    0.000    0.000    0.000 
#
# Total GULP energy -66989.813297 kJ/mol
# GULP energy per Si atom -5582.484441 kJ/mol
# Density = 2.944296 g / cm^3
# Si number density = 29.510125 Si / 1000 Ang^3
#
#
#
# Elastic Constant Matrix: (Units=GPa)
#
#
# Indices 1 2 3 4 5 6 
#
# 1 205.5122 57.5639 84.9851 -4.4281 -17.5445 -4.8625
# 2 57.5639 167.7369 76.0650 -1.2010 -5.8145 24.0059
# 3 84.9851 76.0650 212.0479 2.0937 -11.1472 31.7073
# 4 -4.4281 -1.2010 2.0937 64.4137 3.0357 -0.6993
# 5 -17.5445 -5.8145 -11.1472 3.0357 58.8541 -11.5259
# 6 -4.8625 24.0059 31.7073 -0.6993 -11.5259 61.5682
#
#
#
# Elastic Compliance Matrix: (Units=1/GPa)
#
#
# Indices 1 2 3 4 5 6 
#
# 1 0.006489 -0.001460 -0.002382 0.000439 0.001837 0.002657
# 2 -0.001460 0.007596 -0.001834 0.000099 -0.000472 -0.002220
# 3 -0.002382 -0.001834 0.006772 -0.000442 -0.000173 -0.002998
# 4 0.000439 0.000099 -0.000442 0.015607 -0.000695 0.000271
# 5 0.001837 -0.000472 -0.000173 -0.000695 0.018244 0.003826
# 6 0.002657 -0.002220 -0.002998 0.000271 0.003826 0.019581
#
#
# Mechanical properties :
#
#
# Convention : Reuss Voigt Hill
#
# Bulk Modulus (GPa) = 105.19903 113.61388 109.40645
# Shear Modulus (GPa) = 56.30024 61.41275 58.85649
#
# Velocity S-wave (km/s) = 4.37261 4.56683 4.47077
# Velocity P-wave (km/s) = 7.82424 8.14809 7.98781
#
# Compressibility (1/GPa) = 0.00950579
#
# Stress axis : x y z
#
# Youngs Moduli (GPa) = 154.10547 131.64142 147.66931
#
# Poissons Ratio (x) = 0.19223 0.35175
# Poissons Ratio (y) = 0.22503 0.27076
# Poissons Ratio (z) = 0.36708 0.24137
#
# Static dielectric constant tensor:
#      x y z
#    x -51.932040 12.736140 -10.022280 
#    y 12.736140 -0.552680 2.453880 
#    z -10.022280 2.453880 0.500150 
# 
# From -- ./inp_files/6141.got.cif
#   From: 2010.05.17/outbox.cif.g08.bks.cpg/sg2_4_cif.got.tgz:6141.got - 2010.06.03 11:33:40.
