data_PCOD9020062
_publ_section_title
;
Structure prediction by ZEFSAII (Michael W. Deem and Ramdas Pophale) SiO2 
 PCOD9020062
Probable space group: P -1
;
_chemical_formula_sum "Si O2"
_cell_formula_units_Z 16
_cell_length_a 5.327480
_cell_length_b 9.696064
_cell_length_c 17.353309
_cell_angle_alpha 69.653239
_cell_angle_beta 63.679473
_cell_angle_gamma 59.168875
_cell_volume 681.417575
_symmetry_space_group_name_H-M "P -1"
_symmetry_group_IT_number 2
_symmetry_cell_setting 'triclinic'
loop_
_space_group_symop_operation_xyz
x,y,z
-x,-y,-z
loop_
_atom_site_type_symbol
_atom_site_label
_atom_site_fract_x
_atom_site_fract_y
_atom_site_fract_z
Si Si1 0.754106 0.558178 0.424182
Si Si2 0.641033 0.115428 0.039444
Si Si3 0.413175 0.830486 0.129370
Si Si4 0.183838 0.983132 0.557477
Si Si5 0.089166 0.968988 0.734119
Si Si6 0.691236 0.766212 0.786586
Si Si7 0.374309 0.360105 0.409523
Si Si8 0.269498 0.433095 0.734769
O O1 0.500000 0.500000 0.500000
O O2 0.763693 0.645110 0.484704
O O3 0.721259 0.654021 0.331845
O O4 0.064267 0.394324 0.399019
O O5 0.531525 0.217647 0.112802
O O6 0.499138 0.983413 0.086646
O O7 0.551314 0.224293 0.953351
O O8 0.000000 0.000000 0.000000
O O9 0.620479 0.689902 0.186196
O O10 0.070237 0.907570 0.197856
O O11 0.035458 0.068725 0.641346
O O12 0.311568 0.797139 0.602824
O O13 0.500000 0.000000 0.500000
O O14 0.000000 0.000000 0.500000
O O15 0.446587 0.858899 0.732733
O O16 0.897027 0.860745 0.766964
O O17 0.939319 0.582370 0.770274
O O18 0.481191 0.494774 0.336662
#
# Coordination Sequence:
#
# PCOD9020062 Si02
#       8
#     2   2   2   2   2   2   2   2
#     4   9  21  38  64  85 132 176 220 278 343 382
#     4  10  21  46  68  96 138 173 218 277 355 410
#     4  10  24  41  70  99 130 176 226 281 337 423
#     4  12  27  40  67  97 136 181 235 277 333 399
#     4  11  23  45  66  98 135 185 226 272 343 407
#     4  11  23  43  74  95 138 181 218 288 343 405
#     4  10  22  42  61  90 133 180 223 291 328 394
#     4  11  23  40  67  99 130 173 232 281 338 403
#
# _framework density 23.480464999999999
#
# number of rings (size 3 to 8) (size 9 to 14) (size 15 to 20)
#    0.000    1.500    2.500    1.500    5.250    3.500 
#    0.000    0.625    0.000    0.000    0.000    0.000 
#    0.000    0.000    0.000    0.000    0.000    0.000 
#
# Total GULP energy -89104.754964 kJ/mol
# GULP energy per Si atom -5569.047185 kJ/mol
# Density = 2.342702 g / cm^3
# Si number density = 23.480465 Si / 1000 Ang^3
#
#
#
# Elastic Constant Matrix: (Units=GPa)
#
#
# Indices 1 2 3 4 5 6 
#
# 1 78.8538 22.7424 40.3859 -3.6835 11.5756 -25.2438
# 2 22.7424 74.1659 54.8566 7.8752 8.1479 -30.8513
# 3 40.3859 54.8566 210.3803 10.6050 36.3580 -16.1793
# 4 -3.6835 7.8752 10.6050 42.0404 -9.0742 -4.8292
# 5 11.5756 8.1479 36.3580 -9.0742 43.1306 -2.1080
# 6 -25.2438 -30.8513 -16.1793 -4.8292 -2.1080 31.5878
#
#
#
# Elastic Compliance Matrix: (Units=1/GPa)
#
#
# Indices 1 2 3 4 5 6 
#
# 1 0.019380 0.003649 -0.003206 0.003534 -0.001573 0.017845
# 2 0.003649 0.028143 -0.005913 -0.000332 -0.000046 0.027320
# 3 -0.003206 -0.005913 0.007554 -0.002812 -0.005239 -0.005247
# 4 0.003534 -0.000332 -0.002812 0.027136 0.007473 0.005706
# 5 -0.001573 -0.000046 -0.005239 0.007473 0.029562 -0.000870
# 6 0.017845 0.027320 -0.005247 0.005706 -0.000870 0.070729
#
#
# Mechanical properties :
#
#
# Convention : Reuss Voigt Hill
#
# Bulk Modulus (GPa) = 22.65657 66.59665 44.62661
# Shear Modulus (GPa) = 24.02052 39.71276 31.86664
#
# Velocity S-wave (km/s) = 3.20191 4.11702 3.68796
# Velocity P-wave (km/s) = 4.83111 7.14310 6.09769
#
# Compressibility (1/GPa) = 0.04413732
#
# Stress axis : x y z
#
# Youngs Moduli (GPa) = 51.60013 35.53317 132.37943
#
# Poissons Ratio (x) = -0.12966 0.42437
# Poissons Ratio (y) = -0.18829 0.78275
# Poissons Ratio (z) = 0.16542 0.21011
#
# Static dielectric constant tensor:
#      x y z
#    x 2.006980 -0.114810 0.160260 
#    y -0.114810 2.023850 0.110780 
#    z 0.160260 0.110780 1.976080 
# 
# From -- ./inp_files/99308.got.cif
#   From: 2010.05.17/outbox.cif.g08.bks.cpg/sg2_50_cif.got.tgz:99308.got - 2010.06.03 11:33:40.
