data_PCOD9020543
_publ_section_title
;
Structure prediction by ZEFSAII (Michael W. Deem and Ramdas Pophale) SiO2 
 PCOD9020543
Probable space group: P -1
;
_chemical_formula_sum "Si O2"
_cell_formula_units_Z 15
_cell_length_a 7.437118
_cell_length_b 12.656811
_cell_length_c 8.388269
_cell_angle_alpha 94.258113
_cell_angle_beta 54.222543
_cell_angle_gamma 79.284832
_cell_volume 612.618689
_symmetry_space_group_name_H-M "P -1"
_symmetry_group_IT_number 2
_symmetry_cell_setting 'triclinic'
loop_
_space_group_symop_operation_xyz
x,y,z
-x,-y,-z
loop_
_atom_site_type_symbol
_atom_site_label
_atom_site_fract_x
_atom_site_fract_y
_atom_site_fract_z
Si Si1 0.000000 0.000000 0.500000
Si Si2 0.112607 0.504763 0.270474
Si Si3 0.849650 0.382642 0.199597
Si Si4 0.399680 0.881078 0.032193
Si Si5 0.258806 0.978223 0.798633
Si Si6 0.296830 0.205415 0.850046
Si Si7 0.380637 0.642196 0.984628
Si Si8 0.247851 0.791576 0.529431
O O1 0.803184 0.041121 0.747640
O O2 0.937054 0.131033 0.484393
O O3 0.930422 0.483962 0.235561
O O4 0.351087 0.406788 0.114394
O O5 0.000000 0.500000 0.500000
O O6 0.205768 0.609039 0.193819
O O7 0.646701 0.410982 0.179195
O O8 0.805438 0.307976 0.360215
O O9 0.060177 0.298984 0.986523
O O10 0.629522 0.840469 0.014974
O O11 0.426859 0.934310 0.855016
O O12 0.326701 0.772129 0.011991
O O13 0.285268 0.884766 0.643459
O O14 0.285322 0.096446 0.745547
O O15 0.000000 0.000000 0.000000
O O16 0.507299 0.249276 0.690035
#
# Coordination Sequence:
#
# PCOD9020543 Si02
#       8
#     1   2   2   2   2   2   2   2
#     4  10  22  36  60 100 136 182 220 274 324 398
#     4  11  28  48  75 107 132 175 233 294 354 420
#     4  12  24  47  73 100 138 180 228 287 350 411
#     4  11  21  41  66  96 139 187 223 281 341 405
#     4  12  20  40  61  94 138 183 230 279 332 399
#     4  11  24  39  64  97 138 183 226 278 339 407
#     4  11  25  49  73 100 142 178 227 293 353 405
#     4  11  24  39  65  98 141 185 232 276 333 411
#
# _framework density 24.485050999999999
#
# number of rings (size 3 to 8) (size 9 to 14) (size 15 to 20)
#    0.000    0.800    5.333    1.200    3.733    2.667 
#    0.000    0.000    0.000    0.000    0.000    0.000 
#    0.000    0.000    0.000    0.000    0.000    0.000 
#
# Total GULP energy -83703.309211 kJ/mol
# GULP energy per Si atom -5580.220614 kJ/mol
# Density = 2.442932 g / cm^3
# Si number density = 24.485051 Si / 1000 Ang^3
#
#
#
# Elastic Constant Matrix: (Units=GPa)
#
#
# Indices 1 2 3 4 5 6 
#
# 1 63.6087 -4.3886 -8.5887 2.6539 4.1203 11.3399
# 2 -4.3886 87.4003 22.6620 -23.1303 -11.8627 21.4132
# 3 -8.5887 22.6620 58.1209 -15.1242 -11.1747 7.6798
# 4 2.6539 -23.1303 -15.1242 33.6830 10.0253 0.9761
# 5 4.1203 -11.8627 -11.1747 10.0253 30.4992 -1.3198
# 6 11.3399 21.4132 7.6798 0.9761 -1.3198 38.5860
#
#
#
# Elastic Compliance Matrix: (Units=1/GPa)
#
#
# Indices 1 2 3 4 5 6 
#
# 1 0.017534 0.002208 0.002930 0.002079 -0.001425 -0.007063
# 2 0.002208 0.017718 -0.002054 0.010822 0.001839 -0.010283
# 3 0.002930 -0.002054 0.021591 0.006899 0.004273 -0.004047
# 4 0.002079 0.010822 0.006899 0.042701 -0.007984 -0.009343
# 5 -0.001425 0.001839 0.004273 -0.007984 0.037888 0.000046
# 6 -0.007063 -0.010283 -0.004047 -0.009343 0.000046 0.034742
#
#
# Mechanical properties :
#
#
# Convention : Reuss Voigt Hill
#
# Bulk Modulus (GPa) = 15.87014 25.38881 20.62947
# Shear Modulus (GPa) = 26.73680 33.84998 30.29339
#
# Velocity S-wave (km/s) = 3.30807 3.72220 3.52123
# Velocity P-wave (km/s) = 4.59203 5.37258 4.99757
#
# Compressibility (1/GPa) = 0.06301143
#
# Stress axis : x y z
#
# Youngs Moduli (GPa) = 57.03262 56.43999 46.31573
#
# Poissons Ratio (x) = -0.12461 -0.13573
# Poissons Ratio (y) = -0.12592 0.09513
# Poissons Ratio (z) = -0.16713 0.11592
#
# Static dielectric constant tensor:
#      x y z
#    x 2.433760 -0.374330 0.285940 
#    y -0.374330 2.272470 -0.221370 
#    z 0.285940 -0.221370 2.041770 
# 
# From -- ./inp_files/187251.got.cif
#   From: 2010.05.17/outbox.cif.g08.bks.cpg/sg2_94_cif.got.tgz:187251.got - 2010.06.03 11:33:40.
