data_PCOD9020005
_publ_section_title
;
Structure prediction by ZEFSAII (Michael W. Deem and Ramdas Pophale) SiO2 
 PCOD9020005
Probable space group: P -1
;
_chemical_formula_sum "Si O2"
_cell_formula_units_Z 12
_cell_length_a 7.059745
_cell_length_b 9.435809
_cell_length_c 8.730942
_cell_angle_alpha 115.476887
_cell_angle_beta 86.740262
_cell_angle_gamma 68.419156
_cell_volume 471.947963
_symmetry_space_group_name_H-M "P -1"
_symmetry_group_IT_number 2
_symmetry_cell_setting 'triclinic'
loop_
_space_group_symop_operation_xyz
x,y,z
-x,-y,-z
loop_
_atom_site_type_symbol
_atom_site_label
_atom_site_fract_x
_atom_site_fract_y
_atom_site_fract_z
Si Si1 0.484343 0.975417 0.169015
Si Si2 0.327523 0.592228 0.179550
Si Si3 0.327696 0.859248 0.546071
Si Si4 0.039296 0.094926 0.186549
Si Si5 0.855761 0.756577 0.245992
Si Si6 0.059859 0.448360 0.298255
O O1 0.498796 0.131134 0.340792
O O2 0.261394 0.974067 0.197711
O O3 0.226336 0.057756 0.577335
O O4 0.500000 0.000000 0.000000
O O5 0.384122 0.715186 0.347577
O O6 0.684908 0.806995 0.143884
O O7 0.267472 0.466867 0.237367
O O8 0.500000 0.500000 0.000000
O O9 0.879150 0.594519 0.270965
O O10 0.149035 0.849615 0.658528
O O11 0.063124 0.261957 0.200476
O O12 0.000000 0.000000 0.000000
O O13 0.096898 0.702921 0.163697
O O14 0.000000 0.500000 0.500000
#
# Coordination Sequence:
#
# PCOD9020005 Si02
#       6
#     2   2   2   2   2   2
#     4  10  22  45  78 127 168 225 299 356 429 531
#     4  10  21  45  87 129 180 226 286 361 448 522
#     4  10  21  45  86 121 170 231 292 350 442 530
#     4  12  22  45  85 124 176 227 290 365 447 515
#     4   8  21  44  82 121 171 223 296 357 428 525
#     4  10  22  45  83 125 173 222 292 369 436 520
#
# _framework density 25.42653
#
# number of rings (size 3 to 8) (size 9 to 14) (size 15 to 20)
#    2.000    0.000    3.333    0.500    0.000    0.000 
#    3.000    8.333   11.000    6.000    0.000    0.000 
#    0.000    0.167    0.000    0.000    0.000    0.000 
#
# Total GULP energy -67163.445100 kJ/mol
# GULP energy per Si atom -5596.953758 kJ/mol
# Density = 2.536866 g / cm^3
# Si number density = 25.426530 Si / 1000 Ang^3
#
#
#
# Elastic Constant Matrix: (Units=GPa)
#
#
# Indices 1 2 3 4 5 6 
#
# 1 195.7256 44.7487 101.8326 -4.5943 10.8027 -0.6909
# 2 44.7487 128.4478 58.8284 -1.6326 11.8064 -0.5702
# 3 101.8326 58.8284 236.1488 8.3658 -1.3048 7.3017
# 4 -4.5943 -1.6326 8.3658 49.6642 9.2423 5.1169
# 5 10.8027 11.8064 -1.3048 9.2423 40.4840 -13.5319
# 6 -0.6909 -0.5702 7.3017 5.1169 -13.5319 38.2307
#
#
#
# Elastic Compliance Matrix: (Units=1/GPa)
#
#
# Indices 1 2 3 4 5 6 
#
# 1 0.006936 -0.000912 -0.002820 0.001513 -0.002123 -0.000303
# 2 -0.000912 0.009292 -0.001958 0.001195 -0.003051 -0.000744
# 3 -0.002820 -0.001958 0.006018 -0.001626 0.001758 -0.000389
# 4 0.001513 0.001195 -0.001626 0.022594 -0.007774 -0.005420
# 5 -0.002123 -0.003051 0.001758 -0.007774 0.031980 0.011940
# 6 -0.000303 -0.000744 -0.000389 -0.005420 0.011940 0.031166
#
#
# Mechanical properties :
#
#
# Convention : Reuss Voigt Hill
#
# Bulk Modulus (GPa) = 92.02308 107.90462 99.96385
# Shear Modulus (GPa) = 40.65453 49.33663 44.99558
#
# Velocity S-wave (km/s) = 4.00297 4.40973 4.21126
# Velocity P-wave (km/s) = 7.59179 8.27391 7.94018
#
# Compressibility (1/GPa) = 0.01086684
#
# Stress axis : x y z
#
# Youngs Moduli (GPa) = 144.16588 107.62015 166.17734
#
# Poissons Ratio (x) = 0.09815 0.46860
# Poissons Ratio (y) = 0.13148 0.32532
# Poissons Ratio (z) = 0.40653 0.21069
#
# Static dielectric constant tensor:
#      x y z
#    x 2.045050 -0.012090 -0.027060 
#    y -0.012090 2.041700 0.006350 
#    z -0.027060 0.006350 1.996170 
# 
# From -- ./inp_files/198246.got.cif
#   From: 2010.05.17/outbox.cif.g08.bks.cpg/sg2_100_cif.got.tgz:198246.got - 2010.06.03 11:33:40.
