data_PCOD9020395
_publ_section_title
;
Structure prediction by ZEFSAII (Michael W. Deem and Ramdas Pophale) SiO2 
 PCOD9020395
Probable space group: P -1
;
_chemical_formula_sum "Si O2"
_cell_formula_units_Z 14
_cell_length_a 24.022253
_cell_length_b 8.574355
_cell_length_c 20.193302
_cell_angle_alpha 142.545935
_cell_angle_beta 164.196241
_cell_angle_gamma 31.502072
_cell_volume 581.508878
_symmetry_space_group_name_H-M "P -1"
_symmetry_group_IT_number 2
_symmetry_cell_setting 'triclinic'
loop_
_space_group_symop_operation_xyz
x,y,z
-x,-y,-z
loop_
_atom_site_type_symbol
_atom_site_label
_atom_site_fract_x
_atom_site_fract_y
_atom_site_fract_z
Si Si1 0.694928 0.952463 0.762642
Si Si2 0.892031 0.944144 0.577388
Si Si3 0.410005 0.727586 0.124717
Si Si4 0.057409 0.261741 0.574162
Si Si5 0.489693 0.099239 0.250245
Si Si6 0.349833 0.857116 0.884500
Si Si7 0.238742 0.530840 0.211989
O O1 0.731721 0.697786 0.772448
O O2 0.500000 0.000000 0.500000
O O3 0.587385 0.254321 0.787240
O O4 0.969380 0.830655 0.011419
O O5 0.818717 0.953590 0.420530
O O6 0.975293 0.601909 0.578809
O O7 0.690857 0.156913 0.471888
O O8 0.129646 0.955547 0.859625
O O9 0.482560 0.420437 0.066235
O O10 0.566540 0.853237 0.314276
O O11 0.834071 0.226485 0.323750
O O12 0.219493 0.145069 0.784894
O O13 0.257119 0.393904 0.113129
O O14 0.451951 0.939889 0.090990
O O15 0.500000 0.500000 0.500000
#
# Coordination Sequence:
#
# PCOD9020395 Si02
#       7
#     2   2   2   2   2   2   2
#     4  10  24  46  71  98 130 176 227 276 332 389
#     4  11  21  38  60  87 124 173 211 250 323 387
#     4  11  22  40  64  90 130 167 205 268 329 384
#     4  10  22  35  59  88 130 171 209 253 310 399
#     4  11  22  39  65  91 129 167 205 267 331 384
#     4  11  21  39  58  95 131 161 206 261 327 385
#     4  10  23  47  71  98 131 175 226 278 331 389
#
# _framework density 24.075299000000001
#
# number of rings (size 3 to 8) (size 9 to 14) (size 15 to 20)
#    0.000    1.429    2.857    3.000    0.000    5.143 
#    7.714    0.000    0.000    0.000    0.000    0.000 
#    0.000    0.000    0.000    0.000    0.000    0.000 
#
# Total GULP energy -78183.016568 kJ/mol
# GULP energy per Si atom -5584.501183 kJ/mol
# Density = 2.402050 g / cm^3
# Si number density = 24.075299 Si / 1000 Ang^3
#
#
#
# Elastic Constant Matrix: (Units=GPa)
#
#
# Indices 1 2 3 4 5 6 
#
# 1 134.4297 45.6898 64.6766 -5.3038 15.7890 -41.8314
# 2 45.6898 56.4836 24.2516 1.5286 1.5818 -28.8673
# 3 64.6766 24.2516 99.7071 -4.9589 7.1425 -16.6945
# 4 -5.3038 1.5286 -4.9589 16.5456 -8.3126 2.9704
# 5 15.7890 1.5818 7.1425 -8.3126 45.7470 3.1783
# 6 -41.8314 -28.8673 -16.6945 2.9704 3.1783 49.7532
#
#
#
# Elastic Compliance Matrix: (Units=1/GPa)
#
#
# Indices 1 2 3 4 5 6 
#
# 1 0.015838 -0.005416 -0.007286 -0.000457 -0.004784 0.008061
# 2 -0.005416 0.029519 -0.001884 -0.007847 -0.001150 0.012483
# 3 -0.007286 -0.001884 0.014887 0.003259 0.001020 -0.002484
# 4 -0.000457 -0.007847 0.003259 0.070276 0.013308 -0.008890
# 5 -0.004784 -0.001150 0.001020 0.013308 0.026283 -0.006821
# 6 0.008061 0.012483 -0.002484 -0.008890 -0.006821 0.034253
#
#
# Mechanical properties :
#
#
# Convention : Reuss Voigt Hill
#
# Bulk Modulus (GPa) = 32.18543 62.20627 47.19585
# Shear Modulus (GPa) = 21.68392 32.80934 27.24663
#
# Velocity S-wave (km/s) = 3.00437 3.69559 3.36776
# Velocity P-wave (km/s) = 5.04308 6.64110 5.89648
#
# Compressibility (1/GPa) = 0.03106996
#
# Stress axis : x y z
#
# Youngs Moduli (GPa) = 63.14037 33.87669 67.17227
#
# Poissons Ratio (x) = 0.18349 0.48943
# Poissons Ratio (y) = 0.34200 0.12656
# Poissons Ratio (z) = 0.46005 0.06383
#
# Static dielectric constant tensor:
#      x y z
#    x 1.917070 -0.059340 0.043280 
#    y -0.059340 1.998000 0.043180 
#    z 0.043280 0.043180 2.016660 
# 
# From -- ./inp_files/534580.got.cif
#   From: 2010.05.17/outbox.cif.g08.bks.cpg/sg2_268_cif.got.tgz:534580.got - 2010.06.03 11:33:40.
