data_PCOD9020417
_publ_section_title
;
Structure prediction by ZEFSAII (Michael W. Deem and Ramdas Pophale) SiO2 
 PCOD9020417
Probable space group: P -1
;
_chemical_formula_sum "Si O2"
_cell_formula_units_Z 14
_cell_length_a 16.331143
_cell_length_b 10.168266
_cell_length_c 5.193367
_cell_angle_alpha 88.015184
_cell_angle_beta 108.757282
_cell_angle_gamma 51.736916
_cell_volume 608.658382
_symmetry_space_group_name_H-M "P -1"
_symmetry_group_IT_number 2
_symmetry_cell_setting 'triclinic'
loop_
_space_group_symop_operation_xyz
x,y,z
-x,-y,-z
loop_
_atom_site_type_symbol
_atom_site_label
_atom_site_fract_x
_atom_site_fract_y
_atom_site_fract_z
Si Si1 0.822452 0.690736 0.867831
Si Si2 0.138661 0.841287 0.139158
Si Si3 0.599975 0.078653 0.244535
Si Si4 0.343721 0.257650 0.941638
Si Si5 0.727841 0.033035 0.896321
Si Si6 0.977287 0.647198 0.641807
Si Si7 0.848386 0.338410 0.337315
O O1 0.856079 0.740067 0.647064
O O2 0.817281 0.821217 0.048086
O O3 0.703993 0.739180 0.825464
O O4 0.923344 0.480854 0.026134
O O5 0.202842 0.911415 0.133036
O O6 0.168815 0.748642 0.450385
O O7 0.173179 0.706902 0.955355
O O8 0.000000 0.000000 0.000000
O O9 0.644777 0.069667 0.574985
O O10 0.630370 0.898702 0.190283
O O11 0.460598 0.221635 0.086069
O O12 0.655810 0.116626 0.081144
O O13 0.237398 0.451893 0.713597
O O14 0.020265 0.736990 0.547956
O O15 0.000000 0.500000 0.500000
#
# Coordination Sequence:
#
# PCOD9020417 Si02
#       7
#     2   2   2   2   2   2   2
#     4   9  21  36  59  92 125 166 205 267 325 396
#     4  12  27  47  65  93 133 182 223 267 315 391
#     4  10  23  43  70 102 129 172 211 284 331 394
#     4   9  22  43  69 100 136 164 218 274 346 386
#     4  11  24  42  67  90 131 175 229 258 327 385
#     4  10  22  35  61  94 129 161 206 270 337 389
#     4  11  26  42  68  96 132 174 219 270 328 388
#
# _framework density 23.001408999999999
#
# number of rings (size 3 to 8) (size 9 to 14) (size 15 to 20)
#    0.000    1.714    0.000    2.143   14.000    7.429 
#    0.000    4.286    0.000    0.000    0.000    0.000 
#    0.000    0.000    0.000    0.000    0.000    0.000 
#
# Total GULP energy -78177.186523 kJ/mol
# GULP energy per Si atom -5584.084752 kJ/mol
# Density = 2.294906 g / cm^3
# Si number density = 23.001409 Si / 1000 Ang^3
#
#
#
# Elastic Constant Matrix: (Units=GPa)
#
#
# Indices 1 2 3 4 5 6 
#
# 1 172.9267 25.1727 30.4547 -21.4328 -19.0658 6.2730
# 2 25.1727 39.6142 -1.9824 -3.6454 -6.1329 -0.9199
# 3 30.4547 -1.9824 81.0355 0.2617 -15.0920 -3.1150
# 4 -21.4328 -3.6454 0.2617 26.8541 0.8710 -3.0576
# 5 -19.0658 -6.1329 -15.0920 0.8710 46.3567 0.8676
# 6 6.2730 -0.9199 -3.1150 -3.0576 0.8676 41.0074
#
#
#
# Elastic Compliance Matrix: (Units=1/GPa)
#
#
# Indices 1 2 3 4 5 6 
#
# 1 0.007815 -0.004373 -0.002799 0.005489 0.001642 -0.001132
# 2 -0.004373 0.028699 0.002946 0.000454 0.002921 0.001509
# 3 -0.002799 0.002946 0.014247 -0.001946 0.003888 0.001349
# 4 0.005489 0.000454 -0.001946 0.041914 0.000857 0.002130
# 5 0.001642 0.002921 0.003888 0.000857 0.023890 -0.000332
# 6 -0.001132 0.001509 0.001349 0.002130 -0.000332 0.024861
#
#
# Mechanical properties :
#
#
# Convention : Reuss Voigt Hill
#
# Bulk Modulus (GPa) = 23.63650 44.54073 34.08862
# Shear Modulus (GPa) = 30.49158 38.83906 34.66532
#
# Velocity S-wave (km/s) = 3.64488 4.11366 3.88634
# Velocity P-wave (km/s) = 5.29264 6.47837 5.91529
#
# Compressibility (1/GPa) = 0.04230744
#
# Stress axis : x y z
#
# Youngs Moduli (GPa) = 127.96348 34.84494 70.19224
#
# Poissons Ratio (x) = 0.15237 0.19649
# Poissons Ratio (y) = 0.55957 -0.20678
# Poissons Ratio (z) = 0.35820 -0.10265
#
# Static dielectric constant tensor:
#      x y z
#    x 1.862220 -0.018580 0.012620 
#    y -0.018580 1.885070 -0.043810 
#    z 0.012620 -0.043810 2.039730 
# 
# From -- ./inp_files/90528.got.cif
#   From: 2010.05.17/outbox.cif.g08.bks.cpg/sg2_46_cif.got.tgz:90528.got - 2010.06.03 11:33:40.
