data_PCOD9020300
_publ_section_title
;
Structure prediction by ZEFSAII (Michael W. Deem and Ramdas Pophale) SiO2 
 PCOD9020300
Probable space group: P -1
;
_chemical_formula_sum "Si O2"
_cell_formula_units_Z 16
_cell_length_a 5.149322
_cell_length_b 9.469247
_cell_length_c 16.505104
_cell_angle_alpha 89.408310
_cell_angle_beta 117.154802
_cell_angle_gamma 81.791718
_cell_volume 706.140960
_symmetry_space_group_name_H-M "P -1"
_symmetry_group_IT_number 2
_symmetry_cell_setting 'triclinic'
loop_
_space_group_symop_operation_xyz
x,y,z
-x,-y,-z
loop_
_atom_site_type_symbol
_atom_site_label
_atom_site_fract_x
_atom_site_fract_y
_atom_site_fract_z
Si Si1 0.166668 0.470079 0.938487
Si Si2 0.943310 0.899485 0.689104
Si Si3 0.221187 0.583790 0.356646
Si Si4 0.788894 0.383042 0.466800
Si Si5 0.452634 0.078382 0.712954
Si Si6 0.790906 0.888952 0.496434
Si Si7 0.229043 0.576162 0.771370
Si Si8 0.740289 0.320021 0.812909
O O1 0.099684 0.556531 0.843189
O O2 0.059654 0.318819 0.900054
O O3 0.500000 0.500000 0.000000
O O4 0.000000 0.500000 0.000000
O O5 0.699027 0.916328 0.578136
O O6 0.137939 0.743540 0.736301
O O7 0.735044 0.956976 0.734604
O O8 0.175373 0.006549 0.702714
O O9 0.483639 0.450844 0.384231
O O10 0.274662 0.655448 0.448693
O O11 0.203153 0.678908 0.275104
O O12 0.933276 0.511280 0.316206
O O13 0.000000 0.500000 0.500000
O O14 0.966896 0.250481 0.449838
O O15 0.364588 0.146031 0.609704
O O16 0.547474 0.192456 0.789606
O O17 0.000000 0.000000 0.500000
O O18 0.550031 0.473084 0.814160
#
# Coordination Sequence:
#
# PCOD9020300 Si02
#       8
#     2   2   2   2   2   2   2   2
#     4  11  24  45  76 111 134 161 212 279 346 419
#     4  11  26  42  64  96 141 185 231 279 330 382
#     4  10  22  33  64  88 128 170 230 283 338 380
#     4  11  21  37  52  86 129 176 227 290 330 382
#     4  11  26  42  64  96 141 185 231 279 330 382
#     4  10  22  37  58  82 133 184 240 265 322 365
#     4  11  24  42  72 100 132 171 227 275 339 406
#     4  11  24  42  72 100 132 171 227 275 339 406
#
# _framework density 22.658366000000001
#
# number of rings (size 3 to 8) (size 9 to 14) (size 15 to 20)
#    0.000    1.250    1.250    4.125   14.000    1.000 
#    0.000    0.000    0.000    4.500    0.000    0.000 
#    0.000    0.000    0.000    0.000    0.000    0.000 
#
# Total GULP energy -89134.294774 kJ/mol
# GULP energy per Si atom -5570.893423 kJ/mol
# Density = 2.260680 g / cm^3
# Si number density = 22.658366 Si / 1000 Ang^3
#
#
#
# Elastic Constant Matrix: (Units=GPa)
#
#
# Indices 1 2 3 4 5 6 
#
# 1 83.6875 4.3046 18.2669 8.2264 0.8572 18.1514
# 2 4.3046 65.0861 23.8230 8.1313 3.3796 12.6239
# 3 18.2669 23.8230 100.2633 25.3680 -1.1066 18.6955
# 4 8.2264 8.1313 25.3680 24.5523 11.9198 5.7270
# 5 0.8572 3.3796 -1.1066 11.9198 46.6840 4.1614
# 6 18.1514 12.6239 18.6955 5.7270 4.1614 26.9123
#
#
#
# Elastic Compliance Matrix: (Units=1/GPa)
#
#
# Indices 1 2 3 4 5 6 
#
# 1 0.014343 0.001369 -0.000272 -0.003393 0.001354 -0.009615
# 2 0.001369 0.017869 -0.002757 -0.001750 -0.000316 -0.006970
# 3 -0.000272 -0.002757 0.016352 -0.016919 0.005549 -0.007140
# 4 -0.003393 -0.001750 -0.016919 0.067834 -0.017816 0.003182
# 5 0.001354 -0.000316 0.005549 -0.017816 0.026539 -0.004932
# 6 -0.009615 -0.006970 -0.007140 0.003182 -0.004932 0.051957
#
#
# Mechanical properties :
#
#
# Convention : Reuss Voigt Hill
#
# Bulk Modulus (GPa) = 22.10185 37.98067 30.04126
# Shear Modulus (GPa) = 23.44169 33.13920 28.29045
#
# Velocity S-wave (km/s) = 3.21996 3.82849 3.53734
# Velocity P-wave (km/s) = 4.85796 6.02842 5.47456
#
# Compressibility (1/GPa) = 0.04524508
#
# Stress axis : x y z
#
# Youngs Moduli (GPa) = 69.71945 55.96134 61.15570
#
# Poissons Ratio (x) = -0.07664 0.01666
# Poissons Ratio (y) = -0.09548 0.16858
# Poissons Ratio (z) = 0.01900 0.15426
#
# Static dielectric constant tensor:
#      x y z
#    x 1.824410 0.011750 -0.040430 
#    y 0.011750 1.868220 0.019020 
#    z -0.040430 0.019020 1.848790 
# 
# From -- ./inp_files/548124.got.cif
#   From: 2010.05.17/outbox.cif.g08.bks.cpg/sg2_275_cif.got.tgz:548124.got - 2010.06.03 11:33:40.
