data_PCOD9020465
_publ_section_title
;
Structure prediction by ZEFSAII (Michael W. Deem and Ramdas Pophale) SiO2 
 PCOD9020465
Probable space group: P -1
;
_chemical_formula_sum "Si O2"
_cell_formula_units_Z 14
_cell_length_a 7.562305
_cell_length_b 22.295038
_cell_length_c 9.211638
_cell_angle_alpha 138.585908
_cell_angle_beta 69.760060
_cell_angle_gamma 79.168836
_cell_volume 668.147108
_symmetry_space_group_name_H-M "P -1"
_symmetry_group_IT_number 2
_symmetry_cell_setting 'triclinic'
loop_
_space_group_symop_operation_xyz
x,y,z
-x,-y,-z
loop_
_atom_site_type_symbol
_atom_site_label
_atom_site_fract_x
_atom_site_fract_y
_atom_site_fract_z
Si Si1 0.921567 0.907251 0.721365
Si Si2 0.917112 0.314106 0.517441
Si Si3 0.665967 0.694611 0.562630
Si Si4 0.886776 0.423541 0.993580
Si Si5 0.099352 0.202429 0.734927
Si Si6 0.329793 0.919282 0.621402
Si Si7 0.897975 0.183758 0.048163
O O1 0.800158 0.907298 0.610089
O O2 0.196455 0.867724 0.538247
O O3 0.991658 0.797878 0.604466
O O4 0.736066 0.034418 0.106809
O O5 0.181921 0.282462 0.344080
O O6 0.807916 0.300844 0.384788
O O7 0.761266 0.434286 0.893239
O O8 0.344297 0.805107 0.859833
O O9 0.802479 0.663959 0.309258
O O10 0.761225 0.560131 0.332144
O O11 0.898598 0.340045 0.955780
O O12 0.354952 0.173049 0.661112
O O13 0.962953 0.197420 0.896178
O O14 0.158537 0.047986 0.803417
#
# Coordination Sequence:
#
# PCOD9020465 Si02
#       7
#     2   2   2   2   2   2   2
#     4   9  20  35  58  81 101 151 185 220 265 314
#     4   8  18  36  56  82 106 142 181 224 269 314
#     4   9  19  39  59  79 110 139 188 224 264 321
#     4   8  19  39  60  77 106 145 185 228 258 312
#     4  11  22  37  55  83 114 142 177 226 272 322
#     4  10  22  36  55  82 111 141 187 222 260 327
#     4  11  23  34  56  83 115 145 171 223 285 317
#
# _framework density 20.953467
#
# number of rings (size 3 to 8) (size 9 to 14) (size 15 to 20)
#    0.857    1.714    0.000    0.857    6.000    5.143 
#    0.000    0.714    0.000    0.000    0.000    0.000 
#    0.000    0.000    0.000    0.000    0.000    0.000 
#
# Total GULP energy -78013.714170 kJ/mol
# GULP energy per Si atom -5572.408155 kJ/mol
# Density = 2.090578 g / cm^3
# Si number density = 20.953467 Si / 1000 Ang^3
#
#
#
# Elastic Constant Matrix: (Units=GPa)
#
#
# Indices 1 2 3 4 5 6 
#
# 1 96.7491 17.1391 -2.3422 -4.5785 0.9508 16.2224
# 2 17.1391 97.7077 12.4920 -23.7905 8.1653 4.2898
# 3 -2.3422 12.4920 13.3478 -0.3023 -6.6362 -3.6460
# 4 -4.5785 -23.7905 -0.3023 37.5173 -2.4188 1.2462
# 5 0.9508 8.1653 -6.6362 -2.4188 27.2703 7.5057
# 6 16.2224 4.2898 -3.6460 1.2462 7.5057 20.5740
#
#
#
# Elastic Compliance Matrix: (Units=1/GPa)
#
#
# Indices 1 2 3 4 5 6 
#
# 1 0.012565 -0.002409 0.003688 0.000639 0.004065 -0.010273
# 2 -0.002409 0.016368 -0.020333 0.009484 -0.008178 -0.002708
# 3 0.003688 -0.020333 0.111947 -0.010024 0.029257 0.011103
# 4 0.000639 0.009484 -0.010024 0.032816 -0.000747 -0.005973
# 5 0.004065 -0.008178 0.029257 -0.000747 0.050027 -0.014521
# 6 -0.010273 -0.002708 0.011103 -0.005973 -0.014521 0.064897
#
#
# Mechanical properties :
#
#
# Convention : Reuss Voigt Hill
#
# Bulk Modulus (GPa) = 9.73005 29.15357 19.44181
# Shear Modulus (GPa) = 13.85106 29.10669 21.47887
#
# Velocity S-wave (km/s) = 2.57386 3.73112 3.20515
# Velocity P-wave (km/s) = 3.67243 5.70135 4.79542
#
# Compressibility (1/GPa) = 0.10277441
#
# Stress axis : x y z
#
# Youngs Moduli (GPa) = 79.58723 61.09373 8.93282
#
# Poissons Ratio (x) = 0.14715 -0.03295
# Poissons Ratio (y) = 0.19170 0.18163
# Poissons Ratio (z) = -0.29355 1.24219
#
# Static dielectric constant tensor:
#      x y z
#    x 1.793310 -0.012430 -0.005870 
#    y -0.012430 1.749210 0.048160 
#    z -0.005870 0.048160 1.830950 
# 
# From -- ./inp_files/224013.got.cif
#   From: 2010.05.17/outbox.cif.g08.bks.cpg/sg2_113_cif.got.tgz:224013.got - 2010.06.03 11:33:40.
