data_PCOD9020926
_publ_section_title
;
Structure prediction by ZEFSAII (Michael W. Deem and Ramdas Pophale) SiO2 
 PCOD9020926
Probable space group: P -1
;
_chemical_formula_sum "Si O2"
_cell_formula_units_Z 16
_cell_length_a 20.084765
_cell_length_b 7.861912
_cell_length_c 11.732407
_cell_angle_alpha 106.214732
_cell_angle_beta 43.267183
_cell_angle_gamma 138.981974
_cell_volume 666.305111
_symmetry_space_group_name_H-M "P -1"
_symmetry_group_IT_number 2
_symmetry_cell_setting 'triclinic'
loop_
_space_group_symop_operation_xyz
x,y,z
-x,-y,-z
loop_
_atom_site_type_symbol
_atom_site_label
_atom_site_fract_x
_atom_site_fract_y
_atom_site_fract_z
Si Si1 0.715100 0.042662 0.026374
Si Si2 0.650961 0.864278 0.520134
Si Si3 0.933367 0.585534 0.312315
Si Si4 0.605149 0.379958 0.044443
Si Si5 0.504558 0.741676 0.451638
Si Si6 0.832004 0.643155 0.252892
Si Si7 0.387885 0.683982 0.230353
Si Si8 0.883820 0.680769 0.926028
O O1 0.668832 0.965873 0.204409
O O2 0.526712 0.772638 0.144367
O O3 0.817751 0.382158 0.934035
O O4 0.868218 0.129552 0.831614
O O5 0.533401 0.689088 0.747781
O O6 0.559364 0.846755 0.533152
O O7 0.622948 0.627327 0.459513
O O8 0.836125 0.245473 0.380599
O O9 0.932600 0.638116 0.189612
O O10 0.796366 0.521336 0.524871
O O11 0.499767 0.034113 0.131068
O O12 0.649805 0.461630 0.872034
O O13 0.771115 0.625184 0.968184
O O14 0.379440 0.692862 0.536307
O O15 0.850118 0.669204 0.099025
O O16 0.914760 0.944733 0.265193
#
# Coordination Sequence:
#
# PCOD9020926 Si02
#       8
#     2   2   2   2   2   2   2   2
#     4  11  23  40  64  92 128 164 207 255 310 365
#     4  10  22  37  62  91 126 166 202 255 314 370
#     4  11  23  40  64  92 128 164 207 255 310 365
#     4   9  18  39  65  89 119 167 208 257 314 359
#     4  11  22  37  61  93 130 162 205 252 311 376
#     4  11  22  37  61  93 130 162 205 252 311 376
#     4   9  20  41  65  91 120 161 215 260 303 363
#     4  10  22  37  62  91 126 166 202 255 314 370
#
# _framework density 24.013024999999999
#
# number of rings (size 3 to 8) (size 9 to 14) (size 15 to 20)
#    0.000    1.750    2.500    1.500    1.750    4.000 
#    0.000   12.500    0.000    0.000    0.000    0.000 
#    0.000    0.000    0.000    0.000    0.000    0.000 
#
# Total GULP energy -89269.557234 kJ/mol
# GULP energy per Si atom -5579.347327 kJ/mol
# Density = 2.395837 g / cm^3
# Si number density = 24.013025 Si / 1000 Ang^3
#
#
#
# Elastic Constant Matrix: (Units=GPa)
#
#
# Indices 1 2 3 4 5 6 
#
# 1 114.1061 33.1419 54.7554 0.3464 -10.3160 15.5370
# 2 33.1419 63.4781 20.4051 -3.6213 -0.3062 0.3985
# 3 54.7554 20.4051 103.0015 -9.8415 -18.6464 33.0080
# 4 0.3464 -3.6213 -9.8415 25.7778 11.3223 4.0506
# 5 -10.3160 -0.3062 -18.6464 11.3223 34.8465 -3.9499
# 6 15.5370 0.3985 33.0080 4.0506 -3.9499 43.8404
#
#
#
# Elastic Compliance Matrix: (Units=1/GPa)
#
#
# Indices 1 2 3 4 5 6 
#
# 1 0.013441 -0.005209 -0.006378 -0.004332 0.002004 0.000667
# 2 -0.005209 0.019334 -0.002271 0.002882 -0.003204 0.002825
# 3 -0.006378 -0.002271 0.018957 0.006899 0.004610 -0.012214
# 4 -0.004332 0.002882 0.006899 0.049943 -0.014886 -0.009641
# 5 0.002004 -0.003204 0.004610 -0.014886 0.036625 0.000524
# 6 0.000667 0.002825 -0.012214 -0.009641 0.000524 0.032682
#
#
# Mechanical properties :
#
#
# Convention : Reuss Voigt Hill
#
# Bulk Modulus (GPa) = 41.63969 55.24340 48.44155
# Shear Modulus (GPa) = 24.18921 32.37849 28.28385
#
# Velocity S-wave (km/s) = 3.17730 3.67600 3.43571
# Velocity P-wave (km/s) = 5.55324 6.40881 5.99630
#
# Compressibility (1/GPa) = 0.02401555
#
# Stress axis : x y z
#
# Youngs Moduli (GPa) = 74.40031 51.72152 52.75131
#
# Poissons Ratio (x) = 0.26941 0.33646
# Poissons Ratio (y) = 0.38754 0.11981
# Poissons Ratio (z) = 0.47454 0.11747
#
# Static dielectric constant tensor:
#      x y z
#    x 1.946360 -0.054110 -0.040860 
#    y -0.054110 1.942500 0.004010 
#    z -0.040860 0.004010 1.989340 
# 
# From -- ./inp_files/224278.got.cif
#   From: 2010.05.17/outbox.cif.g08.bks.cpg/sg2_113_cif.got.tgz:224278.got - 2010.06.03 11:33:40.
