data_PCOD9020403
_publ_section_title
;
Structure prediction by ZEFSAII (Michael W. Deem and Ramdas Pophale) SiO2 
 PCOD9020403
Probable space group: P -1
;
_chemical_formula_sum "Si O2"
_cell_formula_units_Z 16
_cell_length_a 11.915219
_cell_length_b 11.693635
_cell_length_c 8.208590
_cell_angle_alpha 55.319288
_cell_angle_beta 110.780697
_cell_angle_gamma 81.071041
_cell_volume 778.740318
_symmetry_space_group_name_H-M "P -1"
_symmetry_group_IT_number 2
_symmetry_cell_setting 'triclinic'
loop_
_space_group_symop_operation_xyz
x,y,z
-x,-y,-z
loop_
_atom_site_type_symbol
_atom_site_label
_atom_site_fract_x
_atom_site_fract_y
_atom_site_fract_z
Si Si1 0.773625 0.431030 0.733660
Si Si2 0.656786 0.467046 0.298390
Si Si3 0.255738 0.044687 0.574420
Si Si4 0.615916 0.161322 0.498946
Si Si5 0.512811 0.887695 0.245697
Si Si6 0.601033 0.270554 0.896679
Si Si7 0.058086 0.329214 0.086589
Si Si8 0.699131 0.620978 0.884219
O O1 0.737518 0.482841 0.484696
O O2 0.693671 0.332380 0.807713
O O3 0.727640 0.546470 0.776299
O O4 0.936074 0.334940 0.912784
O O5 0.656157 0.299607 0.438688
O O6 0.499729 0.602691 0.128592
O O7 0.712934 0.496809 0.133101
O O8 0.291754 0.953314 0.497438
O O9 0.354262 0.123353 0.591981
O O10 0.107752 0.190671 0.359300
O O11 0.302000 0.901915 0.841834
O O12 0.609218 0.061167 0.730922
O O13 0.457710 0.249265 0.292723
O O14 0.502424 0.742969 0.274597
O O15 0.500000 0.000000 0.000000
O O16 0.192929 0.314367 0.079187
O O17 0.000000 0.500000 0.000000
#
# Coordination Sequence:
#
# PCOD9020403 Si02
#       8
#     2   2   2   2   2   2   2   2
#     4  11  23  42  65  90 136 176 213 256 313 390
#     4  12  23  38  69 104 127 165 212 274 327 373
#     4  11  23  39  65  94 126 167 214 265 327 376
#     4  12  20  38  65  97 131 157 206 282 325 372
#     4  10  22  35  59  96 127 162 204 266 332 370
#     4  11  21  39  65  99 129 161 213 270 328 376
#     4  10  25  43  63  88 127 184 218 252 313 395
#     4  11  22  40  65  97 128 166 220 260 322 381
#
# _framework density 20.546002000000001
#
# number of rings (size 3 to 8) (size 9 to 14) (size 15 to 20)
#    0.000    1.000    5.000    2.625    1.750    1.000 
#    0.000    0.625   11.000    0.000    0.000    0.000 
#    0.000    0.000    0.000    0.000    0.000    0.000 
#
# Total GULP energy -89165.372394 kJ/mol
# GULP energy per Si atom -5572.835775 kJ/mol
# Density = 2.049924 g / cm^3
# Si number density = 20.546002 Si / 1000 Ang^3
#
#
#
# Elastic Constant Matrix: (Units=GPa)
#
#
# Indices 1 2 3 4 5 6 
#
# 1 49.9751 20.8339 18.6596 11.2543 -8.4270 15.1549
# 2 20.8339 82.4916 31.8209 0.8860 5.5887 7.3518
# 3 18.6596 31.8209 108.7672 8.8769 -2.3371 -2.6422
# 4 11.2543 0.8860 8.8769 28.1190 -3.6017 -0.3924
# 5 -8.4270 5.5887 -2.3371 -3.6017 39.2962 3.5232
# 6 15.1549 7.3518 -2.6422 -0.3924 3.5232 31.5040
#
#
#
# Elastic Compliance Matrix: (Units=1/GPa)
#
#
# Indices 1 2 3 4 5 6 
#
# 1 0.032076 -0.005972 -0.003070 -0.010880 0.007921 -0.015315
# 2 -0.005972 0.015339 -0.003767 0.002654 -0.003388 -0.000611
# 3 -0.003070 -0.003767 0.011074 -0.002097 0.000052 0.003253
# 4 -0.010880 0.002654 -0.002097 0.040622 0.000449 0.004894
# 5 0.007921 -0.003388 0.000052 0.000449 0.028226 -0.006166
# 6 -0.015315 -0.000611 0.003253 0.004894 -0.006166 0.040275
#
#
# Mechanical properties :
#
#
# Convention : Reuss Voigt Hill
#
# Bulk Modulus (GPa) = 30.42135 42.65141 36.53638
# Shear Modulus (GPa) = 24.48743 31.11182 27.79963
#
# Velocity S-wave (km/s) = 3.45604 3.89556 3.68236
# Velocity P-wave (km/s) = 5.54655 6.40608 5.99175
#
# Compressibility (1/GPa) = 0.03287165
#
# Stress axis : x y z
#
# Youngs Moduli (GPa) = 31.17617 65.19139 90.30174
#
# Poissons Ratio (x) = 0.38931 0.27718
# Poissons Ratio (y) = 0.18618 0.34021
# Poissons Ratio (z) = 0.09570 0.24560
#
# Static dielectric constant tensor:
#      x y z
#    x 1.735910 -0.017110 -0.017340 
#    y -0.017110 1.779410 0.009500 
#    z -0.017340 0.009500 1.823040 
# 
# From -- ./inp_files/261693.got.cif
#   From: 2010.05.17/outbox.cif.g08.bks.cpg/sg2_131_cif.got.tgz:261693.got - 2010.06.03 11:33:40.
