data_PCOD9020708
_publ_section_title
;
Structure prediction by ZEFSAII (Michael W. Deem and Ramdas Pophale) SiO2 
 PCOD9020708
Probable space group: P -1
;
_chemical_formula_sum "Si O2"
_cell_formula_units_Z 14
_cell_length_a 7.919829
_cell_length_b 11.842258
_cell_length_c 11.136202
_cell_angle_alpha 141.256680
_cell_angle_beta 66.358834
_cell_angle_gamma 101.249917
_cell_volume 586.042441
_symmetry_space_group_name_H-M "P -1"
_symmetry_group_IT_number 2
_symmetry_cell_setting 'triclinic'
loop_
_space_group_symop_operation_xyz
x,y,z
-x,-y,-z
loop_
_atom_site_type_symbol
_atom_site_label
_atom_site_fract_x
_atom_site_fract_y
_atom_site_fract_z
Si Si1 0.162689 0.663285 0.061884
Si Si2 0.737340 0.848774 0.259988
Si Si3 0.799114 0.973470 0.589792
Si Si4 0.722404 0.210778 0.411360
Si Si5 0.072318 0.614494 0.677345
Si Si6 0.687031 0.637941 0.428665
Si Si7 0.237434 0.482648 0.147553
O O1 0.176232 0.606268 0.149945
O O2 0.945267 0.730445 0.140579
O O3 0.262638 0.837267 0.163933
O O4 0.257658 0.494070 0.811753
O O5 0.671928 0.936379 0.481851
O O6 0.756524 0.018221 0.310952
O O7 0.633611 0.699816 0.103092
O O8 0.811560 0.795768 0.522231
O O9 0.000000 0.000000 0.500000
O O10 0.878188 0.215834 0.268307
O O11 0.524602 0.255124 0.435816
O O12 0.711989 0.378621 0.651070
O O13 0.260365 0.493094 0.581480
O O14 0.000000 0.500000 0.500000
O O15 0.915876 0.617145 0.826247
#
# Coordination Sequence:
#
# PCOD9020708 Si02
#       7
#     2   2   2   2   2   2   2
#     4  11  22  38  72  99 127 166 220 268 317 385
#     4  11  21  38  66  98 129 166 221 261 316 380
#     4  10  22  36  67  98 128 161 217 261 318 382
#     4  11  27  41  63  96 139 170 209 266 327 381
#     4  10  23  43  71  90 122 179 225 258 308 389
#     4  12  24  45  65  97 135 169 205 274 334 375
#     4  11  21  43  68  97 128 170 224 261 312 386
#
# _framework density 23.889056
#
# number of rings (size 3 to 8) (size 9 to 14) (size 15 to 20)
#    0.000    1.143    4.286    2.571    6.000    2.857 
#    0.000    0.000    0.000    4.286    0.000    0.000 
#    0.000    0.000    0.000    0.000    0.000    0.000 
#
# Total GULP energy -78168.963013 kJ/mol
# GULP energy per Si atom -5583.497358 kJ/mol
# Density = 2.383468 g / cm^3
# Si number density = 23.889056 Si / 1000 Ang^3
#
#
#
# Elastic Constant Matrix: (Units=GPa)
#
#
# Indices 1 2 3 4 5 6 
#
# 1 52.8407 3.7251 2.9853 -4.0907 -1.4658 -7.7993
# 2 3.7251 140.4165 16.2371 7.8769 4.5898 -2.3791
# 3 2.9853 16.2371 102.4721 23.0433 24.4873 9.9171
# 4 -4.0907 7.8769 23.0433 44.5270 1.1935 12.0327
# 5 -1.4658 4.5898 24.4873 1.1935 34.8647 -0.4361
# 6 -7.7993 -2.3791 9.9171 12.0327 -0.4361 30.5489
#
#
#
# Elastic Compliance Matrix: (Units=1/GPa)
#
#
# Indices 1 2 3 4 5 6 
#
# 1 0.019989 -0.000379 -0.001871 0.001419 0.002220 0.005154
# 2 -0.000379 0.007336 -0.000945 -0.001171 -0.000262 0.001239
# 3 -0.001871 -0.000945 0.013904 -0.006199 -0.009542 -0.002760
# 4 0.001419 -0.001171 -0.006199 0.028291 0.003489 -0.008810
# 5 0.002220 -0.000262 -0.009542 0.003489 0.035427 0.002776
# 6 0.005154 0.001239 -0.002760 -0.008810 0.002776 0.038552
#
#
# Mechanical properties :
#
#
# Convention : Reuss Voigt Hill
#
# Bulk Modulus (GPa) = 28.70256 37.95828 33.33042
# Shear Modulus (GPa) = 30.95893 40.17357 35.56625
#
# Velocity S-wave (km/s) = 3.60383 4.10527 3.86270
# Velocity P-wave (km/s) = 5.41829 6.19636 5.82034
#
# Compressibility (1/GPa) = 0.03484009
#
# Stress axis : x y z
#
# Youngs Moduli (GPa) = 50.02653 136.30859 71.91995
#
# Poissons Ratio (x) = 0.05164 0.13455
# Poissons Ratio (y) = 0.01895 0.06799
# Poissons Ratio (z) = 0.09359 0.12886
#
# Static dielectric constant tensor:
#      x y z
#    x 2.017970 0.054040 -0.024390 
#    y 0.054040 1.911640 0.002920 
#    z -0.024390 0.002920 2.030770 
# 
# From -- ./inp_files/388528.got.cif
#   From: 2010.05.17/outbox.cif.g08.bks.cpg/sg2_195_cif.got.tgz:388528.got - 2010.06.03 11:33:40.
