data_PCOD9020378
_publ_section_title
;
Structure prediction by ZEFSAII (Michael W. Deem and Ramdas Pophale) SiO2 
 PCOD9020378
Probable space group: P -1
;
_chemical_formula_sum "Si O2"
_cell_formula_units_Z 14
_cell_length_a 11.483303
_cell_length_b 14.649457
_cell_length_c 11.961428
_cell_angle_alpha 30.962098
_cell_angle_beta 139.795999
_cell_angle_gamma 129.353483
_cell_volume 666.930812
_symmetry_space_group_name_H-M "P -1"
_symmetry_group_IT_number 2
_symmetry_cell_setting 'triclinic'
loop_
_space_group_symop_operation_xyz
x,y,z
-x,-y,-z
loop_
_atom_site_type_symbol
_atom_site_label
_atom_site_fract_x
_atom_site_fract_y
_atom_site_fract_z
Si Si1 0.363651 0.435748 0.562932
Si Si2 0.448614 0.046934 0.602629
Si Si3 0.310054 0.399368 0.034227
Si Si4 0.416049 0.347984 0.943968
Si Si5 0.986474 0.468531 0.154977
Si Si6 0.652650 0.985799 0.032650
Si Si7 0.963213 0.047400 0.553267
O O1 0.500000 0.500000 0.500000
O O2 0.405075 0.452253 0.707728
O O3 0.342289 0.224792 0.763678
O O4 0.170974 0.516419 0.298288
O O5 0.238217 0.010232 0.509283
O O6 0.435395 0.219997 0.334945
O O7 0.545809 0.862437 0.824238
O O8 0.562252 0.087347 0.754453
O O9 0.414884 0.574254 0.951509
O O10 0.256792 0.389950 0.874134
O O11 0.162373 0.415171 0.007280
O O12 0.956540 0.257669 0.357657
O O13 0.000000 0.500000 0.000000
O O14 0.854782 0.031924 0.166485
O O15 0.500000 0.000000 0.000000
O O16 0.000000 0.000000 0.500000
#
# Coordination Sequence:
#
# PCOD9020378 Si02
#       7
#     2   2   2   2   2   2   2
#     4  10  23  38  63  90 126 165 203 266 321 369
#     4  11  22  41  65  89 128 169 211 260 318 375
#     4  11  23  41  68  92 122 172 214 252 320 385
#     4  10  23  44  64  91 128 167 212 260 313 382
#     4  11  23  38  61  97 128 160 218 259 314 386
#     4  10  22  35  57  91 127 161 211 259 314 383
#     4  11  21  37  59  90 131 168 204 267 320 367
#
# _framework density 20.991683999999999
#
# number of rings (size 3 to 8) (size 9 to 14) (size 15 to 20)
#    0.000    1.429    2.857    2.143    6.000    1.714 
#    0.000    0.000    0.000    3.429    0.000    0.000 
#    0.000    0.000    0.000    0.000    0.000    0.000 
#
# Total GULP energy -77992.779814 kJ/mol
# GULP energy per Si atom -5570.912844 kJ/mol
# Density = 2.094391 g / cm^3
# Si number density = 20.991684 Si / 1000 Ang^3
#
#
#
# Elastic Constant Matrix: (Units=GPa)
#
#
# Indices 1 2 3 4 5 6 
#
# 1 124.2129 37.5025 51.1569 18.9974 -14.2413 -30.5020
# 2 37.5025 76.4649 44.0949 13.0630 -0.0531 -9.7832
# 3 51.1569 44.0949 97.6804 13.5485 -14.8585 -3.3242
# 4 18.9974 13.0630 13.5485 40.3133 -0.9327 -0.9447
# 5 -14.2413 -0.0531 -14.8585 -0.9327 29.9373 2.5246
# 6 -30.5020 -9.7832 -3.3242 -0.9447 2.5246 37.6613
#
#
#
# Elastic Compliance Matrix: (Units=1/GPa)
#
#
# Indices 1 2 3 4 5 6 
#
# 1 0.014309 -0.002025 -0.005177 -0.004031 0.003240 0.010287
# 2 -0.002025 0.019596 -0.008110 -0.002721 -0.005293 0.003021
# 3 -0.005177 -0.008110 0.017555 -0.000800 0.006651 -0.005216
# 4 -0.004031 -0.002721 -0.000800 0.027752 -0.001179 -0.003267
# 5 0.003240 -0.005293 0.006651 -0.001179 0.038263 -0.000758
# 6 0.010287 0.003021 -0.005216 -0.003267 -0.000758 0.035177
#
#
# Mechanical properties :
#
#
# Convention : Reuss Voigt Hill
#
# Bulk Modulus (GPa) = 47.99835 62.65188 55.32512
# Shear Modulus (GPa) = 26.28499 32.62263 29.45381
#
# Velocity S-wave (km/s) = 3.54243 3.94645 3.74989
# Velocity P-wave (km/s) = 6.29657 7.11876 6.72025
#
# Compressibility (1/GPa) = 0.02083405
#
# Stress axis : x y z
#
# Youngs Moduli (GPa) = 69.88850 51.03136 56.96274
#
# Poissons Ratio (x) = 0.10334 0.29492
# Poissons Ratio (y) = 0.14152 0.46199
# Poissons Ratio (z) = 0.36185 0.41388
#
# Static dielectric constant tensor:
#      x y z
#    x 4.358620 -2.493710 1.248700 
#    y -2.493710 5.550960 -1.267970 
#    z 1.248700 -1.267970 2.458910 
# 
# From -- ./inp_files/255694.got.cif
#   From: 2010.05.17/outbox.cif.g08.bks.cpg/sg2_128_cif.got.tgz:255694.got - 2010.06.03 11:33:40.
