data_PCOD9020880
_publ_section_title
;
Structure prediction by ZEFSAII (Michael W. Deem and Ramdas Pophale) SiO2 
 PCOD9020880
Probable space group: P -1
;
_chemical_formula_sum "Si O2"
_cell_formula_units_Z 14
_cell_length_a 7.309188
_cell_length_b 8.539486
_cell_length_c 13.020465
_cell_angle_alpha 133.802561
_cell_angle_beta 91.406717
_cell_angle_gamma 104.256653
_cell_volume 545.943450
_symmetry_space_group_name_H-M "P -1"
_symmetry_group_IT_number 2
_symmetry_cell_setting 'triclinic'
loop_
_space_group_symop_operation_xyz
x,y,z
-x,-y,-z
loop_
_atom_site_type_symbol
_atom_site_label
_atom_site_fract_x
_atom_site_fract_y
_atom_site_fract_z
Si Si1 0.784436 0.853798 0.540014
Si Si2 0.041638 0.269289 0.862221
Si Si3 0.178426 0.340549 0.106120
Si Si4 0.606850 0.651243 0.254479
Si Si5 0.460133 0.185149 0.153223
Si Si6 0.686478 0.374474 0.419573
Si Si7 0.044465 0.572938 0.378763
O O1 0.865643 0.083934 0.712721
O O2 0.660232 0.847538 0.432891
O O3 0.675642 0.627594 0.508617
O O4 0.970632 0.787858 0.474703
O O5 0.235700 0.308124 0.814225
O O6 0.083165 0.186921 0.937503
O O7 0.000000 0.500000 0.000000
O O8 0.381514 0.549215 0.168331
O O9 0.252627 0.200211 0.128155
O O10 0.051460 0.462389 0.219310
O O11 0.609976 0.432767 0.224448
O O12 0.515081 0.174952 0.267219
O O13 0.500000 0.000000 0.000000
O O14 0.745476 0.358525 0.530014
O O15 0.884203 0.385304 0.364387
#
# Coordination Sequence:
#
# PCOD9020880 Si02
#       7
#     2   2   2   2   2   2   2
#     4   9  19  40  62  82 116 160 198 242 289 348
#     4  12  24  39  61  88 118 157 205 245 292 346
#     4  10  22  37  61  88 122 149 199 244 296 345
#     4   9  21  42  58  82 125 156 195 242 291 348
#     4   9  20  37  59  86 123 152 189 244 305 341
#     4   8  18  36  61  82 124 152 197 233 297 353
#     4   9  17  36  62  87 115 154 197 239 288 360
#
# _framework density 25.643681000000001
#
# number of rings (size 3 to 8) (size 9 to 14) (size 15 to 20)
#    1.714    0.857    0.000    1.714    2.000    0.571 
#    2.571    5.714    0.000    0.000    0.000    0.000 
#    0.000    0.000    0.000    0.000    0.000    0.000 
#
# Total GULP energy -78179.296221 kJ/mol
# GULP energy per Si atom -5584.235444 kJ/mol
# Density = 2.558531 g / cm^3
# Si number density = 25.643681 Si / 1000 Ang^3
#
#
#
# Elastic Constant Matrix: (Units=GPa)
#
#
# Indices 1 2 3 4 5 6 
#
# 1 65.5400 21.6244 37.5005 -9.0895 -13.0498 1.6541
# 2 21.6244 58.0864 25.0397 -11.4315 2.0358 21.4631
# 3 37.5005 25.0397 199.7587 -21.3778 -1.9177 2.9682
# 4 -9.0895 -11.4315 -21.3778 38.0520 -3.9425 -1.0015
# 5 -13.0498 2.0358 -1.9177 -3.9425 33.7712 -10.9098
# 6 1.6541 21.4631 2.9682 -1.0015 -10.9098 42.7578
#
#
#
# Elastic Compliance Matrix: (Units=1/GPa)
#
#
# Indices 1 2 3 4 5 6 
#
# 1 0.022582 -0.009902 -0.002749 0.002292 0.011810 0.007355
# 2 -0.009902 0.028668 -0.001153 0.004079 -0.010476 -0.016505
# 3 -0.002749 -0.001153 0.005905 0.002289 -0.000309 0.000250
# 4 0.002292 0.004079 0.002289 0.029745 0.004061 -0.000563
# 5 0.011810 -0.010476 -0.000309 0.004061 0.040162 0.015166
# 6 0.007355 -0.016505 0.000250 -0.000563 0.015166 0.035227
#
#
# Mechanical properties :
#
#
# Convention : Reuss Voigt Hill
#
# Bulk Modulus (GPa) = 33.84576 54.63492 44.24034
# Shear Modulus (GPa) = 25.03194 38.86425 31.94810
#
# Velocity S-wave (km/s) = 3.12772 3.89723 3.53348
# Velocity P-wave (km/s) = 5.12549 6.45003 5.82553
#
# Compressibility (1/GPa) = 0.02954580
#
# Stress axis : x y z
#
# Youngs Moduli (GPa) = 44.28379 34.88240 169.35208
#
# Poissons Ratio (x) = 0.34542 0.46547
# Poissons Ratio (y) = 0.43851 0.19531
# Poissons Ratio (z) = 0.12172 0.04023
#
# Static dielectric constant tensor:
#      x y z
#    x 2.144950 -0.005410 0.065130 
#    y -0.005410 2.106590 0.005840 
#    z 0.065130 0.005840 2.017410 
# 
# From -- ./inp_files/501151.got.cif
#   From: 2010.05.17/outbox.cif.g08.bks.cpg/sg2_251_cif.got.tgz:501151.got - 2010.06.03 11:33:40.
