data_PCOD9020941
_publ_section_title
;
Structure prediction by ZEFSAII (Michael W. Deem and Ramdas Pophale) SiO2 
 PCOD9020941
Probable space group: P -1
;
_chemical_formula_sum "Si O2"
_cell_formula_units_Z 10
_cell_length_a 9.249061
_cell_length_b 11.832078
_cell_length_c 9.129976
_cell_angle_alpha 36.645497
_cell_angle_beta 102.861400
_cell_angle_gamma 126.069102
_cell_volume 412.392232
_symmetry_space_group_name_H-M "P -1"
_symmetry_group_IT_number 2
_symmetry_cell_setting 'triclinic'
loop_
_space_group_symop_operation_xyz
x,y,z
-x,-y,-z
loop_
_atom_site_type_symbol
_atom_site_label
_atom_site_fract_x
_atom_site_fract_y
_atom_site_fract_z
Si Si1 0.381082 0.256057 0.081285
Si Si2 0.042548 0.822931 0.233795
Si Si3 0.271020 0.768108 0.119385
Si Si4 0.766851 0.140686 0.315394
Si Si5 0.204424 0.414104 0.067719
O O1 0.262156 0.338666 0.018659
O O2 0.399302 0.136743 0.351815
O O3 0.628289 0.502740 0.856192
O O4 0.243071 0.017785 0.183789
O O5 0.844789 0.536548 0.558758
O O6 0.115798 0.774833 0.157791
O O7 0.000000 0.000000 0.000000
O O8 0.286408 0.835471 0.882609
O O9 0.500000 0.000000 0.000000
O O10 0.967468 0.183914 0.309336
O O11 0.802528 0.363366 0.185295
#
# Coordination Sequence:
#
# PCOD9020941 Si02
#       5
#     2   2   2   2   2
#     4  11  23  40  65  94 124 163 211 260 314 373
#     4  11  25  44  65  94 132 169 211 263 317 379
#     4  11  26  44  65  94 130 172 213 259 320 380
#     4  11  22  40  65  92 124 163 211 261 309 373
#     4  10  22  37  62  95 125 159 205 260 317 370
#
# _framework density 24.248760000000001
#
# number of rings (size 3 to 8) (size 9 to 14) (size 15 to 20)
#    0.000    1.200    0.000    6.000    0.000   10.400 
#    0.000    0.000    0.000    0.000    0.000    0.000 
#    0.000    0.000    0.000    0.000    0.000    0.000 
#
# Total GULP energy -55893.027287 kJ/mol
# GULP energy per Si atom -5589.302729 kJ/mol
# Density = 2.419357 g / cm^3
# Si number density = 24.248760 Si / 1000 Ang^3
#
#
#
# Elastic Constant Matrix: (Units=GPa)
#
#
# Indices 1 2 3 4 5 6 
#
# 1 120.4672 3.2176 12.0541 3.2750 11.8568 2.1168
# 2 3.2176 103.4084 38.3012 -6.8430 0.6894 11.7835
# 3 12.0541 38.3012 96.4149 10.4938 20.5204 -0.4467
# 4 3.2750 -6.8430 10.4938 31.3098 -1.8520 -5.3609
# 5 11.8568 0.6894 20.5204 -1.8520 32.7387 -13.6753
# 6 2.1168 11.7835 -0.4467 -5.3609 -13.6753 56.4501
#
#
#
# Elastic Compliance Matrix: (Units=1/GPa)
#
#
# Indices 1 2 3 4 5 6 
#
# 1 0.008743 -0.000150 -0.000096 -0.001364 -0.003737 -0.001332
# 2 -0.000150 0.012397 -0.006139 0.004745 0.003337 -0.001372
# 3 -0.000096 -0.006139 0.016029 -0.007711 -0.011165 -0.002025
# 4 -0.001364 0.004745 -0.007711 0.037073 0.009320 0.004778
# 5 -0.003737 0.003337 -0.011165 0.009320 0.043896 0.010874
# 6 -0.001332 -0.001372 -0.002025 0.004778 0.010874 0.021123
#
#
# Mechanical properties :
#
#
# Convention : Reuss Voigt Hill
#
# Bulk Modulus (GPa) = 40.98562 47.49293 44.23927
# Shear Modulus (GPa) = 31.21830 41.88088 36.54959
#
# Velocity S-wave (km/s) = 3.59195 4.16039 3.88658
# Velocity P-wave (km/s) = 5.84309 6.53504 6.19872
#
# Compressibility (1/GPa) = 0.02439880
#
# Stress axis : x y z
#
# Youngs Moduli (GPa) = 114.37862 80.66517 62.38822
#
# Poissons Ratio (x) = 0.01211 0.00598
# Poissons Ratio (y) = 0.01717 0.38300
# Poissons Ratio (z) = 0.01096 0.49520
#
# Static dielectric constant tensor:
#      x y z
#    x 1.951160 0.018790 -0.033170 
#    y 0.018790 1.998940 -0.035510 
#    z -0.033170 -0.035510 1.933010 
# 
# From -- ./inp_files/173896.got.cif
#   From: 2010.05.17/outbox.cif.g08.bks.cpg/sg2_87_cif.got.tgz:173896.got - 2010.06.03 11:33:40.
