data_PCOD9020146
_publ_section_title
;
Structure prediction by ZEFSAII (Michael W. Deem and Ramdas Pophale) SiO2 
 PCOD9020146
Probable space group: P -1
;
_chemical_formula_sum "Si O2"
_cell_formula_units_Z 15
_cell_length_a 9.505901
_cell_length_b 12.803672
_cell_length_c 12.688662
_cell_angle_alpha 148.577300
_cell_angle_beta 127.271928
_cell_angle_gamma 47.998983
_cell_volume 595.936540
_symmetry_space_group_name_H-M "P -1"
_symmetry_group_IT_number 2
_symmetry_cell_setting 'triclinic'
loop_
_space_group_symop_operation_xyz
x,y,z
-x,-y,-z
loop_
_atom_site_type_symbol
_atom_site_label
_atom_site_fract_x
_atom_site_fract_y
_atom_site_fract_z
Si Si1 0.384974 0.120426 0.151328
Si Si2 0.111915 0.176343 0.335425
Si Si3 0.530338 0.048897 0.382157
Si Si4 0.675874 0.570283 0.106656
Si Si5 0.045409 0.756008 0.896600
Si Si6 0.100960 0.818934 0.545692
Si Si7 0.500000 0.500000 0.500000
Si Si8 0.844659 0.266148 0.733186
O O1 0.357569 0.371320 0.352060
O O2 0.171564 0.122460 0.059817
O O3 0.496187 0.007410 0.209168
O O4 0.500000 0.000000 0.000000
O O5 0.975588 0.296913 0.280788
O O6 0.015807 0.211434 0.434827
O O7 0.316960 0.194033 0.444796
O O8 0.148661 0.926280 0.105557
O O9 0.676394 0.170693 0.562648
O O10 0.606922 0.826784 0.289235
O O11 0.757700 0.471759 0.944336
O O12 0.500000 0.500000 0.000000
O O13 0.842452 0.446212 0.156141
O O14 0.320329 0.723912 0.592647
O O15 0.090917 0.705382 0.331281
O O16 0.016143 0.073802 0.699832
#
# Coordination Sequence:
#
# PCOD9020146 Si02
#       8
#     2   2   2   2   2   2   1   2
#     4  11  26  45  73 101 146 190 242 302 354 424
#     4  10  21  46  74 102 150 185 241 303 356 425
#     4  11  25  47  74 111 142 194 238 299 365 429
#     4  12  25  45  75 108 143 193 240 292 362 435
#     4  10  22  43  69 107 137 189 243 291 357 425
#     4  11  24  45  71 102 146 192 231 306 351 430
#     4  12  26  46  68 106 140 194 248 286 364 422
#     4  11  26  47  71 107 152 187 238 298 366 428
#
# _framework density 25.170465
#
# number of rings (size 3 to 8) (size 9 to 14) (size 15 to 20)
#    0.000    1.067    4.000    0.800    3.733    3.200 
#    0.000    4.667    0.000    0.000    0.000    0.000 
#    0.000    0.000    0.000    0.000    0.000    0.000 
#
# Total GULP energy -83848.664283 kJ/mol
# GULP energy per Si atom -5589.910952 kJ/mol
# Density = 2.511318 g / cm^3
# Si number density = 25.170465 Si / 1000 Ang^3
#
#
#
# Elastic Constant Matrix: (Units=GPa)
#
#
# Indices 1 2 3 4 5 6 
#
# 1 126.4363 51.0383 28.5961 -18.5708 -27.0475 6.8514
# 2 51.0383 167.8693 38.1863 -22.7362 -10.9445 -6.8563
# 3 28.5961 38.1863 75.3470 -3.7904 -9.9432 9.3423
# 4 -18.5708 -22.7362 -3.7904 24.0807 7.2662 -7.8242
# 5 -27.0475 -10.9445 -9.9432 7.2662 57.1629 -11.0025
# 6 6.8514 -6.8563 9.3423 -7.8242 -11.0025 46.0368
#
#
#
# Elastic Compliance Matrix: (Units=1/GPa)
#
#
# Indices 1 2 3 4 5 6 
#
# 1 0.010712 -0.001715 -0.002495 0.005270 0.003721 0.000442
# 2 -0.001715 0.008433 -0.003702 0.007210 -0.000090 0.003466
# 3 -0.002495 -0.003702 0.016480 -0.004379 0.000747 -0.004090
# 4 0.005270 0.007210 -0.004379 0.055612 -0.002003 0.010151
# 5 0.003721 -0.000090 0.000747 -0.002003 0.020354 0.003805
# 6 0.000442 0.003466 -0.004090 0.010151 0.003805 0.025637
#
#
# Mechanical properties :
#
#
# Convention : Reuss Voigt Hill
#
# Bulk Modulus (GPa) = 50.50104 67.25490 58.87797
# Shear Modulus (GPa) = 31.31818 42.24486 36.78152
#
# Velocity S-wave (km/s) = 3.53121 4.10121 3.82684
# Velocity P-wave (km/s) = 6.06078 7.01458 6.55505
#
# Compressibility (1/GPa) = 0.01980157
#
# Stress axis : x y z
#
# Youngs Moduli (GPa) = 93.35537 118.58573 60.67841
#
# Poissons Ratio (x) = 0.20336 0.15139
# Poissons Ratio (y) = 0.16009 0.22462
# Poissons Ratio (z) = 0.23291 0.43899
#
# Static dielectric constant tensor:
#      x y z
#    x 2.032060 0.037530 0.042560 
#    y 0.037530 1.937940 -0.041710 
#    z 0.042560 -0.041710 2.023670 
# 
# From -- ./inp_files/393320.got.cif
#   From: 2010.05.17/outbox.cif.g08.bks.cpg/sg2_197_cif.got.tgz:393320.got - 2010.06.03 11:33:40.
