data_PCOD9020215
_publ_section_title
;
Structure prediction by ZEFSAII (Michael W. Deem and Ramdas Pophale) SiO2 
 PCOD9020215
Probable space group: P -1
;
_chemical_formula_sum "Si O2"
_cell_formula_units_Z 16
_cell_length_a 12.202392
_cell_length_b 7.348569
_cell_length_c 11.048868
_cell_angle_alpha 43.243781
_cell_angle_beta 104.415911
_cell_angle_gamma 104.651643
_cell_volume 653.559972
_symmetry_space_group_name_H-M "P -1"
_symmetry_group_IT_number 2
_symmetry_cell_setting 'triclinic'
loop_
_space_group_symop_operation_xyz
x,y,z
-x,-y,-z
loop_
_atom_site_type_symbol
_atom_site_label
_atom_site_fract_x
_atom_site_fract_y
_atom_site_fract_z
Si Si1 0.919619 0.112486 0.521808
Si Si2 0.305079 0.283250 0.001431
Si Si3 0.891652 0.052584 0.027115
Si Si4 0.127986 0.379577 0.555557
Si Si5 0.452738 0.893796 0.343889
Si Si6 0.704308 0.273519 0.402214
Si Si7 0.668600 0.632153 0.565268
Si Si8 0.815435 0.585487 0.856550
O O1 0.892678 0.868862 0.727657
O O2 0.797822 0.144518 0.411338
O O3 0.000000 0.000000 0.500000
O O4 0.005370 0.370327 0.462915
O O5 0.236645 0.424787 0.018501
O O6 0.218206 0.039987 0.042014
O O7 0.413472 0.159004 0.145991
O O8 0.335265 0.484883 0.801515
O O9 0.881743 0.346150 0.937917
O O10 0.882462 0.851609 0.235183
O O11 0.000000 0.000000 0.000000
O O12 0.196434 0.635492 0.513944
O O13 0.219319 0.328537 0.503689
O O14 0.393575 0.860274 0.475283
O O15 0.585175 0.861897 0.411391
O O16 0.401641 0.642820 0.368711
O O17 0.708804 0.600563 0.728712
#
# Coordination Sequence:
#
# PCOD9020215 Si02
#       8
#     2   2   2   2   2   2   2   2
#     4  12  24  38  64  97 134 175 223 276 336 414
#     4  11  24  44  69 102 137 177 231 279 337 410
#     4  11  26  43  66 101 141 181 228 276 340 410
#     4  10  23  42  67  96 133 183 221 281 338 407
#     4  10  21  47  71  97 137 180 229 285 337 400
#     4  10  24  44  67  99 136 178 229 278 341 404
#     4  10  22  43  72  97 133 183 226 281 344 400
#     4  12  25  42  69  99 142 180 221 286 343 398
#
# _framework density 24.481304000000002
#
# number of rings (size 3 to 8) (size 9 to 14) (size 15 to 20)
#    0.000    1.250    3.750    1.125    5.250    1.500 
#    2.250    3.125    0.000    0.000    0.000    0.000 
#    0.000    0.000    0.000    0.000    0.000    0.000 
#
# Total GULP energy -89434.979984 kJ/mol
# GULP energy per Si atom -5589.686249 kJ/mol
# Density = 2.442558 g / cm^3
# Si number density = 24.481304 Si / 1000 Ang^3
#
#
#
# Elastic Constant Matrix: (Units=GPa)
#
#
# Indices 1 2 3 4 5 6 
#
# 1 129.8256 3.8785 28.2662 1.8312 25.9797 11.1014
# 2 3.8785 81.2839 3.4803 -3.9807 3.3951 6.3817
# 3 28.2662 3.4803 100.7609 -7.4479 16.3387 -9.5381
# 4 1.8312 -3.9807 -7.4479 36.2669 -12.0181 8.3457
# 5 25.9797 3.3951 16.3387 -12.0181 25.0433 -6.0652
# 6 11.1014 6.3817 -9.5381 8.3457 -6.0652 33.0187
#
#
#
# Elastic Compliance Matrix: (Units=1/GPa)
#
#
# Indices 1 2 3 4 5 6 
#
# 1 0.011532 0.000390 -0.001809 -0.004279 -0.014350 -0.006030
# 2 0.000390 0.012726 -0.000447 0.001418 -0.001992 -0.003444
# 3 -0.001809 -0.000447 0.011525 0.000109 -0.004774 0.003119
# 4 -0.004279 0.001418 0.000109 0.035629 0.020284 -0.004083
# 5 -0.014350 -0.001992 -0.004774 0.020284 0.070771 0.011704
# 6 -0.006030 -0.003444 0.003119 -0.004083 0.011704 0.037062
#
#
# Mechanical properties :
#
#
# Convention : Reuss Voigt Hill
#
# Bulk Modulus (GPa) = 31.19924 42.56895 36.88409
# Shear Modulus (GPa) = 25.81833 37.28212 31.55023
#
# Velocity S-wave (km/s) = 3.25101 3.90665 3.59381
# Velocity P-wave (km/s) = 5.18303 6.14616 5.68503
#
# Compressibility (1/GPa) = 0.03205206
#
# Stress axis : x y z
#
# Youngs Moduli (GPa) = 86.71214 78.57841 86.76924
#
# Poissons Ratio (x) = -0.03068 0.15695
# Poissons Ratio (y) = -0.03385 0.03881
# Poissons Ratio (z) = 0.15684 0.03515
#
# Static dielectric constant tensor:
#      x y z
#    x 1.779010 0.230010 -0.025380 
#    y 0.230010 1.768550 0.032920 
#    z -0.025380 0.032920 1.916050 
# 
# From -- ./inp_files/416114.got.cif
#   From: 2010.05.17/outbox.cif.g08.bks.cpg/sg2_209_cif.got.tgz:416114.got - 2010.06.03 11:33:40.
