data_PCOD9020018
_publ_section_title
;
Structure prediction by ZEFSAII (Michael W. Deem and Ramdas Pophale) SiO2 
 PCOD9020018
Probable space group: P -1
;
_chemical_formula_sum "Si O2"
_cell_formula_units_Z 16
_cell_length_a 14.058818
_cell_length_b 14.145984
_cell_length_c 15.966293
_cell_angle_alpha 27.822506
_cell_angle_beta 41.753032
_cell_angle_gamma 31.247346
_cell_volume 768.109582
_symmetry_space_group_name_H-M "P -1"
_symmetry_group_IT_number 2
_symmetry_cell_setting 'triclinic'
loop_
_space_group_symop_operation_xyz
x,y,z
-x,-y,-z
loop_
_atom_site_type_symbol
_atom_site_label
_atom_site_fract_x
_atom_site_fract_y
_atom_site_fract_z
Si Si1 0.302765 0.218324 0.415627
Si Si2 0.584165 0.932076 0.864190
Si Si3 0.674097 0.335024 0.954134
Si Si4 0.653230 0.096893 0.518684
Si Si5 0.095854 0.048160 0.761691
Si Si6 0.826840 0.321188 0.146680
Si Si7 0.675443 0.359964 0.752217
Si Si8 0.250928 0.069167 0.068096
O O1 0.264081 0.488112 0.232365
O O2 0.500000 0.000000 0.500000
O O3 0.288527 0.143114 0.389883
O O4 0.165317 0.205286 0.568409
O O5 0.621894 0.048240 0.671059
O O6 0.683867 0.923593 0.889090
O O7 0.681775 0.629733 0.015843
O O8 0.368072 0.101570 0.899205
O O9 0.620697 0.309121 0.917065
O O10 0.500000 0.500000 0.000000
O O11 0.831360 0.064163 0.106079
O O12 0.786098 0.174518 0.355523
O O13 0.461262 0.338792 0.414367
O O14 0.186100 0.793839 0.841590
O O15 0.884394 0.226858 0.738140
O O16 0.029931 0.243115 0.074936
O O17 0.675858 0.215593 0.784840
#
# Coordination Sequence:
#
# PCOD9020018 Si02
#       8
#     2   2   2   2   2   2   2   2
#     4  11  21  39  59  91 120 159 217 249 307 382
#     4  11  23  43  68  95 128 169 214 259 329 374
#     4  12  22  38  66  87 121 171 204 252 317 371
#     4  11  23  41  67  90 126 177 204 265 322 374
#     4  10  23  40  61  92 125 164 209 261 308 374
#     4  10  21  46  65  93 134 162 214 265 316 377
#     4  11  23  43  59  90 132 160 211 265 310 374
#     4  10  24  43  66  97 128 165 215 270 310 388
#
# _framework density 20.830359999999999
#
# number of rings (size 3 to 8) (size 9 to 14) (size 15 to 20)
#    0.000    1.250    3.750    2.250    1.750    1.500 
#   11.250    0.000    0.000    0.000    0.000    0.000 
#    0.000    0.000    0.000    0.000    0.000    0.000 
#
# Total GULP energy -89293.332695 kJ/mol
# GULP energy per Si atom -5580.833293 kJ/mol
# Density = 2.078295 g / cm^3
# Si number density = 20.830360 Si / 1000 Ang^3
#
#
#
# Elastic Constant Matrix: (Units=GPa)
#
#
# Indices 1 2 3 4 5 6 
#
# 1 89.0144 40.7239 47.2537 8.2238 -12.8986 6.5712
# 2 40.7239 99.9845 37.5547 21.3249 -7.5574 -8.7797
# 3 47.2537 37.5547 102.6444 22.7793 4.7061 7.7869
# 4 8.2238 21.3249 22.7793 28.8249 2.8476 -4.8931
# 5 -12.8986 -7.5574 4.7061 2.8476 24.7737 6.8105
# 6 6.5712 -8.7797 7.7869 -4.8931 6.8105 39.6029
#
#
#
# Elastic Compliance Matrix: (Units=1/GPa)
#
#
# Indices 1 2 3 4 5 6 
#
# 1 0.019356 -0.005059 -0.007799 0.002564 0.010920 -0.004361
# 2 -0.005059 0.014818 -0.001680 -0.007891 0.002263 0.003091
# 3 -0.007799 -0.001680 0.016491 -0.009394 -0.005950 -0.002458
# 4 0.002564 -0.007891 -0.009394 0.049070 -0.006827 0.006909
# 5 0.010920 0.002263 -0.005950 -0.006827 0.051355 -0.009815
# 6 -0.004361 0.003091 -0.002458 0.006909 -0.009815 0.029684
#
#
# Mechanical properties :
#
#
# Convention : Reuss Voigt Hill
#
# Bulk Modulus (GPa) = 46.31592 60.30090 53.30841
# Shear Modulus (GPa) = 23.03652 29.71436 26.37544
#
# Velocity S-wave (km/s) = 3.32913 3.78099 3.56223
# Velocity P-wave (km/s) = 6.08774 6.93344 6.52431
#
# Compressibility (1/GPa) = 0.02159085
#
# Stress axis : x y z
#
# Youngs Moduli (GPa) = 51.66354 67.48359 60.63772
#
# Poissons Ratio (x) = 0.34139 0.47290
# Poissons Ratio (y) = 0.26136 0.10186
# Poissons Ratio (z) = 0.40291 0.11335
#
# Static dielectric constant tensor:
#      x y z
#    x 1.718760 0.028190 -0.013380 
#    y 0.028190 1.785410 0.057900 
#    z -0.013380 0.057900 1.728590 
# 
# From -- ./inp_files/519877.got.cif
#   From: 2010.05.17/outbox.cif.g08.bks.cpg/sg2_260_cif.got.tgz:519877.got - 2010.06.03 11:33:40.
