data_PCOD9020377
_publ_section_title
;
Structure prediction by ZEFSAII (Michael W. Deem and Ramdas Pophale) SiO2 
 PCOD9020377
Probable space group: P -1
;
_chemical_formula_sum "Si O2"
_cell_formula_units_Z 16
_cell_length_a 10.154892
_cell_length_b 7.450773
_cell_length_c 13.296150
_cell_angle_alpha 98.525054
_cell_angle_beta 76.028941
_cell_angle_gamma 133.904621
_cell_volume 703.119094
_symmetry_space_group_name_H-M "P -1"
_symmetry_group_IT_number 2
_symmetry_cell_setting 'triclinic'
loop_
_space_group_symop_operation_xyz
x,y,z
-x,-y,-z
loop_
_atom_site_type_symbol
_atom_site_label
_atom_site_fract_x
_atom_site_fract_y
_atom_site_fract_z
Si Si1 0.169491 0.318062 0.222269
Si Si2 0.662571 0.020087 0.630454
Si Si3 0.744095 0.453995 0.307466
Si Si4 0.001747 0.540796 0.620314
Si Si5 0.685537 0.752126 0.437112
Si Si6 0.875296 0.105728 0.102465
Si Si7 0.987301 0.823330 0.125130
Si Si8 0.540804 0.815231 0.276164
O O1 0.056603 0.306344 0.333846
O O2 0.381724 0.560124 0.223743
O O3 0.065689 0.320668 0.147086
O O4 0.126524 0.068481 0.190370
O O5 0.479301 0.753372 0.687323
O O6 0.732342 0.957380 0.521489
O O7 0.844900 0.260926 0.673997
O O8 0.569432 0.131765 0.635899
O O9 0.802127 0.679049 0.386055
O O10 0.856759 0.577205 0.194376
O O11 0.808052 0.341626 0.352464
O O12 0.000000 0.500000 0.500000
O O13 0.500000 0.500000 0.500000
O O14 0.642287 0.787724 0.337694
O O15 0.864814 0.875340 0.101515
O O16 0.693274 0.017363 0.182719
O O17 0.904170 0.169832 0.985779
#
# Coordination Sequence:
#
# PCOD9020377 Si02
#       8
#     2   2   2   2   2   2   2   2
#     4   9  21  38  60  88 121 153 205 245 290 368
#     4  10  25  39  58  86 124 165 200 238 298 368
#     4  11  23  41  60  86 128 156 202 257 296 350
#     4  11  26  39  60  90 122 168 203 237 300 365
#     4  10  22  35  57  89 119 162 204 244 294 351
#     4   9  19  40  64  90 116 155 207 249 311 347
#     4   9  20  41  64  89 117 154 204 259 301 351
#     4  11  20  38  63  85 122 163 198 247 304 361
#
# _framework density 22.755748000000001
#
# number of rings (size 3 to 8) (size 9 to 14) (size 15 to 20)
#    0.750    1.250    1.250    1.125   12.250    3.000 
#    0.000    2.500    0.000    3.000    0.000    0.000 
#    0.000    0.000    0.000    0.000    0.000    0.000 
#
# Total GULP energy -89165.315265 kJ/mol
# GULP energy per Si atom -5572.832204 kJ/mol
# Density = 2.270395 g / cm^3
# Si number density = 22.755748 Si / 1000 Ang^3
#
#
#
# Elastic Constant Matrix: (Units=GPa)
#
#
# Indices 1 2 3 4 5 6 
#
# 1 43.0737 4.1408 0.4326 -2.0589 -11.3076 9.3276
# 2 4.1408 111.7412 34.4977 6.6635 4.3350 21.3776
# 3 0.4326 34.4977 119.3882 -12.4250 -21.7774 7.9345
# 4 -2.0589 6.6635 -12.4250 32.8997 -1.7670 -0.5205
# 5 -11.3076 4.3350 -21.7774 -1.7670 21.7824 2.4823
# 6 9.3276 21.3776 7.9345 -0.5205 2.4823 31.0085
#
#
#
# Elastic Compliance Matrix: (Units=1/GPa)
#
#
# Indices 1 2 3 4 5 6 
#
# 1 0.033293 -0.002469 0.006917 0.006433 0.026591 -0.012103
# 2 -0.002469 0.012486 -0.005385 -0.005289 -0.008911 -0.005863
# 3 0.006917 -0.005385 0.014727 0.008127 0.020459 -0.003638
# 4 0.006433 -0.005289 0.008127 0.035756 0.015532 -0.001012
# 5 0.026591 -0.008911 0.020459 0.015532 0.084752 -0.013614
# 6 -0.012103 -0.005863 -0.003638 -0.001012 -0.013614 0.041936
#
#
# Mechanical properties :
#
#
# Convention : Reuss Voigt Hill
#
# Bulk Modulus (GPa) = 17.05577 39.14948 28.10263
# Shear Modulus (GPa) = 20.46100 32.81358 26.63729
#
# Velocity S-wave (km/s) = 3.00185 3.80148 3.42508
# Velocity P-wave (km/s) = 4.41885 6.04234 5.29321
#
# Compressibility (1/GPa) = 0.05863117
#
# Stress axis : x y z
#
# Youngs Moduli (GPa) = 30.03644 80.08946 67.90474
#
# Poissons Ratio (x) = 0.19773 -0.46969
# Poissons Ratio (y) = 0.07416 0.36568
# Poissons Ratio (z) = -0.20776 0.43130
#
# Static dielectric constant tensor:
#      x y z
#    x 1.856580 -0.046250 -0.050510 
#    y -0.046250 1.977080 0.033700 
#    z -0.050510 0.033700 1.848670 
# 
# From -- ./inp_files/417574.got.cif
#   From: 2010.05.17/outbox.cif.g08.bks.cpg/sg2_209_cif.got.tgz:417574.got - 2010.06.03 11:33:40.
