data_PCOD9020366
_publ_section_title
;
Structure prediction by ZEFSAII (Michael W. Deem and Ramdas Pophale) SiO2 
 PCOD9020366
Probable space group: P -1
;
_chemical_formula_sum "Si O2"
_cell_formula_units_Z 14
_cell_length_a 16.159684
_cell_length_b 12.064379
_cell_length_c 16.293873
_cell_angle_alpha 140.048039
_cell_angle_beta 18.570555
_cell_angle_gamma 140.868474
_cell_volume 630.684237
_symmetry_space_group_name_H-M "P -1"
_symmetry_group_IT_number 2
_symmetry_cell_setting 'triclinic'
loop_
_space_group_symop_operation_xyz
x,y,z
-x,-y,-z
loop_
_atom_site_type_symbol
_atom_site_label
_atom_site_fract_x
_atom_site_fract_y
_atom_site_fract_z
Si Si1 0.133762 0.725192 0.415306
Si Si2 0.973946 0.130491 0.969793
Si Si3 0.055404 0.259649 0.148347
Si Si4 0.659092 0.444588 0.724238
Si Si5 0.603633 0.866662 0.559544
Si Si6 0.354223 0.201334 0.332921
Si Si7 0.801873 0.224424 0.801375
O O1 0.283936 0.619040 0.274615
O O2 0.192235 0.697169 0.249921
O O3 0.814868 0.651087 0.687277
O O4 0.234288 0.930637 0.459449
O O5 0.008181 0.237651 0.083328
O O6 0.215501 0.196264 0.715515
O O7 0.689953 0.132559 0.197164
O O8 0.974770 0.930907 0.886334
O O9 0.357017 0.367669 0.940876
O O10 0.837835 0.349033 0.444118
O O11 0.585218 0.774145 0.613575
O O12 0.094848 0.267761 0.589707
O O13 0.281879 0.989047 0.258987
O O14 0.598580 0.278170 0.086164
#
# Coordination Sequence:
#
# PCOD9020366 Si02
#       7
#     2   2   2   2   2   2   2
#     4  10  22  35  56  80 117 143 179 209 272 322
#     4  11  21  35  57  78 108 143 179 229 267 307
#     4  11  22  38  53  77 109 146 188 217 260 313
#     4  11  23  37  53  81 111 152 177 215 252 335
#     4  11  20  35  56  86 108 141 172 227 274 320
#     4   9  18  31  51  75 108 132 176 213 271 315
#     4   9  18  32  48  76 106 143 166 216 259 324
#
# _framework density 22.198112999999999
#
# number of rings (size 3 to 8) (size 9 to 14) (size 15 to 20)
#    0.000    1.714    2.857    1.714    0.000   11.429 
#    0.000    0.000    0.000    0.000    0.000   20.000 
#    0.000    0.000    0.000    0.000    0.000    0.000 
#
# Total GULP energy -78344.947743 kJ/mol
# GULP energy per Si atom -5596.067696 kJ/mol
# Density = 2.214759 g / cm^3
# Si number density = 22.198113 Si / 1000 Ang^3
#
#
#
# Elastic Constant Matrix: (Units=GPa)
#
#
# Indices 1 2 3 4 5 6 
#
# 1 165.6239 9.5235 55.5161 -1.5453 45.3801 -12.7984
# 2 9.5235 17.1287 4.9756 -5.3864 10.6267 -3.1204
# 3 55.5161 4.9756 132.9245 -11.1629 35.3074 -5.6753
# 4 -1.5453 -5.3864 -11.1629 18.0345 -10.0903 8.6602
# 5 45.3801 10.6267 35.3074 -10.0903 26.2779 -7.7028
# 6 -12.7984 -3.1204 -5.6753 8.6602 -7.7028 27.1043
#
#
#
# Elastic Compliance Matrix: (Units=1/GPa)
#
#
# Indices 1 2 3 4 5 6 
#
# 1 0.016176 0.011065 0.002575 -0.018984 -0.042118 0.003547
# 2 0.011065 0.093010 0.011034 -0.005266 -0.073883 -0.001071
# 3 0.002575 0.011034 0.013255 -0.003401 -0.028540 -0.001763
# 4 -0.018984 -0.005266 -0.003401 0.100916 0.071745 -0.022138
# 5 -0.042118 -0.073883 -0.028540 0.071745 0.207014 0.001539
# 6 0.003547 -0.001071 -0.001763 -0.022138 0.001539 0.045587
#
#
# Mechanical properties :
#
#
# Convention : Reuss Voigt Hill
#
# Bulk Modulus (GPa) = 5.82115 50.63417 28.22766
# Shear Modulus (GPa) = 10.33326 30.66078 20.49702
#
# Velocity S-wave (km/s) = 2.15989 3.72053 3.04199
# Velocity P-wave (km/s) = 2.97460 6.42776 5.00821
#
# Compressibility (1/GPa) = 0.17178737
#
# Stress axis : x y z
#
# Youngs Moduli (GPa) = 61.82172 10.75148 75.44491
#
# Poissons Ratio (x) = -0.11896 -0.19424
# Poissons Ratio (y) = -0.68405 -0.83245
# Poissons Ratio (z) = -0.15916 -0.11863
#
# Static dielectric constant tensor:
#      x y z
#    x 1.777200 0.000160 0.019800 
#    y 0.000160 1.832590 0.000710 
#    z 0.019800 0.000710 1.814200 
# 
# From -- ./inp_files/67908.got.cif
#   From: 2010.05.17/outbox.cif.g08.bks.cpg/sg2_34_cif.got.tgz:67908.got - 2010.06.03 11:33:40.
