data_PCOD9020476
_publ_section_title
;
Structure prediction by ZEFSAII (Michael W. Deem and Ramdas Pophale) SiO2 
 PCOD9020476
Probable space group: P -1
;
_chemical_formula_sum "Si O2"
_cell_formula_units_Z 14
_cell_length_a 7.752220
_cell_length_b 18.574994
_cell_length_c 5.385107
_cell_angle_alpha 61.481044
_cell_angle_beta 63.820886
_cell_angle_gamma 61.135079
_cell_volume 573.895550
_symmetry_space_group_name_H-M "P -1"
_symmetry_group_IT_number 2
_symmetry_cell_setting 'triclinic'
loop_
_space_group_symop_operation_xyz
x,y,z
-x,-y,-z
loop_
_atom_site_type_symbol
_atom_site_label
_atom_site_fract_x
_atom_site_fract_y
_atom_site_fract_z
Si Si1 0.106833 0.357586 0.723143
Si Si2 0.432760 0.311529 0.219091
Si Si3 0.334875 0.590159 0.858292
Si Si4 0.392143 0.189730 0.089252
Si Si5 0.808678 0.951295 0.430488
Si Si6 0.778241 0.521478 0.232879
Si Si7 0.737229 0.063338 0.785952
O O1 0.210199 0.321514 0.456193
O O2 0.184393 0.439191 0.595007
O O3 0.217035 0.277770 0.967929
O O4 0.868370 0.385372 0.883860
O O5 0.577496 0.331335 0.301160
O O6 0.517356 0.222170 0.162903
O O7 0.384068 0.393800 0.930549
O O8 0.282713 0.561719 0.664403
O O9 0.500000 0.500000 0.000000
O O10 0.291625 0.122611 0.367649
O O11 0.537324 0.144875 0.842211
O O12 0.053720 0.914975 0.375175
O O13 0.727060 0.016739 0.609021
O O14 0.760454 0.999078 0.115929
O O15 0.000000 0.500000 0.000000
#
# Coordination Sequence:
#
# PCOD9020476 Si02
#       7
#     2   2   2   2   2   2   2
#     4  10  22  37  57  90 122 163 207 261 328 380
#     4  10  22  36  56  89 119 161 203 257 327 381
#     4   9  19  38  60  84 119 160 213 263 311 386
#     4  11  24  39  62  91 132 164 208 269 325 391
#     4  10  23  43  69  99 130 173 222 268 321 390
#     4   8  17  36  56  80 115 152 207 257 303 376
#     4  10  23  43  69 100 128 174 224 265 323 391
#
# _framework density 24.394682
#
# number of rings (size 3 to 8) (size 9 to 14) (size 15 to 20)
#    0.000    2.286    0.000    0.857    4.000    8.000 
#    2.571   10.000    0.000    0.000    0.000    0.000 
#    0.000    0.000    0.000    0.000    0.000    0.000 
#
# Total GULP energy -78262.049643 kJ/mol
# GULP energy per Si atom -5590.146403 kJ/mol
# Density = 2.433916 g / cm^3
# Si number density = 24.394682 Si / 1000 Ang^3
#
#
#
# Elastic Constant Matrix: (Units=GPa)
#
#
# Indices 1 2 3 4 5 6 
#
# 1 89.2046 53.5628 27.3352 -4.9333 -22.9734 6.2084
# 2 53.5628 106.6846 36.6335 7.9331 -22.8032 16.2184
# 3 27.3352 36.6335 95.3211 19.2853 -18.1047 4.6284
# 4 -4.9333 7.9331 19.2853 32.7432 -2.9045 -4.8818
# 5 -22.9734 -22.8032 -18.1047 -2.9045 39.4229 -1.7336
# 6 6.2084 16.2184 4.6284 -4.8818 -1.7336 41.2935
#
#
#
# Elastic Compliance Matrix: (Units=1/GPa)
#
#
# Indices 1 2 3 4 5 6 
#
# 1 0.018525 -0.007974 -0.002710 0.007066 0.005535 0.001718
# 2 -0.007974 0.015851 -0.002112 -0.004302 0.003007 -0.005172
# 3 -0.002710 -0.002112 0.014416 -0.008290 0.003155 -0.001226
# 4 0.007066 -0.004302 -0.008290 0.038530 0.000931 0.006151
# 5 0.005535 0.003007 0.003155 0.000931 0.031808 -0.000921
# 6 0.001718 -0.005172 -0.001226 0.006151 -0.000921 0.026816
#
#
# Mechanical properties :
#
#
# Convention : Reuss Voigt Hill
#
# Bulk Modulus (GPa) = 43.10368 58.47482 50.78925
# Shear Modulus (GPa) = 27.89065 34.27051 31.08058
#
# Velocity S-wave (km/s) = 3.38495 3.75218 3.57329
# Velocity P-wave (km/s) = 5.74325 6.54172 6.15545
#
# Compressibility (1/GPa) = 0.02319987
#
# Stress axis : x y z
#
# Youngs Moduli (GPa) = 53.98083 63.08613 69.36862
#
# Poissons Ratio (x) = 0.50305 0.18797
# Poissons Ratio (y) = 0.43044 0.14654
# Poissons Ratio (z) = 0.14627 0.13327
#
# Static dielectric constant tensor:
#      x y z
#    x 2.014470 0.002990 0.062500 
#    y 0.002990 1.928190 0.006730 
#    z 0.062500 0.006730 1.983730 
# 
# From -- ./inp_files/43520.got.cif
#   From: 2010.05.17/outbox.cif.g08.bks.cpg/sg2_22_cif.got.tgz:43520.got - 2010.06.03 11:33:40.
