data_PCOD9020611
_publ_section_title
;
Structure prediction by ZEFSAII (Michael W. Deem and Ramdas Pophale) SiO2 
 PCOD9020611
Probable space group: P -1
;
_chemical_formula_sum "Si O2"
_cell_formula_units_Z 13
_cell_length_a 20.097229
_cell_length_b 10.101097
_cell_length_c 14.312363
_cell_angle_alpha 30.606924
_cell_angle_beta 151.796218
_cell_angle_gamma 139.529584
_cell_volume 699.102577
_symmetry_space_group_name_H-M "P -1"
_symmetry_group_IT_number 2
_symmetry_cell_setting 'triclinic'
loop_
_space_group_symop_operation_xyz
x,y,z
-x,-y,-z
loop_
_atom_site_type_symbol
_atom_site_label
_atom_site_fract_x
_atom_site_fract_y
_atom_site_fract_z
Si Si1 0.053096 0.592526 0.610648
Si Si2 0.797954 0.402881 0.745220
Si Si3 0.500000 0.500000 0.000000
Si Si4 0.203179 0.148507 0.182826
Si Si5 0.199967 0.552670 0.491059
Si Si6 0.520947 0.056838 0.601531
Si Si7 0.098647 0.152633 0.263909
O O1 0.000000 0.500000 0.500000
O O2 0.916344 0.606009 0.498941
O O3 0.126210 0.869929 0.513972
O O4 0.148752 0.374882 0.910173
O O5 0.803864 0.522925 0.575721
O O6 0.651532 0.248975 0.662838
O O7 0.817901 0.623420 0.713502
O O8 0.933043 0.214825 0.032984
O O9 0.353338 0.530140 0.738769
O O10 0.550592 0.787736 0.852514
O O11 0.372280 0.165338 0.387543
O O12 0.139131 0.160974 0.199865
O O13 0.165677 0.862211 0.269633
O O14 0.500000 0.000000 0.500000
#
# Coordination Sequence:
#
# PCOD9020611 Si02
#       7
#     2   2   1   2   2   2   2
#     4  12  23  36  68  93 123 168 212 260 308 370
#     4  11  23  45  64  92 132 166 205 266 315 367
#     4  10  22  36  62  98 116 158 216 254 310 364
#     4  11  23  41  62  96 124 161 216 257 313 374
#     4  11  21  39  67  92 125 161 216 262 307 373
#     4  11  23  40  66  92 127 163 210 262 309 366
#     4  11  25  43  64  93 130 168 208 257 320 372
#
# _framework density 18.595268999999998
#
# number of rings (size 3 to 8) (size 9 to 14) (size 15 to 20)
#    0.000    0.923    6.154    2.308    2.154    1.231 
#    2.769    0.769    0.000    0.000    0.000    0.000 
#    0.000    0.000    0.000    0.000    0.000    0.000 
#
# Total GULP energy -72381.549972 kJ/mol
# GULP energy per Si atom -5567.811536 kJ/mol
# Density = 1.855295 g / cm^3
# Si number density = 18.595269 Si / 1000 Ang^3
#
#
#
# Elastic Constant Matrix: (Units=GPa)
#
#
# Indices 1 2 3 4 5 6 
#
# 1 91.2031 49.3229 35.5878 -3.6206 -14.7411 8.7629
# 2 49.3229 105.3329 46.8850 8.7902 -7.7089 7.6947
# 3 35.5878 46.8850 110.2900 -11.0439 -30.8366 1.7703
# 4 -3.6206 8.7902 -11.0439 30.9050 13.0018 -0.9619
# 5 -14.7411 -7.7089 -30.8366 13.0018 27.7410 1.0388
# 6 8.7629 7.6947 1.7703 -0.9619 1.0388 32.8547
#
#
#
# Elastic Compliance Matrix: (Units=1/GPa)
#
#
# Indices 1 2 3 4 5 6 
#
# 1 0.016056 -0.006734 -0.000605 0.001157 0.005551 -0.002814
# 2 -0.006734 0.015701 -0.005869 -0.006247 -0.002749 -0.001661
# 3 -0.000605 -0.005869 0.016224 0.000796 0.015702 0.000189
# 4 0.001157 -0.006247 0.000796 0.043342 -0.020663 0.003034
# 5 0.005551 -0.002749 0.015702 -0.020663 0.065535 -0.004360
# 6 -0.002814 -0.001661 0.000189 0.003034 -0.004360 0.031793
#
#
# Mechanical properties :
#
#
# Convention : Reuss Voigt Hill
#
# Bulk Modulus (GPa) = 46.37250 63.37969 54.87610
# Shear Modulus (GPa) = 22.49670 29.96882 26.23276
#
# Velocity S-wave (km/s) = 3.48200 4.01887 3.76003
# Velocity P-wave (km/s) = 6.41543 7.46277 6.95883
#
# Compressibility (1/GPa) = 0.02156450
#
# Stress axis : x y z
#
# Youngs Moduli (GPa) = 62.28296 63.69155 61.63625
#
# Poissons Ratio (x) = 0.42887 0.03731
# Poissons Ratio (y) = 0.41938 0.36176
# Poissons Ratio (z) = 0.03770 0.37382
#
# Static dielectric constant tensor:
#      x y z
#    x 1.661720 0.001510 0.032280 
#    y 0.001510 1.626260 -0.011540 
#    z 0.032280 -0.011540 1.648980 
# 
# From -- ./inp_files/82121.got.cif
#   From: 2010.05.17/outbox.cif.g08.bks.cpg/sg2_42_cif.got.tgz:82121.got - 2010.06.03 11:33:40.
