data_PCOD9020422
_publ_section_title
;
Structure prediction by ZEFSAII (Michael W. Deem and Ramdas Pophale) SiO2 
 PCOD9020422
Probable space group: P -1
;
_chemical_formula_sum "Si O2"
_cell_formula_units_Z 14
_cell_length_a 14.786602
_cell_length_b 7.795548
_cell_length_c 16.197080
_cell_angle_alpha 105.954887
_cell_angle_beta 26.450395
_cell_angle_gamma 123.113138
_cell_volume 570.278463
_symmetry_space_group_name_H-M "P -1"
_symmetry_group_IT_number 2
_symmetry_cell_setting 'triclinic'
loop_
_space_group_symop_operation_xyz
x,y,z
-x,-y,-z
loop_
_atom_site_type_symbol
_atom_site_label
_atom_site_fract_x
_atom_site_fract_y
_atom_site_fract_z
Si Si1 0.703404 0.738909 0.676022
Si Si2 0.318045 0.059190 0.445373
Si Si3 0.780754 0.485100 0.254430
Si Si4 0.207956 0.614998 0.452937
Si Si5 0.508807 0.692788 0.373100
Si Si6 0.725000 0.532423 0.875476
Si Si7 0.003301 0.251131 0.048619
O O1 0.718529 0.536143 0.656007
O O2 0.690802 0.797916 0.599700
O O3 0.436658 0.638014 0.934773
O O4 0.000000 0.000000 0.500000
O O5 0.378253 0.902332 0.332214
O O6 0.998006 0.827302 0.710571
O O7 0.542676 0.247780 0.357461
O O8 0.639325 0.483888 0.449840
O O9 0.976373 0.440411 0.118909
O O10 0.960119 0.719980 0.077806
O O11 0.273534 0.632553 0.499357
O O12 0.120819 0.533332 0.308878
O O13 0.725323 0.701711 0.144946
O O14 0.718863 0.976704 0.270644
O O15 0.500000 0.500000 0.000000
#
# Coordination Sequence:
#
# PCOD9020422 Si02
#       7
#     2   2   2   2   2   2   2
#     4  12  24  46  73  92 132 173 214 284 333 382
#     4  10  24  44  63 103 134 168 227 266 323 400
#     4  11  22  40  63  92 136 172 213 267 311 382
#     4  10  25  44  64 103 134 168 228 264 326 402
#     4  11  22  41  62  92 136 173 211 269 311 380
#     4  10  23  46  69  97 130 171 219 270 337 391
#     4  10  22  35  63  91 125 177 221 248 322 376
#
# _framework density 24.549410000000002
#
# number of rings (size 3 to 8) (size 9 to 14) (size 15 to 20)
#    0.857    0.571    2.857    1.714    0.000    9.714 
#    2.571    0.000    0.000    0.000    0.000    0.000 
#    0.000    0.000    0.000    0.000    0.000    0.000 
#
# Total GULP energy -78163.655132 kJ/mol
# GULP energy per Si atom -5583.118224 kJ/mol
# Density = 2.449353 g / cm^3
# Si number density = 24.549410 Si / 1000 Ang^3
#
#
#
# Elastic Constant Matrix: (Units=GPa)
#
#
# Indices 1 2 3 4 5 6 
#
# 1 101.8767 9.6645 21.8495 -1.0344 -17.5373 -8.4787
# 2 9.6645 85.3496 5.9189 -1.0685 -9.0494 -16.9985
# 3 21.8495 5.9189 87.4420 -6.3333 6.4503 2.5451
# 4 -1.0344 -1.0685 -6.3333 38.8149 -8.1421 -6.8605
# 5 -17.5373 -9.0494 6.4503 -8.1421 44.3213 4.6490
# 6 -8.4787 -16.9985 2.5451 -6.8605 4.6490 35.6667
#
#
#
# Elastic Compliance Matrix: (Units=1/GPa)
#
#
# Indices 1 2 3 4 5 6 
#
# 1 0.011608 -0.000028 -0.003251 0.001287 0.005027 0.002570
# 2 -0.000028 0.013383 -0.001141 0.001862 0.002550 0.006479
# 3 -0.003251 -0.001141 0.012669 0.001031 -0.003003 -0.001631
# 4 0.001287 0.001862 0.001031 0.028162 0.005300 0.005846
# 5 0.005027 0.002550 -0.003003 0.005300 0.026463 0.000195
# 6 0.002570 0.006479 -0.001631 0.005846 0.000195 0.032951
#
#
# Mechanical properties :
#
#
# Convention : Reuss Voigt Hill
#
# Bulk Modulus (GPa) = 34.69723 38.83713 36.76718
# Shear Modulus (GPa) = 34.79888 39.57627 37.18757
#
# Velocity S-wave (km/s) = 3.76906 4.01946 3.89627
# Velocity P-wave (km/s) = 5.75373 6.11521 5.93722
#
# Compressibility (1/GPa) = 0.02882075
#
# Stress axis : x y z
#
# Youngs Moduli (GPa) = 86.14644 74.72308 78.93039
#
# Poissons Ratio (x) = 0.00208 0.25661
# Poissons Ratio (y) = 0.00240 0.09004
# Poissons Ratio (z) = 0.28007 0.08524
#
# Static dielectric constant tensor:
#      x y z
#    x 1.994050 0.014040 -0.046340 
#    y 0.014040 2.046790 0.060260 
#    z -0.046340 0.060260 1.957000 
# 
# From -- ./inp_files/529972.got.cif
#   From: 2010.05.17/outbox.cif.g08.bks.cpg/sg2_265_cif.got.tgz:529972.got - 2010.06.03 11:33:40.
