data_PCOD9020325
_publ_section_title
;
Structure prediction by ZEFSAII (Michael W. Deem and Ramdas Pophale) SiO2 
 PCOD9020325
Probable space group: P -1
;
_chemical_formula_sum "Si O2"
_cell_formula_units_Z 16
_cell_length_a 13.813931
_cell_length_b 9.191704
_cell_length_c 7.160508
_cell_angle_alpha 50.222206
_cell_angle_beta 106.132786
_cell_angle_gamma 84.776880
_cell_volume 625.151217
_symmetry_space_group_name_H-M "P -1"
_symmetry_group_IT_number 2
_symmetry_cell_setting 'triclinic'
loop_
_space_group_symop_operation_xyz
x,y,z
-x,-y,-z
loop_
_atom_site_type_symbol
_atom_site_label
_atom_site_fract_x
_atom_site_fract_y
_atom_site_fract_z
Si Si1 0.616419 0.827511 0.744284
Si Si2 0.895983 0.399479 0.898677
Si Si3 0.654273 0.468473 0.768051
Si Si4 0.208209 0.076461 0.095291
Si Si5 0.596832 0.786583 0.203458
Si Si6 0.046396 0.038030 0.774989
Si Si7 0.275101 0.973971 0.827552
Si Si8 0.068401 0.518453 0.732019
O O1 0.635857 0.628817 0.793708
O O2 0.710276 0.927867 0.688876
O O3 0.500000 0.000000 0.500000
O O4 0.619671 0.757305 0.020442
O O5 0.776159 0.404813 0.800330
O O6 0.952233 0.493854 0.700473
O O7 0.896279 0.494522 0.022566
O O8 0.971784 0.161322 0.139030
O O9 0.581976 0.598050 0.453431
O O10 0.656007 0.250833 0.021783
O O11 0.289873 0.953679 0.078750
O O12 0.106597 0.011264 0.033395
O O13 0.151190 0.320643 0.841407
O O14 0.500000 0.000000 0.000000
O O15 0.688053 0.836613 0.334334
O O16 0.951922 0.255419 0.530512
O O17 0.145869 0.038940 0.689060
#
# Coordination Sequence:
#
# PCOD9020325 Si02
#       8
#     2   2   2   2   2   2   2   2
#     4  11  22  42  66  94 121 162 213 264 313 375
#     4  10  22  34  58  91 121 166 209 244 308 366
#     4  11  21  43  66  84 131 167 199 264 310 368
#     4   9  20  37  58  87 123 162 206 250 313 362
#     4  11  22  40  66  92 117 164 209 256 325 368
#     4   9  19  37  56  83 125 160 202 248 306 368
#     4   8  21  39  58  90 123 163 206 253 310 370
#     4  11  19  35  59  88 124 163 205 253 301 367
#
# _framework density 25.593809
#
# number of rings (size 3 to 8) (size 9 to 14) (size 15 to 20)
#    0.750    1.250    2.500    1.500    0.000    1.000 
#    0.000    3.125    2.750    0.000    0.000    0.000 
#    0.000    0.000    0.000    0.000    0.000    0.000 
#
# Total GULP energy -89155.108145 kJ/mol
# GULP energy per Si atom -5572.194259 kJ/mol
# Density = 2.553556 g / cm^3
# Si number density = 25.593809 Si / 1000 Ang^3
#
#
#
# Elastic Constant Matrix: (Units=GPa)
#
#
# Indices 1 2 3 4 5 6 
#
# 1 50.3059 11.5038 27.5413 -3.9202 -0.8767 -0.3540
# 2 11.5038 144.1191 40.2935 -23.6536 1.0465 -9.9858
# 3 27.5413 40.2935 115.1565 -21.4619 -2.2982 1.9604
# 4 -3.9202 -23.6536 -21.4619 51.1663 4.8609 5.6996
# 5 -0.8767 1.0465 -2.2982 4.8609 32.2988 -5.4912
# 6 -0.3540 -9.9858 1.9604 5.6996 -5.4912 32.5541
#
#
#
# Elastic Compliance Matrix: (Units=1/GPa)
#
#
# Indices 1 2 3 4 5 6 
#
# 1 0.022930 -0.000386 -0.005511 -0.000857 0.000490 0.000696
# 2 -0.000386 0.008199 -0.002340 0.002588 -0.000472 0.002119
# 3 -0.005511 -0.002340 0.011521 0.003580 -0.000154 -0.002124
# 4 -0.000857 0.002588 0.003580 0.023020 -0.004021 -0.004140
# 5 0.000490 -0.000472 -0.000154 -0.004021 0.032617 0.006076
# 6 0.000696 0.002119 -0.002124 -0.004140 0.006076 0.033253
#
#
# Mechanical properties :
#
#
# Convention : Reuss Voigt Hill
#
# Bulk Modulus (GPa) = 38.20102 52.02875 45.11489
# Shear Modulus (GPa) = 31.90055 38.55336 35.22696
#
# Velocity S-wave (km/s) = 3.53429 3.88539 3.71399
# Velocity P-wave (km/s) = 5.62257 6.36405 6.00476
#
# Compressibility (1/GPa) = 0.02617731
#
# Stress axis : x y z
#
# Youngs Moduli (GPa) = 43.61033 121.97183 86.79962
#
# Poissons Ratio (x) = 0.04703 0.47835
# Poissons Ratio (y) = 0.01681 0.20308
# Poissons Ratio (z) = 0.24034 0.28537
#
# Static dielectric constant tensor:
#      x y z
#    x 2.224250 0.036220 0.000350 
#    y 0.036220 1.998320 0.062330 
#    z 0.000350 0.062330 2.043260 
# 
# From -- ./inp_files/328459.got.cif
#   From: 2010.05.17/outbox.cif.g08.bks.cpg/sg2_165_cif.got.tgz:328459.got - 2010.06.03 11:33:40.
