data_PCOD9020744
_publ_section_title
;
Structure prediction by ZEFSAII (Michael W. Deem and Ramdas Pophale) SiO2 
 PCOD9020744
Probable space group: P -1
;
_chemical_formula_sum "Si O2"
_cell_formula_units_Z 14
_cell_length_a 5.019032
_cell_length_b 20.319886
_cell_length_c 12.112504
_cell_angle_alpha 140.721697
_cell_angle_beta 93.737979
_cell_angle_gamma 107.155004
_cell_volume 653.406153
_symmetry_space_group_name_H-M "P -1"
_symmetry_group_IT_number 2
_symmetry_cell_setting 'triclinic'
loop_
_space_group_symop_operation_xyz
x,y,z
-x,-y,-z
loop_
_atom_site_type_symbol
_atom_site_label
_atom_site_fract_x
_atom_site_fract_y
_atom_site_fract_z
Si Si1 0.622992 0.278965 0.070576
Si Si2 0.255114 0.348625 0.303323
Si Si3 0.386330 0.239603 0.624430
Si Si4 0.962659 0.515435 0.231766
Si Si5 0.312256 0.326266 0.521113
Si Si6 0.958364 0.654146 0.144119
Si Si7 0.501786 0.877896 0.332848
O O1 0.424593 0.285993 0.172822
O O2 0.947650 0.305066 0.164530
O O3 0.732964 0.396740 0.147352
O O4 0.434160 0.157007 0.830428
O O5 0.500000 0.500000 0.500000
O O6 0.154949 0.302483 0.366323
O O7 0.235868 0.222915 0.478000
O O8 0.760317 0.294496 0.690414
O O9 0.297005 0.134704 0.578734
O O10 0.333441 0.339549 0.813884
O O11 0.312804 0.606845 0.410887
O O12 0.768845 0.580860 0.302516
O O13 0.057176 0.461366 0.061197
O O14 0.139292 0.762627 0.198360
O O15 0.500000 0.000000 0.500000
#
# Coordination Sequence:
#
# PCOD9020744 Si02
#       7
#     2   2   2   2   2   2   2
#     4  11  22  38  57  89 113 150 204 231 275 345
#     4  12  22  37  56  82 123 162 189 226 271 339
#     4  10  22  37  54  87 109 151 188 234 286 352
#     4  11  20  33  53  84 117 154 185 228 277 341
#     4  12  23  33  56  80 121 161 183 221 283 336
#     4   9  21  36  54  86 115 141 190 234 284 350
#     4   9  23  43  65  85 111 146 192 256 300 328
#
# _framework density 21.426183999999999
#
# number of rings (size 3 to 8) (size 9 to 14) (size 15 to 20)
#    0.857    0.571    2.857    3.000    4.000    4.000 
#    0.000    0.000    0.000    1.714    0.000    0.000 
#    0.000    0.000    0.000    0.000    0.000    0.000 
#
# Total GULP energy -78023.056354 kJ/mol
# GULP energy per Si atom -5573.075454 kJ/mol
# Density = 2.137742 g / cm^3
# Si number density = 21.426184 Si / 1000 Ang^3
#
#
#
# Elastic Constant Matrix: (Units=GPa)
#
#
# Indices 1 2 3 4 5 6 
#
# 1 93.9299 6.3755 7.6507 4.5220 -12.5493 -0.7746
# 2 6.3755 89.0941 47.1843 -21.2294 -9.2123 -27.2068
# 3 7.6507 47.1843 69.5739 -4.6724 -15.5086 -8.8220
# 4 4.5220 -21.2294 -4.6724 24.2890 -3.6876 -3.6390
# 5 -12.5493 -9.2123 -15.5086 -3.6876 28.3014 -9.3667
# 6 -0.7746 -27.2068 -8.8220 -3.6390 -9.3667 36.9040
#
#
#
# Elastic Compliance Matrix: (Units=1/GPa)
#
#
# Indices 1 2 3 4 5 6 
#
# 1 0.011439 -0.000316 0.000216 -0.001363 0.005333 0.001278
# 2 -0.000316 0.048485 -0.018232 0.049350 0.026286 0.042918
# 3 0.000216 -0.018232 0.026072 -0.011332 0.004604 -0.007153
# 4 -0.001363 0.049350 -0.011332 0.096320 0.039387 0.053140
# 5 0.005333 0.026286 0.004604 0.039387 0.067697 0.041658
# 6 0.001278 0.042918 -0.007153 0.053140 0.041658 0.072868
#
#
# Mechanical properties :
#
#
# Convention : Reuss Voigt Hill
#
# Bulk Modulus (GPa) = 20.27080 41.66876 30.96978
# Shear Modulus (GPa) = 13.29824 30.65804 21.97814
#
# Velocity S-wave (km/s) = 2.49399 3.78679 3.20622
# Velocity P-wave (km/s) = 4.21600 6.21365 5.30962
#
# Compressibility (1/GPa) = 0.04933205
#
# Stress axis : x y z
#
# Youngs Moduli (GPa) = 87.42216 20.62477 38.35466
#
# Poissons Ratio (x) = 0.00652 -0.00827
# Poissons Ratio (y) = 0.02762 0.69928
# Poissons Ratio (z) = -0.01885 0.37603
#
# Static dielectric constant tensor:
#      x y z
#    x 1.761340 -0.000970 0.023930 
#    y -0.000970 1.871380 -0.031220 
#    z 0.023930 -0.031220 1.789240 
# 
# From -- ./inp_files/370121.got.cif
#   From: 2010.05.17/outbox.cif.g08.bks.cpg/sg2_186_cif.got.tgz:370121.got - 2010.06.03 11:33:40.
