data_PCOD9020857
_publ_section_title
;
Structure prediction by ZEFSAII (Michael W. Deem and Ramdas Pophale) SiO2 
 PCOD9020857
Probable space group: P -1
;
_chemical_formula_sum "Si O2"
_cell_formula_units_Z 16
_cell_length_a 14.628038
_cell_length_b 14.396730
_cell_length_c 15.249555
_cell_angle_alpha 37.362741
_cell_angle_beta 152.450934
_cell_angle_gamma 150.024108
_cell_volume 737.124931
_symmetry_space_group_name_H-M "P -1"
_symmetry_group_IT_number 2
_symmetry_cell_setting 'triclinic'
loop_
_space_group_symop_operation_xyz
x,y,z
-x,-y,-z
loop_
_atom_site_type_symbol
_atom_site_label
_atom_site_fract_x
_atom_site_fract_y
_atom_site_fract_z
Si Si1 0.446327 0.913407 0.644442
Si Si2 0.283258 0.462145 0.537787
Si Si3 0.912750 0.324046 0.181327
Si Si4 0.750392 0.929339 0.389933
Si Si5 0.337357 0.535055 0.248879
Si Si6 0.959954 0.096738 0.619415
Si Si7 0.514433 0.741115 0.676487
Si Si8 0.030393 0.938183 0.974617
O O1 0.206226 0.827662 0.560779
O O2 0.432164 0.753491 0.693942
O O3 0.432651 0.066316 0.463129
O O4 0.712157 0.031617 0.825759
O O5 0.072367 0.434118 0.319139
O O6 0.512577 0.530724 0.620905
O O7 0.332372 0.582001 0.575347
O O8 0.196234 0.257112 0.649823
O O9 0.118753 0.378506 0.241830
O O10 0.736908 0.104296 0.220974
O O11 0.775655 0.407370 0.964375
O O12 0.801597 0.938556 0.530658
O O13 0.526324 0.728526 0.317173
O O14 0.000000 0.000000 0.500000
O O15 0.035337 0.048328 0.809866
O O16 0.759610 0.749188 0.877702
O O17 0.000000 0.000000 0.000000
#
# Coordination Sequence:
#
# PCOD9020857 Si02
#       8
#     2   2   2   2   2   2   2   2
#     4   9  19  39  59  86 117 151 202 253 295 369
#     4  11  23  40  59  88 127 158 202 255 304 368
#     4  10  24  40  63  92 124 169 213 252 309 365
#     4  11  22  42  64  92 130 171 203 258 307 367
#     4  11  23  43  63  88 132 168 208 259 304 368
#     4  10  22  37  60  92 117 162 203 242 315 361
#     4   9  20  37  62  85 116 156 197 250 310 357
#     4   9  19  39  62  86 117 154 202 250 301 364
#
# _framework density 21.705953999999998
#
# number of rings (size 3 to 8) (size 9 to 14) (size 15 to 20)
#    0.000    2.000    2.500    1.500    3.500    3.500 
#    4.500    2.500    0.000    0.000    0.000    0.000 
#    0.000    0.000    0.000    0.000    0.000    0.000 
#
# Total GULP energy -89134.697575 kJ/mol
# GULP energy per Si atom -5570.918598 kJ/mol
# Density = 2.165655 g / cm^3
# Si number density = 21.705954 Si / 1000 Ang^3
#
#
#
# Elastic Constant Matrix: (Units=GPa)
#
#
# Indices 1 2 3 4 5 6 
#
# 1 73.5636 29.1497 37.5661 14.2712 -13.1165 0.6708
# 2 29.1497 69.5088 -8.9151 -1.3608 -6.8137 -4.5218
# 3 37.5661 -8.9151 84.2748 8.1454 -15.0967 -0.8863
# 4 14.2712 -1.3608 8.1454 15.7212 5.4481 -7.1543
# 5 -13.1165 -6.8137 -15.0967 5.4481 35.4816 4.1477
# 6 0.6708 -4.5218 -0.8863 -7.1543 4.1477 32.3479
#
#
#
# Elastic Compliance Matrix: (Units=1/GPa)
#
#
# Indices 1 2 3 4 5 6 
#
# 1 0.036777 -0.017433 -0.012335 -0.039168 0.012629 -0.013820
# 2 -0.017433 0.023417 0.008196 0.018065 -0.002185 0.008135
# 3 -0.012335 0.008196 0.018985 0.001143 0.004733 0.001568
# 4 -0.039168 0.018065 0.001143 0.128579 -0.034502 0.036230
# 5 0.012629 -0.002185 0.004733 -0.034502 0.041306 -0.013365
# 6 -0.013820 0.008135 0.001568 0.036230 -0.013365 0.042107
#
#
# Mechanical properties :
#
#
# Convention : Reuss Voigt Hill
#
# Bulk Modulus (GPa) = 27.74993 38.10541 32.92767
# Shear Modulus (GPa) = 14.43721 28.01325 21.22523
#
# Velocity S-wave (km/s) = 2.58180 3.59636 3.13046
# Velocity P-wave (km/s) = 4.65831 5.90241 5.31687
#
# Compressibility (1/GPa) = 0.03603613
#
# Stress axis : x y z
#
# Youngs Moduli (GPa) = 27.19107 42.70337 52.67250
#
# Poissons Ratio (x) = 0.74444 0.64971
# Poissons Ratio (y) = 0.47402 -0.43172
# Poissons Ratio (z) = 0.33540 -0.35001
#
# Static dielectric constant tensor:
#      x y z
#    x 1.928680 0.028410 -0.009970 
#    y 0.028410 1.860860 -0.007370 
#    z -0.009970 -0.007370 1.800580 
# 
# From -- ./inp_files/534289.got.cif
#   From: 2010.05.17/outbox.cif.g08.bks.cpg/sg2_268_cif.got.tgz:534289.got - 2010.06.03 11:33:40.
