data_PCOD9020922
_publ_section_title
;
Structure prediction by ZEFSAII (Michael W. Deem and Ramdas Pophale) SiO2 
 PCOD9020922
Probable space group: P -1
;
_chemical_formula_sum "Si O2"
_cell_formula_units_Z 16
_cell_length_a 15.227523
_cell_length_b 14.507618
_cell_length_c 16.431321
_cell_angle_alpha 38.478325
_cell_angle_beta 141.796903
_cell_angle_gamma 160.767515
_cell_volume 724.445340
_symmetry_space_group_name_H-M "P -1"
_symmetry_group_IT_number 2
_symmetry_cell_setting 'triclinic'
loop_
_space_group_symop_operation_xyz
x,y,z
-x,-y,-z
loop_
_atom_site_type_symbol
_atom_site_label
_atom_site_fract_x
_atom_site_fract_y
_atom_site_fract_z
Si Si1 0.795613 0.712887 0.598433
Si Si2 0.137903 0.306393 0.856365
Si Si3 0.713073 0.855162 0.570026
Si Si4 0.872090 0.572234 0.618287
Si Si5 0.553986 0.382148 0.975083
Si Si6 0.328262 0.924458 0.224057
Si Si7 0.015812 0.024597 0.170510
Si Si8 0.294006 0.729476 0.594692
O O1 0.500000 0.500000 0.500000
O O2 0.803510 0.775334 0.653540
O O3 0.851580 0.601976 0.677887
O O4 0.000000 0.000000 0.500000
O O5 0.369526 0.493526 0.964102
O O6 0.276952 0.537843 0.729546
O O7 0.886796 0.170372 0.812549
O O8 0.019267 0.066023 0.884329
O O9 0.392040 0.592389 0.506024
O O10 0.818237 0.944931 0.676374
O O11 0.867885 0.117198 0.448016
O O12 0.837193 0.367498 0.721473
O O13 0.453208 0.127315 0.099096
O O14 0.820926 0.674208 0.919925
O O15 0.294229 0.229623 0.851315
O O16 0.588763 0.116924 0.337755
O O17 0.000000 0.500000 0.500000
O O18 0.500000 0.000000 0.500000
#
# Coordination Sequence:
#
# PCOD9020922 Si02
#       8
#     2   2   2   2   2   2   2   2
#     4   8  16  36  59  85 118 149 180 229 284 356
#     4  11  25  39  58  82 112 159 204 235 286 334
#     4  10  22  38  61  94 117 147 188 238 301 339
#     4  10  22  37  62  90 122 148 187 230 295 364
#     4  11  25  43  57  80 111 158 211 237 280 327
#     4  11  25  39  61  83 117 159 197 235 281 356
#     4  12  25  38  62  82 114 152 200 253 277 332
#     4  11  24  37  53  79 120 153 183 237 291 342
#
# _framework density 22.085861999999999
#
# number of rings (size 3 to 8) (size 9 to 14) (size 15 to 20)
#    0.000    1.500    2.500    1.500   10.500    0.000 
#    0.000    0.000    0.000    1.500    0.000    0.000 
#    0.000    0.000    0.000    0.000    0.000    0.000 
#
# Total GULP energy -89238.640327 kJ/mol
# GULP energy per Si atom -5577.415020 kJ/mol
# Density = 2.203559 g / cm^3
# Si number density = 22.085862 Si / 1000 Ang^3
#
#
#
# Elastic Constant Matrix: (Units=GPa)
#
#
# Indices 1 2 3 4 5 6 
#
# 1 62.5765 13.1048 -2.0908 -1.2023 14.9600 -11.4392
# 2 13.1048 130.4933 13.5241 -8.9287 6.5468 8.5153
# 3 -2.0908 13.5241 42.7471 -15.9589 -0.7620 0.1074
# 4 -1.2023 -8.9287 -15.9589 38.9984 -2.8193 5.2274
# 5 14.9600 6.5468 -0.7620 -2.8193 20.1191 -6.6317
# 6 -11.4392 8.5153 0.1074 5.2274 -6.6317 30.1356
#
#
#
# Elastic Compliance Matrix: (Units=1/GPa)
#
#
# Indices 1 2 3 4 5 6 
#
# 1 0.020519 -0.001964 0.000965 -0.001117 -0.012858 0.005705
# 2 -0.001964 0.008578 -0.002368 0.001279 -0.002541 -0.003942
# 3 0.000965 -0.002368 0.028492 0.011397 0.002572 -0.000477
# 4 -0.001117 0.001279 0.011397 0.031556 0.003441 -0.005543
# 5 -0.012858 -0.002541 0.002572 0.003441 0.063721 0.009254
# 6 0.005705 -0.003942 -0.000477 -0.005543 0.009254 0.039462
#
#
# Mechanical properties :
#
#
# Convention : Reuss Voigt Hill
#
# Bulk Modulus (GPa) = 19.66402 31.65478 25.65940
# Shear Modulus (GPa) = 23.14660 31.93589 27.54125
#
# Velocity S-wave (km/s) = 3.24084 3.80674 3.53513
# Velocity P-wave (km/s) = 4.78820 5.80391 5.32035
#
# Compressibility (1/GPa) = 0.05085430
#
# Stress axis : x y z
#
# Youngs Moduli (GPa) = 48.73459 116.57590 35.09814
#
# Poissons Ratio (x) = 0.22898 -0.03386
# Poissons Ratio (y) = 0.09572 0.08310
# Poissons Ratio (z) = -0.04701 0.27603
#
# Static dielectric constant tensor:
#      x y z
#    x 1.898330 -0.002010 0.040420 
#    y -0.002010 1.820570 -0.010280 
#    z 0.040420 -0.010280 1.828460 
# 
# From -- ./inp_files/574024.got.cif
#   From: 2010.05.17/outbox.cif.g08.bks.cpg/sg2_288_cif.got.tgz:574024.got - 2010.06.03 11:33:40.
