data_PCOD9020033
_publ_section_title
;
Structure prediction by ZEFSAII (Michael W. Deem and Ramdas Pophale) SiO2 
 PCOD9020033
Probable space group: P -1
;
_chemical_formula_sum "Si O2"
_cell_formula_units_Z 14
_cell_length_a 11.715000
_cell_length_b 11.778954
_cell_length_c 7.152185
_cell_angle_alpha 132.951108
_cell_angle_beta 104.361569
_cell_angle_gamma 59.231039
_cell_volume 612.706304
_symmetry_space_group_name_H-M "P -1"
_symmetry_group_IT_number 2
_symmetry_cell_setting 'triclinic'
loop_
_space_group_symop_operation_xyz
x,y,z
-x,-y,-z
loop_
_atom_site_type_symbol
_atom_site_label
_atom_site_fract_x
_atom_site_fract_y
_atom_site_fract_z
Si Si1 0.032342 0.804025 0.851101
Si Si2 0.682996 0.027994 0.577801
Si Si3 0.089721 0.245842 0.893859
Si Si4 0.669149 0.395836 0.088161
Si Si5 0.872835 0.423582 0.707075
Si Si6 0.408110 0.447571 0.162814
Si Si7 0.484336 0.963211 0.167668
O O1 0.027852 0.698945 0.549931
O O2 0.185211 0.678011 0.845078
O O3 0.931682 0.823742 0.997464
O O4 0.000000 0.000000 0.000000
O O5 0.817550 0.902082 0.380980
O O6 0.567146 0.033581 0.403228
O O7 0.671837 0.218416 0.810880
O O8 0.658992 0.964945 0.701685
O O9 0.945525 0.354208 0.856685
O O10 0.148487 0.379523 0.100798
O O11 0.635695 0.525774 0.044443
O O12 0.537240 0.478407 0.261063
O O13 0.730915 0.424820 0.647287
O O14 0.453256 0.248025 0.018110
O O15 0.500000 0.000000 0.000000
#
# Coordination Sequence:
#
# PCOD9020033 Si02
#       7
#     2   2   2   2   2   2   2
#     4  12  27  44  68 103 136 178 230 277 339 402
#     4  10  22  42  69  96 136 179 217 278 339 396
#     4  11  24  45  69  95 136 179 227 280 332 403
#     4  10  23  44  69  97 139 176 223 273 341 406
#     4  11  24  45  69  97 131 180 230 276 338 395
#     4  10  21  46  66  98 133 177 220 273 341 394
#     4  10  22  44  67 103 133 172 230 277 332 400
#
# _framework density 22.849446
#
# number of rings (size 3 to 8) (size 9 to 14) (size 15 to 20)
#    0.000    1.429    2.857    1.286    2.000    5.143 
#   15.429    0.000    0.000    0.000    0.000    0.000 
#    0.000    0.000    0.000    0.000    0.000    0.000 
#
# Total GULP energy -78247.824299 kJ/mol
# GULP energy per Si atom -5589.130307 kJ/mol
# Density = 2.279744 g / cm^3
# Si number density = 22.849446 Si / 1000 Ang^3
#
#
#
# Elastic Constant Matrix: (Units=GPa)
#
#
# Indices 1 2 3 4 5 6 
#
# 1 86.4690 30.4180 30.5413 -13.0263 -46.2318 -6.3635
# 2 30.4180 92.4645 22.9004 -21.8909 -21.5926 27.4210
# 3 30.5413 22.9004 80.5353 -20.2331 -36.8618 18.3754
# 4 -13.0263 -21.8909 -20.2331 32.4135 -2.2132 -9.6955
# 5 -46.2318 -21.5926 -36.8618 -2.2132 49.6511 -8.8052
# 6 -6.3635 27.4210 18.3754 -9.6955 -8.8052 36.1474
#
#
#
# Elastic Compliance Matrix: (Units=1/GPa)
#
#
# Indices 1 2 3 4 5 6 
#
# 1 0.048488 -0.005708 0.012397 0.036590 0.058953 0.030738
# 2 -0.005708 0.018873 0.003979 0.009002 0.003763 -0.014013
# 3 0.012397 0.003979 0.031418 0.030031 0.038029 0.000511
# 4 0.036590 0.009002 0.030031 0.081862 0.067984 0.022864
# 5 0.058953 0.003763 0.038029 0.067984 0.113998 0.034195
# 6 0.030738 -0.014013 0.000511 0.022864 0.034195 0.057908
#
#
# Mechanical properties :
#
#
# Convention : Reuss Voigt Hill
#
# Bulk Modulus (GPa) = 8.32519 47.46537 27.89528
# Shear Modulus (GPa) = 13.46806 35.34967 24.40886
#
# Velocity S-wave (km/s) = 2.43044 3.93755 3.27195
# Velocity P-wave (km/s) = 3.39521 6.44132 5.14869
#
# Compressibility (1/GPa) = 0.12011741
#
# Stress axis : x y z
#
# Youngs Moduli (GPa) = 20.62368 52.98662 31.82844
#
# Poissons Ratio (x) = 0.30243 -0.39459
# Poissons Ratio (y) = 0.11771 -0.12666
# Poissons Ratio (z) = -0.25568 -0.21085
#
# Static dielectric constant tensor:
#      x y z
#    x 1.919670 -0.053820 -0.035010 
#    y -0.053820 1.870320 -0.005500 
#    z -0.035010 -0.005500 1.827290 
# 
# From -- ./inp_files/72354.got.cif
#   From: 2010.05.17/outbox.cif.g08.bks.cpg/sg2_37_cif.got.tgz:72354.got - 2010.06.03 11:33:40.
