data_PCOD9020379
_publ_section_title
;
Structure prediction by ZEFSAII (Michael W. Deem and Ramdas Pophale) SiO2 
 PCOD9020379
Probable space group: P -1
;
_chemical_formula_sum "Si O2"
_cell_formula_units_Z 14
_cell_length_a 14.402462
_cell_length_b 14.007304
_cell_length_c 5.383856
_cell_angle_alpha 61.010194
_cell_angle_beta 117.050178
_cell_angle_gamma 140.252474
_cell_volume 600.881793
_symmetry_space_group_name_H-M "P -1"
_symmetry_group_IT_number 2
_symmetry_cell_setting 'triclinic'
loop_
_space_group_symop_operation_xyz
x,y,z
-x,-y,-z
loop_
_atom_site_type_symbol
_atom_site_label
_atom_site_fract_x
_atom_site_fract_y
_atom_site_fract_z
Si Si1 0.782739 0.620594 0.594847
Si Si2 0.363716 0.911078 0.759404
Si Si3 0.204455 0.939517 0.876371
Si Si4 0.498385 0.619275 0.733420
Si Si5 0.056813 0.258061 0.869952
Si Si6 0.497362 0.819128 0.806652
Si Si7 0.818934 0.858113 0.622162
O O1 0.617035 0.464441 0.526824
O O2 0.848671 0.626027 0.927099
O O3 0.879973 0.663370 0.418150
O O4 0.784449 0.753017 0.479277
O O5 0.228818 0.857554 0.821656
O O6 0.362977 0.791798 0.782742
O O7 0.420696 0.041925 0.467623
O O8 0.500000 0.000000 0.000000
O O9 0.110101 0.841672 0.128510
O O10 0.123420 0.982122 0.593285
O O11 0.368632 0.100826 0.939687
O O12 0.450659 0.674466 0.802285
O O13 0.665021 0.766367 0.682345
O O14 0.500000 0.500000 0.000000
O O15 0.085166 0.148459 0.075757
#
# Coordination Sequence:
#
# PCOD9020379 Si02
#       7
#     2   2   2   2   2   2   2
#     4  10  23  38  54  85 129 167 206 241 299 371
#     4   9  20  41  57  93 115 153 210 263 319 354
#     4  11  21  36  62  89 123 161 206 260 314 367
#     4  12  20  39  61  92 127 164 206 252 308 373
#     4  10  24  38  57  88 134 168 204 245 307 379
#     4  10  22  36  66  89 121 155 206 264 316 355
#     4  10  22  35  57  92 124 166 205 252 308 360
#
# _framework density 23.299091000000001
#
# number of rings (size 3 to 8) (size 9 to 14) (size 15 to 20)
#    0.857    0.857    2.857    1.714    2.000    1.714 
#    0.000    0.000    0.000    1.714    0.000    0.000 
#    0.000    0.000    0.000    0.000    0.000    0.000 
#
# Total GULP energy -78207.135315 kJ/mol
# GULP energy per Si atom -5586.223951 kJ/mol
# Density = 2.324606 g / cm^3
# Si number density = 23.299091 Si / 1000 Ang^3
#
#
#
# Elastic Constant Matrix: (Units=GPa)
#
#
# Indices 1 2 3 4 5 6 
#
# 1 145.6907 35.4343 4.8350 -4.4463 -20.8425 -17.6279
# 2 35.4343 62.0012 0.1592 13.6344 1.5637 -11.3739
# 3 4.8350 0.1592 60.0830 5.1990 -7.6315 -10.1187
# 4 -4.4463 13.6344 5.1990 28.5405 3.4475 -6.4144
# 5 -20.8425 1.5637 -7.6315 3.4475 34.8523 -4.6483
# 6 -17.6279 -11.3739 -10.1187 -6.4144 -4.6483 42.9359
#
#
#
# Elastic Compliance Matrix: (Units=1/GPa)
#
#
# Indices 1 2 3 4 5 6 
#
# 1 0.009828 -0.006055 0.000283 0.004478 0.006281 0.003847
# 2 -0.006055 0.022437 0.001310 -0.011138 -0.003002 0.001777
# 3 0.000283 0.001310 0.018382 -0.003463 0.005123 0.004833
# 4 0.004478 -0.011138 -0.003463 0.042811 -0.001237 0.004333
# 5 0.006281 -0.003002 0.005123 -0.001237 0.034703 0.006563
# 6 0.003847 0.001777 0.004833 0.004333 0.006563 0.027837
#
#
# Mechanical properties :
#
#
# Convention : Reuss Voigt Hill
#
# Bulk Modulus (GPa) = 23.96791 38.73687 31.35239
# Shear Modulus (GPa) = 27.95981 36.42218 32.19099
#
# Velocity S-wave (km/s) = 3.46792 3.95808 3.72108
# Velocity P-wave (km/s) = 5.13270 6.12785 5.65222
#
# Compressibility (1/GPa) = 0.04172245
#
# Stress axis : x y z
#
# Youngs Moduli (GPa) = 101.75292 44.56949 54.40249
#
# Poissons Ratio (x) = 0.26986 -0.01541
# Poissons Ratio (y) = 0.61609 -0.07125
# Poissons Ratio (z) = -0.02883 -0.05837
#
# Static dielectric constant tensor:
#      x y z
#    x 1.921970 -0.008250 -0.010870 
#    y -0.008250 1.896050 0.016710 
#    z -0.010870 0.016710 1.982270 
# 
# From -- ./inp_files/97620.got.cif
#   From: 2010.05.17/outbox.cif.g08.bks.cpg/sg2_49_cif.got.tgz:97620.got - 2010.06.03 11:33:40.
