data_PCOD9020517
_publ_section_title
;
Structure prediction by ZEFSAII (Michael W. Deem and Ramdas Pophale) SiO2 
 PCOD9020517
Probable space group: P -1
;
_chemical_formula_sum "Si O2"
_cell_formula_units_Z 16
_cell_length_a 9.513437
_cell_length_b 11.488124
_cell_length_c 8.400543
_cell_angle_alpha 108.310984
_cell_angle_beta 114.517427
_cell_angle_gamma 52.309352
_cell_volume 658.678866
_symmetry_space_group_name_H-M "P -1"
_symmetry_group_IT_number 2
_symmetry_cell_setting 'triclinic'
loop_
_space_group_symop_operation_xyz
x,y,z
-x,-y,-z
loop_
_atom_site_type_symbol
_atom_site_label
_atom_site_fract_x
_atom_site_fract_y
_atom_site_fract_z
Si Si1 0.813999 0.873497 0.356187
Si Si2 0.497041 0.776942 0.642027
Si Si3 0.162715 0.248516 0.339612
Si Si4 0.232276 0.671075 0.422017
Si Si5 0.201612 0.966529 0.109423
Si Si6 0.758903 0.433003 0.255377
Si Si7 0.555581 0.840144 0.017036
Si Si8 0.659036 0.324417 0.853140
O O1 0.831530 0.824503 0.523392
O O2 0.727776 0.794328 0.190747
O O3 0.020508 0.814636 0.370437
O O4 0.666450 0.048923 0.354163
O O5 0.660418 0.742812 0.585836
O O6 0.397345 0.694199 0.536204
O O7 0.598597 0.738062 0.843640
O O8 0.961038 0.399697 0.295280
O O9 0.187579 0.119506 0.180721
O O10 0.232750 0.601561 0.564922
O O11 0.279002 0.612588 0.235096
O O12 0.368230 0.873234 0.023153
O O13 0.271142 0.844307 0.229002
O O14 0.000000 0.000000 0.000000
O O15 0.563288 0.584715 0.201272
O O16 0.739605 0.334109 0.066641
O O17 0.500000 0.000000 0.000000
#
# Coordination Sequence:
#
# PCOD9020517 Si02
#       8
#     2   2   2   2   2   2   2   2
#     4  10  22  36  58  94 131 171 207 268 328 385
#     4  11  22  37  61  95 136 164 209 276 327 382
#     4  11  22  40  62  92 135 164 215 270 327 382
#     4  11  24  40  68  95 128 174 228 262 324 395
#     4  12  23  37  68 101 125 171 221 266 326 392
#     4  10  24  46  64  97 128 178 219 272 322 392
#     4  10  22  37  58  91 140 164 207 267 335 378
#     4  11  24  41  73  90 135 171 224 267 328 384
#
# _framework density 24.291048
#
# number of rings (size 3 to 8) (size 9 to 14) (size 15 to 20)
#    0.000    1.250    3.750    2.625    8.750    0.000 
#    0.000    0.625    2.750    2.250    0.000    0.000 
#    0.000    0.000    0.000    0.000    0.000    0.000 
#
# Total GULP energy -89247.166880 kJ/mol
# GULP energy per Si atom -5577.947930 kJ/mol
# Density = 2.423576 g / cm^3
# Si number density = 24.291048 Si / 1000 Ang^3
#
#
#
# Elastic Constant Matrix: (Units=GPa)
#
#
# Indices 1 2 3 4 5 6 
#
# 1 115.3130 36.1932 -15.4530 8.9077 13.7165 -14.9941
# 2 36.1932 89.0617 11.4331 -17.9374 9.1163 -29.7128
# 3 -15.4530 11.4331 21.7330 11.4390 -3.8966 7.0743
# 4 8.9077 -17.9374 11.4390 25.7451 -6.0316 6.1071
# 5 13.7165 9.1163 -3.8966 -6.0316 39.1775 -4.5958
# 6 -14.9941 -29.7128 7.0743 6.1071 -4.5958 26.0927
#
#
#
# Elastic Compliance Matrix: (Units=1/GPa)
#
#
# Indices 1 2 3 4 5 6 
#
# 1 -0.011372 0.039148 -0.070628 0.052146 0.001177 0.045196
# 2 0.039148 -0.063767 0.136029 -0.105372 -0.009061 -0.063931
# 3 -0.070628 0.136029 -0.214049 0.186887 0.015974 0.131421
# 4 0.052146 -0.105372 0.186887 -0.109435 -0.005614 -0.116069
# 5 0.001177 -0.009061 0.015974 -0.005614 0.027019 -0.007899
# 6 0.045196 -0.063931 0.131421 -0.116069 -0.007899 -0.018360
#
#
# Mechanical properties :
#
#
# Convention : Reuss Voigt Hill
#
# Bulk Modulus (GPa) = -12.48619 32.27268 9.89325
# Shear Modulus (GPa) = -7.99030 31.13201 11.57086
#
# Velocity S-wave (km/s) = -1.81564 3.58386 2.18489
# Velocity P-wave (km/s) = 3.08979 5.51725 3.23213
#
# Compressibility (1/GPa) = -0.08008847
#
# Stress axis : x y z
#
# Youngs Moduli (GPa) = -87.93817 -15.68209 -4.67183
#
# Poissons Ratio (x) = 0.61393 -0.32996
# Poissons Ratio (y) = 3.44263 0.63551
# Poissons Ratio (z) = -6.21091 2.13322
#
# Static dielectric constant tensor:
#      x y z
#    x 1.924520 0.048190 -0.038370 
#    y 0.048190 1.994580 0.032130 
#    z -0.038370 0.032130 2.050890 
# 
# From -- ./inp_files/207905.got.cif
#   From: 2010.05.17/outbox.cif.g08.bks.cpg/sg2_104_cif.got.tgz:207905.got - 2010.06.03 11:33:40.
