data_PCOD9020750
_publ_section_title
;
Structure prediction by ZEFSAII (Michael W. Deem and Ramdas Pophale) SiO2 
 PCOD9020750
Probable space group: P -1
;
_chemical_formula_sum "Si O2"
_cell_formula_units_Z 16
_cell_length_a 23.425775
_cell_length_b 12.171944
_cell_length_c 13.729233
_cell_angle_alpha 124.349050
_cell_angle_beta 25.302712
_cell_angle_gamma 140.371073
_cell_volume 933.556879
_symmetry_space_group_name_H-M "P -1"
_symmetry_group_IT_number 2
_symmetry_cell_setting 'triclinic'
loop_
_space_group_symop_operation_xyz
x,y,z
-x,-y,-z
loop_
_atom_site_type_symbol
_atom_site_label
_atom_site_fract_x
_atom_site_fract_y
_atom_site_fract_z
Si Si1 0.846820 0.887849 0.439206
Si Si2 0.893329 0.395314 0.716053
Si Si3 0.368736 0.546087 0.804979
Si Si4 0.731320 0.672158 0.948949
Si Si5 0.396781 0.034613 0.107384
Si Si6 0.610530 0.512349 0.745101
Si Si7 0.257145 0.569879 0.340034
Si Si8 0.804621 0.788445 0.238577
O O1 0.759975 0.728573 0.576509
O O2 0.843539 0.806398 0.302348
O O3 0.700943 0.908482 0.662295
O O4 0.062580 0.101571 0.239863
O O5 0.781524 0.173570 0.772445
O O6 0.000000 0.500000 0.500000
O O7 0.062664 0.513442 0.594446
O O8 0.732419 0.389485 0.981412
O O9 0.599943 0.721581 0.509378
O O10 0.248054 0.384629 0.824425
O O11 0.343101 0.437581 0.887437
O O12 0.758348 0.565799 0.780822
O O13 0.560133 0.635631 0.145632
O O14 0.500000 0.000000 0.000000
O O15 0.555790 0.208609 0.874087
O O16 0.714568 0.464556 0.612341
O O17 0.500000 0.500000 0.000000
O O18 0.000000 0.000000 0.000000
#
# Coordination Sequence:
#
# PCOD9020750 Si02
#       8
#     2   2   2   2   2   2   2   2
#     4  12  21  36  60  88 121 157 198 248 296 352
#     4  12  22  36  58  87 124 158 189 241 309 367
#     4  11  22  39  58  90 124 154 198 248 300 355
#     4  11  19  35  57  84 122 152 193 244 293 350
#     4  12  21  32  56  85 123 156 184 233 305 361
#     4  10  22  37  55  83 126 160 199 241 292 359
#     4  11  22  36  54  87 120 162 189 233 299 361
#     4  11  23  37  62  89 118 158 204 247 299 346
#
# _framework density 17.138752
#
# number of rings (size 3 to 8) (size 9 to 14) (size 15 to 20)
#    0.000    0.750    8.750    0.750    0.000    4.000 
#    0.000    0.000    0.000    0.750    0.000    2.625 
#    0.000    0.000    0.000    0.000    0.000    0.000 
#
# Total GULP energy -89281.633824 kJ/mol
# GULP energy per Si atom -5580.102114 kJ/mol
# Density = 1.709974 g / cm^3
# Si number density = 17.138752 Si / 1000 Ang^3
#
#
#
# Elastic Constant Matrix: (Units=GPa)
#
#
# Indices 1 2 3 4 5 6 
#
# 1 112.3422 34.9213 33.0117 -10.9905 -2.0279 -10.9683
# 2 34.9213 77.8170 37.9359 -20.4980 8.9481 6.1104
# 3 33.0117 37.9359 90.3726 -24.3402 0.5433 -3.7675
# 4 -10.9905 -20.4980 -24.3402 38.7903 2.9129 -1.8080
# 5 -2.0279 8.9481 0.5433 2.9129 29.9081 0.2650
# 6 -10.9683 6.1104 -3.7675 -1.8080 0.2650 22.6633
#
#
#
# Elastic Compliance Matrix: (Units=1/GPa)
#
#
# Indices 1 2 3 4 5 6 
#
# 1 0.011762 -0.005268 -0.001969 -0.000554 0.002404 0.006713
# 2 -0.005268 0.021060 -0.005534 0.006297 -0.007095 -0.008562
# 3 -0.001969 -0.005534 0.016075 0.006738 0.000541 0.003743
# 4 -0.000554 0.006297 0.006738 0.033668 -0.005340 0.001903
# 5 0.002404 -0.007095 0.000541 -0.005340 0.036211 0.002317
# 6 0.006713 -0.008562 0.003743 0.001903 0.002317 0.050429
#
#
# Mechanical properties :
#
#
# Convention : Reuss Voigt Hill
#
# Bulk Modulus (GPa) = 42.81847 54.69663 48.75755
# Shear Modulus (GPa) = 24.68746 29.91654 27.30200
#
# Velocity S-wave (km/s) = 3.79944 4.18251 3.99557
# Velocity P-wave (km/s) = 6.65472 7.43692 7.05667
#
# Compressibility (1/GPa) = 0.02335441
#
# Stress axis : x y z
#
# Youngs Moduli (GPa) = 85.01866 47.48443 62.20719
#
# Poissons Ratio (x) = 0.25015 0.12249
# Poissons Ratio (y) = 0.44788 0.34427
# Poissons Ratio (z) = 0.16740 0.26279
#
# Static dielectric constant tensor:
#      x y z
#    x 1.627680 -0.000370 -0.039540 
#    y -0.000370 1.589270 0.008880 
#    z -0.039540 0.008880 1.609480 
# 
# From -- ./inp_files/433011.got.cif
#   From: 2010.05.17/outbox.cif.g08.bks.cpg/sg2_217_cif.got.tgz:433011.got - 2010.06.03 11:33:40.
