data_PCOD9020549
_publ_section_title
;
Structure prediction by ZEFSAII (Michael W. Deem and Ramdas Pophale) SiO2 
 PCOD9020549
Probable space group: P -1
;
_chemical_formula_sum "Si O2"
_cell_formula_units_Z 10
_cell_length_a 10.217633
_cell_length_b 13.616710
_cell_length_c 6.654075
_cell_angle_alpha 78.629844
_cell_angle_beta 65.145128
_cell_angle_gamma 37.837789
_cell_volume 499.960368
_symmetry_space_group_name_H-M "P -1"
_symmetry_group_IT_number 2
_symmetry_cell_setting 'triclinic'
loop_
_space_group_symop_operation_xyz
x,y,z
-x,-y,-z
loop_
_atom_site_type_symbol
_atom_site_label
_atom_site_fract_x
_atom_site_fract_y
_atom_site_fract_z
Si Si1 0.409584 0.127998 0.336163
Si Si2 0.141317 0.948517 0.626613
Si Si3 0.300782 0.331088 0.656855
Si Si4 0.926837 0.695996 0.871544
Si Si5 0.935989 0.883316 0.039350
O O1 0.248356 0.171629 0.247028
O O2 0.500000 0.000000 0.500000
O O3 0.219420 0.302480 0.899729
O O4 0.649516 0.044451 0.123582
O O5 0.418682 0.805100 0.460840
O O6 0.086463 0.886303 0.834631
O O7 0.000000 0.000000 0.500000
O O8 0.050369 0.098744 0.739825
O O9 0.147419 0.515562 0.705777
O O10 0.265687 0.291781 0.485198
O O11 0.005753 0.739620 0.954927
#
# Coordination Sequence:
#
# PCOD9020549 Si02
#       5
#     2   2   2   2   2
#     4  11  21  36  63  89 114 153 197 240 288 341
#     4  10  22  39  59  84 118 153 196 242 286 344
#     4  10  23  39  58  90 120 154 189 241 300 337
#     4  11  22  38  61  89 121 148 196 243 289 351
#     4  10  22  36  60  87 110 155 200 233 287 349
#
# _framework density 20.001584000000001
#
# number of rings (size 3 to 8) (size 9 to 14) (size 15 to 20)
#    0.000    1.600    2.000    2.400    5.600    0.800 
#    0.000    1.000    0.000    0.000    0.000    0.000 
#    0.000    0.000    0.000    0.000    0.000    0.000 
#
# Total GULP energy -55805.775692 kJ/mol
# GULP energy per Si atom -5580.577569 kJ/mol
# Density = 1.995606 g / cm^3
# Si number density = 20.001584 Si / 1000 Ang^3
#
#
#
# Elastic Constant Matrix: (Units=GPa)
#
#
# Indices 1 2 3 4 5 6 
#
# 1 125.5153 36.5799 39.0520 12.3009 26.8188 11.0711
# 2 36.5799 58.8784 28.1016 20.5881 19.7657 22.7086
# 3 39.0520 28.1016 72.8338 27.4026 5.3221 6.3427
# 4 12.3009 20.5881 27.4026 33.7427 6.3656 12.0335
# 5 26.8188 19.7657 5.3221 6.3656 50.7321 5.6476
# 6 11.0711 22.7086 6.3427 12.0335 5.6476 28.5660
#
#
#
# Elastic Compliance Matrix: (Units=1/GPa)
#
#
# Indices 1 2 3 4 5 6 
#
# 1 0.011546 -0.004081 -0.005758 0.004061 -0.004330 -0.000807
# 2 -0.004081 0.035728 -0.007122 -0.005398 -0.007957 -0.021392
# 3 -0.005758 -0.007122 0.025282 -0.018151 0.004436 0.009048
# 4 0.004061 -0.005398 -0.018151 0.051946 -0.003039 -0.014534
# 5 -0.004330 -0.007957 0.004436 -0.003039 0.024635 0.003428
# 6 -0.000807 -0.021392 0.009048 -0.014534 0.003428 0.055761
#
#
# Mechanical properties :
#
#
# Convention : Reuss Voigt Hill
#
# Bulk Modulus (GPa) = 25.88279 51.63272 38.75776
# Shear Modulus (GPa) = 19.86533 32.84110 26.35322
#
# Velocity S-wave (km/s) = 3.15491 4.05646 3.63375
# Velocity P-wave (km/s) = 5.12247 6.91449 6.08481
#
# Compressibility (1/GPa) = 0.03863571
#
# Stress axis : x y z
#
# Youngs Moduli (GPa) = 86.60951 27.98957 39.55446
#
# Poissons Ratio (x) = 0.11421 0.22774
# Poissons Ratio (y) = 0.35342 0.28169
# Poissons Ratio (z) = 0.49867 0.19933
#
# Static dielectric constant tensor:
#      x y z
#    x 1.731520 0.040990 0.008360 
#    y 0.040990 1.706940 -0.013120 
#    z 0.008360 -0.013120 1.761690 
# 
# From -- ./inp_files/72827.got.cif
#   From: 2010.05.17/outbox.cif.g08.bks.cpg/sg2_37_cif.got.tgz:72827.got - 2010.06.03 11:33:40.
