data_PCOD9020068
_publ_section_title
;
Structure prediction by ZEFSAII (Michael W. Deem and Ramdas Pophale) SiO2 
 PCOD9020068
Probable space group: P -1
;
_chemical_formula_sum "Si O2"
_cell_formula_units_Z 14
_cell_length_a 11.655517
_cell_length_b 7.509529
_cell_length_c 9.774962
_cell_angle_alpha 49.914476
_cell_angle_beta 57.810282
_cell_angle_gamma 71.151387
_cell_volume 553.707560
_symmetry_space_group_name_H-M "P -1"
_symmetry_group_IT_number 2
_symmetry_cell_setting 'triclinic'
loop_
_space_group_symop_operation_xyz
x,y,z
-x,-y,-z
loop_
_atom_site_type_symbol
_atom_site_label
_atom_site_fract_x
_atom_site_fract_y
_atom_site_fract_z
Si Si1 0.509460 0.728231 0.593139
Si Si2 0.359094 0.916787 0.055472
Si Si3 0.585586 0.761666 0.814288
Si Si4 0.990475 0.348650 0.234568
Si Si5 0.139136 0.123762 0.512308
Si Si6 0.769262 0.527044 0.480303
Si Si7 0.731501 0.593842 0.076028
O O1 0.563613 0.624752 0.755118
O O2 0.632592 0.653714 0.457768
O O3 0.370501 0.601279 0.702600
O O4 0.500000 0.000000 0.500000
O O5 0.276252 0.717960 0.292747
O O6 0.434620 0.841908 0.906209
O O7 0.500000 0.000000 0.000000
O O8 0.273712 0.147954 0.984720
O O9 0.709304 0.939182 0.605444
O O10 0.661102 0.635638 0.951152
O O11 0.063230 0.256530 0.373812
O O12 0.865763 0.482833 0.312301
O O13 0.115306 0.474788 0.013856
O O14 0.943276 0.115952 0.299409
O O15 0.156868 0.295203 0.546016
#
# Coordination Sequence:
#
# PCOD9020068 Si02
#       7
#     2   2   2   2   2   2   2
#     4  11  23  38  56  83 113 150 194 236 281 338
#     4  10  17  30  58  88 111 140 185 234 293 325
#     4   9  18  33  58  84 109 142 185 235 282 330
#     4  10  19  33  52  85 119 147 181 233 288 334
#     4   9  19  30  51  87 119 142 179 234 286 341
#     4  11  20  34  59  83 118 150 185 234 288 339
#     4  10  20  35  59  86 116 140 186 240 284 338
#
# _framework density 25.284103999999999
#
# number of rings (size 3 to 8) (size 9 to 14) (size 15 to 20)
#    0.000    2.000    2.857    4.286    4.000    0.000 
#    0.000    1.429    0.000    3.429    0.000    0.000 
#    0.000    0.000    0.000    0.000    0.000    0.000 
#
# Total GULP energy -78143.298920 kJ/mol
# GULP energy per Si atom -5581.664209 kJ/mol
# Density = 2.522656 g / cm^3
# Si number density = 25.284104 Si / 1000 Ang^3
#
#
#
# Elastic Constant Matrix: (Units=GPa)
#
#
# Indices 1 2 3 4 5 6 
#
# 1 67.6704 36.7952 40.1519 -0.7357 -24.5558 -4.1157
# 2 36.7952 175.3148 99.2714 11.9788 -23.2044 -18.1458
# 3 40.1519 99.2714 128.4841 5.4025 -34.8765 -9.0978
# 4 -0.7357 11.9788 5.4025 45.9209 -6.5019 -6.6632
# 5 -24.5558 -23.2044 -34.8765 -6.5019 47.1923 3.9474
# 6 -4.1157 -18.1458 -9.0978 -6.6632 3.9474 59.6242
#
#
#
# Elastic Compliance Matrix: (Units=1/GPa)
#
#
# Indices 1 2 3 4 5 6 
#
# 1 0.020355 -0.001647 -0.003047 0.002247 0.007825 0.000172
# 2 -0.001647 0.010666 -0.008055 -0.001876 -0.001976 0.001825
# 3 -0.003047 -0.008055 0.016796 0.001008 0.007044 -0.000452
# 4 0.002247 -0.001876 0.001008 0.023046 0.003995 0.002049
# 5 0.007825 -0.001976 0.007044 0.003995 0.030090 -0.000532
# 6 0.000172 0.001825 -0.000452 0.002049 -0.000532 0.017534
#
#
# Mechanical properties :
#
#
# Convention : Reuss Voigt Hill
#
# Bulk Modulus (GPa) = 44.80157 80.43404 62.61781
# Shear Modulus (GPa) = 33.01954 43.56420 38.29187
#
# Velocity S-wave (km/s) = 3.61770 4.15539 3.89583
# Velocity P-wave (km/s) = 5.93364 7.40974 6.71239
#
# Compressibility (1/GPa) = 0.02232064
#
# Stress axis : x y z
#
# Youngs Moduli (GPa) = 49.12719 93.75506 59.53763
#
# Poissons Ratio (x) = 0.15441 0.18140
# Poissons Ratio (y) = 0.08091 0.47956
# Poissons Ratio (z) = 0.14968 0.75517
#
# Static dielectric constant tensor:
#      x y z
#    x 2.103630 0.052400 0.062410 
#    y 0.052400 2.285710 0.069860 
#    z 0.062410 0.069860 2.098790 
# 
# From -- ./inp_files/528052.got.cif
#   From: 2010.05.17/outbox.cif.g08.bks.cpg/sg2_265_cif.got.tgz:528052.got - 2010.06.03 11:33:40.
