data_PCOD9020137
_publ_section_title
;
Structure prediction by ZEFSAII (Michael W. Deem and Ramdas Pophale) SiO2 
 PCOD9020137
Probable space group: P -1
;
_chemical_formula_sum "Si O2"
_cell_formula_units_Z 16
_cell_length_a 14.422916
_cell_length_b 9.433287
_cell_length_c 11.848559
_cell_angle_alpha 49.235640
_cell_angle_beta 37.613961
_cell_angle_gamma 52.490005
_cell_volume 730.409408
_symmetry_space_group_name_H-M "P -1"
_symmetry_group_IT_number 2
_symmetry_cell_setting 'triclinic'
loop_
_space_group_symop_operation_xyz
x,y,z
-x,-y,-z
loop_
_atom_site_type_symbol
_atom_site_label
_atom_site_fract_x
_atom_site_fract_y
_atom_site_fract_z
Si Si1 0.614141 0.298889 0.518127
Si Si2 0.634023 0.048840 0.426107
Si Si3 0.172324 0.463263 0.770114
Si Si4 0.826503 0.651826 0.412776
Si Si5 0.171407 0.308478 0.077421
Si Si6 0.811025 0.343836 0.978536
Si Si7 0.349543 0.912181 0.171330
Si Si8 0.665633 0.379450 0.859450
O O1 0.500000 0.500000 0.500000
O O2 0.575303 0.143605 0.551891
O O3 0.776873 0.360571 0.306112
O O4 0.640633 0.225385 0.658284
O O5 0.500000 0.000000 0.500000
O O6 0.745484 0.848502 0.443613
O O7 0.737788 0.189486 0.198693
O O8 0.245016 0.382854 0.623226
O O9 0.001010 0.566956 0.841433
O O10 0.217684 0.297955 0.905976
O O11 0.778835 0.492206 0.621962
O O12 0.004111 0.669710 0.209054
O O13 0.246910 0.448004 0.013725
O O14 0.206713 0.095912 0.204936
O O15 0.751127 0.319686 0.924078
O O16 0.357684 0.789021 0.114078
O O17 0.500000 0.000000 0.000000
O O18 0.500000 0.500000 0.000000
#
# Coordination Sequence:
#
# PCOD9020137 Si02
#       8
#     2   2   2   2   2   2   2   2
#     4  12  26  46  70  98 140 181 235 290 346 410
#     4  12  27  43  73 105 136 186 235 286 348 424
#     4  10  21  46  72  98 139 181 226 292 342 412
#     4  11  25  47  70 102 139 186 236 281 354 417
#     4  10  23  44  73 103 138 180 232 283 350 412
#     4  11  25  46  71 101 144 183 228 293 348 416
#     4  12  28  44  70 103 136 186 233 287 347 418
#     4  12  27  46  69 100 145 182 232 293 351 411
#
# _framework density 21.905522000000001
#
# number of rings (size 3 to 8) (size 9 to 14) (size 15 to 20)
#    0.000    0.750    2.500    3.750    8.750    1.500 
#    0.000    0.000    0.000    0.000    0.000    0.000 
#    0.000    0.000    0.000    0.000    0.000    0.000 
#
# Total GULP energy -89138.774499 kJ/mol
# GULP energy per Si atom -5571.173406 kJ/mol
# Density = 2.185566 g / cm^3
# Si number density = 21.905522 Si / 1000 Ang^3
#
#
#
# Elastic Constant Matrix: (Units=GPa)
#
#
# Indices 1 2 3 4 5 6 
#
# 1 146.2579 52.9528 23.1201 -6.5593 12.5266 24.6412
# 2 52.9528 125.5908 17.3843 -10.1298 9.4181 19.8963
# 3 23.1201 17.3843 50.8879 -10.3572 -5.6867 -2.6737
# 4 -6.5593 -10.1298 -10.3572 29.0095 -0.4923 2.0177
# 5 12.5266 9.4181 -5.6867 -0.4923 51.5311 -0.9838
# 6 24.6412 19.8963 -2.6737 2.0177 -0.9838 40.4982
#
#
#
# Elastic Compliance Matrix: (Units=1/GPa)
#
#
# Indices 1 2 3 4 5 6 
#
# 1 0.009361 -0.002456 -0.003896 0.000163 -0.002347 -0.004811
# 2 -0.002456 0.010235 -0.002259 0.002453 -0.001573 -0.003843
# 3 -0.003896 -0.002259 0.024288 0.006735 0.004197 0.004850
# 4 0.000163 0.002453 0.006735 0.037969 0.000566 -0.002737
# 5 -0.002347 -0.001573 0.004197 0.000566 0.020789 0.002955
# 6 -0.004811 -0.003843 0.004850 -0.002737 0.002955 0.030037
#
#
# Mechanical properties :
#
#
# Convention : Reuss Voigt Hill
#
# Bulk Modulus (GPa) = 37.50731 56.62789 47.06760
# Shear Modulus (GPa) = 31.48829 39.49307 35.49068
#
# Velocity S-wave (km/s) = 3.79550 4.25064 4.02950
# Velocity P-wave (km/s) = 6.03052 7.07091 6.57134
#
# Compressibility (1/GPa) = 0.02666147
#
# Stress axis : x y z
#
# Youngs Moduli (GPa) = 106.82188 97.69997 41.17328
#
# Poissons Ratio (x) = 0.23999 0.16041
# Poissons Ratio (y) = 0.26240 0.09301
# Poissons Ratio (z) = 0.41618 0.22071
#
# Static dielectric constant tensor:
#      x y z
#    x 1.727400 -0.029600 0.428490 
#    y -0.029600 1.894450 -0.113480 
#    z 0.428490 -0.113480 0.654070 
# 
# From -- ./inp_files/446749.got.cif
#   From: 2010.05.17/outbox.cif.g08.bks.cpg/sg2_224_cif.got.tgz:446749.got - 2010.06.03 11:33:40.
