data_PCOD9020901
_publ_section_title
;
Structure prediction by ZEFSAII (Michael W. Deem and Ramdas Pophale) SiO2 
 PCOD9020901
Probable space group: P -1
;
_chemical_formula_sum "Si O2"
_cell_formula_units_Z 14
_cell_length_a 7.937818
_cell_length_b 8.964577
_cell_length_c 10.515123
_cell_angle_alpha 62.219589
_cell_angle_beta 116.747037
_cell_angle_gamma 93.144395
_cell_volume 579.697104
_symmetry_space_group_name_H-M "P -1"
_symmetry_group_IT_number 2
_symmetry_cell_setting 'triclinic'
loop_
_space_group_symop_operation_xyz
x,y,z
-x,-y,-z
loop_
_atom_site_type_symbol
_atom_site_label
_atom_site_fract_x
_atom_site_fract_y
_atom_site_fract_z
Si Si1 0.816481 0.965102 0.170873
Si Si2 0.892753 0.685305 0.511156
Si Si3 0.834607 0.496577 0.126813
Si Si4 0.471890 0.245774 0.959609
Si Si5 0.415208 0.499066 0.613419
Si Si6 0.985424 0.745998 0.934077
Si Si7 0.386693 0.194709 0.391858
O O1 0.954722 0.071989 0.106008
O O2 0.916305 0.830756 0.361314
O O3 0.691447 0.866024 0.078759
O O4 0.654888 0.112360 0.122693
O O5 0.798069 0.538478 0.469347
O O6 0.735625 0.768103 0.532800
O O7 0.085732 0.614029 0.681030
O O8 0.627002 0.606784 0.038526
O O9 0.869477 0.376229 0.063833
O O10 0.976225 0.632417 0.099953
O O11 0.505887 0.338733 0.800461
O O12 0.500000 0.500000 0.500000
O O13 0.468653 0.671442 0.621066
O O14 0.776718 0.770374 0.786661
O O15 0.500000 0.000000 0.500000
#
# Coordination Sequence:
#
# PCOD9020901 Si02
#       7
#     2   2   2   2   2   2   2
#     4  10  23  41  63  92 130 157 210 265 311 357
#     4   9  21  41  62  88 125 166 203 262 305 367
#     4  10  23  41  63  93 126 167 212 244 319 376
#     4  10  23  40  65  95 121 168 212 255 308 373
#     4   9  20  39  63  89 123 164 205 256 308 370
#     4  10  24  41  61  91 131 167 200 262 310 372
#     4  10  22  37  61  95 126 160 211 254 316 364
#
# _framework density 24.150544
#
# number of rings (size 3 to 8) (size 9 to 14) (size 15 to 20)
#    0.000    2.286    0.000    0.000   10.000    9.143 
#    0.000    0.000    0.000    0.000    0.000    0.000 
#    0.000    0.000    0.000    0.000    0.000    0.000 
#
# Total GULP energy -78299.259162 kJ/mol
# GULP energy per Si atom -5592.804226 kJ/mol
# Density = 2.409558 g / cm^3
# Si number density = 24.150544 Si / 1000 Ang^3
#
#
#
# Elastic Constant Matrix: (Units=GPa)
#
#
# Indices 1 2 3 4 5 6 
#
# 1 60.8769 58.3040 13.0595 -6.6284 -8.8795 -2.8901
# 2 58.3040 117.7180 44.6212 -34.5871 7.7463 29.7329
# 3 13.0595 44.6212 82.6260 -16.8156 -6.7902 7.8833
# 4 -6.6284 -34.5871 -16.8156 30.9733 4.4181 -5.0198
# 5 -8.8795 7.7463 -6.7902 4.4181 42.1042 -17.9575
# 6 -2.8901 29.7329 7.8833 -5.0198 -17.9575 55.4170
#
#
#
# Elastic Compliance Matrix: (Units=1/GPa)
#
#
# Indices 1 2 3 4 5 6 
#
# 1 -0.161898 0.183164 -0.042899 0.145747 -0.147755 -0.135290
# 2 0.183164 -0.186531 0.041394 -0.145918 0.154958 0.140739
# 3 -0.042899 0.041394 0.004833 0.039224 -0.033887 -0.032562
# 4 0.145747 -0.145918 0.039224 -0.077088 0.119834 0.112159
# 5 -0.147755 0.154958 -0.033887 0.119834 -0.099813 -0.107514
# 6 -0.135290 0.140739 -0.032562 0.112159 -0.107514 -0.084569
#
#
# Mechanical properties :
#
#
# Convention : Reuss Voigt Hill
#
# Bulk Modulus (GPa) = 50.70850 54.79894 52.75372
# Shear Modulus (GPa) = -5.19854 35.38130 15.09138
#
# Velocity S-wave (km/s) = -1.46875 3.83173 2.50249
# Velocity P-wave (km/s) = 4.26217 6.50507 5.49919
#
# Compressibility (1/GPa) = 0.01972056
#
# Stress axis : x y z
#
# Youngs Moduli (GPa) = -6.17672 -5.36104 206.90100
#
# Poissons Ratio (x) = 0.98195 8.87594
# Poissons Ratio (y) = 1.13135 -8.56450
# Poissons Ratio (z) = -0.26498 0.22192
#
# Static dielectric constant tensor:
#      x y z
#    x 1.976940 -0.009440 -0.007010 
#    y -0.009440 1.930100 0.008660 
#    z -0.007010 0.008660 1.890170 
# 
# From -- ./inp_files/184507.got.cif
#   From: 2010.05.17/outbox.cif.g08.bks.cpg/sg2_93_cif.got.tgz:184507.got - 2010.06.03 11:33:40.
