data_PCOD9020905
_publ_section_title
;
Structure prediction by ZEFSAII (Michael W. Deem and Ramdas Pophale) SiO2 
 PCOD9020905
Probable space group: P -1
;
_chemical_formula_sum "Si O2"
_cell_formula_units_Z 12
_cell_length_a 12.815414
_cell_length_b 7.141293
_cell_length_c 9.339098
_cell_angle_alpha 66.796682
_cell_angle_beta 131.990988
_cell_angle_gamma 124.277673
_cell_volume 524.718101
_symmetry_space_group_name_H-M "P -1"
_symmetry_group_IT_number 2
_symmetry_cell_setting 'triclinic'
loop_
_space_group_symop_operation_xyz
x,y,z
-x,-y,-z
loop_
_atom_site_type_symbol
_atom_site_label
_atom_site_fract_x
_atom_site_fract_y
_atom_site_fract_z
Si Si1 0.315133 0.027646 0.618699
Si Si2 0.128938 0.008820 0.725866
Si Si3 0.347241 0.410699 0.981340
Si Si4 0.545977 0.929884 0.712824
Si Si5 0.089281 0.140167 0.183312
Si Si6 0.657397 0.370538 0.827070
O O1 0.182280 0.018499 0.389478
O O2 0.467424 0.274767 0.666041
O O3 0.257165 0.995924 0.738909
O O4 0.390760 0.861384 0.688150
O O5 0.032853 0.847075 0.816417
O O6 0.000000 0.000000 0.500000
O O7 0.207305 0.251257 0.802452
O O8 0.384025 0.248762 0.175895
O O9 0.317573 0.588794 0.993424
O O10 0.500000 0.500000 0.000000
O O11 0.500000 0.000000 0.500000
O O12 0.671001 0.155710 0.837031
O O13 0.219577 0.395080 0.196416
O O14 0.000000 0.000000 0.000000
#
# Coordination Sequence:
#
# PCOD9020905 Si02
#       6
#     2   2   2   2   2   2
#     4   9  21  40  61  93 131 167 222 269 320 385
#     4  10  22  37  61  96 129 169 214 264 327 392
#     4  12  22  40  71  94 126 177 221 270 328 389
#     4  10  24  39  68 100 131 162 232 278 316 383
#     4  11  20  35  67  93 132 178 212 262 336 395
#     4  10  22  38  65  96 122 170 225 263 323 384
#
# _framework density 22.869423999999999
#
# number of rings (size 3 to 8) (size 9 to 14) (size 15 to 20)
#    1.000    0.667    3.333    1.500    2.333    2.667 
#    0.000    0.833    3.667    6.000    0.000    0.000 
#    0.000    0.000    0.000    0.000    0.000    0.000 
#
# Total GULP energy -66867.844593 kJ/mol
# GULP energy per Si atom -5572.320383 kJ/mol
# Density = 2.281737 g / cm^3
# Si number density = 22.869424 Si / 1000 Ang^3
#
#
#
# Elastic Constant Matrix: (Units=GPa)
#
#
# Indices 1 2 3 4 5 6 
#
# 1 129.8473 42.2977 39.9033 2.5919 -19.7351 29.8880
# 2 42.2977 68.2462 32.9878 1.5905 0.9727 15.8583
# 3 39.9033 32.9878 136.6241 15.0640 -5.7061 2.8875
# 4 2.5919 1.5905 15.0640 24.9891 6.0935 -0.2133
# 5 -19.7351 0.9727 -5.7061 6.0935 45.0485 -1.0936
# 6 29.8880 15.8583 2.8875 -0.2133 -1.0936 44.4011
#
#
#
# Elastic Compliance Matrix: (Units=1/GPa)
#
#
# Indices 1 2 3 4 5 6 
#
# 1 0.012212 -0.005334 -0.001802 -0.001172 0.005248 -0.006074
# 2 -0.005334 0.020609 -0.003756 0.002369 -0.003665 -0.003605
# 3 -0.001802 -0.003756 0.009373 -0.005518 0.001273 0.001950
# 4 -0.001172 0.002369 -0.005518 0.045112 -0.007357 0.000337
# 5 0.005248 -0.003665 0.001273 -0.007357 0.025691 -0.001709
# 6 -0.006074 -0.003605 0.001950 0.000337 -0.001709 0.027731
#
#
# Mechanical properties :
#
#
# Convention : Reuss Voigt Hill
#
# Bulk Modulus (GPa) = 48.99615 62.78837 55.89226
# Shear Modulus (GPa) = 29.53081 37.52301 33.52691
#
# Velocity S-wave (km/s) = 3.59734 4.05501 3.83301
# Velocity P-wave (km/s) = 6.22296 7.03128 6.63943
#
# Compressibility (1/GPa) = 0.02040977
#
# Stress axis : x y z
#
# Youngs Moduli (GPa) = 81.88849 48.52283 106.68975
#
# Poissons Ratio (x) = 0.25880 0.19226
# Poissons Ratio (y) = 0.43675 0.40076
# Poissons Ratio (z) = 0.14757 0.18227
#
# Static dielectric constant tensor:
#      x y z
#    x 1.953490 0.023010 0.041960 
#    y 0.023010 1.924380 -0.095780 
#    z 0.041960 -0.095780 1.966120 
# 
# From -- ./inp_files/191508.got.cif
#   From: 2010.05.17/outbox.cif.g08.bks.cpg/sg2_96_cif.got.tgz:191508.got - 2010.06.03 11:33:40.
