data_PCOD9020869
_publ_section_title
;
Structure prediction by ZEFSAII (Michael W. Deem and Ramdas Pophale) SiO2 
 PCOD9020869
Probable space group: P -1
;
_chemical_formula_sum "Si O2"
_cell_formula_units_Z 16
_cell_length_a 10.212582
_cell_length_b 14.007679
_cell_length_c 12.597005
_cell_angle_alpha 59.640309
_cell_angle_beta 144.329445
_cell_angle_gamma 134.195153
_cell_volume 745.375503
_symmetry_space_group_name_H-M "P -1"
_symmetry_group_IT_number 2
_symmetry_cell_setting 'triclinic'
loop_
_space_group_symop_operation_xyz
x,y,z
-x,-y,-z
loop_
_atom_site_type_symbol
_atom_site_label
_atom_site_fract_x
_atom_site_fract_y
_atom_site_fract_z
Si Si1 0.397903 0.706171 0.182046
Si Si2 0.439520 0.947134 0.193757
Si Si3 0.999024 0.431909 0.196921
Si Si4 0.779955 0.516342 0.200959
Si Si5 0.160502 0.084476 0.954553
Si Si6 0.223485 0.830595 0.353145
Si Si7 0.013718 0.221526 0.450401
Si Si8 0.649283 0.263563 0.328393
O O1 0.373434 0.819901 0.155022
O O2 0.716704 0.768820 0.349161
O O3 0.241871 0.570462 0.226461
O O4 0.245548 0.655004 0.998536
O O5 0.357017 0.900404 0.289103
O O6 0.261028 0.003109 0.006297
O O7 0.756403 0.073345 0.330260
O O8 0.886989 0.472961 0.197657
O O9 0.083853 0.333668 0.345483
O O10 0.719443 0.410336 0.313768
O O11 0.009844 0.671082 0.286287
O O12 0.500000 0.500000 0.000000
O O13 0.432882 0.208547 0.120362
O O14 0.964595 0.121247 0.755186
O O15 0.000000 0.000000 0.000000
O O16 0.438170 0.837007 0.573537
O O17 0.903647 0.265819 0.449610
#
# Coordination Sequence:
#
# PCOD9020869 Si02
#       8
#     2   2   2   2   2   2   2   2
#     4  11  22  44  67  87 124 169 213 257 314 363
#     4  10  22  41  64  95 127 167 211 258 309 378
#     4  10  24  43  65  93 123 164 211 262 311 372
#     4  11  21  39  66  93 128 159 204 263 317 371
#     4   9  20  37  57  84 127 159 198 253 305 361
#     4  11  21  40  63  91 133 164 200 261 317 373
#     4  10  23  40  63  91 128 162 210 261 309 366
#     4  10  22  37  60  97 122 165 207 248 318 381
#
# _framework density 21.465691
#
# number of rings (size 3 to 8) (size 9 to 14) (size 15 to 20)
#    0.000    1.750    2.500    1.125    1.750    5.000 
#    0.000    7.500    0.000    0.000    0.000    0.000 
#    0.000    0.000    0.000    0.000    0.000    0.000 
#
# Total GULP energy -89338.857248 kJ/mol
# GULP energy per Si atom -5583.678578 kJ/mol
# Density = 2.141683 g / cm^3
# Si number density = 21.465691 Si / 1000 Ang^3
#
#
#
# Elastic Constant Matrix: (Units=GPa)
#
#
# Indices 1 2 3 4 5 6 
#
# 1 38.4874 24.8851 19.2037 4.2267 8.9285 -11.2721
# 2 24.8851 144.3571 52.5452 -0.3248 6.2893 -19.8943
# 3 19.2037 52.5452 77.5745 -3.2576 11.3544 -7.4574
# 4 4.2267 -0.3248 -3.2576 33.0665 7.1358 -1.6132
# 5 8.9285 6.2893 11.3544 7.1358 25.7755 -2.4126
# 6 -11.2721 -19.8943 -7.4574 -1.6132 -2.4126 21.3098
#
#
#
# Elastic Compliance Matrix: (Units=1/GPa)
#
#
# Indices 1 2 3 4 5 6 
#
# 1 0.036170 -0.002044 -0.005194 -0.002811 -0.007623 0.014331
# 2 -0.002044 0.010342 -0.006104 -0.000254 0.001561 0.006595
# 3 -0.005194 -0.006104 0.019201 0.003775 -0.006417 -0.002168
# 4 -0.002811 -0.000254 0.003775 0.033113 -0.009700 0.001006
# 5 -0.007623 0.001561 -0.006417 -0.009700 0.046542 -0.000286
# 6 0.014331 0.006595 -0.002168 0.001006 -0.000286 0.059950
#
#
# Mechanical properties :
#
#
# Convention : Reuss Voigt Hill
#
# Bulk Modulus (GPa) = 25.62251 50.40965 38.01608
# Shear Modulus (GPa) = 20.40723 26.94935 23.67829
#
# Velocity S-wave (km/s) = 3.08667 3.54709 3.32486
# Velocity P-wave (km/s) = 4.96647 6.34907 5.69984
#
# Compressibility (1/GPa) = 0.03902818
#
# Stress axis : x y z
#
# Youngs Moduli (GPa) = 27.64720 96.69496 52.08114
#
# Poissons Ratio (x) = 0.19762 0.27052
# Poissons Ratio (y) = 0.05650 0.31792
# Poissons Ratio (z) = 0.14361 0.59025
#
# Static dielectric constant tensor:
#      x y z
#    x 1.782650 0.045070 -0.036090 
#    y 0.045070 1.905170 0.030860 
#    z -0.036090 0.030860 1.817460 
# 
# From -- ./inp_files/521578.got.cif
#   From: 2010.05.17/outbox.cif.g08.bks.cpg/sg2_261_cif.got.tgz:521578.got - 2010.06.03 11:33:40.
