data_PCOD9020345
_publ_section_title
;
Structure prediction by ZEFSAII (Michael W. Deem and Ramdas Pophale) SiO2 
 PCOD9020345
Probable space group: P -1
;
_chemical_formula_sum "Si O2"
_cell_formula_units_Z 15
_cell_length_a 8.956277
_cell_length_b 12.126004
_cell_length_c 18.562209
_cell_angle_alpha 29.654713
_cell_angle_beta 49.896031
_cell_angle_gamma 69.297773
_cell_volume 639.591538
_symmetry_space_group_name_H-M "P -1"
_symmetry_group_IT_number 2
_symmetry_cell_setting 'triclinic'
loop_
_space_group_symop_operation_xyz
x,y,z
-x,-y,-z
loop_
_atom_site_type_symbol
_atom_site_label
_atom_site_fract_x
_atom_site_fract_y
_atom_site_fract_z
Si Si1 0.426728 0.941560 0.318060
Si Si2 0.500000 0.000000 0.500000
Si Si3 0.195861 0.698363 0.671680
Si Si4 0.279966 0.613832 0.924076
Si Si5 0.089962 0.023612 0.878644
Si Si6 0.227523 0.096447 0.166912
Si Si7 0.389995 0.394370 0.810201
Si Si8 0.857577 0.632404 0.455697
O O1 0.255745 0.722346 0.555371
O O2 0.660958 0.945093 0.226112
O O3 0.512998 0.209773 0.184210
O O4 0.303226 0.947141 0.281337
O O5 0.285047 0.971235 0.530748
O O6 0.305603 0.801360 0.743389
O O7 0.399319 0.670261 0.666156
O O8 0.945417 0.490724 0.896196
O O9 0.253526 0.348858 0.053748
O O10 0.121170 0.275539 0.684706
O O11 0.000000 0.000000 0.000000
O O12 0.864630 0.777419 0.048445
O O13 0.395700 0.237254 0.965536
O O14 0.979957 0.887498 0.326058
O O15 0.589769 0.452370 0.661437
O O16 0.000000 0.500000 0.500000
#
# Coordination Sequence:
#
# PCOD9020345 Si02
#       8
#     2   1   2   2   2   2   2   2
#     4  11  25  44  66 108 143 183 235 286 353 422
#     4  10  22  34  68 100 136 182 228 280 334 416
#     4  11  22  39  69  98 142 179 232 281 340 421
#     4  11  23  42  70 103 146 185 234 284 353 414
#     4  11  26  45  74  99 136 185 239 292 354 414
#     4  11  27  43  71 103 145 187 228 289 355 418
#     4  11  24  46  70  99 137 182 234 290 347 418
#     4  11  28  48  70 104 138 180 241 292 354 420
#
# _framework density 23.452466000000001
#
# number of rings (size 3 to 8) (size 9 to 14) (size 15 to 20)
#    0.000    1.067    4.000    0.800    5.600    4.267 
#    0.000    0.000    0.000    0.000    0.000    0.000 
#    0.000    0.000    0.000    0.000    0.000    0.000 
#
# Total GULP energy -83571.067094 kJ/mol
# GULP energy per Si atom -5571.404473 kJ/mol
# Density = 2.339909 g / cm^3
# Si number density = 23.452466 Si / 1000 Ang^3
#
#
#
# Elastic Constant Matrix: (Units=GPa)
#
#
# Indices 1 2 3 4 5 6 
#
# 1 106.9919 27.8029 54.1037 32.3967 34.3467 15.1705
# 2 27.8029 78.8095 44.3646 30.9667 17.6189 5.2178
# 3 54.1037 44.3646 152.9537 57.4328 21.1797 -3.7094
# 4 32.3967 30.9667 57.4328 49.6358 8.9553 6.9876
# 5 34.3467 17.6189 21.1797 8.9553 39.1471 7.7425
# 6 15.1705 5.2178 -3.7094 6.9876 7.7425 33.0863
#
#
#
# Elastic Compliance Matrix: (Units=1/GPa)
#
#
# Indices 1 2 3 4 5 6 
#
# 1 0.016247 0.000576 -0.002325 -0.005698 -0.011164 -0.003985
# 2 0.000576 0.018097 -0.001140 -0.009292 -0.005928 0.000104
# 3 -0.002325 -0.001140 0.013322 -0.013563 -0.002789 0.006257
# 4 -0.005698 -0.009292 -0.013563 0.045169 0.007934 -0.008839
# 5 -0.011164 -0.005928 -0.002789 0.007934 0.038688 -0.004988
# 6 -0.003985 0.000104 0.006257 -0.008839 -0.004988 0.035770
#
#
# Mechanical properties :
#
#
# Convention : Reuss Voigt Hill
#
# Bulk Modulus (GPa) = 23.87424 65.69972 44.78698
# Shear Modulus (GPa) = 26.73290 38.53943 32.63616
#
# Velocity S-wave (km/s) = 3.37987 4.05816 3.73445
# Velocity P-wave (km/s) = 5.04314 7.07340 6.14273
#
# Compressibility (1/GPa) = 0.04188614
#
# Stress axis : x y z
#
# Youngs Moduli (GPa) = 61.54999 55.25745 75.06389
#
# Poissons Ratio (x) = -0.03182 0.17455
# Poissons Ratio (y) = -0.03544 0.08561
# Poissons Ratio (z) = 0.14312 0.06302
#
# Static dielectric constant tensor:
#      x y z
#    x 1.913140 0.057840 -0.019230 
#    y 0.057840 2.238530 -0.274710 
#    z -0.019230 -0.274710 2.138880 
# 
# From -- ./inp_files/559525.got.cif
#   From: 2010.05.17/outbox.cif.g08.bks.cpg/sg2_280_cif.got.tgz:559525.got - 2010.06.03 11:33:40.
