data_PCOD9020818
_publ_section_title
;
Structure prediction by ZEFSAII (Michael W. Deem and Ramdas Pophale) SiO2 
 PCOD9020818
Probable space group: P -1
;
_chemical_formula_sum "Si O2"
_cell_formula_units_Z 14
_cell_length_a 5.088765
_cell_length_b 9.875550
_cell_length_c 23.165366
_cell_angle_alpha 150.642901
_cell_angle_beta 114.314350
_cell_angle_gamma 76.939481
_cell_volume 496.567307
_symmetry_space_group_name_H-M "P -1"
_symmetry_group_IT_number 2
_symmetry_cell_setting 'triclinic'
loop_
_space_group_symop_operation_xyz
x,y,z
-x,-y,-z
loop_
_atom_site_type_symbol
_atom_site_label
_atom_site_fract_x
_atom_site_fract_y
_atom_site_fract_z
Si Si1 0.420827 0.913304 0.207546
Si Si2 0.266659 0.614212 0.818008
Si Si3 0.783182 0.316372 0.588942
Si Si4 0.737662 0.840620 0.851021
Si Si5 0.989730 0.729221 0.659313
Si Si6 0.673012 0.980549 0.642682
Si Si7 0.834825 0.560213 0.919689
O O1 0.550983 0.004783 0.318923
O O2 0.285461 0.571715 0.077258
O O3 0.155176 0.059076 0.239792
O O4 0.672031 0.079314 0.248769
O O5 0.053421 0.320373 0.658989
O O6 0.450065 0.805790 0.852482
O O7 0.535317 0.591623 0.873602
O O8 0.031657 0.768030 0.880042
O O9 0.658564 0.561053 0.698038
O O10 0.926722 0.451660 0.590700
O O11 0.495282 0.058599 0.447531
O O12 0.885382 0.155088 0.953688
O O13 0.810009 0.723434 0.579518
O O14 0.909123 0.296550 0.792624
#
# Coordination Sequence:
#
# PCOD9020818 Si02
#       7
#     2   2   2   2   2   2   2
#     4   8  21  34  61  81 109 154 186 233 275 332
#     4  10  23  36  64  84 114 151 190 237 282 337
#     4  10  22  37  59  90 117 145 193 235 287 332
#     4  10  23  38  60  86 113 154 189 234 283 337
#     4   9  19  37  57  85 113 152 189 229 278 344
#     4   8  21  37  60  85 115 152 187 235 284 332
#     4   9  20  43  59  85 114 150 198 227 286 344
#
# _framework density 28.193556000000001
#
# number of rings (size 3 to 8) (size 9 to 14) (size 15 to 20)
#    2.571    0.000    0.000    1.286    2.000    6.857 
#    0.000    4.286    0.000    0.000    0.000    0.000 
#    0.000    0.000    0.000    0.000    0.000    0.000 
#
# Total GULP energy -78079.068605 kJ/mol
# GULP energy per Si atom -5577.076329 kJ/mol
# Density = 2.812939 g / cm^3
# Si number density = 28.193556 Si / 1000 Ang^3
#
#
#
# Elastic Constant Matrix: (Units=GPa)
#
#
# Indices 1 2 3 4 5 6 
#
# 1 114.6625 18.5999 16.5493 0.0571 22.4881 15.1157
# 2 18.5999 46.7507 2.3198 6.0130 7.1608 7.0294
# 3 16.5493 2.3198 110.4598 -16.7927 20.2880 4.1586
# 4 0.0571 6.0130 -16.7927 48.3039 0.6524 12.5690
# 5 22.4881 7.1608 20.2880 0.6524 27.7655 6.2140
# 6 15.1157 7.0294 4.1586 12.5690 6.2140 41.5622
#
#
#
# Elastic Compliance Matrix: (Units=1/GPa)
#
#
# Indices 1 2 3 4 5 6 
#
# 1 0.011055 -0.002970 0.000104 0.001211 -0.007677 -0.002747
# 2 -0.002970 0.023649 0.000294 -0.002343 -0.003468 -0.001722
# 3 0.000104 0.000294 0.011240 0.004318 -0.008184 -0.001294
# 4 0.001211 -0.002343 0.004318 0.024483 -0.002425 -0.007518
# 5 -0.007677 -0.003468 -0.008184 -0.002425 0.049726 -0.002504
# 6 -0.002747 -0.001722 -0.001294 -0.007518 -0.002504 0.028128
#
#
# Mechanical properties :
#
#
# Convention : Reuss Voigt Hill
#
# Bulk Modulus (GPa) = 24.51089 38.53455 31.52272
# Shear Modulus (GPa) = 29.93561 39.15325 34.54443
#
# Velocity S-wave (km/s) = 3.26205 3.73061 3.50417
# Velocity P-wave (km/s) = 4.78546 5.67927 5.25142
#
# Compressibility (1/GPa) = 0.04079819
#
# Stress axis : x y z
#
# Youngs Moduli (GPa) = 90.45359 42.28576 88.96997
#
# Poissons Ratio (x) = 0.12560 -0.00923
# Poissons Ratio (y) = 0.26868 -0.02614
# Poissons Ratio (z) = -0.00938 -0.01243
#
# Static dielectric constant tensor:
#      x y z
#    x 2.139090 -0.043240 0.002890 
#    y -0.043240 2.383230 -0.047130 
#    z 0.002890 -0.047130 2.316090 
# 
# From -- ./inp_files/79546.got.cif
#   From: 2010.05.17/outbox.cif.g08.bks.cpg/sg2_40_cif.got.tgz:79546.got - 2010.06.03 11:33:40.
