data_PCOD9020629
_publ_section_title
;
Structure prediction by ZEFSAII (Michael W. Deem and Ramdas Pophale) SiO2 
 PCOD9020629
Probable space group: P -1
;
_chemical_formula_sum "Si O2"
_cell_formula_units_Z 16
_cell_length_a 19.404339
_cell_length_b 18.978153
_cell_length_c 9.121615
_cell_angle_alpha 49.026054
_cell_angle_beta 46.047373
_cell_angle_gamma 16.263341
_cell_volume 676.311008
_symmetry_space_group_name_H-M "P -1"
_symmetry_group_IT_number 2
_symmetry_cell_setting 'triclinic'
loop_
_space_group_symop_operation_xyz
x,y,z
-x,-y,-z
loop_
_atom_site_type_symbol
_atom_site_label
_atom_site_fract_x
_atom_site_fract_y
_atom_site_fract_z
Si Si1 0.129639 0.512763 0.203155
Si Si2 0.325376 0.931014 0.872577
Si Si3 0.206127 0.891987 0.302121
Si Si4 0.869046 0.212048 0.839672
Si Si5 0.285913 0.893602 0.474024
Si Si6 0.058320 0.387686 0.335217
Si Si7 0.516741 0.826414 0.414025
Si Si8 0.444724 0.537492 0.785929
O O1 0.415762 0.294402 0.103932
O O2 0.047515 0.546957 0.437193
O O3 0.136770 0.423902 0.194700
O O4 0.894219 0.795725 0.133979
O O5 0.421255 0.862120 0.658483
O O6 0.188118 0.957502 0.080867
O O7 0.204866 0.971709 0.319467
O O8 0.475243 0.593740 0.292978
O O9 0.000000 0.000000 0.500000
O O10 0.685447 0.348791 0.791131
O O11 0.713762 0.384805 0.975086
O O12 0.056179 0.118274 0.622616
O O13 0.000000 0.000000 0.000000
O O14 0.507251 0.759504 0.388496
O O15 0.333680 0.738961 0.632762
O O16 0.806686 0.601528 0.313967
O O17 0.306030 0.099159 0.326280
#
# Coordination Sequence:
#
# PCOD9020629 Si02
#       8
#     2   2   2   2   2   2   2   2
#     4   9  18  39  64  96 126 159 203 263 328 380
#     4  10  23  38  63  94 127 166 214 264 311 385
#     4  12  26  43  60  89 127 176 223 264 317 373
#     4   9  20  37  60  87 109 157 209 281 314 370
#     4  11  24  39  60  86 127 165 216 267 318 381
#     4   9  18  36  66  97 127 155 201 264 328 390
#     4  10  22  36  63  99 125 162 208 265 321 381
#     4  10  22  39  61  82 116 168 216 268 321 370
#
# _framework density 23.657755999999999
#
# number of rings (size 3 to 8) (size 9 to 14) (size 15 to 20)
#    0.000    2.000    1.250    1.125    7.000    7.000 
#    0.000    0.000    0.000    4.500    0.000    0.000 
#    0.000    0.000    0.000    0.000    0.000    0.000 
#
# Total GULP energy -89333.582337 kJ/mol
# GULP energy per Si atom -5583.348896 kJ/mol
# Density = 2.360391 g / cm^3
# Si number density = 23.657756 Si / 1000 Ang^3
#
#
#
# Elastic Constant Matrix: (Units=GPa)
#
#
# Indices 1 2 3 4 5 6 
#
# 1 127.9172 30.1876 11.5409 5.5154 -2.8256 -13.3790
# 2 30.1876 85.4728 12.4371 1.2379 -0.2693 -15.6391
# 3 11.5409 12.4371 27.9407 3.1420 -6.3875 -1.0238
# 4 5.5154 1.2379 3.1420 26.7159 2.1228 0.4771
# 5 -2.8256 -0.2693 -6.3875 2.1228 18.8898 -5.2149
# 6 -13.3790 -15.6391 -1.0238 0.4771 -5.2149 37.4294
#
#
#
# Elastic Compliance Matrix: (Units=1/GPa)
#
#
# Indices 1 2 3 4 5 6 
#
# 1 0.008914 -0.002397 -0.002011 -0.001650 0.001455 0.002354
# 2 -0.002397 0.014201 -0.005360 0.000435 -0.000684 0.004830
# 3 -0.002011 -0.005360 0.043058 -0.005592 0.014913 0.000369
# 4 -0.001650 0.000435 -0.005592 0.039008 -0.007080 -0.002045
# 5 0.001455 -0.000684 0.014913 -0.007080 0.061554 0.009308
# 6 0.002354 0.004830 0.000369 -0.002045 0.009308 0.030909
#
#
# Mechanical properties :
#
#
# Convention : Reuss Voigt Hill
#
# Bulk Modulus (GPa) = 21.44136 38.85132 30.14634
# Shear Modulus (GPa) = 21.48457 29.08470 25.28463
#
# Velocity S-wave (km/s) = 3.01681 3.51007 3.27275
# Velocity P-wave (km/s) = 4.60626 5.73458 5.20111
#
# Compressibility (1/GPa) = 0.04663884
#
# Stress axis : x y z
#
# Youngs Moduli (GPa) = 112.18305 70.41681 23.22457
#
# Poissons Ratio (x) = 0.16876 0.04670
# Poissons Ratio (y) = 0.26885 0.12448
# Poissons Ratio (z) = 0.22558 0.37741
#
# Static dielectric constant tensor:
#      x y z
#    x 1.891380 0.013150 0.011610 
#    y 0.013150 2.005600 0.009380 
#    z 0.011610 0.009380 1.925780 
# 
# From -- ./inp_files/90646.got.cif
#   From: 2010.05.17/outbox.cif.g08.bks.cpg/sg2_46_cif.got.tgz:90646.got - 2010.06.03 11:33:40.
