data_PCOD9020774
_publ_section_title
;
Structure prediction by ZEFSAII (Michael W. Deem and Ramdas Pophale) SiO2 
 PCOD9020774
Probable space group: P -1
;
_chemical_formula_sum "Si O2"
_cell_formula_units_Z 16
_cell_length_a 20.033630
_cell_length_b 15.380442
_cell_length_c 11.836968
_cell_angle_alpha 137.493255
_cell_angle_beta 153.301490
_cell_angle_gamma 26.362501
_cell_volume 690.098760
_symmetry_space_group_name_H-M "P -1"
_symmetry_group_IT_number 2
_symmetry_cell_setting 'triclinic'
loop_
_space_group_symop_operation_xyz
x,y,z
-x,-y,-z
loop_
_atom_site_type_symbol
_atom_site_label
_atom_site_fract_x
_atom_site_fract_y
_atom_site_fract_z
Si Si1 0.865241 0.503013 0.078049
Si Si2 0.218307 0.166658 0.739030
Si Si3 0.760123 0.227743 0.817235
Si Si4 0.534548 0.281490 0.925997
Si Si5 0.686578 0.177797 0.407307
Si Si6 0.017818 0.793723 0.211896
Si Si7 0.331970 0.516109 0.614492
Si Si8 0.102729 0.583102 0.721464
O O1 0.592355 0.665196 0.860624
O O2 0.944770 0.335716 0.955462
O O3 0.879977 0.633135 0.166741
O O4 0.990483 0.427433 0.318300
O O5 0.100098 0.243756 0.509970
O O6 0.181480 0.049251 0.620979
O O7 0.500000 0.000000 0.000000
O O8 0.723129 0.213746 0.620024
O O9 0.537733 0.341897 0.668107
O O10 0.810703 0.341899 0.020444
O O11 0.000000 0.000000 0.000000
O O12 0.393096 0.389158 0.695727
O O13 0.340906 0.378044 0.820124
O O14 0.628755 0.362741 0.169490
O O15 0.757927 0.033669 0.034296
O O16 0.793900 0.214245 0.523615
O O17 0.091518 0.677224 0.330001
#
# Coordination Sequence:
#
# PCOD9020774 Si02
#       8
#     2   2   2   2   2   2   2   2
#     4  11  23  40  65  98 132 168 219 277 321 387
#     4  10  24  41  62  93 132 175 215 266 333 392
#     4  11  18  31  61  99 124 160 207 271 328 371
#     4  10  24  39  60 100 133 176 211 265 336 394
#     4  11  20  37  64 100 131 161 214 270 330 389
#     4  12  22  40  68 100 133 168 219 271 331 386
#     4  10  22  37  57  95 143 165 207 267 327 392
#     4  11  22  41  64  93 134 166 216 272 328 386
#
# _framework density 23.185089000000001
#
# number of rings (size 3 to 8) (size 9 to 14) (size 15 to 20)
#    0.000    1.250    3.750    3.375    3.500    0.000 
#    2.250    0.625    0.000    0.750    0.000    0.000 
#    0.000    0.000    0.000    0.000    0.000    0.000 
#
# Total GULP energy -89404.899916 kJ/mol
# GULP energy per Si atom -5587.806245 kJ/mol
# Density = 2.313232 g / cm^3
# Si number density = 23.185089 Si / 1000 Ang^3
#
#
#
# Elastic Constant Matrix: (Units=GPa)
#
#
# Indices 1 2 3 4 5 6 
#
# 1 85.0200 69.8566 40.6163 -3.7775 -13.9280 -7.6602
# 2 69.8566 178.2485 53.7054 -14.0846 -7.9440 1.7363
# 3 40.6163 53.7054 110.0545 -23.4333 -15.3084 -0.0162
# 4 -3.7775 -14.0846 -23.4333 29.9452 10.1752 0.9408
# 5 -13.9280 -7.9440 -15.3084 10.1752 41.5264 2.1223
# 6 -7.6602 1.7363 -0.0162 0.9408 2.1223 22.5925
#
#
#
# Elastic Compliance Matrix: (Units=1/GPa)
#
#
# Indices 1 2 3 4 5 6 
#
# 1 0.021326 -0.007205 -0.005051 -0.006639 0.005152 0.007573
# 2 -0.007205 0.009030 -0.001361 0.002969 -0.001760 -0.003096
# 3 -0.005051 -0.001361 0.013703 0.009187 0.000952 -0.002070
# 4 -0.006639 0.002969 0.009187 0.044292 -0.008947 -0.003477
# 5 0.005152 -0.001760 0.000952 -0.008947 0.028035 -0.000378
# 6 0.007573 -0.003096 -0.002070 -0.003477 -0.000378 0.047247
#
#
# Mechanical properties :
#
#
# Convention : Reuss Voigt Hill
#
# Bulk Modulus (GPa) = 59.42974 77.96440 68.69707
# Shear Modulus (GPa) = 25.44868 32.75580 29.10224
#
# Velocity S-wave (km/s) = 3.31665 3.76280 3.54674
# Velocity P-wave (km/s) = 6.35258 7.25108 6.81665
#
# Compressibility (1/GPa) = 0.01682659
#
# Stress axis : x y z
#
# Youngs Moduli (GPa) = 46.89120 110.74148 72.97871
#
# Poissons Ratio (x) = 0.79787 0.36858
# Poissons Ratio (y) = 0.33784 0.09930
# Poissons Ratio (z) = 0.23682 0.15068
#
# Static dielectric constant tensor:
#      x y z
#    x 1.858440 0.005110 0.005130 
#    y 0.005110 1.811300 -0.023250 
#    z 0.005130 -0.023250 1.862400 
# 
# From -- ./inp_files/475448.got.cif
#   From: 2010.05.17/outbox.cif.g08.bks.cpg/sg2_238_cif.got.tgz:475448.got - 2010.06.03 11:33:40.
