data_PCOD9020320
_publ_section_title
;
Structure prediction by ZEFSAII (Michael W. Deem and Ramdas Pophale) SiO2 
 PCOD9020320
Probable space group: P -1
;
_chemical_formula_sum "Si O2"
_cell_formula_units_Z 14
_cell_length_a 11.207515
_cell_length_b 8.775368
_cell_length_c 17.230714
_cell_angle_alpha 123.486504
_cell_angle_beta 33.121565
_cell_angle_gamma 111.375600
_cell_volume 754.360500
_symmetry_space_group_name_H-M "P -1"
_symmetry_group_IT_number 2
_symmetry_cell_setting 'triclinic'
loop_
_space_group_symop_operation_xyz
x,y,z
-x,-y,-z
loop_
_atom_site_type_symbol
_atom_site_label
_atom_site_fract_x
_atom_site_fract_y
_atom_site_fract_z
Si Si1 0.163468 0.076181 0.874889
Si Si2 0.347603 0.463289 0.318998
Si Si3 0.931408 0.740840 0.681247
Si Si4 0.950816 0.881177 0.233232
Si Si5 0.562412 0.784951 0.512938
Si Si6 0.825369 0.517823 0.028633
Si Si7 0.751090 0.485193 0.447542
O O1 0.074421 0.092637 0.838744
O O2 0.404195 0.936333 0.696090
O O3 0.172979 0.284537 0.955322
O O4 0.000000 0.000000 0.000000
O O5 0.285971 0.312571 0.251682
O O6 0.347450 0.396921 0.389521
O O7 0.138625 0.642724 0.484495
O O8 0.577191 0.521738 0.194116
O O9 0.006688 0.629113 0.689335
O O10 0.940609 0.954397 0.747101
O O11 0.709229 0.881631 0.402642
O O12 0.095149 0.675095 0.114210
O O13 0.723486 0.623749 0.429797
O O14 0.397381 0.670862 0.528001
O O15 0.000000 0.500000 0.000000
#
# Coordination Sequence:
#
# PCOD9020320 Si02
#       7
#     2   2   2   2   2   2   2
#     4  11  23  35  57  87 118 151 188 241 294 337
#     4   9  18  38  61  85 116 153 196 232 286 340
#     4   9  19  36  63  82 115 160 191 233 279 353
#     4  11  22  36  56  88 117 153 192 231 296 342
#     4  11  21  34  61  85 120 149 186 247 288 340
#     4  10  22  34  58  83 119 143 189 241 288 331
#     4   9  19  33  60  86 111 149 195 233 286 338
#
# _framework density 18.558765999999999
#
# number of rings (size 3 to 8) (size 9 to 14) (size 15 to 20)
#    0.857    1.143    1.429    3.000    8.000    0.571 
#    0.000    0.714    0.000    1.714    0.000    0.000 
#    0.000    0.000    0.000    0.000    0.000    0.000 
#
# Total GULP energy -77968.121456 kJ/mol
# GULP energy per Si atom -5569.151533 kJ/mol
# Density = 1.851652 g / cm^3
# Si number density = 18.558766 Si / 1000 Ang^3
#
#
#
# Elastic Constant Matrix: (Units=GPa)
#
#
# Indices 1 2 3 4 5 6 
#
# 1 64.0004 48.5296 3.2899 -3.6598 0.1986 8.3859
# 2 48.5296 118.7886 40.0322 4.9671 7.2296 15.1481
# 3 3.2899 40.0322 70.4433 -6.8107 1.3881 -1.2230
# 4 -3.6598 4.9671 -6.8107 41.3239 2.7952 9.0419
# 5 0.1986 7.2296 1.3881 2.7952 19.5698 -2.9835
# 6 8.3859 15.1481 -1.2230 9.0419 -2.9835 22.1416
#
#
#
# Elastic Compliance Matrix: (Units=1/GPa)
#
#
# Indices 1 2 3 4 5 6 
#
# 1 0.025493 -0.012664 0.006407 0.005158 0.002869 -0.002357
# 2 -0.012664 0.018659 -0.010288 -0.002768 -0.006911 -0.008338
# 3 0.006407 -0.010288 0.020159 0.003997 0.002409 0.004418
# 4 0.005158 -0.002768 0.003997 0.028688 -0.005281 -0.012266
# 5 0.002869 -0.006911 0.002409 -0.005281 0.056266 0.013513
# 6 -0.002357 -0.008338 0.004418 -0.012266 0.013513 0.058835
#
#
# Mechanical properties :
#
#
# Convention : Reuss Voigt Hill
#
# Bulk Modulus (GPa) = 32.02968 48.54842 40.28905
# Shear Modulus (GPa) = 19.87302 27.36576 23.61939
#
# Velocity S-wave (km/s) = 3.27588 3.84415 3.57134
# Velocity P-wave (km/s) = 5.62179 6.77638 6.22591
#
# Compressibility (1/GPa) = 0.03122105
#
# Stress axis : x y z
#
# Youngs Moduli (GPa) = 39.22640 53.59385 49.60551
#
# Poissons Ratio (x) = 0.67871 -0.31784
# Poissons Ratio (y) = 0.49676 0.51036
# Poissons Ratio (z) = -0.25134 0.55140
#
# Static dielectric constant tensor:
#      x y z
#    x 1.632980 -0.059620 0.100530 
#    y -0.059620 1.530540 0.228230 
#    z 0.100530 0.228230 1.336300 
# 
# From -- ./inp_files/566113.got.cif
#   From: 2010.05.17/outbox.cif.g08.bks.cpg/sg2_284_cif.got.tgz:566113.got - 2010.06.03 11:33:40.
