data_PCOD9020751
_publ_section_title
;
Structure prediction by ZEFSAII (Michael W. Deem and Ramdas Pophale) SiO2 
 PCOD9020751
Probable space group: P -1
;
_chemical_formula_sum "Si O2"
_cell_formula_units_Z 16
_cell_length_a 9.283128
_cell_length_b 26.149019
_cell_length_c 5.409870
_cell_angle_alpha 66.513798
_cell_angle_beta 82.922062
_cell_angle_gamma 38.877791
_cell_volume 714.960066
_symmetry_space_group_name_H-M "P -1"
_symmetry_group_IT_number 2
_symmetry_cell_setting 'triclinic'
loop_
_space_group_symop_operation_xyz
x,y,z
-x,-y,-z
loop_
_atom_site_type_symbol
_atom_site_label
_atom_site_fract_x
_atom_site_fract_y
_atom_site_fract_z
Si Si1 0.423903 0.225390 0.758363
Si Si2 0.093550 0.411172 0.714423
Si Si3 0.178977 0.213413 0.151640
Si Si4 0.348689 0.055895 0.675950
Si Si5 0.820377 0.180097 0.575421
Si Si6 0.996298 0.366697 0.201201
Si Si7 0.375513 0.484385 0.656467
Si Si8 0.237348 0.732249 0.077752
O O1 0.333822 0.310180 0.748453
O O2 0.673604 0.168011 0.687827
O O3 0.202101 0.282702 0.508090
O O4 0.396645 0.181475 0.036492
O O5 0.000000 0.500000 0.500000
O O6 0.870547 0.446104 0.579249
O O7 0.103161 0.392777 0.033022
O O8 0.263522 0.146019 0.480766
O O9 0.002519 0.315079 0.102927
O O10 0.013665 0.225288 0.988475
O O11 0.112902 0.088581 0.673537
O O12 0.500000 0.000000 0.500000
O O13 0.500000 0.000000 0.000000
O O14 0.771498 0.236784 0.710012
O O15 0.746150 0.229715 0.230457
O O16 0.730441 0.466016 0.150988
O O17 0.500000 0.500000 0.500000
O O18 0.541581 0.379184 0.791151
#
# Coordination Sequence:
#
# PCOD9020751 Si02
#       8
#     2   2   2   2   2   2   2   2
#     4  10  23  40  65  96 134 183 226 272 334 402
#     4  10  22  37  55  85 133 180 237 271 327 367
#     4  10  24  44  70  94 136 178 225 271 352 405
#     4  11  25  48  77 104 131 166 215 279 347 421
#     4  11  26  45  71 102 136 171 227 274 341 398
#     4  10  23  39  63  91 135 187 223 279 329 385
#     4  11  24  35  57  90 133 176 243 274 320 371
#     4  11  25  41  67  98 135 188 229 284 320 388
#
# _framework density 22.378875000000001
#
# number of rings (size 3 to 8) (size 9 to 14) (size 15 to 20)
#    0.000    1.500    0.000    4.500   17.500    2.000 
#    0.000    1.250    0.000    0.000    0.000    0.000 
#    0.000    0.000    0.000    0.000    0.000    0.000 
#
# Total GULP energy -89226.092471 kJ/mol
# GULP energy per Si atom -5576.630779 kJ/mol
# Density = 2.232794 g / cm^3
# Si number density = 22.378875 Si / 1000 Ang^3
#
#
#
# Elastic Constant Matrix: (Units=GPa)
#
#
# Indices 1 2 3 4 5 6 
#
# 1 91.0316 25.8959 8.2201 7.5568 -12.9245 -26.1192
# 2 25.8959 81.9485 9.3459 12.8426 -1.6933 -21.2585
# 3 8.2201 9.3459 95.4923 -2.6184 -8.9382 -4.8605
# 4 7.5568 12.8426 -2.6184 34.9769 -4.7403 0.5469
# 5 -12.9245 -1.6933 -8.9382 -4.7403 29.6527 1.5827
# 6 -26.1192 -21.2585 -4.8605 0.5469 1.5827 43.1057
#
#
#
# Elastic Compliance Matrix: (Units=1/GPa)
#
#
# Indices 1 2 3 4 5 6 
#
# 1 0.014773 -0.002283 -0.000186 -0.001732 0.005569 0.007622
# 2 -0.002283 0.015552 -0.001324 -0.005651 -0.001744 0.006273
# 3 -0.000186 -0.001324 0.011005 0.001811 0.003432 0.000326
# 4 -0.001732 -0.005651 0.001811 0.031890 0.004791 -0.004212
# 5 0.005569 -0.001744 0.003432 0.004791 0.037774 0.001453
# 6 0.007622 0.006273 0.000326 -0.004212 0.001453 0.030947
#
#
# Mechanical properties :
#
#
# Convention : Reuss Voigt Hill
#
# Bulk Modulus (GPa) = 29.63711 39.48847 34.56279
# Shear Modulus (GPa) = 31.09889 36.54778 33.82333
#
# Velocity S-wave (km/s) = 3.73185 4.04559 3.89188
# Velocity P-wave (km/s) = 5.64279 6.28539 5.97274
#
# Compressibility (1/GPa) = 0.03374148
#
# Stress axis : x y z
#
# Youngs Moduli (GPa) = 67.69187 64.30003 90.86586
#
# Poissons Ratio (x) = 0.14682 0.01695
# Poissons Ratio (y) = 0.15456 0.12035
# Poissons Ratio (z) = 0.01262 0.08516
#
# Static dielectric constant tensor:
#      x y z
#    x 2.162060 0.062630 -0.087890 
#    y 0.062630 2.028750 0.174910 
#    z -0.087890 0.174910 2.025080 
# 
# From -- ./inp_files/43398.got.cif
#   From: 2010.05.17/outbox.cif.g08.bks.cpg/sg2_22_cif.got.tgz:43398.got - 2010.06.03 11:33:40.
