data_PCOD9020703
_publ_section_title
;
Structure prediction by ZEFSAII (Michael W. Deem and Ramdas Pophale) SiO2 
 PCOD9020703
Probable space group: P -1
;
_chemical_formula_sum "Si O2"
_cell_formula_units_Z 16
_cell_length_a 7.969209
_cell_length_b 14.310567
_cell_length_c 15.238196
_cell_angle_alpha 134.205040
_cell_angle_beta 37.455049
_cell_angle_gamma 138.425181
_cell_volume 677.917093
_symmetry_space_group_name_H-M "P -1"
_symmetry_group_IT_number 2
_symmetry_cell_setting 'triclinic'
loop_
_space_group_symop_operation_xyz
x,y,z
-x,-y,-z
loop_
_atom_site_type_symbol
_atom_site_label
_atom_site_fract_x
_atom_site_fract_y
_atom_site_fract_z
Si Si1 0.961874 0.925498 0.233058
Si Si2 0.931334 0.906929 0.552813
Si Si3 0.307829 0.913970 0.800218
Si Si4 0.831936 0.777793 0.753383
Si Si5 0.177482 0.270376 0.978392
Si Si6 0.158677 0.386131 0.536923
Si Si7 0.685209 0.231146 0.915092
Si Si8 0.854090 0.457853 0.858502
O O1 0.150713 0.846198 0.145277
O O2 0.730893 0.811947 0.188293
O O3 0.832334 0.981259 0.402738
O O4 0.161186 0.078160 0.201455
O O5 0.572189 0.867816 0.688571
O O6 0.949701 0.759337 0.455613
O O7 0.000000 0.000000 0.500000
O O8 0.129153 0.839677 0.735994
O O9 0.466781 0.090460 0.852613
O O10 0.061681 0.850041 0.938198
O O11 0.841514 0.669444 0.600421
O O12 0.530727 0.722413 0.904302
O O13 0.484718 0.377684 0.969200
O O14 0.036077 0.371745 0.061190
O O15 0.500000 0.500000 0.500000
O O16 0.947102 0.451165 0.713557
O O17 0.924603 0.365589 0.844273
#
# Coordination Sequence:
#
# PCOD9020703 Si02
#       8
#     2   2   2   2   2   2   2   2
#     4  10  22  36  67  94 124 166 214 263 311 372
#     4  10  23  42  62  94 129 165 211 263 315 373
#     4  11  21  40  70  92 127 167 212 266 311 375
#     4  11  22  39  67  99 122 167 216 254 322 379
#     4  11  23  42  65  94 127 165 216 263 318 365
#     4  11  25  45  63  89 132 173 206 253 323 387
#     4  11  21  39  66 100 126 160 218 264 310 369
#     4  11  25  43  63  92 133 165 207 270 312 373
#
# _framework density 23.601706
#
# number of rings (size 3 to 8) (size 9 to 14) (size 15 to 20)
#    0.000    1.250    2.500    3.750    5.250    1.500 
#    2.250    5.625    0.000    0.000    0.000    0.000 
#    0.000    0.000    0.000    0.000    0.000    0.000 
#
# Total GULP energy -89181.290391 kJ/mol
# GULP energy per Si atom -5573.830649 kJ/mol
# Density = 2.354799 g / cm^3
# Si number density = 23.601706 Si / 1000 Ang^3
#
#
#
# Elastic Constant Matrix: (Units=GPa)
#
#
# Indices 1 2 3 4 5 6 
#
# 1 65.4866 26.6833 -6.1171 7.3802 18.9048 5.4601
# 2 26.6833 75.6942 22.3955 21.1155 33.5646 1.1592
# 3 -6.1171 22.3955 66.1503 12.6353 23.7319 8.4429
# 4 7.3802 21.1155 12.6353 35.0450 3.5949 4.2597
# 5 18.9048 33.5646 23.7319 3.5949 44.2377 0.6316
# 6 5.4601 1.1592 8.4429 4.2597 0.6316 26.1567
#
#
#
# Elastic Compliance Matrix: (Units=1/GPa)
#
#
# Indices 1 2 3 4 5 6 
#
# 1 0.021792 -0.004949 0.008594 -0.002920 -0.009839 -0.006391
# 2 -0.004949 0.025883 -0.001509 -0.012740 -0.015719 0.002827
# 3 0.008594 -0.001509 0.024096 -0.007103 -0.014763 -0.007992
# 4 -0.002920 -0.012740 -0.007103 0.038569 0.011634 -0.003096
# 5 -0.009839 -0.015719 -0.014763 0.011634 0.045646 0.004519
# 6 -0.006391 0.002827 -0.007992 -0.003096 0.004519 0.042414
#
#
# Mechanical properties :
#
#
# Convention : Reuss Voigt Hill
#
# Bulk Modulus (GPa) = 13.15050 32.58383 22.86716
# Shear Modulus (GPa) = 22.78150 32.04583 27.41367
#
# Velocity S-wave (km/s) = 3.11021 3.68880 3.41179
# Velocity P-wave (km/s) = 4.29905 5.65497 5.02297
#
# Compressibility (1/GPa) = 0.07604274
#
# Stress axis : x y z
#
# Youngs Moduli (GPa) = 45.88821 38.63552 41.50136
#
# Poissons Ratio (x) = 0.19122 -0.35667
# Poissons Ratio (y) = 0.22712 0.06261
# Poissons Ratio (z) = -0.39437 0.05829
#
# Static dielectric constant tensor:
#      x y z
#    x 1.990090 0.120980 -0.093410 
#    y 0.120980 1.500250 0.171750 
#    z -0.093410 0.171750 1.964900 
# 
# From -- ./inp_files/504251.got.cif
#   From: 2010.05.17/outbox.cif.g08.bks.cpg/sg2_253_cif.got.tgz:504251.got - 2010.06.03 11:33:40.
