data_PCOD9020867
_publ_section_title
;
Structure prediction by ZEFSAII (Michael W. Deem and Ramdas Pophale) SiO2 
 PCOD9020867
Probable space group: P -1
;
_chemical_formula_sum "Si O2"
_cell_formula_units_Z 14
_cell_length_a 7.850706
_cell_length_b 5.428800
_cell_length_c 17.000849
_cell_angle_alpha 110.318287
_cell_angle_beta 50.669672
_cell_angle_gamma 97.380809
_cell_volume 521.380575
_symmetry_space_group_name_H-M "P -1"
_symmetry_group_IT_number 2
_symmetry_cell_setting 'triclinic'
loop_
_space_group_symop_operation_xyz
x,y,z
-x,-y,-z
loop_
_atom_site_type_symbol
_atom_site_label
_atom_site_fract_x
_atom_site_fract_y
_atom_site_fract_z
Si Si1 0.671710 0.896999 0.816962
Si Si2 0.825760 0.401708 0.598488
Si Si3 0.448450 0.085463 0.630999
Si Si4 0.573533 0.148733 0.238399
Si Si5 0.965946 0.821825 0.327003
Si Si6 0.650776 0.329258 0.999401
Si Si7 0.931331 0.496867 0.155512
O O1 0.505480 0.072562 0.820274
O O2 0.716137 0.052278 0.903642
O O3 0.491793 0.720316 0.889128
O O4 0.918368 0.932714 0.711788
O O5 0.676326 0.205230 0.578774
O O6 0.644933 0.645921 0.705207
O O7 0.000000 0.500000 0.500000
O O8 0.947915 0.262161 0.622147
O O9 0.298631 0.110481 0.600396
O O10 0.279359 0.271671 0.760917
O O11 0.468698 0.830940 0.652834
O O12 0.812294 0.234424 0.161648
O O13 0.022528 0.567836 0.223884
O O14 0.876790 0.461166 0.955741
O O15 0.500000 0.500000 0.000000
#
# Coordination Sequence:
#
# PCOD9020867 Si02
#       7
#     2   2   2   2   2   2   2
#     4  10  22  37  62  92 122 173 211 255 310 370
#     4  11  24  43  66  99 127 160 214 270 319 385
#     4   9  21  41  61  93 127 161 214 257 319 387
#     4  11  22  39  69  90 126 172 212 259 324 377
#     4   9  20  43  65  84 135 167 202 264 320 374
#     4  10  22  37  60  95 129 166 220 258 305 374
#     4   8  21  38  60  89 128 167 211 253 314 370
#
# _framework density 26.851789
#
# number of rings (size 3 to 8) (size 9 to 14) (size 15 to 20)
#    0.857    1.429    1.429    0.000    6.000    1.714 
#    0.000    2.143    0.000    0.000    0.000    0.000 
#    0.000    0.000    0.000    0.000    0.000    0.000 
#
# Total GULP energy -78044.577803 kJ/mol
# GULP energy per Si atom -5574.612700 kJ/mol
# Density = 2.679067 g / cm^3
# Si number density = 26.851789 Si / 1000 Ang^3
#
#
#
# Elastic Constant Matrix: (Units=GPa)
#
#
# Indices 1 2 3 4 5 6 
#
# 1 209.0119 41.4978 56.7504 -33.3804 -15.0802 12.1814
# 2 41.4978 61.7669 51.8709 -40.8796 -15.9828 12.9604
# 3 56.7504 51.8709 141.4609 -38.8342 -22.5826 0.6545
# 4 -33.3804 -40.8796 -38.8342 52.2338 14.8684 -9.0057
# 5 -15.0802 -15.9828 -22.5826 14.8684 48.9616 -13.4721
# 6 12.1814 12.9604 0.6545 -9.0057 -13.4721 45.8496
#
#
#
# Elastic Compliance Matrix: (Units=1/GPa)
#
#
# Indices 1 2 3 4 5 6 
#
# 1 0.005730 -0.001862 -0.001310 0.001097 0.000011 -0.000759
# 2 -0.001862 0.041356 -0.007665 0.024322 0.000293 -0.006223
# 3 -0.001310 -0.007665 0.011188 0.001273 0.002812 0.003431
# 4 0.001097 0.024322 0.001273 0.040810 -0.003590 -0.000224
# 5 0.000011 0.000293 0.002812 -0.003590 0.024677 0.006420
# 6 -0.000759 -0.006223 0.003431 -0.000224 0.006420 0.025564
#
#
# Mechanical properties :
#
#
# Convention : Reuss Voigt Hill
#
# Bulk Modulus (GPa) = 27.32164 79.16420 53.24292
# Shear Modulus (GPa) = 27.29273 46.88373 37.08823
#
# Velocity S-wave (km/s) = 3.19160 4.18307 3.72051
# Velocity P-wave (km/s) = 4.87635 7.27164 6.19094
#
# Compressibility (1/GPa) = 0.03660103
#
# Stress axis : x y z
#
# Youngs Moduli (GPa) = 174.52515 24.18003 89.38452
#
# Poissons Ratio (x) = 0.04501 0.11705
# Poissons Ratio (y) = 0.32490 0.68516
# Poissons Ratio (z) = 0.22855 0.18535
#
# Static dielectric constant tensor:
#      x y z
#    x 2.499800 -0.111130 0.397220 
#    y -0.111130 2.616440 0.052530 
#    z 0.397220 0.052530 2.440350 
# 
# From -- ./inp_files/585299.got.cif
#   From: 2010.05.17/outbox.cif.g08.bks.cpg/sg2_293_cif.got.tgz:585299.got - 2010.06.03 11:33:40.
