data_PCOD9020340
_publ_section_title
;
Structure prediction by ZEFSAII (Michael W. Deem and Ramdas Pophale) SiO2 
 PCOD9020340
Probable space group: P -1
;
_chemical_formula_sum "Si O2"
_cell_formula_units_Z 14
_cell_length_a 10.690305
_cell_length_b 11.556866
_cell_length_c 9.200054
_cell_angle_alpha 72.718729
_cell_angle_beta 140.151256
_cell_angle_gamma 91.695663
_cell_volume 657.827886
_symmetry_space_group_name_H-M "P -1"
_symmetry_group_IT_number 2
_symmetry_cell_setting 'triclinic'
loop_
_space_group_symop_operation_xyz
x,y,z
-x,-y,-z
loop_
_atom_site_type_symbol
_atom_site_label
_atom_site_fract_x
_atom_site_fract_y
_atom_site_fract_z
Si Si1 0.071175 0.370650 0.771915
Si Si2 0.682254 0.062847 0.620034
Si Si3 0.542741 0.852029 0.896217
Si Si4 0.742885 0.992984 0.171726
Si Si5 0.739599 0.430936 0.199627
Si Si6 0.942518 0.199359 0.959990
Si Si7 0.950635 0.194776 0.292157
O O1 0.151679 0.489048 0.835761
O O2 0.876777 0.411322 0.475243
O O3 0.010583 0.291641 0.875663
O O4 0.274422 0.279657 0.903605
O O5 0.619221 0.132958 0.381525
O O6 0.738930 0.165842 0.736344
O O7 0.500000 0.000000 0.500000
O O8 0.880316 0.937878 0.832206
O O9 0.427189 0.901363 0.925558
O O10 0.664999 0.956333 0.963707
O O11 0.906692 0.063453 0.264166
O O12 0.842005 0.864944 0.405101
O O13 0.787376 0.294697 0.213064
O O14 0.500000 0.500000 0.000000
O O15 0.942460 0.252912 0.103227
#
# Coordination Sequence:
#
# PCOD9020340 Si02
#       7
#     2   2   2   2   2   2   2
#     4  11  25  43  67  98 126 173 228 266 318 398
#     4  11  22  37  62  99 142 173 206 250 337 406
#     4  11  20  38  64  98 131 172 210 266 325 397
#     4  10  22  34  66 100 131 167 213 271 336 383
#     4  11  26  47  70  89 123 181 231 273 316 382
#     4  11  25  38  64 102 137 170 210 269 333 395
#     4  11  22  42  62  97 133 168 216 274 327 388
#
# _framework density 21.282163000000001
#
# number of rings (size 3 to 8) (size 9 to 14) (size 15 to 20)
#    0.000    1.143    4.286    1.714    6.000    0.571 
#    0.000    0.714    0.000    0.000    0.000    0.000 
#    0.000    0.000    0.000    0.000    0.000    0.000 
#
# Total GULP energy -77981.460912 kJ/mol
# GULP energy per Si atom -5570.104351 kJ/mol
# Density = 2.123372 g / cm^3
# Si number density = 21.282163 Si / 1000 Ang^3
#
#
#
# Elastic Constant Matrix: (Units=GPa)
#
#
# Indices 1 2 3 4 5 6 
#
# 1 73.6190 24.8284 48.0023 -0.1588 -3.4992 -2.8996
# 2 24.8284 84.9642 37.1028 10.5552 -0.1948 4.9288
# 3 48.0023 37.1028 139.3048 6.3081 6.4970 -5.2317
# 4 -0.1588 10.5552 6.3081 30.6960 -2.7959 3.9779
# 5 -3.4992 -0.1948 6.4970 -2.7959 25.5255 -2.1491
# 6 -2.8996 4.9288 -5.2317 3.9779 -2.1491 30.8227
#
#
#
# Elastic Compliance Matrix: (Units=1/GPa)
#
#
# Indices 1 2 3 4 5 6 
#
# 1 0.018803 -0.003327 -0.005875 0.002690 0.004449 0.001267
# 2 -0.003327 0.014554 -0.002621 -0.004182 -0.000352 -0.002570
# 3 -0.005875 -0.002621 0.010202 -0.001748 -0.003480 0.001581
# 4 0.002690 -0.004182 -0.001748 0.035253 0.004338 -0.003622
# 5 0.004449 -0.000352 -0.003480 0.004338 0.041330 0.002206
# 6 0.001267 -0.002570 0.001581 -0.003622 0.002206 0.033863
#
#
# Mechanical properties :
#
#
# Convention : Reuss Voigt Hill
#
# Bulk Modulus (GPa) = 50.21503 57.52835 53.87169
# Shear Modulus (GPa) = 27.13132 29.93914 28.53523
#
# Velocity S-wave (km/s) = 3.57436 3.75476 3.66567
# Velocity P-wave (km/s) = 6.37815 6.77404 6.57908
#
# Compressibility (1/GPa) = 0.01991436
#
# Stress axis : x y z
#
# Youngs Moduli (GPa) = 53.18235 68.70935 98.02207
#
# Poissons Ratio (x) = 0.22857 0.57588
# Poissons Ratio (y) = 0.17692 0.25689
# Poissons Ratio (z) = 0.31245 0.18007
#
# Static dielectric constant tensor:
#      x y z
#    x 1.894930 0.107060 -0.001990 
#    y 0.107060 1.823600 0.053460 
#    z -0.001990 0.053460 1.868150 
# 
# From -- ./inp_files/258317.got.cif
#   From: 2010.05.17/outbox.cif.g08.bks.cpg/sg2_130_cif.got.tgz:258317.got - 2010.06.03 11:33:40.
