data_PCOD9020083
_publ_section_title
;
Structure prediction by ZEFSAII (Michael W. Deem and Ramdas Pophale) SiO2 
 PCOD9020083
Probable space group: P -1
;
_chemical_formula_sum "Si O2"
_cell_formula_units_Z 16
_cell_length_a 9.037971
_cell_length_b 7.383576
_cell_length_c 12.668864
_cell_angle_alpha 72.103519
_cell_angle_beta 105.614411
_cell_angle_gamma 127.820518
_cell_volume 631.841920
_symmetry_space_group_name_H-M "P -1"
_symmetry_group_IT_number 2
_symmetry_cell_setting 'triclinic'
loop_
_space_group_symop_operation_xyz
x,y,z
-x,-y,-z
loop_
_atom_site_type_symbol
_atom_site_label
_atom_site_fract_x
_atom_site_fract_y
_atom_site_fract_z
Si Si1 0.898743 0.377826 0.893312
Si Si2 0.676791 0.888873 0.266137
Si Si3 0.229624 0.712216 0.431732
Si Si4 0.035504 0.944181 0.399658
Si Si5 0.578885 0.175548 0.328379
Si Si6 0.282714 0.496251 0.884556
Si Si7 0.377487 0.134657 0.984623
Si Si8 0.282307 0.451564 0.320045
O O1 0.809471 0.501332 0.803395
O O2 0.070485 0.418544 0.849314
O O3 0.000000 0.500000 0.000000
O O4 0.741301 0.105317 0.931498
O O5 0.630519 0.909776 0.133590
O O6 0.504358 0.645848 0.325080
O O7 0.692968 0.090392 0.303597
O O8 0.865582 0.902817 0.305142
O O9 0.338940 0.740970 0.554639
O O10 0.196491 0.500021 0.396111
O O11 0.066094 0.742549 0.425278
O O12 0.372300 0.936893 0.344311
O O13 0.224411 0.192012 0.357458
O O14 0.000000 0.000000 0.500000
O O15 0.604382 0.377633 0.224138
O O16 0.285816 0.277485 0.953419
O O17 0.410500 0.692122 0.962497
#
# Coordination Sequence:
#
# PCOD9020083 Si02
#       8
#     2   2   2   2   2   2   2   2
#     4  12  25  46  71 101 142 186 238 291 352 427
#     4  11  24  46  70 104 140 185 233 288 350 422
#     4  10  24  45  72 103 146 185 235 293 344 424
#     4  12  26  46  71 106 143 184 242 289 345 426
#     4  10  21  46  70 101 143 183 232 290 350 415
#     4  11  25  43  72 104 141 183 235 290 356 426
#     4  11  25  44  70 105 139 184 232 296 355 418
#     4  11  27  46  73 105 142 191 233 287 361 413
#
# _framework density 25.322787999999999
#
# number of rings (size 3 to 8) (size 9 to 14) (size 15 to 20)
#    0.000    1.000    1.250    4.875    3.500    3.500 
#    4.500    0.000    0.000    0.000    0.000    0.000 
#    0.000    0.000    0.000    0.000    0.000    0.000 
#
# Total GULP energy -89787.824553 kJ/mol
# GULP energy per Si atom -5611.739035 kJ/mol
# Density = 2.526515 g / cm^3
# Si number density = 25.322788 Si / 1000 Ang^3
#
#
#
# Elastic Constant Matrix: (Units=GPa)
#
#
# Indices 1 2 3 4 5 6 
#
# 1 73.3412 18.1642 -11.6783 0.1728 -4.3315 -10.8960
# 2 18.1642 113.7358 12.7246 -14.1241 -2.3063 -8.4584
# 3 -11.6783 12.7246 103.9830 6.8002 -14.5790 -7.1285
# 4 0.1728 -14.1241 6.8002 40.2568 0.2103 -6.5473
# 5 -4.3315 -2.3063 -14.5790 0.2103 29.7486 -5.0604
# 6 -10.8960 -8.4584 -7.1285 -6.5473 -5.0604 41.1997
#
#
#
# Elastic Compliance Matrix: (Units=1/GPa)
#
#
# Indices 1 2 3 4 5 6 
#
# 1 0.015680 -0.002507 0.003042 -0.000739 0.004363 0.004577
# 2 -0.002507 0.010014 -0.001676 0.004090 -0.000144 0.001735
# 3 0.003042 -0.001676 0.011396 -0.002090 0.006404 0.002887
# 4 -0.000739 0.004090 -0.002090 0.027382 -0.000225 0.004607
# 5 0.004363 -0.000144 0.006404 -0.000225 0.038558 0.006933
# 6 0.004577 0.001735 0.002887 0.004607 0.006933 0.027922
#
#
# Mechanical properties :
#
#
# Convention : Reuss Voigt Hill
#
# Bulk Modulus (GPa) = 28.72996 36.60900 32.66948
# Shear Modulus (GPa) = 34.52148 40.36432 37.44290
#
# Velocity S-wave (km/s) = 3.69624 3.99681 3.84946
# Velocity P-wave (km/s) = 5.43933 5.98228 5.71726
#
# Compressibility (1/GPa) = 0.03480687
#
# Stress axis : x y z
#
# Youngs Moduli (GPa) = 63.77723 99.85702 87.75001
#
# Poissons Ratio (x) = 0.25038 -0.26690
# Poissons Ratio (y) = 0.15991 0.14705
# Poissons Ratio (z) = -0.19399 0.16734
#
# Static dielectric constant tensor:
#      x y z
#    x 2.006830 0.019540 -0.043780 
#    y 0.019540 1.983350 -0.009430 
#    z -0.043780 -0.009430 1.979390 
# 
# From -- ./inp_files/382043.got.cif
#   From: 2010.05.17/outbox.cif.g08.bks.cpg/sg2_192_cif.got.tgz:382043.got - 2010.06.03 11:33:40.
