data_PCOD9020313
_publ_section_title
;
Structure prediction by ZEFSAII (Michael W. Deem and Ramdas Pophale) SiO2 
 PCOD9020313
Probable space group: P -1
;
_chemical_formula_sum "Si O2"
_cell_formula_units_Z 16
_cell_length_a 11.412866
_cell_length_b 14.266111
_cell_length_c 11.979798
_cell_angle_alpha 63.812390
_cell_angle_beta 96.605933
_cell_angle_gamma 151.106094
_cell_volume 659.663793
_symmetry_space_group_name_H-M "P -1"
_symmetry_group_IT_number 2
_symmetry_cell_setting 'triclinic'
loop_
_space_group_symop_operation_xyz
x,y,z
-x,-y,-z
loop_
_atom_site_type_symbol
_atom_site_label
_atom_site_fract_x
_atom_site_fract_y
_atom_site_fract_z
Si Si1 0.049647 0.982806 0.190333
Si Si2 0.637566 0.453849 0.452834
Si Si3 0.388176 0.237886 0.321779
Si Si4 0.162040 0.624373 0.073605
Si Si5 0.534002 0.126994 0.357633
Si Si6 0.631738 0.309064 0.738635
Si Si7 0.062052 0.892976 0.013992
Si Si8 0.223226 0.795233 0.270948
O O1 0.217031 0.137860 0.244569
O O2 0.203085 0.039499 0.075247
O O3 0.765767 0.675465 0.351848
O O4 0.974558 0.028753 0.097627
O O5 0.342621 0.217306 0.461051
O O6 0.618086 0.393177 0.607323
O O7 0.890955 0.580864 0.356212
O O8 0.358699 0.088536 0.388818
O O9 0.729143 0.568599 0.166688
O O10 0.196388 0.548182 0.196178
O O11 0.891113 0.456694 0.205190
O O12 0.000000 0.500000 0.000000
O O13 0.512371 0.951568 0.922159
O O14 0.500000 0.000000 0.500000
O O15 0.387223 0.964316 0.313895
O O16 0.277696 0.001104 0.900472
O O17 0.774497 0.327746 0.678241
#
# Coordination Sequence:
#
# PCOD9020313 Si02
#       8
#     2   2   2   2   2   2   2   2
#     4  10  22  45  69  93 124 165 225 262 318 382
#     4  11  23  40  66  94 128 172 206 264 328 382
#     4  11  21  40  69  90 126 169 218 261 314 384
#     4  10  22  34  56  86 123 168 210 257 303 375
#     4  11  21  35  59  94 130 168 212 256 319 387
#     4  12  23  40  60  94 137 163 212 265 323 380
#     4  10  24  43  69  95 122 171 217 269 318 372
#     4  11  21  39  58  87 131 171 211 254 314 381
#
# _framework density 24.254778999999999
#
# number of rings (size 3 to 8) (size 9 to 14) (size 15 to 20)
#    0.000    1.250    1.250    5.625    1.750    0.500 
#    0.000    0.625    0.000    0.000    0.000    0.000 
#    0.000    0.000    0.000    0.000    0.000    0.000 
#
# Total GULP energy -89123.343340 kJ/mol
# GULP energy per Si atom -5570.208959 kJ/mol
# Density = 2.419957 g / cm^3
# Si number density = 24.254779 Si / 1000 Ang^3
#
#
#
# Elastic Constant Matrix: (Units=GPa)
#
#
# Indices 1 2 3 4 5 6 
#
# 1 53.8038 13.0185 27.4043 9.4099 18.7215 -8.8736
# 2 13.0185 127.4933 49.4718 49.2904 10.7819 7.3988
# 3 27.4043 49.4718 124.3016 32.4298 34.5779 2.9061
# 4 9.4099 49.2904 32.4298 45.7088 18.8878 13.3954
# 5 18.7215 10.7819 34.5779 18.8878 55.4257 5.7870
# 6 -8.8736 7.3988 2.9061 13.3954 5.7870 18.8130
#
#
#
# Elastic Compliance Matrix: (Units=1/GPa)
#
#
# Indices 1 2 3 4 5 6 
#
# 1 0.026931 0.000487 -0.002769 -0.007054 -0.007166 0.020166
# 2 0.000487 0.015073 -0.002697 -0.017946 0.004049 0.006251
# 3 -0.002769 -0.002697 0.012005 -0.003537 -0.005029 0.001965
# 4 -0.007054 -0.017946 -0.003537 0.058927 -0.008334 -0.035117
# 5 -0.007166 0.004049 -0.005029 -0.008334 0.026316 -0.006356
# 6 0.020166 0.006251 0.001965 -0.035117 -0.006356 0.086863
#
#
# Mechanical properties :
#
#
# Convention : Reuss Voigt Hill
#
# Bulk Modulus (GPa) = 22.70051 53.93201 38.31626
# Shear Modulus (GPa) = 19.93959 38.36977 29.15468
#
# Velocity S-wave (km/s) = 2.87032 3.98168 3.47077
# Velocity P-wave (km/s) = 4.51270 6.58956 5.64742
#
# Compressibility (1/GPa) = 0.04405188
#
# Stress axis : x y z
#
# Youngs Moduli (GPa) = 37.13127 66.34198 83.30169
#
# Poissons Ratio (x) = -0.03233 0.23068
# Poissons Ratio (y) = -0.01810 0.22465
# Poissons Ratio (z) = 0.10283 0.17892
#
# Static dielectric constant tensor:
#      x y z
#    x 2.002480 0.053700 -0.063290 
#    y 0.053700 2.012390 0.036160 
#    z -0.063290 0.036160 2.008810 
# 
# From -- ./inp_files/389905.got.cif
#   From: 2010.05.17/outbox.cif.g08.bks.cpg/sg2_195_cif.got.tgz:389905.got - 2010.06.03 11:33:40.
