data_PCOD9020580
_publ_section_title
;
Structure prediction by ZEFSAII (Michael W. Deem and Ramdas Pophale) SiO2 
 PCOD9020580
Probable space group: P -1
;
_chemical_formula_sum "Si O2"
_cell_formula_units_Z 16
_cell_length_a 14.549403
_cell_length_b 4.806451
_cell_length_c 11.942950
_cell_angle_alpha 80.895603
_cell_angle_beta 118.162479
_cell_angle_gamma 72.486126
_cell_volume 655.865937
_symmetry_space_group_name_H-M "P -1"
_symmetry_group_IT_number 2
_symmetry_cell_setting 'triclinic'
loop_
_space_group_symop_operation_xyz
x,y,z
-x,-y,-z
loop_
_atom_site_type_symbol
_atom_site_label
_atom_site_fract_x
_atom_site_fract_y
_atom_site_fract_z
Si Si1 0.380498 0.369016 0.161416
Si Si2 0.799119 0.298284 0.361290
Si Si3 0.938765 0.983416 0.245237
Si Si4 0.718019 0.951317 0.024027
Si Si5 0.850765 0.679862 0.543412
Si Si6 0.076616 0.074453 0.130457
Si Si7 0.413092 0.777121 0.853331
Si Si8 0.231674 0.374457 0.263191
O O1 0.505547 0.163513 0.193253
O O2 0.349692 0.268735 0.269080
O O3 0.288888 0.330313 0.027281
O O4 0.353517 0.732931 0.109713
O O5 0.794611 0.589617 0.409607
O O6 0.674310 0.324373 0.255036
O O7 0.875021 0.201418 0.298985
O O8 0.859045 0.994283 0.494806
O O9 0.842398 0.936920 0.118593
O O10 0.030828 0.632586 0.352640
O O11 0.003173 0.138255 0.197146
O O12 0.659241 0.973041 0.110041
O O13 0.774856 0.743032 0.608499
O O14 0.134369 0.313325 0.139679
O O15 0.186729 0.743524 0.227249
O O16 0.000000 0.000000 0.000000
O O17 0.500000 0.500000 0.000000
#
# Coordination Sequence:
#
# PCOD9020580 Si02
#       8
#     2   2   2   2   2   2   2   2
#     4  11  21  39  61  88 121 158 197 249 302 351
#     4  11  24  41  63  89 118 155 203 249 297 355
#     4  10  22  38  62  89 121 162 197 240 299 356
#     4  10  22  36  61  94 122 151 197 246 302 361
#     4  11  24  41  58  86 125 163 201 245 287 350
#     4  11  22  37  57  88 123 157 198 245 292 351
#     4   9  22  42  66  93 119 149 194 255 310 354
#     4  11  23  38  57  83 120 163 201 241 291 350
#
# _framework density 24.395226999999998
#
# number of rings (size 3 to 8) (size 9 to 14) (size 15 to 20)
#    0.000    1.500    0.000    5.250    0.000   14.000 
#    0.000    1.250    0.000    0.000    0.000    0.000 
#    0.000    0.000    0.000    0.000    0.000    0.000 
#
# Total GULP energy -89602.837986 kJ/mol
# GULP energy per Si atom -5600.177374 kJ/mol
# Density = 2.433970 g / cm^3
# Si number density = 24.395227 Si / 1000 Ang^3
#
#
#
# Elastic Constant Matrix: (Units=GPa)
#
#
# Indices 1 2 3 4 5 6 
#
# 1 184.0383 21.1094 17.8327 13.8093 -16.3415 -20.2383
# 2 21.1094 83.6737 4.7414 15.3864 -1.4934 20.0866
# 3 17.8327 4.7414 60.0579 13.8867 1.5755 -6.7153
# 4 13.8093 15.3864 13.8867 31.9634 -5.7628 -3.8267
# 5 -16.3415 -1.4934 1.5755 -5.7628 35.6549 6.6242
# 6 -20.2383 20.0866 -6.7153 -3.8267 6.6242 28.7548
#
#
#
# Elastic Compliance Matrix: (Units=1/GPa)
#
#
# Indices 1 2 3 4 5 6 
#
# 1 0.006747 -0.003143 -0.001146 0.000185 0.001877 0.006269
# 2 -0.003143 0.018463 -0.000273 -0.009231 0.000940 -0.016618
# 3 -0.001146 -0.000273 0.019342 -0.007948 -0.003348 0.003614
# 4 0.000185 -0.009231 -0.007948 0.041088 0.005011 0.009036
# 5 0.001877 0.000940 -0.003348 0.005011 0.031135 -0.006623
# 6 0.006269 -0.016618 0.003614 0.009036 -0.006623 0.054370
#
#
# Mechanical properties :
#
#
# Convention : Reuss Voigt Hill
#
# Bulk Modulus (GPa) = 28.22537 46.12634 37.17585
# Shear Modulus (GPa) = 26.03105 38.21369 32.12237
#
# Velocity S-wave (km/s) = 3.27012 3.96212 3.63264
# Velocity P-wave (km/s) = 5.08463 6.31508 5.73296
#
# Compressibility (1/GPa) = 0.03542912
#
# Stress axis : x y z
#
# Youngs Moduli (GPa) = 148.20670 54.16206 51.70064
#
# Poissons Ratio (x) = 0.17021 0.05927
# Poissons Ratio (y) = 0.46575 0.01410
# Poissons Ratio (z) = 0.16989 0.01478
#
# Static dielectric constant tensor:
#      x y z
#    x 1.930850 -0.020370 -0.023820 
#    y -0.020370 1.904060 -0.021980 
#    z -0.023820 -0.021980 1.989080 
# 
# From -- ./inp_files/441968.got.cif
#   From: 2010.05.17/outbox.cif.g08.bks.cpg/sg2_221_cif.got.tgz:441968.got - 2010.06.03 11:33:40.
