data_PCOD9020195
_publ_section_title
;
Structure prediction by ZEFSAII (Michael W. Deem and Ramdas Pophale) SiO2 
 PCOD9020195
Probable space group: P -1
;
_chemical_formula_sum "Si O2"
_cell_formula_units_Z 12
_cell_length_a 10.482853
_cell_length_b 7.899849
_cell_length_c 11.081648
_cell_angle_alpha 49.131980
_cell_angle_beta 116.952435
_cell_angle_gamma 80.942688
_cell_volume 457.266491
_symmetry_space_group_name_H-M "P -1"
_symmetry_group_IT_number 2
_symmetry_cell_setting 'triclinic'
loop_
_space_group_symop_operation_xyz
x,y,z
-x,-y,-z
loop_
_atom_site_type_symbol
_atom_site_label
_atom_site_fract_x
_atom_site_fract_y
_atom_site_fract_z
Si Si1 0.280640 0.037517 0.063332
Si Si2 0.760468 0.267570 0.620301
Si Si3 0.942632 0.395770 0.918958
Si Si4 0.466192 0.605417 0.137497
Si Si5 0.776788 0.213841 0.265039
Si Si6 0.339995 0.180961 0.576062
O O1 0.704508 0.224288 0.746086
O O2 0.349373 0.924233 0.009418
O O3 0.434886 0.020323 0.209993
O O4 0.069836 0.328488 0.884331
O O5 0.607029 0.346880 0.418952
O O6 0.750039 0.544337 0.495148
O O7 0.971970 0.935960 0.852336
O O8 0.728413 0.659994 0.658156
O O9 0.000000 0.500000 0.000000
O O10 0.637100 0.488624 0.171085
O O11 0.308116 0.640814 0.972480
O O12 0.725669 0.003466 0.351625
O O13 0.000000 0.000000 0.500000
#
# Coordination Sequence:
#
# PCOD9020195 Si02
#       6
#     2   2   2   2   2   2
#     4   9  23  42  68 102 131 172 211 274 342 399
#     4   9  21  44  68 102 133 167 212 275 339 404
#     4  10  22  39  63 104 139 167 208 266 338 405
#     4  10  21  47  68  90 137 174 225 276 328 386
#     4  11  27  44  66  96 133 183 231 276 313 384
#     4  11  21  43  64  97 135 176 222 265 334 392
#
# _framework density 26.242902000000001
#
# number of rings (size 3 to 8) (size 9 to 14) (size 15 to 20)
#    1.000    1.000    0.000    3.500    0.000    8.667 
#   12.000    4.167    0.000    0.000    0.000    0.000 
#    0.000    0.000    0.000    0.000    0.000    0.000 
#
# Total GULP energy -66959.527642 kJ/mol
# GULP energy per Si atom -5579.960637 kJ/mol
# Density = 2.618317 g / cm^3
# Si number density = 26.242902 Si / 1000 Ang^3
#
#
#
# Elastic Constant Matrix: (Units=GPa)
#
#
# Indices 1 2 3 4 5 6 
#
# 1 84.7320 38.6763 35.1129 0.0461 28.1263 1.9259
# 2 38.6763 95.6150 43.2438 23.5300 0.3958 -13.0082
# 3 35.1129 43.2438 138.0492 29.8210 15.8548 0.6049
# 4 0.0461 23.5300 29.8210 55.6515 15.5606 -0.3205
# 5 28.1263 0.3958 15.8548 15.5606 47.7633 -5.4274
# 6 1.9259 -13.0082 0.6049 -0.3205 -5.4274 47.0484
#
#
#
# Elastic Compliance Matrix: (Units=1/GPa)
#
#
# Indices 1 2 3 4 5 6 
#
# 1 0.024846 -0.012471 -0.002853 0.011823 -0.018165 -0.006443
# 2 -0.012471 0.020113 -0.002264 -0.010662 0.012248 0.007441
# 3 -0.002853 -0.002264 0.009598 -0.004126 -0.000221 -0.000686
# 4 0.011823 -0.010662 -0.004126 0.028987 -0.015513 -0.004971
# 5 -0.018165 0.012248 -0.000221 -0.015513 0.037610 0.008366
# 6 -0.006443 0.007441 -0.000686 -0.004971 0.008366 0.024516
#
#
# Mechanical properties :
#
#
# Convention : Reuss Voigt Hill
#
# Bulk Modulus (GPa) = 51.59649 61.38469 56.49059
# Shear Modulus (GPa) = 26.69435 43.51684 35.10559
#
# Velocity S-wave (km/s) = 3.19282 4.07656 3.66145
# Velocity P-wave (km/s) = 5.77026 6.75274 6.28074
#
# Compressibility (1/GPa) = 0.01938116
#
# Stress axis : x y z
#
# Youngs Moduli (GPa) = 40.24757 49.72001 104.18530
#
# Poissons Ratio (x) = 0.62006 0.29720
# Poissons Ratio (y) = 0.50193 0.23591
# Poissons Ratio (z) = 0.11481 0.11258
#
# Static dielectric constant tensor:
#      x y z
#    x 2.149920 -0.030600 -0.014370 
#    y -0.030600 2.036740 -0.001050 
#    z -0.014370 -0.001050 2.086260 
# 
# From -- ./inp_files/416358.got.cif
#   From: 2010.05.17/outbox.cif.g08.bks.cpg/sg2_209_cif.got.tgz:416358.got - 2010.06.03 11:33:40.
