data_PCOD9020290
_publ_section_title
;
Structure prediction by ZEFSAII (Michael W. Deem and Ramdas Pophale) SiO2 
 PCOD9020290
Probable space group: P -1
;
_chemical_formula_sum "Si O2"
_cell_formula_units_Z 14
_cell_length_a 11.461583
_cell_length_b 9.132157
_cell_length_c 13.469870
_cell_angle_alpha 135.035535
_cell_angle_beta 35.259306
_cell_angle_gamma 141.300547
_cell_volume 499.132779
_symmetry_space_group_name_H-M "P -1"
_symmetry_group_IT_number 2
_symmetry_cell_setting 'triclinic'
loop_
_space_group_symop_operation_xyz
x,y,z
-x,-y,-z
loop_
_atom_site_type_symbol
_atom_site_label
_atom_site_fract_x
_atom_site_fract_y
_atom_site_fract_z
Si Si1 0.176129 0.425395 0.665001
Si Si2 0.399576 0.097413 0.391219
Si Si3 0.039008 0.587494 0.388153
Si Si4 0.487444 0.757908 0.358940
Si Si5 0.755659 0.623530 0.986365
Si Si6 0.415066 0.080759 0.001726
Si Si7 0.913275 0.732038 0.136961
O O1 0.267605 0.235829 0.511286
O O2 0.369274 0.684598 0.617565
O O3 0.128860 0.440239 0.822090
O O4 0.980468 0.333231 0.673169
O O5 0.214120 0.837481 0.439347
O O6 0.507637 0.023779 0.191285
O O7 0.781046 0.454935 0.550522
O O8 0.137168 0.406830 0.205171
O O9 0.627255 0.778731 0.167255
O O10 0.669938 0.730271 0.291781
O O11 0.500000 0.000000 0.500000
O O12 0.548259 0.363176 0.035447
O O13 0.940806 0.695456 0.982786
O O14 0.138870 0.967473 0.131355
O O15 0.500000 0.000000 0.000000
#
# Coordination Sequence:
#
# PCOD9020290 Si02
#       7
#     2   2   2   2   2   2   2
#     4  11  21  35  59  96 128 164 202 252 314 388
#     4  10  22  33  54  91 126 167 202 240 314 380
#     4  11  22  40  65  89 130 164 204 263 319 375
#     4  10  24  45  66  89 122 168 222 269 309 361
#     4   9  23  40  61  95 125 167 211 256 315 376
#     4  11  21  35  61  92 133 168 199 252 316 388
#     4  10  22  38  61  93 130 163 208 256 313 373
#
# _framework density 28.048646999999999
#
# number of rings (size 3 to 8) (size 9 to 14) (size 15 to 20)
#    0.857    0.857    0.000    5.571    4.000    2.286 
#    0.000    0.714    0.000    1.714    0.000    0.000 
#    0.000    0.000    0.000    0.000    0.000    0.000 
#
# Total GULP energy -78294.251399 kJ/mol
# GULP energy per Si atom -5592.446529 kJ/mol
# Density = 2.798481 g / cm^3
# Si number density = 28.048647 Si / 1000 Ang^3
#
#
#
# Elastic Constant Matrix: (Units=GPa)
#
#
# Indices 1 2 3 4 5 6 
#
# 1 118.2692 45.3583 27.9773 -8.0797 6.1746 4.2811
# 2 45.3583 159.1243 54.8883 -17.3793 -8.4469 26.9553
# 3 27.9773 54.8883 182.4884 -6.1093 -9.1700 4.2353
# 4 -8.0797 -17.3793 -6.1093 53.6443 7.7036 -4.6490
# 5 6.1746 -8.4469 -9.1700 7.7036 28.9078 -5.2761
# 6 4.2811 26.9553 4.2353 -4.6490 -5.2761 39.9395
#
#
#
# Elastic Compliance Matrix: (Units=1/GPa)
#
#
# Indices 1 2 3 4 5 6 
#
# 1 0.009915 -0.002681 -0.000859 0.001054 -0.003361 0.000516
# 2 -0.002681 0.008853 -0.002021 0.001625 0.001149 -0.005133
# 3 -0.000859 -0.002021 0.006280 -0.000245 0.001834 0.001004
# 4 0.001054 0.001625 -0.000245 0.020071 -0.005089 0.000480
# 5 -0.003361 0.001149 0.001834 -0.005089 0.038288 0.003856
# 6 0.000516 -0.005133 0.001004 0.000480 0.003856 0.028906
#
#
# Mechanical properties :
#
#
# Convention : Reuss Voigt Hill
#
# Bulk Modulus (GPa) = 71.80106 79.59216 75.69661
# Shear Modulus (GPa) = 39.03893 46.60885 42.82389
#
# Velocity S-wave (km/s) = 3.73477 4.08084 3.91163
# Velocity P-wave (km/s) = 6.65224 7.11635 6.88820
#
# Compressibility (1/GPa) = 0.01392737
#
# Stress axis : x y z
#
# Youngs Moduli (GPa) = 100.85267 112.95067 159.23621
#
# Poissons Ratio (x) = 0.30278 0.13685
# Poissons Ratio (y) = 0.27035 0.32177
# Poissons Ratio (z) = 0.08667 0.22824
#
# Static dielectric constant tensor:
#      x y z
#    x 2.221910 -0.013590 0.069050 
#    y -0.013590 2.165290 0.056630 
#    z 0.069050 0.056630 2.366370 
# 
# From -- ./inp_files/573249.got.cif
#   From: 2010.05.17/outbox.cif.g08.bks.cpg/sg2_287_cif.got.tgz:573249.got - 2010.06.03 11:33:40.
