data_PCOD9020220
_publ_section_title
;
Structure prediction by ZEFSAII (Michael W. Deem and Ramdas Pophale) SiO2 
 PCOD9020220
Probable space group: P -1
;
_chemical_formula_sum "Si O2"
_cell_formula_units_Z 16
_cell_length_a 16.295978
_cell_length_b 18.714423
_cell_length_c 9.917368
_cell_angle_alpha 37.247456
_cell_angle_beta 50.508498
_cell_angle_gamma 22.686950
_cell_volume 640.165378
_symmetry_space_group_name_H-M "P -1"
_symmetry_group_IT_number 2
_symmetry_cell_setting 'triclinic'
loop_
_space_group_symop_operation_xyz
x,y,z
-x,-y,-z
loop_
_atom_site_type_symbol
_atom_site_label
_atom_site_fract_x
_atom_site_fract_y
_atom_site_fract_z
Si Si1 0.552997 0.059263 0.258753
Si Si2 0.812665 0.950432 0.363943
Si Si3 0.681405 0.572608 0.681608
Si Si4 0.833847 0.382831 0.294861
Si Si5 0.060260 0.198327 0.073437
Si Si6 0.358837 0.626729 0.098049
Si Si7 0.306756 0.188867 0.800492
Si Si8 0.759833 0.215462 0.514926
O O1 0.745693 0.945666 0.307419
O O2 0.500000 0.000000 0.500000
O O3 0.613722 0.943058 0.227056
O O4 0.349264 0.352364 0.988009
O O5 0.587699 0.150729 0.399530
O O6 0.810521 0.094226 0.131999
O O7 0.055226 0.678103 0.593010
O O8 0.733620 0.413197 0.766164
O O9 0.757657 0.615318 0.463215
O O10 0.830149 0.408244 0.909030
O O11 0.756797 0.321788 0.470213
O O12 0.046618 0.174000 0.278994
O O13 0.237007 0.925736 0.234207
O O14 0.112316 0.285209 0.895936
O O15 0.544066 0.450069 0.289457
O O16 0.500000 0.500000 0.000000
O O17 0.500000 0.000000 0.000000
O O18 0.000000 0.000000 0.500000
#
# Coordination Sequence:
#
# PCOD9020220 Si02
#       8
#     2   2   2   2   2   2   2   2
#     4  12  25  46  66  96 135 171 221 274 321 391
#     4  11  20  39  66  98 128 164 219 274 323 375
#     4  11  20  39  61  96 130 169 218 271 318 387
#     4  11  21  40  69  99 126 171 224 271 322 385
#     4  11  21  38  65  97 131 172 218 271 326 390
#     4  10  17  30  60  93 128 159 209 278 317 369
#     4  12  26  45  63  92 135 178 219 264 336 396
#     4  10  17  32  60  97 127 162 219 270 317 384
#
# _framework density 24.993539999999999
#
# number of rings (size 3 to 8) (size 9 to 14) (size 15 to 20)
#    0.000    1.000    3.750    7.875    0.000    0.500 
#    4.500    0.625    0.000    1.500    0.000    0.000 
#    0.000    0.000    0.000    0.000    0.000    0.000 
#
# Total GULP energy -89495.949744 kJ/mol
# GULP energy per Si atom -5593.496859 kJ/mol
# Density = 2.493665 g / cm^3
# Si number density = 24.993540 Si / 1000 Ang^3
#
#
#
# Elastic Constant Matrix: (Units=GPa)
#
#
# Indices 1 2 3 4 5 6 
#
# 1 207.5915 33.1773 67.4718 -9.3092 12.7722 -19.1119
# 2 33.1773 37.7066 17.4985 3.7788 3.7568 4.9147
# 3 67.4718 17.4985 128.2062 -9.0321 -1.5962 -14.8617
# 4 -9.3092 3.7788 -9.0321 32.7854 -16.4038 4.9105
# 5 12.7722 3.7568 -1.5962 -16.4038 73.4718 -2.2370
# 6 -19.1119 4.9147 -14.8617 4.9105 -2.2370 34.4033
#
#
#
# Elastic Compliance Matrix: (Units=1/GPa)
#
#
# Indices 1 2 3 4 5 6 
#
# 1 0.006860 -0.005397 -0.002417 0.001092 -0.000624 0.003342
# 2 -0.005397 0.034911 -0.003426 -0.006518 -0.002642 -0.008707
# 3 -0.002417 -0.003426 0.010129 0.002784 0.001535 0.003224
# 4 0.001092 -0.006518 0.002784 0.036809 0.008362 -0.001970
# 5 -0.000624 -0.002642 0.001535 0.008362 0.015771 0.000526
# 6 0.003342 -0.008707 0.003224 -0.001970 0.000526 0.033875
#
#
# Mechanical properties :
#
#
# Convention : Reuss Voigt Hill
#
# Bulk Modulus (GPa) = 33.99168 67.75549 50.87359
# Shear Modulus (GPa) = 29.30129 45.15588 37.22859
#
# Velocity S-wave (km/s) = 3.42768 4.25514 3.86363
# Velocity P-wave (km/s) = 5.41249 7.16308 6.34842
#
# Compressibility (1/GPa) = 0.02941896
#
# Stress axis : x y z
#
# Youngs Moduli (GPa) = 145.76428 28.64465 98.72956
#
# Poissons Ratio (x) = 0.15460 0.23866
# Poissons Ratio (y) = 0.78674 0.33822
# Poissons Ratio (z) = 0.35236 0.09813
#
# Static dielectric constant tensor:
#      x y z
#    x 3.003180 -0.420710 -1.698030 
#    y -0.420710 2.467370 0.827740 
#    z -1.698030 0.827740 4.712600 
# 
# From -- ./inp_files/457621.got.cif
#   From: 2010.05.17/outbox.cif.g08.bks.cpg/sg2_229_cif.got.tgz:457621.got - 2010.06.03 11:33:40.
