data_PCOD9020884
_publ_section_title
;
Structure prediction by ZEFSAII (Michael W. Deem and Ramdas Pophale) SiO2 
 PCOD9020884
Probable space group: P -1
;
_chemical_formula_sum "Si O2"
_cell_formula_units_Z 16
_cell_length_a 9.302570
_cell_length_b 22.380089
_cell_length_c 19.806968
_cell_angle_alpha 20.235929
_cell_angle_beta 133.200353
_cell_angle_gamma 138.238967
_cell_volume 947.856943
_symmetry_space_group_name_H-M "P -1"
_symmetry_group_IT_number 2
_symmetry_cell_setting 'triclinic'
loop_
_space_group_symop_operation_xyz
x,y,z
-x,-y,-z
loop_
_atom_site_type_symbol
_atom_site_label
_atom_site_fract_x
_atom_site_fract_y
_atom_site_fract_z
Si Si1 0.450894 0.500825 0.403973
Si Si2 0.701439 0.608008 0.997725
Si Si3 0.561519 0.909777 0.013914
Si Si4 0.941943 0.361138 0.362285
Si Si5 0.142881 0.857238 0.022395
Si Si6 0.741238 0.473730 0.291704
Si Si7 0.464585 0.231186 0.580470
Si Si8 0.974815 0.025639 0.667236
O O1 0.500000 0.500000 0.500000
O O2 0.195324 0.433519 0.381001
O O3 0.510956 0.355413 0.532868
O O4 0.565078 0.720003 0.185712
O O5 0.640710 0.557618 0.110870
O O6 0.882395 0.522629 0.137709
O O7 0.500000 0.500000 0.000000
O O8 0.813128 0.832670 0.785665
O O9 0.759436 0.016831 0.014324
O O10 0.542918 0.063313 0.794384
O O11 0.343441 0.844355 0.059558
O O12 0.874308 0.174497 0.493780
O O13 0.817887 0.332651 0.423833
O O14 0.958982 0.650582 0.197265
O O15 0.042514 0.960542 0.829194
O O16 0.585639 0.369058 0.412764
O O17 0.205372 0.133698 0.590227
#
# Coordination Sequence:
#
# PCOD9020884 Si02
#       8
#     2   2   2   2   2   2   2   2
#     4  11  19  33  55  77 100 146 188 206 237 308
#     4   9  19  36  60  79  99 131 172 213 257 317
#     4  10  17  31  48  73  96 143 182 206 244 308
#     4   9  18  33  55  74 102 137 173 209 252 305
#     4   9  16  31  51  67 102 138 176 211 247 298
#     4   9  19  36  49  75 108 130 165 224 270 291
#     4  10  21  32  50  76 107 136 167 222 262 293
#     4   9  17  33  55  74  97 137 174 199 253 321
#
# _framework density 16.880184
#
# number of rings (size 3 to 8) (size 9 to 14) (size 15 to 20)
#    0.750    1.750    1.250    3.750    0.000    1.000 
#    4.500    1.250    0.000    3.000    0.000    0.000 
#    0.000    0.000    0.000    0.000    0.000    0.000 
#
# Total GULP energy -89078.585911 kJ/mol
# GULP energy per Si atom -5567.411619 kJ/mol
# Density = 1.684176 g / cm^3
# Si number density = 16.880184 Si / 1000 Ang^3
#
#
#
# Elastic Constant Matrix: (Units=GPa)
#
#
# Indices 1 2 3 4 5 6 
#
# 1 31.6764 17.8763 35.5208 -11.7202 -8.1717 -1.3900
# 2 17.8763 87.8028 29.8707 -22.6636 -5.4559 -5.9308
# 3 35.5208 29.8707 97.3672 -28.6856 -2.6336 -5.8460
# 4 -11.7202 -22.6636 -28.6856 26.1376 -0.6069 4.7358
# 5 -8.1717 -5.4559 -2.6336 -0.6069 38.8733 -4.5933
# 6 -1.3900 -5.9308 -5.8460 4.7358 -4.5933 9.9077
#
#
#
# Elastic Compliance Matrix: (Units=1/GPa)
#
#
# Indices 1 2 3 4 5 6 
#
# 1 0.059248 -0.004422 -0.019544 0.001884 0.010304 -0.001989
# 2 -0.004422 0.015431 0.000493 0.011172 0.001974 0.004482
# 3 -0.019544 0.000493 0.021780 0.015117 -0.002065 0.002221
# 4 0.001884 0.011172 0.015117 0.068286 0.002193 -0.015752
# 5 0.010304 0.001974 -0.002065 0.002193 0.029733 0.014145
# 6 -0.001989 0.004482 0.002221 -0.015752 0.014145 0.118734
#
#
# Mechanical properties :
#
#
# Convention : Reuss Voigt Hill
#
# Bulk Modulus (GPa) = 20.19609 42.59798 31.39703
# Shear Modulus (GPa) = 13.27449 23.88896 18.58172
#
# Velocity S-wave (km/s) = 2.80732 3.76601 3.32143
# Velocity P-wave (km/s) = 4.74325 6.64836 5.77490
#
# Compressibility (1/GPa) = 0.04951453
#
# Stress axis : x y z
#
# Youngs Moduli (GPa) = 16.87813 64.80579 45.91348
#
# Poissons Ratio (x) = 0.28655 0.89732
# Poissons Ratio (y) = 0.07463 -0.02264
# Poissons Ratio (z) = 0.32986 -0.03195
#
# Static dielectric constant tensor:
#      x y z
#    x 1.579280 -0.003260 0.025130 
#    y -0.003260 1.566170 -0.008530 
#    z 0.025130 -0.008530 1.605650 
# 
# From -- ./inp_files/503642.got.cif
#   From: 2010.05.17/outbox.cif.g08.bks.cpg/sg2_252_cif.got.tgz:503642.got - 2010.06.03 11:33:40.
