data_PCOD9020126
_publ_section_title
;
Structure prediction by ZEFSAII (Michael W. Deem and Ramdas Pophale) SiO2 
 PCOD9020126
Probable space group: P -1
;
_chemical_formula_sum "Si O2"
_cell_formula_units_Z 16
_cell_length_a 12.338513
_cell_length_b 8.004262
_cell_length_c 8.277836
_cell_angle_alpha 60.771726
_cell_angle_beta 102.214881
_cell_angle_gamma 115.054167
_cell_volume 646.297660
_symmetry_space_group_name_H-M "P -1"
_symmetry_group_IT_number 2
_symmetry_cell_setting 'triclinic'
loop_
_space_group_symop_operation_xyz
x,y,z
-x,-y,-z
loop_
_atom_site_type_symbol
_atom_site_label
_atom_site_fract_x
_atom_site_fract_y
_atom_site_fract_z
Si Si1 0.365598 0.620967 0.490904
Si Si2 0.837883 0.481860 0.763828
Si Si3 0.290670 0.961696 0.904984
Si Si4 0.133016 0.146786 0.917500
Si Si5 0.292130 0.288869 0.195907
Si Si6 0.317446 0.926421 0.560718
Si Si7 0.492849 0.348026 0.813443
Si Si8 0.077495 0.549303 0.662000
O O1 0.230098 0.531358 0.422414
O O2 0.403476 0.461003 0.680703
O O3 0.441187 0.664561 0.327922
O O4 0.381929 0.814672 0.518804
O O5 0.808344 0.649216 0.778228
O O6 0.977637 0.531827 0.772454
O O7 0.770338 0.257842 0.926838
O O8 0.186824 0.058299 0.828303
O O9 0.409536 0.122466 0.952072
O O10 0.336182 0.936758 0.752902
O O11 0.132021 0.374947 0.791288
O O12 0.227600 0.160417 0.082161
O O13 0.000000 0.000000 0.000000
O O14 0.405017 0.503535 0.106914
O O15 0.336047 0.150257 0.392998
O O16 0.178277 0.774555 0.576546
O O17 0.000000 0.500000 0.500000
#
# Coordination Sequence:
#
# PCOD9020126 Si02
#       8
#     2   2   2   2   2   2   2   2
#     4  10  21  46  72 103 140 185 236 294 337 420
#     4  11  24  45  69 105 147 180 242 292 353 419
#     4  12  26  44  72 109 142 191 235 290 357 417
#     4  12  26  48  72 103 147 182 232 300 353 415
#     4  11  27  47  70 104 142 192 234 292 347 418
#     4  12  25  42  73 110 141 190 240 284 359 421
#     4  10  24  46  76 102 142 187 238 290 349 420
#     4  12  25  44  75 103 139 192 232 295 359 423
#
# _framework density 24.756394
#
# number of rings (size 3 to 8) (size 9 to 14) (size 15 to 20)
#    0.000    0.750    2.500    5.250    3.500    6.000 
#    0.000    2.500    0.000    2.250    0.000    0.000 
#    0.000    0.000    0.000    0.000    0.000    0.000 
#
# Total GULP energy -89651.016123 kJ/mol
# GULP energy per Si atom -5603.188508 kJ/mol
# Density = 2.470005 g / cm^3
# Si number density = 24.756394 Si / 1000 Ang^3
#
#
#
# Elastic Constant Matrix: (Units=GPa)
#
#
# Indices 1 2 3 4 5 6 
#
# 1 124.5297 31.8296 22.9095 -13.6766 1.2704 -27.8202
# 2 31.8296 99.6315 3.7726 1.5150 -17.4679 10.8386
# 3 22.9095 3.7726 41.9722 4.1725 -2.9352 -1.6001
# 4 -13.6766 1.5150 4.1725 35.3098 0.4159 7.7371
# 5 1.2704 -17.4679 -2.9352 0.4159 30.2221 -2.3082
# 6 -27.8202 10.8386 -1.6001 7.7371 -2.3082 55.8720
#
#
#
# Elastic Compliance Matrix: (Units=1/GPa)
#
#
# Indices 1 2 3 4 5 6 
#
# 1 0.012552 -0.005161 -0.006865 0.004566 -0.003761 0.006267
# 2 -0.005161 0.013515 0.002176 -0.001936 0.007920 -0.004534
# 3 -0.006865 0.002176 0.028156 -0.005675 0.004200 -0.002075
# 4 0.004566 -0.001936 -0.005675 0.031299 -0.002441 -0.001949
# 5 -0.003761 0.007920 0.004200 -0.002441 0.038161 -0.001374
# 6 0.006267 -0.004534 -0.002075 -0.001949 -0.001374 0.022052
#
#
# Mechanical properties :
#
#
# Convention : Reuss Voigt Hill
#
# Bulk Modulus (GPa) = 28.96768 42.57300 35.77034
# Shear Modulus (GPa) = 28.25790 38.12223 33.19006
#
# Velocity S-wave (km/s) = 3.38218 3.92841 3.66548
# Velocity P-wave (km/s) = 5.19410 6.14903 5.69163
#
# Compressibility (1/GPa) = 0.03452124
#
# Stress axis : x y z
#
# Youngs Moduli (GPa) = 79.66743 73.99437 35.51663
#
# Poissons Ratio (x) = 0.38187 0.24384
# Poissons Ratio (y) = 0.41115 -0.07727
# Poissons Ratio (z) = 0.54695 -0.16098
#
# Static dielectric constant tensor:
#      x y z
#    x 2.000100 -0.026510 -0.054160 
#    y -0.026510 1.967700 0.043900 
#    z -0.054160 0.043900 1.964840 
# 
# From -- ./inp_files/242656.got.cif
#   From: 2010.05.17/outbox.cif.g08.bks.cpg/sg2_122_cif.got.tgz:242656.got - 2010.06.03 11:33:40.
