data_PCOD9020597
_publ_section_title
;
Structure prediction by ZEFSAII (Michael W. Deem and Ramdas Pophale) SiO2 
 PCOD9020597
Probable space group: P -1
;
_chemical_formula_sum "Si O2"
_cell_formula_units_Z 13
_cell_length_a 9.028650
_cell_length_b 6.715351
_cell_length_c 10.379768
_cell_angle_alpha 55.780610
_cell_angle_beta 119.030663
_cell_angle_gamma 105.263241
_cell_volume 454.965803
_symmetry_space_group_name_H-M "P -1"
_symmetry_group_IT_number 2
_symmetry_cell_setting 'triclinic'
loop_
_space_group_symop_operation_xyz
x,y,z
-x,-y,-z
loop_
_atom_site_type_symbol
_atom_site_label
_atom_site_fract_x
_atom_site_fract_y
_atom_site_fract_z
Si Si1 0.351776 0.481772 0.080506
Si Si2 0.501095 0.943756 0.316061
Si Si3 0.934214 0.878858 0.177381
Si Si4 0.206428 0.719800 0.157391
Si Si5 0.823373 0.888704 0.605467
Si Si6 0.114346 0.611103 0.690662
Si Si7 0.500000 0.000000 0.000000
O O1 0.239664 0.544615 0.885578
O O2 0.426664 0.213637 0.206525
O O3 0.227832 0.506483 0.144551
O O4 0.482017 0.697723 0.076710
O O5 0.625644 0.850115 0.512804
O O6 0.573868 0.945342 0.201152
O O7 0.345594 0.757113 0.309648
O O8 0.027753 0.778843 0.124413
O O9 0.062725 0.046499 0.245911
O O10 0.891191 0.626662 0.313695
O O11 0.767637 0.038633 0.014382
O O12 0.826492 0.151727 0.440949
O O13 0.931415 0.695613 0.638712
#
# Coordination Sequence:
#
# PCOD9020597 Si02
#       7
#     2   2   2   2   2   2   1
#     4  11  21  40  65  95 124 168 216 257 314 378
#     4  11  23  41  66  96 126 166 211 264 319 364
#     4  11  23  43  65  92 131 170 215 258 312 380
#     4  10  24  41  67  95 123 172 221 257 300 389
#     4  11  25  41  62  98 130 164 206 271 320 371
#     4  11  23  41  65  94 127 170 207 261 324 375
#     4  10  22  36  62  92 132 156 214 254 310 382
#
# _framework density 28.573575000000002
#
# number of rings (size 3 to 8) (size 9 to 14) (size 15 to 20)
#    0.000    1.231    4.615    0.923    0.000    4.923 
#    0.000    1.538    0.000    0.000    0.000    0.000 
#    0.000    0.000    0.000    0.000    0.000    0.000 
#
# Total GULP energy -72644.648312 kJ/mol
# GULP energy per Si atom -5588.049870 kJ/mol
# Density = 2.850854 g / cm^3
# Si number density = 28.573575 Si / 1000 Ang^3
#
#
#
# Elastic Constant Matrix: (Units=GPa)
#
#
# Indices 1 2 3 4 5 6 
#
# 1 43.4678 11.1420 4.5261 15.7568 10.2579 -16.5865
# 2 11.1420 219.0371 61.1924 3.4019 43.2754 -0.5433
# 3 4.5261 61.1924 180.6775 13.4386 37.2624 -8.4918
# 4 15.7568 3.4019 13.4386 44.0486 -0.4692 8.9259
# 5 10.2579 43.2754 37.2624 -0.4692 42.4769 3.5574
# 6 -16.5865 -0.5433 -8.4918 8.9259 3.5574 42.6429
#
#
#
# Elastic Compliance Matrix: (Units=1/GPa)
#
#
# Indices 1 2 3 4 5 6 
#
# 1 0.044104 0.000200 0.005329 -0.022558 -0.017825 0.024427
# 2 0.000200 0.005847 -0.000830 -0.000432 -0.005326 0.000522
# 3 0.005329 -0.000830 0.007989 -0.005472 -0.007968 0.005463
# 4 -0.022558 -0.000432 -0.005472 0.036365 0.012642 -0.018536
# 5 -0.017825 -0.005326 -0.007968 0.012642 0.041633 -0.014707
# 6 0.024427 0.000522 0.005463 -0.018536 -0.014707 0.039153
#
#
# Mechanical properties :
#
#
# Convention : Reuss Voigt Hill
#
# Bulk Modulus (GPa) = 14.85025 66.32261 40.58643
# Shear Modulus (GPa) = 26.57599 50.25514 38.41556
#
# Velocity S-wave (km/s) = 3.05305 4.19835 3.67064
# Velocity P-wave (km/s) = 4.19960 6.83836 5.67449
#
# Compressibility (1/GPa) = 0.06733894
#
# Stress axis : x y z
#
# Youngs Moduli (GPa) = 22.67388 171.01415 125.16543
#
# Poissons Ratio (x) = -0.03425 -0.66705
# Poissons Ratio (y) = -0.00454 0.10394
# Poissons Ratio (z) = -0.12084 0.14201
#
# Static dielectric constant tensor:
#      x y z
#    x 1.709700 0.046440 -0.112260 
#    y 0.046440 2.225350 -0.096110 
#    z -0.112260 -0.096110 2.231690 
# 
# From -- ./inp_files/22417.got.cif
#   From: 2010.05.17/outbox.cif.g08.bks.cpg/sg2_12_cif.got.tgz:22417.got - 2010.06.03 11:33:40.
