data_PCOD9020336
_publ_section_title
;
Structure prediction by ZEFSAII (Michael W. Deem and Ramdas Pophale) SiO2 
 PCOD9020336
Probable space group: P -1
;
_chemical_formula_sum "Si O2"
_cell_formula_units_Z 12
_cell_length_a 9.124808
_cell_length_b 8.952628
_cell_length_c 8.955639
_cell_angle_alpha 115.063242
_cell_angle_beta 129.359105
_cell_angle_gamma 84.295138
_cell_volume 497.212121
_symmetry_space_group_name_H-M "P -1"
_symmetry_group_IT_number 2
_symmetry_cell_setting 'triclinic'
loop_
_space_group_symop_operation_xyz
x,y,z
-x,-y,-z
loop_
_atom_site_type_symbol
_atom_site_label
_atom_site_fract_x
_atom_site_fract_y
_atom_site_fract_z
Si Si1 0.442017 0.885749 0.102230
Si Si2 0.836451 0.467524 0.660024
Si Si3 0.185956 0.027415 0.785547
Si Si4 0.114391 0.279431 0.633659
Si Si5 0.443701 0.531656 0.778957
Si Si6 0.766239 0.333982 0.868100
O O1 0.359562 0.821290 0.182910
O O2 0.665294 0.986375 0.261571
O O3 0.310132 0.003517 0.998561
O O4 0.429225 0.714608 0.916572
O O5 0.655450 0.496299 0.460653
O O6 0.767938 0.332340 0.690494
O O7 0.962878 0.395101 0.590744
O O8 0.008552 0.616932 0.907406
O O9 0.991105 0.880645 0.600960
O O10 0.130834 0.198079 0.772335
O O11 0.311389 0.385840 0.735030
O O12 0.347749 0.516211 0.112267
#
# Coordination Sequence:
#
# PCOD9020336 Si02
#       6
#     2   2   2   2   2   2
#     4  11  20  39  61  91 115 157 206 245 291 358
#     4  11  23  38  60  94 125 152 196 257 302 344
#     4  10  22  34  62  88 122 150 200 252 296 342
#     4  11  20  39  61  91 115 157 206 245 291 358
#     4  12  21  40  69  90 112 162 212 242 287 362
#     4  11  23  38  60  94 125 152 196 257 302 344
#
# _framework density 24.13457
#
# number of rings (size 3 to 8) (size 9 to 14) (size 15 to 20)
#    0.000    1.000    5.000    3.500    0.000    0.000 
#    0.000    1.667    0.000    0.000    0.000    0.000 
#    0.000    0.000    0.000    0.000    0.000    0.000 
#
# Total GULP energy -66968.045748 kJ/mol
# GULP energy per Si atom -5580.670479 kJ/mol
# Density = 2.407964 g / cm^3
# Si number density = 24.134570 Si / 1000 Ang^3
#
#
#
# Elastic Constant Matrix: (Units=GPa)
#
#
# Indices 1 2 3 4 5 6 
#
# 1 68.3741 6.1179 13.7181 -5.1425 -2.2484 18.3151
# 2 6.1179 57.4693 20.4917 -12.0999 -5.6314 15.9334
# 3 13.7181 20.4917 86.7103 -25.1644 8.1852 3.6386
# 4 -5.1425 -12.0999 -25.1644 48.1718 5.8465 1.6051
# 5 -2.2484 -5.6314 8.1852 5.8465 27.6292 -11.9670
# 6 18.3151 15.9334 3.6386 1.6051 -11.9670 29.8853
#
#
#
# Elastic Compliance Matrix: (Units=1/GPa)
#
#
# Indices 1 2 3 4 5 6 
#
# 1 0.018727 0.002885 -0.001816 0.002784 -0.004289 -0.014661
# 2 0.002885 0.023385 -0.003885 0.004771 -0.001125 -0.014469
# 3 -0.001816 -0.003885 0.016099 0.008379 -0.008646 -0.002688
# 4 0.002784 0.004771 0.008379 0.028532 -0.012421 -0.011776
# 5 -0.004289 -0.001125 -0.008646 -0.012421 0.051960 0.025754
# 6 -0.014661 -0.014469 -0.002688 -0.011776 0.025754 0.061433
#
#
# Mechanical properties :
#
#
# Convention : Reuss Voigt Hill
#
# Bulk Modulus (GPa) = 19.01965 32.57880 25.79922
# Shear Modulus (GPa) = 22.39202 32.61899 27.50550
#
# Velocity S-wave (km/s) = 3.04928 3.68033 3.37957
# Velocity P-wave (km/s) = 4.50503 5.62031 5.09329
#
# Compressibility (1/GPa) = 0.05257720
#
# Stress axis : x y z
#
# Youngs Moduli (GPa) = 53.39832 42.76334 62.11659
#
# Poissons Ratio (x) = -0.12336 0.11283
# Poissons Ratio (y) = -0.15404 0.24131
# Poissons Ratio (z) = 0.09700 0.16613
#
# Static dielectric constant tensor:
#      x y z
#    x 1.923530 -0.023710 0.045870 
#    y -0.023710 1.947690 0.026310 
#    z 0.045870 0.026310 2.021480 
# 
# From -- ./inp_files/231208.got.cif
#   From: 2010.05.17/outbox.cif.g08.bks.cpg/sg2_116_cif.got.tgz:231208.got - 2010.06.03 11:33:40.
