data_PCOD9020648
_publ_section_title
;
Structure prediction by ZEFSAII (Michael W. Deem and Ramdas Pophale) SiO2 
 PCOD9020648
Probable space group: P -1
;
_chemical_formula_sum "Si O2"
_cell_formula_units_Z 10
_cell_length_a 8.047032
_cell_length_b 11.020336
_cell_length_c 4.960716
_cell_angle_alpha 93.457674
_cell_angle_beta 93.480076
_cell_angle_gamma 68.613529
_cell_volume 408.528689
_symmetry_space_group_name_H-M "P -1"
_symmetry_group_IT_number 2
_symmetry_cell_setting 'triclinic'
loop_
_space_group_symop_operation_xyz
x,y,z
-x,-y,-z
loop_
_atom_site_type_symbol
_atom_site_label
_atom_site_fract_x
_atom_site_fract_y
_atom_site_fract_z
Si Si1 0.277576 0.578546 0.173494
Si Si2 0.229834 0.905820 0.695816
Si Si3 0.448240 0.316278 0.503448
Si Si4 0.868195 0.542606 0.245586
Si Si5 0.961865 0.155315 0.827636
O O1 0.352695 0.438052 0.308140
O O2 0.413773 0.647313 0.286574
O O3 0.089549 0.695074 0.242437
O O4 0.252829 0.545566 0.855135
O O5 0.435461 0.812131 0.668025
O O6 0.146772 0.903717 0.393288
O O7 0.124752 0.846118 0.888370
O O8 0.164790 0.055594 0.809188
O O9 0.283852 0.319285 0.677342
O O10 0.000000 0.500000 0.500000
O O11 0.000000 0.500000 0.000000
#
# Coordination Sequence:
#
# PCOD9020648 Si02
#       5
#     2   2   2   2   2
#     4  10  22  36  64  90 116 145 197 247 285 338
#     4   9  19  33  53  85 120 147 179 234 295 341
#     4  10  22  37  63  91 115 148 196 246 286 337
#     4  12  25  40  55  84 124 158 190 234 295 346
#     4   9  19  33  53  85 120 147 179 234 295 341
#
# _framework density 24.478083999999999
#
# number of rings (size 3 to 8) (size 9 to 14) (size 15 to 20)
#    0.000    2.000    2.000    0.600   14.000    0.000 
#    0.000    0.000    0.000    2.400    0.000    0.000 
#    0.000    0.000    0.000    0.000    0.000    0.000 
#
# Total GULP energy -55676.555766 kJ/mol
# GULP energy per Si atom -5567.655577 kJ/mol
# Density = 2.442237 g / cm^3
# Si number density = 24.478084 Si / 1000 Ang^3
#
#
#
# Elastic Constant Matrix: (Units=GPa)
#
#
# Indices 1 2 3 4 5 6 
#
# 1 60.4875 51.9634 40.0719 15.0403 -17.8315 -34.3586
# 2 51.9634 227.3968 50.0551 45.0476 -27.1520 -53.7614
# 3 40.0719 50.0551 144.8421 6.9497 -3.1962 -27.6023
# 4 15.0403 45.0476 6.9497 51.7939 -24.8330 -22.8383
# 5 -17.8315 -27.1520 -3.1962 -24.8330 46.8987 14.2936
# 6 -34.3586 -53.7614 -27.6023 -22.8383 14.2936 42.2563
#
#
#
# Elastic Compliance Matrix: (Units=1/GPa)
#
#
# Indices 1 2 3 4 5 6 
#
# 1 0.036030 -0.001603 -0.004814 0.006512 0.008328 0.024815
# 2 -0.001603 0.006751 -0.000765 -0.002992 0.000097 0.005136
# 3 -0.004814 -0.000765 0.008787 0.000873 -0.001801 0.001933
# 4 0.006512 -0.002992 0.000873 0.033274 0.013729 0.015398
# 5 0.008328 0.000097 -0.001801 0.013729 0.030870 0.002697
# 6 0.024815 0.005136 0.001933 0.015398 0.002697 0.059049
#
#
# Mechanical properties :
#
#
# Convention : Reuss Voigt Hill
#
# Bulk Modulus (GPa) = 26.87849 79.65638 53.26743
# Shear Modulus (GPa) = 24.81077 47.56552 36.18814
#
# Velocity S-wave (km/s) = 3.18715 4.41294 3.84915
# Velocity P-wave (km/s) = 4.95463 7.65363 6.44695
#
# Compressibility (1/GPa) = 0.03720447
#
# Stress axis : x y z
#
# Youngs Moduli (GPa) = 27.75488 148.12947 113.80305
#
# Poissons Ratio (x) = 0.23738 0.54783
# Poissons Ratio (y) = 0.04448 0.08708
# Poissons Ratio (z) = 0.13361 0.11334
#
# Static dielectric constant tensor:
#      x y z
#    x 2.165810 0.013510 -0.115300 
#    y 0.013510 2.054280 -0.010590 
#    z -0.115300 -0.010590 1.994920 
# 
# From -- ./inp_files/30331.got.cif
#   From: 2010.05.17/outbox.cif.g08.bks.cpg/sg2_16_cif.got.tgz:30331.got - 2010.06.03 11:33:40.
