data_PCOD9020786
_publ_section_title
;
Structure prediction by ZEFSAII (Michael W. Deem and Ramdas Pophale) SiO2 
 PCOD9020786
Probable space group: P -1
;
_chemical_formula_sum "Si O2"
_cell_formula_units_Z 14
_cell_length_a 11.284648
_cell_length_b 14.094973
_cell_length_c 11.609324
_cell_angle_alpha 66.140068
_cell_angle_beta 144.023503
_cell_angle_gamma 87.004041
_cell_volume 702.001471
_symmetry_space_group_name_H-M "P -1"
_symmetry_group_IT_number 2
_symmetry_cell_setting 'triclinic'
loop_
_space_group_symop_operation_xyz
x,y,z
-x,-y,-z
loop_
_atom_site_type_symbol
_atom_site_label
_atom_site_fract_x
_atom_site_fract_y
_atom_site_fract_z
Si Si1 0.585747 0.373558 0.279764
Si Si2 0.173936 0.332143 0.240654
Si Si3 0.537419 0.752701 0.242999
Si Si4 0.052671 0.033356 0.840569
Si Si5 0.342541 0.962847 0.334686
Si Si6 0.604360 0.434157 0.743345
Si Si7 0.928962 0.431186 0.393278
O O1 0.517079 0.439110 0.322091
O O2 0.766191 0.399735 0.348129
O O3 0.290486 0.461530 0.935761
O O4 0.789949 0.200614 0.519078
O O5 0.315521 0.289217 0.496760
O O6 0.426306 0.213836 0.409326
O O7 0.000000 0.500000 0.000000
O O8 0.944394 0.323737 0.062813
O O9 0.477269 0.651329 0.236592
O O10 0.765672 0.708857 0.351865
O O11 0.251091 0.923990 0.946208
O O12 0.232784 0.024381 0.088362
O O13 0.924697 0.978317 0.830055
O O14 0.500000 0.000000 0.500000
O O15 0.500000 0.500000 0.500000
O O16 0.000000 0.500000 0.500000
#
# Coordination Sequence:
#
# PCOD9020786 Si02
#       7
#     2   2   2   2   2   2   2
#     4  11  25  43  67  95 126 166 221 263 310 383
#     4  11  21  35  57  91 126 166 206 252 305 374
#     4  11  23  41  61  91 129 162 210 263 312 374
#     4  10  24  40  59  93 131 165 206 266 316 377
#     4  10  22  37  58  87 136 171 200 247 323 383
#     4  12  23  35  66  97 127 165 210 256 320 378
#     4  11  24  46  69  91 122 171 220 267 312 370
#
# _framework density 19.942978
#
# number of rings (size 3 to 8) (size 9 to 14) (size 15 to 20)
#    0.000    1.143    4.286    1.714    6.000    1.714 
#    0.000    0.714    0.000    0.000    0.000    0.000 
#    0.000    0.000    0.000    0.000    0.000    0.000 
#
# Total GULP energy -78198.014474 kJ/mol
# GULP energy per Si atom -5585.572462 kJ/mol
# Density = 1.989759 g / cm^3
# Si number density = 19.942978 Si / 1000 Ang^3
#
#
#
# Elastic Constant Matrix: (Units=GPa)
#
#
# Indices 1 2 3 4 5 6 
#
# 1 76.3121 28.0563 25.9413 -5.9145 23.2761 -23.7399
# 2 28.0563 80.1953 32.9856 11.6009 4.7565 -20.7221
# 3 25.9413 32.9856 69.9155 -3.9585 19.7791 -11.9634
# 4 -5.9145 11.6009 -3.9585 42.0121 0.3642 14.5547
# 5 23.2761 4.7565 19.7791 0.3642 35.2372 -4.8372
# 6 -23.7399 -20.7221 -11.9634 14.5547 -4.8372 33.9523
#
#
#
# Elastic Compliance Matrix: (Units=1/GPa)
#
#
# Indices 1 2 3 4 5 6 
#
# 1 0.021843 -0.003762 -0.001128 0.000394 -0.011819 0.010727
# 2 -0.003762 0.022931 -0.009631 -0.012838 0.006913 0.014460
# 3 -0.001128 -0.009631 0.022171 0.005663 -0.010846 -0.002828
# 4 0.000394 -0.012838 0.005663 0.035416 -0.005018 -0.021462
# 5 -0.011819 0.006913 -0.010846 -0.005018 0.041418 0.000186
# 6 0.010727 0.014460 -0.002828 -0.021462 0.000186 0.054009
#
#
# Mechanical properties :
#
#
# Convention : Reuss Voigt Hill
#
# Bulk Modulus (GPa) = 26.38424 44.48772 35.43598
# Shear Modulus (GPa) = 20.87999 31.53628 26.20813
#
# Velocity S-wave (km/s) = 3.23922 3.98090 3.62906
# Velocity P-wave (km/s) = 5.22002 6.59439 5.94704
#
# Compressibility (1/GPa) = 0.03790141
#
# Stress axis : x y z
#
# Youngs Moduli (GPa) = 45.78096 43.60992 45.10469
#
# Poissons Ratio (x) = 0.16406 0.05090
# Poissons Ratio (y) = 0.17222 0.43441
# Poissons Ratio (z) = 0.05166 0.42001
#
# Static dielectric constant tensor:
#      x y z
#    x 1.821930 0.158460 0.035380 
#    y 0.158460 1.952280 0.019460 
#    z 0.035380 0.019460 1.711260 
# 
# From -- ./inp_files/77364.got.cif
#   From: 2010.05.17/outbox.cif.g08.bks.cpg/sg2_39_cif.got.tgz:77364.got - 2010.06.03 11:33:40.
