data_PCOD9020948
_publ_section_title
;
Structure prediction by ZEFSAII (Michael W. Deem and Ramdas Pophale) SiO2 
 PCOD9020948
Probable space group: P -1
;
_chemical_formula_sum "Si O2"
_cell_formula_units_Z 16
_cell_length_a 11.570956
_cell_length_b 18.855784
_cell_length_c 8.886719
_cell_angle_alpha 127.427631
_cell_angle_beta 125.366979
_cell_angle_gamma 24.953676
_cell_volume 647.348051
_symmetry_space_group_name_H-M "P -1"
_symmetry_group_IT_number 2
_symmetry_cell_setting 'triclinic'
loop_
_space_group_symop_operation_xyz
x,y,z
-x,-y,-z
loop_
_atom_site_type_symbol
_atom_site_label
_atom_site_fract_x
_atom_site_fract_y
_atom_site_fract_z
Si Si1 0.193509 0.166781 0.182771
Si Si2 0.586890 0.081252 0.716696
Si Si3 0.982506 0.382666 0.548718
Si Si4 0.979182 0.117450 0.477044
Si Si5 0.096134 0.396289 0.089660
Si Si6 0.283009 0.817921 0.901086
Si Si7 0.735019 0.441348 0.745603
Si Si8 0.358712 0.952272 0.795776
O O1 0.960805 0.351832 0.327235
O O2 0.447813 0.092136 0.226268
O O3 0.279659 0.050740 0.225817
O O4 0.147509 0.128658 0.955894
O O5 0.298298 0.197527 0.598094
O O6 0.802919 0.971829 0.603617
O O7 0.529437 0.209449 0.912202
O O8 0.955957 0.504080 0.688745
O O9 0.802135 0.438255 0.619820
O O10 0.792009 0.146421 0.286375
O O11 0.799293 0.302169 0.619720
O O12 0.176296 0.988173 0.598220
O O13 0.414747 0.202732 0.113023
O O14 0.000000 0.500000 0.000000
O O15 0.937912 0.388621 0.939049
O O16 0.430535 0.643005 0.813678
O O17 0.000000 0.000000 0.000000
#
# Coordination Sequence:
#
# PCOD9020948 Si02
#       8
#     2   2   2   2   2   2   2   2
#     4  11  21  36  60  92 130 167 204 260 326 380
#     4  11  20  40  64  94 130 171 216 253 324 387
#     4  11  20  34  62  95 124 163 206 267 320 385
#     4  11  22  41  64  95 134 172 219 262 309 386
#     4  10  22  37  62  97 130 163 203 271 333 389
#     4  10  24  40  64  95 127 178 224 262 304 380
#     4  11  20  38  65  97 125 167 222 263 319 378
#     4  11  23  38  61  99 134 165 210 269 332 379
#
# _framework density 24.716224
#
# number of rings (size 3 to 8) (size 9 to 14) (size 15 to 20)
#    0.000    1.250    3.750    4.500    1.750    0.500 
#    0.000    1.875    0.000    0.750    0.000    0.000 
#    0.000    0.000    0.000    0.000    0.000    0.000 
#
# Total GULP energy -89310.786183 kJ/mol
# GULP energy per Si atom -5581.924136 kJ/mol
# Density = 2.465997 g / cm^3
# Si number density = 24.716224 Si / 1000 Ang^3
#
#
#
# Elastic Constant Matrix: (Units=GPa)
#
#
# Indices 1 2 3 4 5 6 
#
# 1 37.8918 19.1378 1.2746 0.2810 -14.6735 2.6023
# 2 19.1378 125.6823 53.0823 10.1760 -8.0815 -0.4728
# 3 1.2746 53.0823 147.6618 16.2216 2.8141 7.5953
# 4 0.2810 10.1760 16.2216 56.0898 -5.8974 -0.2985
# 5 -14.6735 -8.0815 2.8141 -5.8974 32.6589 -4.3548
# 6 2.6023 -0.4728 7.5953 -0.2985 -4.3548 32.6526
#
#
#
# Elastic Compliance Matrix: (Units=1/GPa)
#
#
# Indices 1 2 3 4 5 6 
#
# 1 0.034475 -0.004927 0.001046 0.001924 0.014377 -0.001127
# 2 -0.004927 0.010382 -0.003704 -0.000701 0.000748 0.001498
# 3 0.001046 -0.003704 0.008471 -0.001990 -0.001852 -0.002373
# 4 0.001924 -0.000701 -0.001990 0.018994 0.004434 0.001065
# 5 0.014377 0.000748 -0.001852 0.004434 0.038826 0.004515
# 6 -0.001127 0.001498 -0.002373 0.001065 0.004515 0.031901
#
#
# Mechanical properties :
#
#
# Convention : Reuss Voigt Hill
#
# Bulk Modulus (GPa) = 26.20688 50.91394 38.56041
# Shear Modulus (GPa) = 29.25070 40.12966 34.69018
#
# Velocity S-wave (km/s) = 3.44388 4.03378 3.75045
# Velocity P-wave (km/s) = 5.14197 6.50687 5.86426
#
# Compressibility (1/GPa) = 0.03815791
#
# Stress axis : x y z
#
# Youngs Moduli (GPa) = 29.00672 96.32453 118.05461
#
# Poissons Ratio (x) = 0.47459 -0.12351
# Poissons Ratio (y) = 0.14291 0.43725
# Poissons Ratio (z) = -0.03035 0.35676
#
# Static dielectric constant tensor:
#      x y z
#    x 2.036230 -0.016840 0.043400 
#    y -0.016840 2.005460 0.024480 
#    z 0.043400 0.024480 2.007550 
# 
# From -- ./inp_files/320184.got.cif
#   From: 2010.05.17/outbox.cif.g08.bks.cpg/sg2_161_cif.got.tgz:320184.got - 2010.06.03 11:33:40.
