data_PCOD9020524
_publ_section_title
;
Structure prediction by ZEFSAII (Michael W. Deem and Ramdas Pophale) SiO2 
 PCOD9020524
Probable space group: P -1
;
_chemical_formula_sum "Si O2"
_cell_formula_units_Z 16
_cell_length_a 24.946231
_cell_length_b 10.879357
_cell_length_c 22.312182
_cell_angle_alpha 136.888723
_cell_angle_beta 10.804295
_cell_angle_gamma 137.102315
_cell_volume 770.083426
_symmetry_space_group_name_H-M "P -1"
_symmetry_group_IT_number 2
_symmetry_cell_setting 'triclinic'
loop_
_space_group_symop_operation_xyz
x,y,z
-x,-y,-z
loop_
_atom_site_type_symbol
_atom_site_label
_atom_site_fract_x
_atom_site_fract_y
_atom_site_fract_z
Si Si1 0.141681 0.377908 0.733999
Si Si2 0.310773 0.385508 0.739197
Si Si3 0.225380 0.110772 0.835607
Si Si4 0.116322 0.180696 0.115568
Si Si5 0.395922 0.042167 0.323850
Si Si6 0.935765 0.533763 0.488372
Si Si7 0.397145 0.706450 0.124640
Si Si8 0.394299 0.882835 0.753310
O O1 0.395414 0.475108 0.531568
O O2 0.292385 0.226418 0.478183
O O3 0.964777 0.516712 0.941951
O O4 0.893565 0.248840 0.995924
O O5 0.298231 0.301007 0.789186
O O6 0.357053 0.220070 0.584927
O O7 0.500000 0.000000 0.500000
O O8 0.102848 0.140668 0.046219
O O9 0.000000 0.000000 0.000000
O O10 0.103747 0.390327 0.217800
O O11 0.858245 0.074938 0.400525
O O12 0.386351 0.083971 0.808299
O O13 0.612957 0.101871 0.161269
O O14 0.478567 0.904474 0.134152
O O15 0.766432 0.418068 0.687233
O O16 0.163269 0.688236 0.322479
O O17 0.682890 0.618581 0.762202
#
# Coordination Sequence:
#
# PCOD9020524 Si02
#       8
#     2   2   2   2   2   2   2   2
#     4  11  24  38  56  84 112 153 193 237 282 334
#     4  12  24  39  58  80 115 155 197 234 275 329
#     4  12  25  43  60  83 115 157 199 235 277 331
#     4  10  23  36  58  87 118 156 190 233 286 342
#     4  10  22  36  59  87 122 148 187 236 293 346
#     4   9  19  32  52  80 116 147 183 224 280 354
#     4   9  19  32  52  81 115 149 176 227 291 344
#     4  11  22  36  58  83 121 150 190 233 290 337
#
# _framework density 20.776971
#
# number of rings (size 3 to 8) (size 9 to 14) (size 15 to 20)
#    0.000    1.500    2.500    2.250   14.000    0.000 
#    0.000    0.000    0.000    0.000    0.000    5.250 
#    0.000    0.000    0.000    0.000    0.000    0.000 
#
# Total GULP energy -89246.720198 kJ/mol
# GULP energy per Si atom -5577.920012 kJ/mol
# Density = 2.072968 g / cm^3
# Si number density = 20.776971 Si / 1000 Ang^3
#
#
#
# Elastic Constant Matrix: (Units=GPa)
#
#
# Indices 1 2 3 4 5 6 
#
# 1 70.1442 34.9866 45.5968 20.3191 -18.3436 6.5106
# 2 34.9866 96.0779 48.6117 37.1979 -3.4798 20.2408
# 3 45.5968 48.6117 78.2219 25.8377 -26.2162 7.4663
# 4 20.3191 37.1979 25.8377 36.9610 0.1031 -4.2627
# 5 -18.3436 -3.4798 -26.2162 0.1031 31.7121 -1.8913
# 6 6.5106 20.2408 7.4663 -4.2627 -1.8913 33.3491
#
#
#
# Elastic Compliance Matrix: (Units=1/GPa)
#
#
# Indices 1 2 3 4 5 6 
#
# 1 0.024445 -0.001107 -0.009139 -0.006242 0.006335 -0.002493
# 2 -0.001107 0.028259 -0.009815 -0.023035 -0.006655 -0.018060
# 3 -0.009139 -0.009815 0.034938 -0.009588 0.022549 -0.000028
# 4 -0.006242 -0.023035 -0.009588 0.063257 -0.012797 0.024706
# 5 0.006335 -0.006655 0.022549 -0.012797 0.053099 -0.000870
# 6 -0.002493 -0.018060 -0.000028 0.024706 -0.000870 0.044548
#
#
# Mechanical properties :
#
#
# Convention : Reuss Voigt Hill
#
# Bulk Modulus (GPa) = 21.04296 55.87045 38.45670
# Shear Modulus (GPa) = 16.42000 28.08770 22.25385
#
# Velocity S-wave (km/s) = 2.81427 3.68076 3.27629
# Velocity P-wave (km/s) = 4.55085 6.70917 5.73250
#
# Compressibility (1/GPa) = 0.04752183
#
# Stress axis : x y z
#
# Youngs Moduli (GPa) = 40.90800 35.38701 28.62237
#
# Poissons Ratio (x) = 0.03916 0.26158
# Poissons Ratio (y) = 0.04527 0.28092
# Poissons Ratio (z) = 0.37385 0.34731
#
# Static dielectric constant tensor:
#      x y z
#    x 1.763550 -0.005520 -0.026160 
#    y -0.005520 1.797100 -0.009930 
#    z -0.026160 -0.009930 1.804810 
# 
# From -- ./inp_files/485235.got.cif
#   From: 2010.05.17/outbox.cif.g08.bks.cpg/sg2_243_cif.got.tgz:485235.got - 2010.06.03 11:33:40.
