data_PCOD9020153
_publ_section_title
;
Structure prediction by ZEFSAII (Michael W. Deem and Ramdas Pophale) SiO2 
 PCOD9020153
Probable space group: P -1
;
_chemical_formula_sum "Si O2"
_cell_formula_units_Z 13
_cell_length_a 5.145560
_cell_length_b 5.030928
_cell_length_c 19.321115
_cell_angle_alpha 81.714362
_cell_angle_beta 69.844101
_cell_angle_gamma 85.821606
_cell_volume 464.487749
_symmetry_space_group_name_H-M "P -1"
_symmetry_group_IT_number 2
_symmetry_cell_setting 'triclinic'
loop_
_space_group_symop_operation_xyz
x,y,z
-x,-y,-z
loop_
_atom_site_type_symbol
_atom_site_label
_atom_site_fract_x
_atom_site_fract_y
_atom_site_fract_z
Si Si1 0.897376 0.005214 0.828690
Si Si2 0.577644 0.108839 0.609517
Si Si3 0.314636 0.268835 0.262884
Si Si4 0.000000 0.000000 0.500000
Si Si5 0.701900 0.740334 0.986970
Si Si6 0.051681 0.456486 0.604089
Si Si7 0.316269 0.334181 0.857140
O O1 0.593463 0.146985 0.845693
O O2 0.114946 0.225058 0.821494
O O3 0.919117 0.854686 0.759747
O O4 0.891567 0.798310 0.901498
O O5 0.670695 0.907927 0.548605
O O6 0.892066 0.244533 0.576149
O O7 0.328446 0.310101 0.611205
O O8 0.560503 0.952375 0.688433
O O9 0.550329 0.388626 0.188373
O O10 0.168151 0.494892 0.315403
O O11 0.898989 0.257196 0.444117
O O12 0.828615 0.691084 0.053376
O O13 0.500000 0.500000 0.000000
O O14 0.500000 0.000000 0.000000
#
# Coordination Sequence:
#
# PCOD9020153 Si02
#       7
#     2   2   2   1   2   2   2
#     4  11  25  45  71 106 146 200 262 327 395 473
#     4  11  26  46  73 110 152 194 253 311 380 463
#     4  11  26  46  72 105 152 208 254 319 398 470
#     4  10  24  46  80 110 148 200 242 312 380 456
#     4  10  21  46  74 109 151 201 268 345 409 478
#     4  11  26  46  73 110 152 194 253 311 380 463
#     4  11  25  45  71 106 146 200 262 327 395 473
#
# _framework density 27.987824
#
# number of rings (size 3 to 8) (size 9 to 14) (size 15 to 20)
#    0.000    1.231    1.538    2.308    0.000   14.769 
#    0.000    3.077    0.000    1.846    0.000    1.077 
#    0.000    0.000    0.000    0.000    0.000    0.000 
#
# Total GULP energy -72823.405074 kJ/mol
# GULP energy per Si atom -5601.800390 kJ/mol
# Density = 2.792412 g / cm^3
# Si number density = 27.987824 Si / 1000 Ang^3
#
#
#
# Elastic Constant Matrix: (Units=GPa)
#
#
# Indices 1 2 3 4 5 6 
#
# 1 197.7690 72.6777 55.7723 -2.6523 18.9672 -10.6133
# 2 72.6777 126.8582 23.9240 -16.3827 3.3895 2.0291
# 3 55.7723 23.9240 160.1210 -13.2075 3.0792 -18.8394
# 4 -2.6523 -16.3827 -13.2075 56.8462 -8.1828 7.9609
# 5 18.9672 3.3895 3.0792 -8.1828 32.0568 -4.7320
# 6 -10.6133 2.0291 -18.8394 7.9609 -4.7320 62.7222
#
#
#
# Elastic Compliance Matrix: (Units=1/GPa)
#
#
# Indices 1 2 3 4 5 6 
#
# 1 0.007553 -0.004106 -0.002015 -0.002014 -0.004246 0.000741
# 2 -0.004106 0.010649 -0.000082 0.003329 0.001963 -0.001338
# 3 -0.002015 -0.000082 0.007265 0.001491 0.001140 0.001741
# 4 -0.002014 0.003329 0.001491 0.019885 0.005460 -0.002113
# 5 -0.004246 0.001963 0.001140 0.005460 0.035006 0.001508
# 6 0.000741 -0.001338 0.001741 -0.002113 0.001508 0.017017
#
#
# Mechanical properties :
#
#
# Convention : Reuss Voigt Hill
#
# Bulk Modulus (GPa) = 76.55095 87.72181 82.13638
# Shear Modulus (GPa) = 43.80774 52.48329 48.14552
#
# Velocity S-wave (km/s) = 3.96061 4.33508 4.15207
# Velocity P-wave (km/s) = 6.95170 7.51453 7.23858
#
# Compressibility (1/GPa) = 0.01306319
#
# Stress axis : x y z
#
# Youngs Moduli (GPa) = 132.38943 93.90253 137.64453
#
# Poissons Ratio (x) = 0.38556 0.27732
# Poissons Ratio (y) = 0.54359 0.01124
# Poissons Ratio (z) = 0.26673 0.00766
#
# Static dielectric constant tensor:
#      x y z
#    x 2.165060 -0.065460 -0.039950 
#    y -0.065460 2.369080 0.236860 
#    z -0.039950 0.236860 2.340560 
# 
# From -- ./inp_files/580439.got.cif
#   From: 2010.05.17/outbox.cif.g08.bks.cpg/sg2_291_cif.got.tgz:580439.got - 2010.06.03 11:33:40.
