data_PCOD9020463
_publ_section_title
;
Structure prediction by ZEFSAII (Michael W. Deem and Ramdas Pophale) SiO2 
 PCOD9020463
Probable space group: P -1
;
_chemical_formula_sum "Si O2"
_cell_formula_units_Z 16
_cell_length_a 9.565344
_cell_length_b 9.680382
_cell_length_c 14.055646
_cell_angle_alpha 41.130650
_cell_angle_beta 130.990139
_cell_angle_gamma 110.362661
_cell_volume 617.595407
_symmetry_space_group_name_H-M "P -1"
_symmetry_group_IT_number 2
_symmetry_cell_setting 'triclinic'
loop_
_space_group_symop_operation_xyz
x,y,z
-x,-y,-z
loop_
_atom_site_type_symbol
_atom_site_label
_atom_site_fract_x
_atom_site_fract_y
_atom_site_fract_z
Si Si1 0.228624 0.432134 0.053262
Si Si2 0.669192 0.174181 0.423908
Si Si3 0.215781 0.881888 0.799706
Si Si4 0.631084 0.623477 0.213894
Si Si5 0.266234 0.976390 0.256258
Si Si6 0.303048 0.585928 0.214565
Si Si7 0.685254 0.829953 0.457279
Si Si8 0.898830 0.932988 0.154136
O O1 0.458181 0.304980 0.218297
O O2 0.208704 0.504250 0.119043
O O3 0.155054 0.238437 0.077915
O O4 0.173503 0.663213 0.853374
O O5 0.750508 0.383099 0.353500
O O6 0.649381 0.093353 0.563662
O O7 0.746360 0.964315 0.501529
O O8 0.220840 0.084050 0.633158
O O9 0.074513 0.977805 0.774478
O O10 0.437187 0.770026 0.995671
O O11 0.525051 0.567464 0.290622
O O12 0.775082 0.768842 0.201893
O O13 0.450183 0.922012 0.299088
O O14 0.103684 0.853648 0.235292
O O15 0.279674 0.421782 0.370140
O O16 0.220524 0.842128 0.065525
#
# Coordination Sequence:
#
# PCOD9020463 Si02
#       8
#     2   2   2   2   2   2   2   2
#     4   8  15  31  54  78 104 138 177 217 267 322
#     4   9  17  31  57  82 106 139 181 229 259 325
#     4   9  20  34  58  83 108 139 181 230 272 323
#     4   9  18  37  56  76 108 153 188 210 257 337
#     4  11  18  32  58  85 106 141 188 224 263 326
#     4   9  16  33  58  75 106 145 180 218 265 331
#     4  11  18  35  61  87 103 135 186 232 279 313
#     4  10  22  36  55  80 111 150 184 215 266 327
#
# _framework density 25.906931
#
# number of rings (size 3 to 8) (size 9 to 14) (size 15 to 20)
#    0.000    3.000    3.750    2.250    0.000    7.000 
#    0.000    3.750    5.500    0.000    0.000    0.000 
#    0.000    0.000    0.000    0.000    0.000    0.000 
#
# Total GULP energy -89303.329982 kJ/mol
# GULP energy per Si atom -5581.458124 kJ/mol
# Density = 2.584797 g / cm^3
# Si number density = 25.906931 Si / 1000 Ang^3
#
#
#
# Elastic Constant Matrix: (Units=GPa)
#
#
# Indices 1 2 3 4 5 6 
#
# 1 84.1638 14.1072 48.4127 -6.3070 -22.4628 13.9476
# 2 14.1072 68.1571 27.2411 -18.6722 -7.2454 27.5794
# 3 48.4127 27.2411 132.9163 -39.0968 -29.1060 12.9805
# 4 -6.3070 -18.6722 -39.0968 30.4361 15.0756 -14.8440
# 5 -22.4628 -7.2454 -29.1060 15.0756 48.1810 -2.9752
# 6 13.9476 27.5794 12.9805 -14.8440 -2.9752 30.2318
#
#
#
# Elastic Compliance Matrix: (Units=1/GPa)
#
#
# Indices 1 2 3 4 5 6 
#
# 1 0.021186 0.001610 -0.010475 -0.020347 0.009180 -0.015832
# 2 0.001610 0.024494 -0.003201 0.000216 0.001105 -0.021499
# 3 -0.010475 -0.003201 0.018037 0.026130 -0.001863 0.012656
# 4 -0.020347 0.000216 0.026130 0.092451 -0.020040 0.041393
# 5 0.009180 0.001105 -0.001863 -0.020040 0.029644 -0.011365
# 6 -0.015832 -0.021499 0.012656 0.041393 -0.011365 0.073766
#
#
# Mechanical properties :
#
#
# Convention : Reuss Voigt Hill
#
# Bulk Modulus (GPa) = 25.26281 51.63990 38.45136
# Shear Modulus (GPa) = 16.84025 34.80153 25.82089
#
# Velocity S-wave (km/s) = 2.55233 3.66912 3.16045
# Velocity P-wave (km/s) = 4.29632 6.15841 5.30964
#
# Compressibility (1/GPa) = 0.03958388
#
# Stress axis : x y z
#
# Youngs Moduli (GPa) = 47.19995 40.82602 55.44093
#
# Poissons Ratio (x) = -0.06572 0.58076
# Poissons Ratio (y) = -0.07598 0.17749
# Poissons Ratio (z) = 0.49443 0.13070
#
# Static dielectric constant tensor:
#      x y z
#    x 2.030910 0.024500 0.032750 
#    y 0.024500 2.212140 0.064530 
#    z 0.032750 0.064530 2.087240 
# 
# From -- ./inp_files/403137.got.cif
#   From: 2010.05.17/outbox.cif.g08.bks.cpg/sg2_202_cif.got.tgz:403137.got - 2010.06.03 11:33:40.
