data_PCOD9020859
_publ_section_title
;
Structure prediction by ZEFSAII (Michael W. Deem and Ramdas Pophale) SiO2 
 PCOD9020859
Probable space group: P -1
;
_chemical_formula_sum "Si O2"
_cell_formula_units_Z 14
_cell_length_a 10.110755
_cell_length_b 15.294358
_cell_length_c 14.332677
_cell_angle_alpha 153.102796
_cell_angle_beta 130.602613
_cell_angle_gamma 39.851068
_cell_volume 638.106697
_symmetry_space_group_name_H-M "P -1"
_symmetry_group_IT_number 2
_symmetry_cell_setting 'triclinic'
loop_
_space_group_symop_operation_xyz
x,y,z
-x,-y,-z
loop_
_atom_site_type_symbol
_atom_site_label
_atom_site_fract_x
_atom_site_fract_y
_atom_site_fract_z
Si Si1 0.748292 0.864541 0.367706
Si Si2 0.821872 0.085566 0.900270
Si Si3 0.467300 0.744113 0.234750
Si Si4 0.773341 0.406915 0.620398
Si Si5 0.450066 0.278179 0.353104
Si Si6 0.443100 0.176800 0.943222
Si Si7 0.142006 0.603343 0.666615
O O1 0.710035 0.820171 0.202241
O O2 0.655881 0.752768 0.286519
O O3 0.986465 0.756490 0.398946
O O4 0.600630 0.137715 0.583388
O O5 0.732283 0.088842 0.762438
O O6 0.647025 0.119840 0.926009
O O7 0.842977 0.301680 0.135687
O O8 0.500000 0.500000 0.000000
O O9 0.658950 0.271830 0.422530
O O10 0.718032 0.567962 0.656985
O O11 0.661436 0.584884 0.823675
O O12 0.354041 0.415395 0.536350
O O13 0.493675 0.027362 0.149163
O O14 0.970627 0.159096 0.218155
O O15 0.000000 0.500000 0.500000
#
# Coordination Sequence:
#
# PCOD9020859 Si02
#       7
#     2   2   2   2   2   2   2
#     4  10  24  42  65  92 125 166 213 258 313 376
#     4  10  22  37  60  93 125 156 213 258 314 369
#     4  10  23  41  64  92 125 162 207 266 314 369
#     4  11  24  43  59  92 133 165 209 260 307 381
#     4  11  24  39  64  90 128 167 212 258 316 365
#     4  11  22  41  64  91 125 166 213 257 309 374
#     4  11  21  38  64  91 121 165 203 263 312 370
#
# _framework density 21.939905
#
# number of rings (size 3 to 8) (size 9 to 14) (size 15 to 20)
#    0.000    1.429    2.857    1.714    2.000    4.000 
#    0.000    0.000    0.000    0.000    0.000    0.000 
#    0.000    0.000    0.000    0.000    0.000    0.000 
#
# Total GULP energy -78271.542316 kJ/mol
# GULP energy per Si atom -5590.824451 kJ/mol
# Density = 2.188997 g / cm^3
# Si number density = 21.939905 Si / 1000 Ang^3
#
#
#
# Elastic Constant Matrix: (Units=GPa)
#
#
# Indices 1 2 3 4 5 6 
#
# 1 37.4038 9.4933 14.9811 0.4369 0.9133 3.4053
# 2 9.4933 58.4959 -5.4148 -10.3910 9.0704 -7.9149
# 3 14.9811 -5.4148 88.3746 4.7647 9.1295 0.5372
# 4 0.4369 -10.3910 4.7647 41.5590 -0.4041 -5.4047
# 5 0.9133 9.0704 9.1295 -0.4041 34.6688 -5.3742
# 6 3.4053 -7.9149 0.5372 -5.4047 -5.3742 22.4888
#
#
#
# Elastic Compliance Matrix: (Units=1/GPa)
#
#
# Indices 1 2 3 4 5 6 
#
# 1 0.031581 -0.007328 -0.005771 -0.002461 0.001417 -0.007476
# 2 -0.007328 0.021600 0.002654 0.006304 -0.004682 0.009044
# 3 -0.005771 0.002654 0.012895 -0.000741 -0.003886 0.000393
# 4 -0.002461 0.006304 -0.000741 0.026945 0.000346 0.009167
# 5 0.001417 -0.004682 -0.003886 0.000346 0.031983 0.005957
# 6 -0.007476 0.009044 0.000393 0.009167 0.005957 0.052399
#
#
# Mechanical properties :
#
#
# Convention : Reuss Voigt Hill
#
# Bulk Modulus (GPa) = 22.13005 24.71037 23.42021
# Shear Modulus (GPa) = 23.43522 30.75765 27.09643
#
# Velocity S-wave (km/s) = 3.27181 3.74826 3.51811
# Velocity P-wave (km/s) = 4.93777 5.47904 5.21543
#
# Compressibility (1/GPa) = 0.04518743
#
# Stress axis : x y z
#
# Youngs Moduli (GPa) = 31.66426 46.29686 77.54728
#
# Poissons Ratio (x) = 0.33927 0.44752
# Poissons Ratio (y) = 0.23204 -0.20585
# Poissons Ratio (z) = 0.18273 -0.12289
#
# Static dielectric constant tensor:
#      x y z
#    x 1.797190 0.026630 -0.007210 
#    y 0.026630 1.787400 -0.015270 
#    z -0.007210 -0.015270 1.828850 
# 
# From -- ./inp_files/570812.got.cif
#   From: 2010.05.17/outbox.cif.g08.bks.cpg/sg2_286_cif.got.tgz:570812.got - 2010.06.03 11:33:40.
