data_PCOD9020986
_publ_section_title
;
Structure prediction by ZEFSAII (Michael W. Deem and Ramdas Pophale) SiO2 
 PCOD9020986
Probable space group: P -1
;
_chemical_formula_sum "Si O2"
_cell_formula_units_Z 14
_cell_length_a 5.455354
_cell_length_b 14.425920
_cell_length_c 8.159238
_cell_angle_alpha 65.893565
_cell_angle_beta 113.520981
_cell_angle_gamma 108.002758
_cell_volume 529.173756
_symmetry_space_group_name_H-M "P -1"
_symmetry_group_IT_number 2
_symmetry_cell_setting 'triclinic'
loop_
_space_group_symop_operation_xyz
x,y,z
-x,-y,-z
loop_
_atom_site_type_symbol
_atom_site_label
_atom_site_fract_x
_atom_site_fract_y
_atom_site_fract_z
Si Si1 0.407492 0.503750 0.655378
Si Si2 0.938223 0.357897 0.474463
Si Si3 0.025654 0.849750 0.539449
Si Si4 0.747110 0.388798 0.057948
Si Si5 0.849102 0.094109 0.932566
Si Si6 0.836113 0.734809 0.906301
Si Si7 0.363572 0.994910 0.728931
O O1 0.500000 0.500000 0.500000
O O2 0.354678 0.620939 0.564912
O O3 0.604258 0.473857 0.867932
O O4 0.137186 0.414785 0.627121
O O5 0.977914 0.245576 0.513683
O O6 0.927152 0.416403 0.250987
O O7 0.875044 0.804927 0.700880
O O8 0.874717 0.938838 0.371538
O O9 0.316759 0.911979 0.631930
O O10 0.476551 0.311455 0.103632
O O11 0.947206 0.341323 0.022783
O O12 0.630125 0.081027 0.739954
O O13 0.052937 0.196522 0.956060
O O14 0.670009 0.074179 0.065739
O O15 0.000000 0.000000 0.000000
#
# Coordination Sequence:
#
# PCOD9020986 Si02
#       7
#     2   2   2   2   2   2   2
#     4  11  27  47  72 109 139 182 243 296 359 432
#     4  10  25  45  72 102 141 188 232 296 354 434
#     4   9  20  44  67  95 136 183 238 289 351 418
#     4  11  26  49  75 103 146 191 233 295 360 427
#     4  10  22  37  63  95 140 181 233 290 348 417
#     4  10  25  43  70 103 140 190 237 284 359 428
#     4   9  20  41  64  97 134 180 236 290 347 412
#
# _framework density 26.456337000000001
#
# number of rings (size 3 to 8) (size 9 to 14) (size 15 to 20)
#    0.000    2.000    0.000    0.429   18.000    0.571 
#    7.714    2.143    0.000    0.000    0.000    0.000 
#    0.000    0.000    0.000    0.000    0.000    0.000 
#
# Total GULP energy -78170.330662 kJ/mol
# GULP energy per Si atom -5583.595047 kJ/mol
# Density = 2.639612 g / cm^3
# Si number density = 26.456337 Si / 1000 Ang^3
#
#
#
# Elastic Constant Matrix: (Units=GPa)
#
#
# Indices 1 2 3 4 5 6 
#
# 1 80.5478 59.0426 20.2374 13.4243 -8.4459 -2.9867
# 2 59.0426 137.4297 21.2360 38.4315 7.7409 -1.1871
# 3 20.2374 21.2360 81.6944 18.1578 3.9595 11.6180
# 4 13.4243 38.4315 18.1578 50.3845 2.8034 -2.1118
# 5 -8.4459 7.7409 3.9595 2.8034 35.8627 -0.7725
# 6 -2.9867 -1.1871 11.6180 -2.1118 -0.7725 61.5859
#
#
#
# Elastic Compliance Matrix: (Units=1/GPa)
#
#
# Indices 1 2 3 4 5 6 
#
# 1 0.020660 -0.009439 -0.003872 0.002765 0.007152 0.001735
# 2 -0.009439 0.013694 0.000886 -0.008019 -0.004665 -0.000694
# 3 -0.003872 0.000886 0.014622 -0.004911 -0.002401 -0.003128
# 4 0.002765 -0.008019 -0.004911 0.027027 0.000851 0.001843
# 5 0.007152 -0.004665 -0.002401 0.000851 0.030798 0.001125
# 6 0.001735 -0.000694 -0.003128 0.001843 0.001125 0.016976
#
#
# Mechanical properties :
#
#
# Convention : Reuss Voigt Hill
#
# Bulk Modulus (GPa) = 41.44959 55.63378 48.54168
# Shear Modulus (GPa) = 31.91429 42.84369 37.37899
#
# Velocity S-wave (km/s) = 3.47695 4.02856 3.76288
# Velocity P-wave (km/s) = 5.64093 6.53553 6.10464
#
# Compressibility (1/GPa) = 0.02412569
#
# Stress axis : x y z
#
# Youngs Moduli (GPa) = 48.40283 73.02519 68.38777
#
# Poissons Ratio (x) = 0.68926 0.26482
# Poissons Ratio (y) = 0.45686 -0.06057
# Poissons Ratio (z) = 0.18743 -0.06468
#
# Static dielectric constant tensor:
#      x y z
#    x 2.291040 0.150220 -0.000380 
#    y 0.150220 2.254710 0.060930 
#    z -0.000380 0.060930 2.181930 
# 
# From -- ./inp_files/135067.got.cif
#   From: 2010.05.17/outbox.cif.g08.bks.cpg/sg2_68_cif.got.tgz:135067.got - 2010.06.03 11:33:40.
