data_PCOD9020715
_publ_section_title
;
Structure prediction by ZEFSAII (Michael W. Deem and Ramdas Pophale) SiO2 
 PCOD9020715
Probable space group: P -1
;
_chemical_formula_sum "Si O2"
_cell_formula_units_Z 15
_cell_length_a 8.821921
_cell_length_b 9.182284
_cell_length_c 8.615572
_cell_angle_alpha 112.831064
_cell_angle_beta 65.689499
_cell_angle_gamma 102.749986
_cell_volume 584.646357
_symmetry_space_group_name_H-M "P -1"
_symmetry_group_IT_number 2
_symmetry_cell_setting 'triclinic'
loop_
_space_group_symop_operation_xyz
x,y,z
-x,-y,-z
loop_
_atom_site_type_symbol
_atom_site_label
_atom_site_fract_x
_atom_site_fract_y
_atom_site_fract_z
Si Si1 0.117246 0.882834 0.816093
Si Si2 0.959524 0.785092 0.534255
Si Si3 0.154363 0.582332 0.869217
Si Si4 0.317587 0.260738 0.590646
Si Si5 0.500000 0.500000 0.500000
Si Si6 0.618030 0.863340 0.151803
Si Si7 0.703654 0.605043 0.761997
Si Si8 0.726807 0.291276 0.817840
O O1 0.060014 0.888081 0.663698
O O2 0.094844 0.706628 0.822453
O O3 0.300169 0.960701 0.809330
O O4 0.000000 0.000000 0.000000
O O5 0.093186 0.745801 0.334497
O O6 0.801535 0.835203 0.520409
O O7 0.876483 0.640389 0.611606
O O8 0.260088 0.447303 0.687682
O O9 0.262640 0.680536 0.992247
O O10 0.000000 0.500000 0.000000
O O11 0.503966 0.310285 0.481968
O O12 0.311464 0.206263 0.746288
O O13 0.573968 0.566553 0.665152
O O14 0.419067 0.836752 0.223309
O O15 0.675320 0.760250 0.939981
O O16 0.693498 0.458343 0.822331
#
# Coordination Sequence:
#
# PCOD9020715 Si02
#       8
#     2   2   2   2   1   2   2   2
#     4  12  28  48  68 101 144 194 235 294 360 434
#     4  11  26  41  71 103 142 181 245 295 349 413
#     4  12  24  44  75 102 138 183 243 288 352 423
#     4  11  23  44  73 107 134 189 235 295 348 422
#     4  10  22  36  68 114 138 170 240 298 340 408
#     4  12  25  47  74 102 150 188 231 287 368 426
#     4  11  21  43  71 106 139 190 230 296 345 424
#     4  12  24  42  72 111 137 185 240 298 347 421
#
# _framework density 25.656537
#
# number of rings (size 3 to 8) (size 9 to 14) (size 15 to 20)
#    0.000    0.533    5.333    3.200    3.733    1.600 
#    0.000    0.000    0.000    0.000    0.000    0.000 
#    0.000    0.000    0.000    0.000    0.000    0.000 
#
# Total GULP energy -83799.399529 kJ/mol
# GULP energy per Si atom -5586.626635 kJ/mol
# Density = 2.559814 g / cm^3
# Si number density = 25.656537 Si / 1000 Ang^3
#
#
#
# Elastic Constant Matrix: (Units=GPa)
#
#
# Indices 1 2 3 4 5 6 
#
# 1 85.7743 49.6412 49.3990 8.4765 23.6475 35.7290
# 2 49.6412 105.3265 27.2483 -3.3441 1.6399 11.7053
# 3 49.3990 27.2483 130.3657 -1.0533 41.9649 -8.3028
# 4 8.4765 -3.3441 -1.0533 31.6710 1.1747 4.2722
# 5 23.6475 1.6399 41.9649 1.1747 67.4306 4.4811
# 6 35.7290 11.7053 -8.3028 4.2722 4.4811 49.2464
#
#
#
# Elastic Compliance Matrix: (Units=1/GPa)
#
#
# Indices 1 2 3 4 5 6 
#
# 1 0.039043 -0.012347 -0.012848 -0.008476 -0.003487 -0.026505
# 2 -0.012347 0.014564 0.001051 0.004088 0.002915 0.005053
# 3 -0.012848 0.001051 0.014910 0.002654 -0.005634 0.011868
# 4 -0.008476 0.004088 0.002654 0.033991 0.000454 0.002635
# 5 -0.003487 0.002915 -0.005634 0.000454 0.019542 -0.000930
# 6 -0.026505 0.005053 0.011868 0.002635 -0.000930 0.040192
#
#
# Mechanical properties :
#
#
# Convention : Reuss Voigt Hill
#
# Bulk Modulus (GPa) = 49.43023 63.78259 56.60641
# Shear Modulus (GPa) = 23.01257 42.68146 32.84702
#
# Velocity S-wave (km/s) = 2.99816 4.08311 3.58195
# Velocity P-wave (km/s) = 5.59403 6.86609 6.26245
#
# Compressibility (1/GPa) = 0.02023054
#
# Stress axis : x y z
#
# Youngs Moduli (GPa) = 25.61288 68.66108 67.06756
#
# Poissons Ratio (x) = 0.84774 0.86167
# Poissons Ratio (y) = 0.31623 -0.07049
# Poissons Ratio (z) = 0.32907 -0.07216
#
# Static dielectric constant tensor:
#      x y z
#    x 1.777020 -0.172610 0.092050 
#    y -0.172610 1.952250 0.080960 
#    z 0.092050 0.080960 1.898170 
# 
# From -- ./inp_files/159677.got.cif
#   From: 2010.05.17/outbox.cif.g08.bks.cpg/sg2_80_cif.got.tgz:159677.got - 2010.06.03 11:33:40.
