data_PCOD9020293
_publ_section_title
;
Structure prediction by ZEFSAII (Michael W. Deem and Ramdas Pophale) SiO2 
 PCOD9020293
Probable space group: P -1
;
_chemical_formula_sum "Si O2"
_cell_formula_units_Z 16
_cell_length_a 11.200991
_cell_length_b 13.493016
_cell_length_c 17.156699
_cell_angle_alpha 29.096300
_cell_angle_beta 48.177678
_cell_angle_gamma 42.823008
_cell_volume 854.446581
_symmetry_space_group_name_H-M "P -1"
_symmetry_group_IT_number 2
_symmetry_cell_setting 'triclinic'
loop_
_space_group_symop_operation_xyz
x,y,z
-x,-y,-z
loop_
_atom_site_type_symbol
_atom_site_label
_atom_site_fract_x
_atom_site_fract_y
_atom_site_fract_z
Si Si1 0.386775 0.416417 0.405522
Si Si2 0.413900 0.960519 0.143344
Si Si3 0.174102 0.029705 0.882083
Si Si4 0.698721 0.173782 0.334446
Si Si5 0.502633 0.677526 0.063655
Si Si6 0.828137 0.819399 0.396604
Si Si7 0.705924 0.607695 0.359603
Si Si8 0.917598 0.137389 0.625799
O O1 0.564979 0.210607 0.438482
O O2 0.635003 0.426100 0.155671
O O3 0.229613 0.382055 0.452711
O O4 0.370228 0.404579 0.512847
O O5 0.551437 0.732996 0.280198
O O6 0.226853 0.949374 0.226237
O O7 0.500000 0.000000 0.000000
O O8 0.402338 0.163860 0.064789
O O9 0.173167 0.082023 0.755458
O O10 0.189930 0.234884 0.781428
O O11 0.348088 0.810226 0.979738
O O12 0.000000 0.000000 0.000000
O O13 0.409436 0.630199 0.214191
O O14 0.692569 0.007046 0.384345
O O15 0.903794 0.060715 0.346852
O O16 0.010880 0.767678 0.396742
O O17 0.828859 0.351596 0.461307
#
# Coordination Sequence:
#
# PCOD9020293 Si02
#       8
#     2   2   2   2   2   2   2   2
#     4   9  18  38  59  84 114 148 187 226 291 335
#     4  11  23  40  61  79 116 150 192 237 285 336
#     4  10  22  33  55  89 122 147 190 234 281 338
#     4   8  20  35  61  84 114 151 187 232 284 338
#     4   9  21  36  58  80 116 157 181 230 294 325
#     4   9  20  34  58  86 115 151 185 229 280 337
#     4  10  22  36  61  83 108 151 190 235 287 326
#     4  10  22  37  59  87 110 146 201 231 274 337
#
# _framework density 18.725572
#
# number of rings (size 3 to 8) (size 9 to 14) (size 15 to 20)
#    1.500    1.000    0.000    1.500    7.000    2.000 
#    0.000    0.625    8.250    0.000    0.000    0.000 
#    0.000    0.000    0.000    0.000    0.000    0.000 
#
# Total GULP energy -89095.545406 kJ/mol
# GULP energy per Si atom -5568.471588 kJ/mol
# Density = 1.868295 g / cm^3
# Si number density = 18.725572 Si / 1000 Ang^3
#
#
#
# Elastic Constant Matrix: (Units=GPa)
#
#
# Indices 1 2 3 4 5 6 
#
# 1 81.3988 22.1359 31.4067 3.5619 -15.4069 -21.6646
# 2 22.1359 64.5985 16.9507 -12.0293 -6.6845 -11.7031
# 3 31.4067 16.9507 75.3720 -5.4159 -11.1654 -18.9208
# 4 3.5619 -12.0293 -5.4159 32.2927 -3.4875 -1.4200
# 5 -15.4069 -6.6845 -11.1654 -3.4875 36.3012 1.7458
# 6 -21.6646 -11.7031 -18.9208 -1.4200 1.7458 21.2938
#
#
#
# Elastic Compliance Matrix: (Units=1/GPa)
#
#
# Indices 1 2 3 4 5 6 
#
# 1 0.019414 -0.003056 -0.003023 -0.002513 0.005797 0.014743
# 2 -0.003056 0.019857 -0.000189 0.008346 0.002720 0.007969
# 3 -0.003023 -0.000189 0.018942 0.004501 0.004287 0.013601
# 4 -0.002513 0.008346 0.004501 0.035993 0.004927 0.008027
# 5 0.005797 0.002720 0.004287 0.004927 0.031871 0.008917
# 6 0.014743 0.007969 0.013601 0.008027 0.008917 0.078231
#
#
# Mechanical properties :
#
#
# Convention : Reuss Voigt Hill
#
# Bulk Modulus (GPa) = 21.89320 40.26176 31.07748
# Shear Modulus (GPa) = 21.54524 28.03593 24.79059
#
# Velocity S-wave (km/s) = 3.39570 3.87357 3.64248
# Velocity P-wave (km/s) = 5.20493 6.44621 5.85854
#
# Compressibility (1/GPa) = 0.04567629
#
# Stress axis : x y z
#
# Youngs Moduli (GPa) = 51.50973 50.36115 52.79188
#
# Poissons Ratio (x) = 0.15392 0.15959
# Poissons Ratio (y) = 0.15743 0.00997
# Poissons Ratio (z) = 0.15571 0.00951
#
# Static dielectric constant tensor:
#      x y z
#    x 1.665150 -0.001640 -0.021380 
#    y -0.001640 1.671190 -0.013830 
#    z -0.021380 -0.013830 1.644690 
# 
# From -- ./inp_files/259884.got.cif
#   From: 2010.05.17/outbox.cif.g08.bks.cpg/sg2_130_cif.got.tgz:259884.got - 2010.06.03 11:33:40.
