data_PCOD9020479
_publ_section_title
;
Structure prediction by ZEFSAII (Michael W. Deem and Ramdas Pophale) SiO2 
 PCOD9020479
Probable space group: P -1
;
_chemical_formula_sum "Si O2"
_cell_formula_units_Z 16
_cell_length_a 7.583600
_cell_length_b 13.722425
_cell_length_c 13.323755
_cell_angle_alpha 31.555313
_cell_angle_beta 79.838528
_cell_angle_gamma 81.064900
_cell_volume 714.192092
_symmetry_space_group_name_H-M "P -1"
_symmetry_group_IT_number 2
_symmetry_cell_setting 'triclinic'
loop_
_space_group_symop_operation_xyz
x,y,z
-x,-y,-z
loop_
_atom_site_type_symbol
_atom_site_label
_atom_site_fract_x
_atom_site_fract_y
_atom_site_fract_z
Si Si1 0.352364 0.418545 0.157063
Si Si2 0.198372 0.605285 0.635006
Si Si3 0.135984 0.364000 0.045636
Si Si4 0.568772 0.764230 0.402829
Si Si5 0.844320 0.022001 0.076576
Si Si6 0.828825 0.447594 0.750323
Si Si7 0.984655 0.979905 0.323048
Si Si8 0.580194 0.927492 0.453879
O O1 0.228628 0.543240 0.132660
O O2 0.452022 0.290863 0.338243
O O3 0.500000 0.500000 0.000000
O O4 0.251012 0.301416 0.185551
O O5 0.222896 0.482557 0.841939
O O6 0.379512 0.656278 0.511200
O O7 0.039660 0.499667 0.682693
O O8 0.105578 0.804312 0.496956
O O9 0.063955 0.177010 0.169440
O O10 0.000000 0.500000 0.000000
O O11 0.715245 0.607615 0.563063
O O12 0.529486 0.939161 0.332268
O O13 0.677079 0.880414 0.205342
O O14 0.939533 0.971052 0.217644
O O15 0.791621 0.240791 0.896714
O O16 0.000000 0.000000 0.000000
O O17 0.789831 0.966726 0.403339
O O18 0.500000 0.000000 0.500000
#
# Coordination Sequence:
#
# PCOD9020479 Si02
#       8
#     2   2   2   2   2   2   2   2
#     4  11  23  36  58  93 131 184 226 259 323 394
#     4  12  23  43  67  94 141 175 222 279 341 398
#     4  12  23  36  59  92 129 182 222 262 326 392
#     4  10  25  43  66 101 129 182 220 277 345 398
#     4  11  24  48  77  96 127 179 224 285 356 400
#     4  11  22  48  65  95 145 169 229 283 326 410
#     4  11  24  43  63  93 138 174 223 284 336 398
#     4  10  22  36  56  90 135 178 223 267 322 395
#
# _framework density 22.402936
#
# number of rings (size 3 to 8) (size 9 to 14) (size 15 to 20)
#    0.000    1.000    6.250    1.500    8.750    2.500 
#    0.000    1.250    0.000    0.000    0.000    0.000 
#    0.000    0.000    0.000    0.000    0.000    0.000 
#
# Total GULP energy -89079.601517 kJ/mol
# GULP energy per Si atom -5567.475095 kJ/mol
# Density = 2.235195 g / cm^3
# Si number density = 22.402936 Si / 1000 Ang^3
#
#
#
# Elastic Constant Matrix: (Units=GPa)
#
#
# Indices 1 2 3 4 5 6 
#
# 1 75.2962 7.3319 41.8877 6.6956 -36.1941 -5.1310
# 2 7.3319 47.3632 45.2637 11.0494 -7.6292 -18.7459
# 3 41.8877 45.2637 145.5889 -6.6904 -38.7480 -15.0523
# 4 6.6956 11.0494 -6.6904 36.9081 -10.3392 -12.6325
# 5 -36.1941 -7.6292 -38.7480 -10.3392 43.7373 4.8882
# 6 -5.1310 -18.7459 -15.0523 -12.6325 4.8882 16.1920
#
#
#
# Elastic Compliance Matrix: (Units=1/GPa)
#
#
# Indices 1 2 3 4 5 6 
#
# 1 0.022657 0.002972 -0.002653 0.000339 0.016617 0.003402
# 2 0.002972 0.053793 -0.015081 -0.005415 -0.008098 0.047420
# 3 -0.002653 -0.015081 0.016523 0.012528 0.012429 0.003081
# 4 0.000339 -0.005415 0.012528 0.049030 0.017735 0.038381
# 5 0.016617 -0.008098 0.012429 0.017735 0.049705 0.006276
# 6 0.003402 0.047420 0.003081 0.038381 0.006276 0.148649
#
#
# Mechanical properties :
#
#
# Convention : Reuss Voigt Hill
#
# Bulk Modulus (GPa) = 15.76058 50.80164 33.28111
# Shear Modulus (GPa) = 12.78677 30.95182 21.86930
#
# Velocity S-wave (km/s) = 2.39166 3.72102 3.12778
# Velocity P-wave (km/s) = 3.83106 6.41770 5.28507
#
# Compressibility (1/GPa) = 0.06344945
#
# Stress axis : x y z
#
# Youngs Moduli (GPa) = 44.13708 18.58985 60.52301
#
# Poissons Ratio (x) = -0.05525 0.16054
# Poissons Ratio (y) = -0.13117 0.91272
# Poissons Ratio (z) = 0.11708 0.28035
#
# Static dielectric constant tensor:
#      x y z
#    x 2.471650 0.664480 0.095150 
#    y 0.664480 2.382200 0.000640 
#    z 0.095150 0.000640 1.885330 
# 
# From -- ./inp_files/504922.got.cif
#   From: 2010.05.17/outbox.cif.g08.bks.cpg/sg2_253_cif.got.tgz:504922.got - 2010.06.03 11:33:40.
