data_PCOD9020938
_publ_section_title
;
Structure prediction by ZEFSAII (Michael W. Deem and Ramdas Pophale) SiO2 
 PCOD9020938
Probable space group: P -1
;
_chemical_formula_sum "Si O2"
_cell_formula_units_Z 16
_cell_length_a 10.833775
_cell_length_b 10.228575
_cell_length_c 7.586264
_cell_angle_alpha 83.153722
_cell_angle_beta 108.950012
_cell_angle_gamma 108.183721
_cell_volume 755.246589
_symmetry_space_group_name_H-M "P -1"
_symmetry_group_IT_number 2
_symmetry_cell_setting 'triclinic'
loop_
_space_group_symop_operation_xyz
x,y,z
-x,-y,-z
loop_
_atom_site_type_symbol
_atom_site_label
_atom_site_fract_x
_atom_site_fract_y
_atom_site_fract_z
Si Si1 0.582828 0.380081 0.272226
Si Si2 0.488261 0.826542 0.410172
Si Si3 0.411052 0.596439 0.137440
Si Si4 0.270026 0.971012 0.346893
Si Si5 0.115097 0.427946 0.017076
Si Si6 0.121504 0.435073 0.596029
Si Si7 0.974769 0.864848 0.391099
Si Si8 0.128794 0.133185 0.023295
O O1 0.532689 0.251220 0.398453
O O2 0.483194 0.476260 0.205652
O O3 0.730027 0.469083 0.400152
O O4 0.593868 0.350971 0.073878
O O5 0.490098 0.718686 0.278790
O O6 0.628060 0.949160 0.466047
O O7 0.357210 0.881581 0.311589
O O8 0.256557 0.526676 0.138661
O O9 0.122868 0.881190 0.365877
O O10 0.243801 0.086122 0.185829
O O11 0.127951 0.423907 0.812273
O O12 0.100845 0.267580 0.076471
O O13 0.000000 0.500000 0.000000
O O14 0.000000 0.500000 0.500000
O O15 0.077984 0.282859 0.516459
O O16 0.862307 0.853638 0.186452
O O17 0.000000 0.000000 0.500000
O O18 0.000000 0.000000 0.000000
#
# Coordination Sequence:
#
# PCOD9020938 Si02
#       8
#     2   2   2   2   2   2   2   2
#     4  10  22  42  64  94 129 164 217 268 321 389
#     4  11  23  42  66  91 130 171 213 272 312 387
#     4  10  23  40  65  94 125 169 215 268 327 379
#     4  10  23  42  61  92 124 169 221 253 325 389
#     4  10  22  37  62  94 121 161 214 263 323 383
#     4  10  22  38  60  93 126 162 200 271 323 370
#     4  10  22  40  62  90 124 167 211 259 318 385
#     4   9  20  39  60  83 125 164 199 262 310 373
#
# _framework density 21.185134000000001
#
# number of rings (size 3 to 8) (size 9 to 14) (size 15 to 20)
#    0.000    2.000    0.000    1.875    8.750    3.000 
#    4.500    1.250    0.000    0.000    0.000    0.000 
#    0.000    0.000    0.000    0.000    0.000    0.000 
#
# Total GULP energy -89275.987733 kJ/mol
# GULP energy per Si atom -5579.749233 kJ/mol
# Density = 2.113692 g / cm^3
# Si number density = 21.185134 Si / 1000 Ang^3
#
#
#
# Elastic Constant Matrix: (Units=GPa)
#
#
# Indices 1 2 3 4 5 6 
#
# 1 57.5677 -6.4649 15.4709 -1.5020 20.7264 4.9956
# 2 -6.4649 69.1501 10.6538 -2.5489 -6.4523 -2.7288
# 3 15.4709 10.6538 47.2570 -9.1589 6.6471 -4.3642
# 4 -1.5020 -2.5489 -9.1589 30.0949 -6.8345 8.1016
# 5 20.7264 -6.4523 6.6471 -6.8345 27.6995 4.2899
# 6 4.9956 -2.7288 -4.3642 8.1016 4.2899 31.3059
#
#
#
# Elastic Compliance Matrix: (Units=1/GPa)
#
#
# Indices 1 2 3 4 5 6 
#
# 1 0.026130 0.001645 -0.007363 -0.004595 -0.018326 -0.001352
# 2 0.001645 0.015676 -0.004438 0.000995 0.003776 -0.000290
# 3 -0.007363 -0.004438 0.026155 0.006274 -0.000703 0.002907
# 4 -0.004595 0.000995 0.006274 0.041091 0.013984 -0.010855
# 5 -0.018326 0.003776 -0.000703 0.013984 0.055564 -0.008077
# 6 -0.001352 -0.000290 0.002907 -0.010855 -0.008077 0.036455
#
#
# Mechanical properties :
#
#
# Convention : Reuss Voigt Hill
#
# Bulk Modulus (GPa) = 20.98659 23.69936 22.34297
# Shear Modulus (GPa) = 21.07340 28.10773 24.59057
#
# Velocity S-wave (km/s) = 3.15735 3.64643 3.41067
# Velocity P-wave (km/s) = 4.81867 5.37956 5.10682
#
# Compressibility (1/GPa) = 0.04764949
#
# Stress axis : x y z
#
# Youngs Moduli (GPa) = 38.27048 63.79041 38.23344
#
# Poissons Ratio (x) = -0.10490 0.28150
# Poissons Ratio (y) = -0.06294 0.16967
# Poissons Ratio (z) = 0.28178 0.28308
#
# Static dielectric constant tensor:
#      x y z
#    x 1.764490 0.003120 -0.012890 
#    y 0.003120 1.788910 -0.038230 
#    z -0.012890 -0.038230 1.734730 
# 
# From -- ./inp_files/239343.got.cif
#   From: 2010.05.17/outbox.cif.g08.bks.cpg/sg2_120_cif.got.tgz:239343.got - 2010.06.03 11:33:40.
