data_PCOD9020227
_publ_section_title
;
Structure prediction by ZEFSAII (Michael W. Deem and Ramdas Pophale) SiO2 
 PCOD9020227
Probable space group: P -1
;
_chemical_formula_sum "Si O2"
_cell_formula_units_Z 14
_cell_length_a 7.658778
_cell_length_b 14.905897
_cell_length_c 6.983791
_cell_angle_alpha 128.410841
_cell_angle_beta 119.252518
_cell_angle_gamma 72.543700
_cell_volume 545.050279
_symmetry_space_group_name_H-M "P -1"
_symmetry_group_IT_number 2
_symmetry_cell_setting 'triclinic'
loop_
_space_group_symop_operation_xyz
x,y,z
-x,-y,-z
loop_
_atom_site_type_symbol
_atom_site_label
_atom_site_fract_x
_atom_site_fract_y
_atom_site_fract_z
Si Si1 0.983126 0.575720 0.303186
Si Si2 0.492212 0.851312 0.970727
Si Si3 0.587009 0.394357 0.524964
Si Si4 0.876760 0.338107 0.112203
Si Si5 0.649703 0.918409 0.751482
Si Si6 0.574451 0.674975 0.243644
Si Si7 0.067758 0.110701 0.798686
O O1 0.978748 0.447153 0.210886
O O2 0.763496 0.613259 0.170577
O O3 0.030190 0.657063 0.619782
O O4 0.824246 0.410567 0.709550
O O5 0.422253 0.722621 0.756764
O O6 0.483380 0.891081 0.793393
O O7 0.144032 0.083672 0.020149
O O8 0.386368 0.952235 0.164545
O O9 0.500000 0.500000 0.500000
O O10 0.456945 0.370016 0.613535
O O11 0.638915 0.353590 0.999123
O O12 0.921924 0.217663 0.875625
O O13 0.622304 0.810567 0.456959
O O14 0.726496 0.849441 0.137184
O O15 0.000000 0.000000 0.500000
#
# Coordination Sequence:
#
# PCOD9020227 Si02
#       7
#     2   2   2   2   2   2   2
#     4  11  23  42  60  93 132 167 203 260 316 369
#     4   8  16  32  53  85 117 155 199 253 299 361
#     4  11  22  38  66  90 127 168 208 258 312 371
#     4  11  22  38  65  88 127 170 209 257 314 372
#     4   8  16  33  58  85 120 155 206 255 304 361
#     4  11  22  42  65  93 123 167 212 258 311 373
#     4  10  17  30  60  94 116 159 212 257 305 368
#
# _framework density 25.685704000000001
#
# number of rings (size 3 to 8) (size 9 to 14) (size 15 to 20)
#    0.857    1.143    1.429    3.857    2.000    0.571 
#    0.000    3.571    0.000    1.714    0.000    0.000 
#    0.000    0.000    0.000    0.000    0.000    0.000 
#
# Total GULP energy -78341.290633 kJ/mol
# GULP energy per Si atom -5595.806474 kJ/mol
# Density = 2.562724 g / cm^3
# Si number density = 25.685704 Si / 1000 Ang^3
#
#
#
# Elastic Constant Matrix: (Units=GPa)
#
#
# Indices 1 2 3 4 5 6 
#
# 1 106.8086 47.0978 48.3039 14.1359 23.4829 -16.8260
# 2 47.0978 135.4503 38.4497 39.4114 1.7270 -12.3589
# 3 48.3039 38.4497 115.0682 33.9095 9.8661 2.0415
# 4 14.1359 39.4114 33.9095 51.6330 -13.3210 -7.8700
# 5 23.4829 1.7270 9.8661 -13.3210 35.8874 -14.2683
# 6 -16.8260 -12.3589 2.0415 -7.8700 -14.2683 31.5621
#
#
#
# Elastic Compliance Matrix: (Units=1/GPa)
#
#
# Indices 1 2 3 4 5 6 
#
# 1 0.015167 -0.003661 -0.004954 0.000930 -0.006311 0.004352
# 2 -0.003661 0.010836 0.000336 -0.007842 -0.001224 -0.000239
# 3 -0.004954 0.000336 0.016028 -0.014201 -0.011301 -0.012196
# 4 0.000930 -0.007842 -0.014201 0.045669 0.029861 0.023231
# 5 -0.006311 -0.001224 -0.011301 0.029861 0.058478 0.030769
# 6 0.004352 -0.000239 -0.012196 0.023231 0.030769 0.054401
#
#
# Mechanical properties :
#
#
# Convention : Reuss Voigt Hill
#
# Bulk Modulus (GPa) = 39.25637 69.44776 54.35206
# Shear Modulus (GPa) = 22.16039 38.71489 30.43764
#
# Velocity S-wave (km/s) = 2.94045 3.88655 3.44612
# Velocity P-wave (km/s) = 5.18120 6.87289 6.08611
#
# Compressibility (1/GPa) = 0.02547358
#
# Stress axis : x y z
#
# Youngs Moduli (GPa) = 65.93208 92.28741 62.39030
#
# Poissons Ratio (x) = 0.33784 0.30908
# Poissons Ratio (y) = 0.24136 -0.02097
# Poissons Ratio (z) = 0.32663 -0.03101
#
# Static dielectric constant tensor:
#      x y z
#    x 2.026770 0.050920 -0.031100 
#    y 0.050920 2.020690 -0.013800 
#    z -0.031100 -0.013800 2.099120 
# 
# From -- ./inp_files/277157.got.cif
#   From: 2010.05.17/outbox.cif.g08.bks.cpg/sg2_139_cif.got.tgz:277157.got - 2010.06.03 11:33:40.
