data_PCOD9020272
_publ_section_title
;
Structure prediction by ZEFSAII (Michael W. Deem and Ramdas Pophale) SiO2 
 PCOD9020272
Probable space group: P -1
;
_chemical_formula_sum "Si O2"
_cell_formula_units_Z 16
_cell_length_a 12.557928
_cell_length_b 19.657755
_cell_length_c 11.040531
_cell_angle_alpha 35.157599
_cell_angle_beta 120.831105
_cell_angle_gamma 143.678310
_cell_volume 839.839670
_symmetry_space_group_name_H-M "P -1"
_symmetry_group_IT_number 2
_symmetry_cell_setting 'triclinic'
loop_
_space_group_symop_operation_xyz
x,y,z
-x,-y,-z
loop_
_atom_site_type_symbol
_atom_site_label
_atom_site_fract_x
_atom_site_fract_y
_atom_site_fract_z
Si Si1 0.219069 0.785426 0.688160
Si Si2 0.968701 0.082401 0.769613
Si Si3 0.769308 0.108830 0.803057
Si Si4 0.581323 0.818846 0.793972
Si Si5 0.948884 0.351273 0.772182
Si Si6 0.211882 0.448657 0.276336
Si Si7 0.287660 0.678613 0.654044
Si Si8 0.330718 0.743442 0.064428
O O1 0.214020 0.679811 0.737231
O O2 0.292505 0.788641 0.853290
O O3 0.995117 0.668544 0.738911
O O4 0.363501 0.000217 0.418803
O O5 0.888582 0.131630 0.734202
O O6 0.166995 0.280527 0.532529
O O7 0.793378 0.921604 0.805115
O O8 0.000000 0.000000 0.000000
O O9 0.891677 0.206030 0.857378
O O10 0.703744 0.194564 0.604471
O O11 0.559449 0.887955 0.012578
O O12 0.486940 0.757183 0.694074
O O13 0.409717 0.630237 0.051400
O O14 0.000000 0.500000 0.500000
O O15 0.131292 0.477796 0.788114
O O16 0.762634 0.252793 0.887014
O O17 0.225164 0.540929 0.269252
#
# Coordination Sequence:
#
# PCOD9020272 Si02
#       8
#     2   2   2   2   2   2   2   2
#     4  11  18  29  52  86 120 137 166 227 274 330
#     4  11  24  39  55  78 111 146 189 238 271 310
#     4  11  20  36  51  78 118 149 180 221 267 331
#     4  11  20  33  55  85 113 140 176 232 279 324
#     4  10  22  31  48  78 118 156 178 206 268 349
#     4  11  19  30  54  81 110 142 174 222 282 319
#     4  11  16  33  52  82 116 137 172 220 276 334
#     4  12  18  32  54  83 118 145 176 215 281 339
#
# _framework density 19.051255000000001
#
# number of rings (size 3 to 8) (size 9 to 14) (size 15 to 20)
#    0.000    1.000    7.500    2.625    0.000    0.500 
#    0.000    0.000    0.000    0.750    0.000    7.875 
#    0.000    0.000    0.000    0.000    0.000    0.000 
#
# Total GULP energy -89111.048292 kJ/mol
# GULP energy per Si atom -5569.440518 kJ/mol
# Density = 1.900789 g / cm^3
# Si number density = 19.051255 Si / 1000 Ang^3
#
#
#
# Elastic Constant Matrix: (Units=GPa)
#
#
# Indices 1 2 3 4 5 6 
#
# 1 9.8924 16.1043 6.2889 -2.6428 -10.4410 -8.3491
# 2 16.1043 130.7705 38.5790 -11.1020 5.5239 -13.4245
# 3 6.2889 38.5790 112.0705 -13.0774 -0.3058 10.5793
# 4 -2.6428 -11.1020 -13.0774 35.3741 4.7755 -3.8523
# 5 -10.4410 5.5239 -0.3058 4.7755 22.2518 7.5854
# 6 -8.3491 -13.4245 10.5793 -3.8523 7.5854 21.6877
#
#
#
# Elastic Compliance Matrix: (Units=1/GPa)
#
#
# Indices 1 2 3 4 5 6 
#
# 1 0.552890 -0.063908 -0.018306 -0.008114 0.244283 0.095337
# 2 -0.063908 0.018328 -0.002358 0.005147 -0.036171 0.001457
# 3 -0.018306 -0.002358 0.012138 0.001491 -0.003780 -0.012841
# 4 -0.008114 0.005147 0.001491 0.033141 -0.015846 0.010764
# 5 0.244283 -0.036171 -0.003780 -0.015846 0.167803 0.011992
# 6 0.095337 0.001457 -0.012841 0.010764 0.011992 0.087695
#
#
# Mechanical properties :
#
#
# Convention : Reuss Voigt Hill
#
# Bulk Modulus (GPa) = 2.41423 41.63085 22.02254
# Shear Modulus (GPa) = 4.24013 28.64680 16.44347
#
# Velocity S-wave (km/s) = 1.49348 3.88193 2.94107
# Velocity P-wave (km/s) = 2.06008 6.48012 4.80811
#
# Compressibility (1/GPa) = 0.41421033
#
# Stress axis : x y z
#
# Youngs Moduli (GPa) = 1.80868 54.56275 82.38632
#
# Poissons Ratio (x) = 3.48701 1.50814
# Poissons Ratio (y) = 0.11559 0.19431
# Poissons Ratio (z) = 0.03311 0.12868
#
# Static dielectric constant tensor:
#      x y z
#    x 1.673690 0.013380 -0.016370 
#    y 0.013380 1.756000 -0.009030 
#    z -0.016370 -0.009030 1.738440 
# 
# From -- ./inp_files/458039.got.cif
#   From: 2010.05.17/outbox.cif.g08.bks.cpg/sg2_230_cif.got.tgz:458039.got - 2010.06.03 11:33:40.
