data_PCOD9020606
_publ_section_title
;
Structure prediction by ZEFSAII (Michael W. Deem and Ramdas Pophale) SiO2 
 PCOD9020606
Probable space group: P -1
;
_chemical_formula_sum "Si O2"
_cell_formula_units_Z 15
_cell_length_a 18.421006
_cell_length_b 12.275515
_cell_length_c 6.431209
_cell_angle_alpha 57.449597
_cell_angle_beta 64.133237
_cell_angle_gamma 35.021495
_cell_volume 703.457158
_symmetry_space_group_name_H-M "P -1"
_symmetry_group_IT_number 2
_symmetry_cell_setting 'triclinic'
loop_
_space_group_symop_operation_xyz
x,y,z
-x,-y,-z
loop_
_atom_site_type_symbol
_atom_site_label
_atom_site_fract_x
_atom_site_fract_y
_atom_site_fract_z
Si Si1 0.206611 0.983679 0.670616
Si Si2 0.500000 0.500000 0.500000
Si Si3 0.300643 0.100684 0.166902
Si Si4 0.959437 0.176099 0.655943
Si Si5 0.781431 0.522579 0.210038
Si Si6 0.391426 0.829295 0.960470
Si Si7 0.533285 0.730367 0.491276
Si Si8 0.189052 0.734149 0.872466
O O1 0.275671 0.932597 0.848206
O O2 0.268002 0.771004 0.728320
O O3 0.226367 0.071420 0.389711
O O4 0.057718 0.137479 0.714493
O O5 0.522528 0.614049 0.483919
O O6 0.568063 0.336770 0.772306
O O7 0.422436 0.961056 0.307386
O O8 0.221252 0.328658 0.017903
O O9 0.348347 0.000007 0.984166
O O10 0.904789 0.327108 0.383817
O O11 0.849619 0.252846 0.857983
O O12 0.056558 0.941747 0.716554
O O13 0.664375 0.640076 0.387728
O O14 0.759568 0.450325 0.122352
O O15 0.503104 0.730055 0.765507
#
# Coordination Sequence:
#
# PCOD9020606 Si02
#       8
#     2   1   2   2   2   2   2   2
#     4   9  21  42  67  88 130 166 207 266 315 371
#     4  10  22  36  62  96 114 158 216 254 312 364
#     4  10  24  42  60  95 129 173 212 254 320 371
#     4   9  22  40  65  98 121 167 213 263 325 366
#     4  12  24  39  67  93 131 167 213 265 308 380
#     4  10  22  41  62  90 130 166 210 262 310 379
#     4  10  24  39  62  91 131 166 209 260 315 373
#     4   9  22  41  63  95 124 160 215 263 322 366
#
# _framework density 21.323257999999999
#
# number of rings (size 3 to 8) (size 9 to 14) (size 15 to 20)
#    0.800    1.333    0.000    1.200    7.467    6.400 
#    0.000    1.333    0.000    0.000    0.000    0.000 
#    0.000    0.000    0.000    0.000    0.000    0.000 
#
# Total GULP energy -83501.539398 kJ/mol
# GULP energy per Si atom -5566.769293 kJ/mol
# Density = 2.127473 g / cm^3
# Si number density = 21.323258 Si / 1000 Ang^3
#
#
#
# Elastic Constant Matrix: (Units=GPa)
#
#
# Indices 1 2 3 4 5 6 
#
# 1 52.1541 12.4780 34.6677 0.8782 -17.4853 5.3079
# 2 12.4780 46.7404 33.1627 -20.0915 -12.2939 20.7236
# 3 34.6677 33.1627 98.6658 -15.2147 -7.1481 23.7230
# 4 0.8782 -20.0915 -15.2147 31.8413 3.4432 -10.3510
# 5 -17.4853 -12.2939 -7.1481 3.4432 25.4528 -2.3214
# 6 5.3079 20.7236 23.7230 -10.3510 -2.3214 27.1709
#
#
#
# Elastic Compliance Matrix: (Units=1/GPa)
#
#
# Indices 1 2 3 4 5 6 
#
# 1 0.034683 0.001141 -0.012763 -0.007959 0.022084 0.002353
# 2 0.001141 0.048657 -0.007259 0.017918 0.017757 -0.022654
# 3 -0.012763 -0.007259 0.018859 0.003074 -0.008119 -0.007959
# 4 -0.007959 0.017918 0.003074 0.045358 -0.001874 0.002324
# 5 0.022084 0.017757 -0.008119 -0.001874 0.060433 -0.006319
# 6 0.002353 -0.022654 -0.007959 0.002324 -0.006319 0.060917
#
#
# Mechanical properties :
#
#
# Convention : Reuss Voigt Hill
#
# Bulk Modulus (GPa) = 15.51898 39.79746 27.65822
# Shear Modulus (GPa) = 15.23702 24.70978 19.97340
#
# Velocity S-wave (km/s) = 2.67605 3.40784 3.06387
# Velocity P-wave (km/s) = 4.10391 5.84712 5.05128
#
# Compressibility (1/GPa) = 0.06443721
#
# Stress axis : x y z
#
# Youngs Moduli (GPa) = 28.83234 20.55204 53.02580
#
# Poissons Ratio (x) = -0.02344 0.67676
# Poissons Ratio (y) = -0.03289 0.38490
# Poissons Ratio (z) = 0.36798 0.14918
#
# Static dielectric constant tensor:
#      x y z
#    x 1.782970 -0.019160 -0.022030 
#    y -0.019160 1.901510 0.066100 
#    z -0.022030 0.066100 1.775350 
# 
# From -- ./inp_files/108835.got.cif
#   From: 2010.05.17/outbox.cif.g08.bks.cpg/sg2_55_cif.got.tgz:108835.got - 2010.06.03 11:33:40.
