data_PCOD9020771
_publ_section_title
;
Structure prediction by ZEFSAII (Michael W. Deem and Ramdas Pophale) SiO2 
 PCOD9020771
Probable space group: P -1
;
_chemical_formula_sum "Si O2"
_cell_formula_units_Z 16
_cell_length_a 21.536434
_cell_length_b 9.819540
_cell_length_c 5.081464
_cell_angle_alpha 103.317356
_cell_angle_beta 108.808408
_cell_angle_gamma 37.371368
_cell_volume 616.813430
_symmetry_space_group_name_H-M "P -1"
_symmetry_group_IT_number 2
_symmetry_cell_setting 'triclinic'
loop_
_space_group_symop_operation_xyz
x,y,z
-x,-y,-z
loop_
_atom_site_type_symbol
_atom_site_label
_atom_site_fract_x
_atom_site_fract_y
_atom_site_fract_z
Si Si1 0.601863 0.525124 0.678653
Si Si2 0.451190 0.003248 0.681082
Si Si3 0.289657 0.766417 0.787085
Si Si4 0.763668 0.499542 0.843176
Si Si5 0.974888 0.413962 0.236994
Si Si6 0.170354 0.170512 0.159797
Si Si7 0.124411 0.798849 0.610319
Si Si8 0.772185 0.688464 0.331574
O O1 0.485138 0.782795 0.627503
O O2 0.642884 0.345257 0.439361
O O3 0.668274 0.552703 0.703917
O O4 0.635715 0.426505 0.973334
O O5 0.500000 0.000000 0.500000
O O6 0.325040 0.222757 0.609728
O O7 0.500000 0.000000 0.000000
O O8 0.185499 0.841875 0.640819
O O9 0.247005 0.976472 0.963632
O O10 0.836644 0.375203 0.635334
O O11 0.828327 0.317877 0.092232
O O12 0.732912 0.704444 0.994735
O O13 0.898034 0.451526 0.332283
O O14 0.000000 0.500000 0.500000
O O15 0.088685 0.188219 0.168839
O O16 0.903261 0.593668 0.983968
O O17 0.223075 0.165983 0.469358
O O18 0.000000 0.000000 0.500000
#
# Coordination Sequence:
#
# PCOD9020771 Si02
#       8
#     2   2   2   2   2   2   2   2
#     4  10  22  44  63  97 126 179 221 272 338 404
#     4  12  26  44  75 101 135 174 226 288 351 401
#     4  10  23  41  67  87 140 176 222 272 334 410
#     4  10  22  37  61  88 130 165 214 277 330 388
#     4   9  22  42  64  97 135 178 235 271 331 396
#     4  10  23  42  67 101 134 189 223 279 339 399
#     4  10  22  37  57  91 124 175 218 264 329 400
#     4  11  25  40  69  98 135 171 226 292 337 403
#
# _framework density 25.939772000000001
#
# number of rings (size 3 to 8) (size 9 to 14) (size 15 to 20)
#    0.000    1.750    1.250    1.125   12.250    2.000 
#    0.000    1.250    0.000    0.000    0.000    0.000 
#    0.000    0.000    0.000    0.000    0.000    0.000 
#
# Total GULP energy -89291.145939 kJ/mol
# GULP energy per Si atom -5580.696621 kJ/mol
# Density = 2.588073 g / cm^3
# Si number density = 25.939772 Si / 1000 Ang^3
#
#
#
# Elastic Constant Matrix: (Units=GPa)
#
#
# Indices 1 2 3 4 5 6 
#
# 1 80.3780 16.7332 20.5741 -8.4060 -12.3705 -22.6608
# 2 16.7332 107.0650 55.5209 15.1531 -11.2749 -4.7606
# 3 20.5741 55.5209 145.9184 27.5031 -16.7974 -4.9631
# 4 -8.4060 15.1531 27.5031 39.9231 14.6105 -5.1869
# 5 -12.3705 -11.2749 -16.7974 14.6105 39.8939 12.2725
# 6 -22.6608 -4.7606 -4.9631 -5.1869 12.2725 34.2252
#
#
#
# Elastic Compliance Matrix: (Units=1/GPa)
#
#
# Indices 1 2 3 4 5 6 
#
# 1 0.018581 -0.002360 -0.004011 0.011532 -0.005462 0.015099
# 2 -0.002360 0.012288 -0.003058 -0.004828 0.003977 -0.002455
# 3 -0.004011 -0.003058 0.011661 -0.011909 0.009156 -0.006478
# 4 0.011532 -0.004828 -0.011909 0.051011 -0.028633 0.023235
# 5 -0.005462 0.003977 0.009156 -0.028633 0.045754 -0.022482
# 6 0.015099 -0.002455 -0.006478 0.023235 -0.022482 0.049518
#
#
# Mechanical properties :
#
#
# Convention : Reuss Voigt Hill
#
# Bulk Modulus (GPa) = 42.24497 57.66864 49.95681
# Shear Modulus (GPa) = 23.19522 38.84398 31.01960
#
# Velocity S-wave (km/s) = 2.99355 3.87391 3.46183
# Velocity P-wave (km/s) = 5.31692 6.50305 5.93966
#
# Compressibility (1/GPa) = 0.02367146
#
# Stress axis : x y z
#
# Youngs Moduli (GPa) = 53.81701 81.38043 85.75824
#
# Poissons Ratio (x) = 0.19208 0.34395
# Poissons Ratio (y) = 0.12702 0.26228
# Poissons Ratio (z) = 0.21584 0.24889
#
# Static dielectric constant tensor:
#      x y z
#    x 2.278150 0.124810 -0.046710 
#    y 0.124810 2.156580 0.004180 
#    z -0.046710 0.004180 2.042260 
# 
# From -- ./inp_files/123799.got.cif
#   From: 2010.05.17/outbox.cif.g08.bks.cpg/sg2_62_cif.got.tgz:123799.got - 2010.06.03 11:33:40.
