data_PCOD9020498
_publ_section_title
;
Structure prediction by ZEFSAII (Michael W. Deem and Ramdas Pophale) SiO2 
 PCOD9020498
Probable space group: P -1
;
_chemical_formula_sum "Si O2"
_cell_formula_units_Z 16
_cell_length_a 11.960752
_cell_length_b 9.292564
_cell_length_c 8.529623
_cell_angle_alpha 71.526649
_cell_angle_beta 73.188509
_cell_angle_gamma 63.799789
_cell_volume 794.280747
_symmetry_space_group_name_H-M "P -1"
_symmetry_group_IT_number 2
_symmetry_cell_setting 'triclinic'
loop_
_space_group_symop_operation_xyz
x,y,z
-x,-y,-z
loop_
_atom_site_type_symbol
_atom_site_label
_atom_site_fract_x
_atom_site_fract_y
_atom_site_fract_z
Si Si1 0.724404 0.839136 0.620745
Si Si2 0.783457 0.923991 0.217507
Si Si3 0.861751 0.492511 0.570688
Si Si4 0.461787 0.018962 0.828298
Si Si5 0.931627 0.926325 0.683552
Si Si6 0.935581 0.166139 0.837947
Si Si7 0.083294 0.614851 0.924948
Si Si8 0.264244 0.363144 0.747736
O O1 0.739806 0.891121 0.418714
O O2 0.782344 0.640648 0.668494
O O3 0.581717 0.919681 0.709160
O O4 0.811675 0.904834 0.664625
O O5 0.598283 0.784159 0.254625
O O6 0.913275 0.947029 0.175165
O O7 0.655519 0.036243 0.143608
O O8 0.895332 0.309101 0.675105
O O9 0.780147 0.537081 0.429256
O O10 0.000000 0.500000 0.500000
O O11 0.820088 0.749449 0.174464
O O12 0.500000 0.000000 0.000000
O O13 0.026182 0.747620 0.764135
O O14 0.886056 0.037724 0.820963
O O15 0.000000 0.000000 0.500000
O O16 0.907339 0.278295 0.966299
O O17 0.223379 0.488130 0.863170
O O18 0.000000 0.500000 0.000000
#
# Coordination Sequence:
#
# PCOD9020498 Si02
#       8
#     2   2   2   2   2   2   2   2
#     4  11  21  36  64  85 123 170 210 254 306 371
#     4   9  19  36  58  87 123 153 214 256 307 362
#     4  11  17  35  60  89 120 157 208 254 302 373
#     4  10  22  36  57  92 123 157 222 269 301 347
#     4  12  25  39  61  95 134 170 197 251 330 392
#     4  12  22  37  58  97 131 156 199 261 329 379
#     4  12  22  38  64  91 128 164 212 259 318 361
#     4   9  20  34  56  88 119 153 206 266 296 357
#
# _framework density 20.144010000000002
#
# number of rings (size 3 to 8) (size 9 to 14) (size 15 to 20)
#    0.750    0.500    5.000    3.000    5.250    0.000 
#    0.000    0.000    0.000    5.250    0.000    0.000 
#    0.000    0.000    0.000    0.000    0.000    0.000 
#
# Total GULP energy -89104.809306 kJ/mol
# GULP energy per Si atom -5569.050582 kJ/mol
# Density = 2.009816 g / cm^3
# Si number density = 20.144010 Si / 1000 Ang^3
#
#
#
# Elastic Constant Matrix: (Units=GPa)
#
#
# Indices 1 2 3 4 5 6 
#
# 1 79.9917 45.7948 18.9360 16.4291 15.1947 -14.9244
# 2 45.7948 138.3572 38.9046 19.8600 -2.2613 -14.8527
# 3 18.9360 38.9046 59.5357 3.6329 15.6787 -5.6722
# 4 16.4291 19.8600 3.6329 43.9554 -5.2925 -2.0895
# 5 15.1947 -2.2613 15.6787 -5.2925 29.9308 2.5649
# 6 -14.9244 -14.8527 -5.6722 -2.0895 2.5649 37.7398
#
#
#
# Elastic Compliance Matrix: (Units=1/GPa)
#
#
# Indices 1 2 3 4 5 6 
#
# 1 0.020623 -0.005950 0.001962 -0.006511 -0.013670 0.006677
# 2 -0.005950 0.011742 -0.007640 -0.001511 0.007598 0.000520
# 3 0.001962 -0.007640 0.025526 -0.001118 -0.015364 0.002588
# 4 -0.006511 -0.001511 -0.001118 0.026895 0.008742 -0.002442
# 5 -0.013670 0.007598 -0.015364 0.008742 0.051180 -0.007719
# 6 0.006677 0.000520 0.002588 -0.002442 -0.007719 0.030121
#
#
# Mechanical properties :
#
#
# Convention : Reuss Voigt Hill
#
# Bulk Modulus (GPa) = 28.87193 53.90615 41.38904
# Shear Modulus (GPa) = 24.88973 33.94182 29.41578
#
# Velocity S-wave (km/s) = 3.51891 4.10928 3.82550
# Velocity P-wave (km/s) = 5.55645 7.02377 6.33275
#
# Compressibility (1/GPa) = 0.03463572
#
# Stress axis : x y z
#
# Youngs Moduli (GPa) = 48.49032 85.16420 39.17603
#
# Poissons Ratio (x) = 0.50670 -0.07687
# Poissons Ratio (y) = 0.28850 0.29930
# Poissons Ratio (z) = -0.09514 0.65064
#
# Static dielectric constant tensor:
#      x y z
#    x 1.713190 -0.004180 -0.021070 
#    y -0.004180 1.718140 0.020090 
#    z -0.021070 0.020090 1.845240 
# 
# From -- ./inp_files/242994.got.cif
#   From: 2010.05.17/outbox.cif.g08.bks.cpg/sg2_122_cif.got.tgz:242994.got - 2010.06.03 11:33:40.
