data_PCOD9020773
_publ_section_title
;
Structure prediction by ZEFSAII (Michael W. Deem and Ramdas Pophale) SiO2 
 PCOD9020773
Probable space group: P -1
;
_chemical_formula_sum "Si O2"
_cell_formula_units_Z 16
_cell_length_a 8.070944
_cell_length_b 18.188082
_cell_length_c 9.243243
_cell_angle_alpha 132.139640
_cell_angle_beta 48.572959
_cell_angle_gamma 107.196239
_cell_volume 727.065668
_symmetry_space_group_name_H-M "P -1"
_symmetry_group_IT_number 2
_symmetry_cell_setting 'triclinic'
loop_
_space_group_symop_operation_xyz
x,y,z
-x,-y,-z
loop_
_atom_site_type_symbol
_atom_site_label
_atom_site_fract_x
_atom_site_fract_y
_atom_site_fract_z
Si Si1 0.824388 0.203104 0.867726
Si Si2 0.009127 0.782934 0.501049
Si Si3 0.128911 0.345131 0.990419
Si Si4 0.753479 0.427305 0.557951
Si Si5 0.058392 0.560953 0.225547
Si Si6 0.562752 0.589419 0.672904
Si Si7 0.513617 0.115691 0.131651
Si Si8 0.621855 0.242049 0.496986
O O1 0.909076 0.159325 0.603479
O O2 0.613020 0.302605 0.096495
O O3 0.724108 0.129712 0.930241
O O4 0.018283 0.253453 0.887163
O O5 0.080607 0.660433 0.257441
O O6 0.151518 0.791306 0.576387
O O7 0.732974 0.821870 0.711336
O O8 0.102349 0.438471 0.009157
O O9 0.979916 0.397784 0.285805
O O10 0.397359 0.294713 0.790733
O O11 0.791289 0.439537 0.719720
O O12 0.596979 0.534944 0.735965
O O13 0.651131 0.329619 0.482062
O O14 0.800884 0.596253 0.479730
O O15 0.500000 0.500000 0.500000
O O16 0.558423 0.157782 0.319861
O O17 0.500000 0.000000 0.000000
#
# Coordination Sequence:
#
# PCOD9020773 Si02
#       8
#     2   2   2   2   2   2   2   2
#     4  12  24  41  67  98 132 173 225 282 330 389
#     4  11  27  43  68 107 133 172 226 272 330 400
#     4  11  21  37  64  97 140 184 213 259 315 392
#     4  10  22  37  57  94 144 186 220 252 316 390
#     4  10  22  37  58  96 146 185 215 253 316 393
#     4  11  18  32  58  89 129 180 221 254 306 384
#     4  12  27  53  75  91 126 173 227 292 352 399
#     4  11  25  44  68 101 140 173 223 272 330 397
#
# _framework density 22.006264999999999
#
# number of rings (size 3 to 8) (size 9 to 14) (size 15 to 20)
#    0.000    1.000    6.250    1.500    5.250    2.500 
#    0.000    0.625    0.000    0.000    0.000    0.000 
#    0.000    0.000    0.000    0.000    0.000    0.000 
#
# Total GULP energy -89330.794149 kJ/mol
# GULP energy per Si atom -5583.174634 kJ/mol
# Density = 2.195618 g / cm^3
# Si number density = 22.006265 Si / 1000 Ang^3
#
#
#
# Elastic Constant Matrix: (Units=GPa)
#
#
# Indices 1 2 3 4 5 6 
#
# 1 115.3657 29.2686 25.1513 7.6138 0.6463 10.6489
# 2 29.2686 132.5426 34.8749 7.7337 11.8164 14.4445
# 3 25.1513 34.8749 41.4145 -6.4510 6.0842 8.0855
# 4 7.6138 7.7337 -6.4510 32.5108 6.3057 6.4699
# 5 0.6463 11.8164 6.0842 6.3057 22.4417 3.2730
# 6 10.6489 14.4445 8.0855 6.4699 3.2730 24.8643
#
#
#
# Elastic Compliance Matrix: (Units=1/GPa)
#
#
# Indices 1 2 3 4 5 6 
#
# 1 0.010676 -0.000412 -0.006966 -0.004116 0.003161 -0.001412
# 2 -0.000412 0.010420 -0.008331 -0.003236 -0.002006 -0.002062
# 3 -0.006966 -0.008331 0.040739 0.015161 -0.009534 -0.008114
# 4 -0.004116 -0.003236 0.015161 0.039835 -0.012012 -0.010071
# 5 0.003161 -0.002006 -0.009534 -0.012012 0.051595 -0.000754
# 6 -0.001412 -0.002062 -0.008114 -0.010071 -0.000754 0.047379
#
#
# Mechanical properties :
#
#
# Convention : Reuss Voigt Hill
#
# Bulk Modulus (GPa) = 32.87801 51.99026 42.43413
# Shear Modulus (GPa) = 20.64390 29.29855 24.97122
#
# Velocity S-wave (km/s) = 3.06615 3.65276 3.37223
# Velocity P-wave (km/s) = 5.24479 6.43946 5.87258
#
# Compressibility (1/GPa) = 0.03041547
#
# Stress axis : x y z
#
# Youngs Moduli (GPa) = 93.67062 95.96681 24.54661
#
# Poissons Ratio (x) = 0.03956 0.17099
# Poissons Ratio (y) = 0.03861 0.20451
# Poissons Ratio (z) = 0.65252 0.79953
#
# Static dielectric constant tensor:
#      x y z
#    x 1.887840 -0.047650 0.054770 
#    y -0.047650 1.890260 -0.051280 
#    z 0.054770 -0.051280 1.850970 
# 
# From -- ./inp_files/218489.got.cif
#   From: 2010.05.17/outbox.cif.g08.bks.cpg/sg2_110_cif.got.tgz:218489.got - 2010.06.03 11:33:40.
