data_PCOD9020539
_publ_section_title
;
Structure prediction by ZEFSAII (Michael W. Deem and Ramdas Pophale) SiO2 
 PCOD9020539
Probable space group: P -1
;
_chemical_formula_sum "Si O2"
_cell_formula_units_Z 12
_cell_length_a 8.559045
_cell_length_b 12.747835
_cell_length_c 15.658766
_cell_angle_alpha 27.547956
_cell_angle_beta 114.558797
_cell_angle_gamma 129.647760
_cell_volume 551.733491
_symmetry_space_group_name_H-M "P -1"
_symmetry_group_IT_number 2
_symmetry_cell_setting 'triclinic'
loop_
_space_group_symop_operation_xyz
x,y,z
-x,-y,-z
loop_
_atom_site_type_symbol
_atom_site_label
_atom_site_fract_x
_atom_site_fract_y
_atom_site_fract_z
Si Si1 0.791075 0.673119 0.725949
Si Si2 0.929824 0.383120 0.871402
Si Si3 0.928312 0.196483 0.821442
Si Si4 0.772023 0.722734 0.882702
Si Si5 0.724183 0.145433 0.640906
Si Si6 0.620443 0.983487 0.460683
O O1 0.818412 0.678354 0.829890
O O2 0.592215 0.689999 0.659920
O O3 0.759006 0.399355 0.873587
O O4 0.000000 0.000000 0.500000
O O5 0.860640 0.253764 0.854375
O O6 0.132979 0.731319 0.666966
O O7 0.057798 0.277381 0.019864
O O8 0.746153 0.076531 0.791962
O O9 0.136213 0.512267 0.598967
O O10 0.000000 0.000000 0.000000
O O11 0.827269 0.032551 0.687779
O O12 0.500000 0.500000 0.000000
O O13 0.473004 0.983883 0.670055
O O14 0.500000 0.000000 0.500000
#
# Coordination Sequence:
#
# PCOD9020539 Si02
#       6
#     2   2   2   2   2   2
#     4  10  22  36  59  95 134 162 200 268 332 370
#     4  11  21  37  59  94 127 163 205 265 323 371
#     4  11  23  38  60  91 131 170 214 259 314 382
#     4  12  21  37  68  99 122 161 221 268 308 382
#     4  11  22  37  62  96 121 163 221 261 307 372
#     4  11  18  37  63  90 120 161 214 260 309 377
#
# _framework density 21.749631999999998
#
# number of rings (size 3 to 8) (size 9 to 14) (size 15 to 20)
#    0.000    1.000    6.667    1.500    0.000    0.000 
#    0.000    0.833    0.000    4.000    0.000    0.000 
#    0.000    0.000    0.000    0.000    0.000    0.000 
#
# Total GULP energy -66830.885362 kJ/mol
# GULP energy per Si atom -5569.240447 kJ/mol
# Density = 2.170013 g / cm^3
# Si number density = 21.749632 Si / 1000 Ang^3
#
#
#
# Elastic Constant Matrix: (Units=GPa)
#
#
# Indices 1 2 3 4 5 6 
#
# 1 70.7999 40.3511 34.6025 5.1169 30.3380 -16.3709
# 2 40.3511 151.4892 35.9824 40.6055 21.0396 -26.4867
# 3 34.6025 35.9824 105.9642 15.1325 30.2320 -10.9824
# 4 5.1169 40.6055 15.1325 42.0465 0.1508 2.4814
# 5 30.3380 21.0396 30.2320 0.1508 48.7488 -3.4168
# 6 -16.3709 -26.4867 -10.9824 2.4814 -3.4168 23.0783
#
#
#
# Elastic Compliance Matrix: (Units=1/GPa)
#
#
# Indices 1 2 3 4 5 6 
#
# 1 0.024483 -0.001810 -0.002519 -0.001015 -0.012020 0.012421
# 2 -0.001810 0.014409 0.000802 -0.014947 -0.004381 0.016593
# 3 -0.002519 0.000802 0.013165 -0.005479 -0.006575 0.005015
# 4 -0.001015 -0.014947 -0.005479 0.041679 0.008692 -0.023676
# 5 -0.012020 -0.004381 -0.006575 0.008692 0.033043 -0.012725
# 6 0.012421 0.016593 0.005015 -0.023676 -0.012725 0.074234
#
#
# Mechanical properties :
#
#
# Convention : Reuss Voigt Hill
#
# Bulk Modulus (GPa) = 22.22024 61.12503 41.67263
# Shear Modulus (GPa) = 22.41487 37.26251 29.83869
#
# Velocity S-wave (km/s) = 3.21376 4.14363 3.70796
# Velocity P-wave (km/s) = 4.89995 7.14548 6.12647
#
# Compressibility (1/GPa) = 0.04500402
#
# Stress axis : x y z
#
# Youngs Moduli (GPa) = 40.84520 69.40291 75.95793
#
# Poissons Ratio (x) = 0.12561 0.19131
# Poissons Ratio (y) = 0.07393 -0.06095
# Poissons Ratio (z) = 0.10288 -0.05569
#
# Static dielectric constant tensor:
#      x y z
#    x 2.335440 0.029380 0.055690 
#    y 0.029380 1.835650 -0.021130 
#    z 0.055690 -0.021130 1.890030 
# 
# From -- ./inp_files/234180.got.cif
#   From: 2010.05.17/outbox.cif.g08.bks.cpg/sg2_118_cif.got.tgz:234180.got - 2010.06.03 11:33:40.
