data_PCOD9020269
_publ_section_title
;
Structure prediction by ZEFSAII (Michael W. Deem and Ramdas Pophale) SiO2 
 PCOD9020269
Probable space group: P -1
;
_chemical_formula_sum "Si O2"
_cell_formula_units_Z 16
_cell_length_a 10.345687
_cell_length_b 6.534541
_cell_length_c 10.984441
_cell_angle_alpha 81.433816
_cell_angle_beta 96.667671
_cell_angle_gamma 122.052814
_cell_volume 621.763763
_symmetry_space_group_name_H-M "P -1"
_symmetry_group_IT_number 2
_symmetry_cell_setting 'triclinic'
loop_
_space_group_symop_operation_xyz
x,y,z
-x,-y,-z
loop_
_atom_site_type_symbol
_atom_site_label
_atom_site_fract_x
_atom_site_fract_y
_atom_site_fract_z
Si Si1 0.182063 0.406549 0.765036
Si Si2 0.820331 0.298420 0.483595
Si Si3 0.602901 0.790464 0.181584
Si Si4 0.626842 0.747193 0.561728
Si Si5 0.601947 0.090322 0.686750
Si Si6 0.238741 0.722064 0.981268
Si Si7 0.298859 0.390242 0.168270
Si Si8 0.134803 0.898146 0.131942
O O1 0.218220 0.595445 0.645852
O O2 0.256861 0.243100 0.768845
O O3 0.000103 0.233000 0.776267
O O4 0.229459 0.565871 0.879040
O O5 0.728273 0.296385 0.593313
O O6 0.000000 0.500000 0.500000
O O7 0.759321 0.005902 0.491446
O O8 0.477252 0.522401 0.144542
O O9 0.644908 0.999556 0.070046
O O10 0.500000 0.500000 0.500000
O O11 0.479824 0.147071 0.724521
O O12 0.708734 0.684105 0.684730
O O13 0.535438 0.853785 0.613848
O O14 0.704756 0.044430 0.796729
O O15 0.271624 0.603018 0.109974
O O16 0.102847 0.751339 0.017440
O O17 0.177351 0.169441 0.093295
#
# Coordination Sequence:
#
# PCOD9020269 Si02
#       8
#     2   2   2   2   2   2   2   2
#     4  12  28  48  83 120 161 209 282 342 407 486
#     4  10  21  50  85 118 166 221 279 331 418 507
#     4  12  28  49  73 125 160 209 275 336 406 490
#     4   9  22  46  80 123 162 210 276 348 407 481
#     4   9  22  47  81 109 167 214 264 337 418 489
#     4  12  28  47  82 114 165 213 274 337 414 487
#     4  11  25  48  81 107 162 215 260 327 419 484
#     4  11  24  52  77 114 157 216 272 332 411 493
#
# _framework density 25.733245
#
# number of rings (size 3 to 8) (size 9 to 14) (size 15 to 20)
#    0.750    0.500    2.500    1.500    5.250    4.500 
#    2.250    1.875    0.000    3.000    0.000    7.875 
#    0.000    0.000    0.000    0.000    0.000    0.000 
#
# Total GULP energy -89228.454752 kJ/mol
# GULP energy per Si atom -5576.778422 kJ/mol
# Density = 2.567467 g / cm^3
# Si number density = 25.733245 Si / 1000 Ang^3
#
#
#
# Elastic Constant Matrix: (Units=GPa)
#
#
# Indices 1 2 3 4 5 6 
#
# 1 141.8917 68.9364 56.9615 -1.9833 -20.4075 -6.6933
# 2 68.9364 203.8263 77.5179 -15.1776 -12.2963 13.5361
# 3 56.9615 77.5179 100.1927 -35.9528 -11.1859 -18.2098
# 4 -1.9833 -15.1776 -35.9528 62.2229 -5.9953 -2.2799
# 5 -20.4075 -12.2963 -11.1859 -5.9953 41.3716 0.4823
# 6 -6.6933 13.5361 -18.2098 -2.2799 0.4823 37.6297
#
#
#
# Elastic Compliance Matrix: (Units=1/GPa)
#
#
# Indices 1 2 3 4 5 6 
#
# 1 0.010322 -0.001302 -0.005810 -0.003113 0.002691 -0.000730
# 2 -0.001302 0.008995 -0.008990 -0.003412 -0.000800 -0.008014
# 3 -0.005810 -0.008990 0.029575 0.015787 0.004543 0.017411
# 4 -0.003113 -0.003412 0.015787 0.025125 0.005245 0.009768
# 5 0.002691 -0.000800 0.004543 0.005245 0.027215 0.002934
# 6 -0.000730 -0.008014 0.017411 0.009768 0.002934 0.038307
#
#
# Mechanical properties :
#
#
# Convention : Reuss Voigt Hill
#
# Bulk Modulus (GPa) = 59.92066 94.74915 77.33490
# Shear Modulus (GPa) = 28.19990 44.41117 36.30554
#
# Velocity S-wave (km/s) = 3.31396 4.15882 3.76019
# Velocity P-wave (km/s) = 6.16271 7.74343 6.99784
#
# Compressibility (1/GPa) = 0.01668874
#
# Stress axis : x y z
#
# Youngs Moduli (GPa) = 96.88257 111.16957 33.81202
#
# Poissons Ratio (x) = 0.14478 0.19645
# Poissons Ratio (y) = 0.12617 0.30395
# Poissons Ratio (z) = 0.56288 0.99936
#
# Static dielectric constant tensor:
#      x y z
#    x 2.132440 0.000440 0.079730 
#    y 0.000440 2.104160 0.037580 
#    z 0.079730 0.037580 2.169150 
# 
# From -- ./inp_files/410296.got.cif
#   From: 2010.05.17/outbox.cif.g08.bks.cpg/sg2_206_cif.got.tgz:410296.got - 2010.06.03 11:33:40.
