data_PCOD9020245
_publ_section_title
;
Structure prediction by ZEFSAII (Michael W. Deem and Ramdas Pophale) SiO2 
 PCOD9020245
Probable space group: P -1
;
_chemical_formula_sum "Si O2"
_cell_formula_units_Z 15
_cell_length_a 13.956156
_cell_length_b 5.380374
_cell_length_c 17.036682
_cell_angle_alpha 90.363007
_cell_angle_beta 154.255629
_cell_angle_gamma 94.226313
_cell_volume 546.286197
_symmetry_space_group_name_H-M "P -1"
_symmetry_group_IT_number 2
_symmetry_cell_setting 'triclinic'
loop_
_space_group_symop_operation_xyz
x,y,z
-x,-y,-z
loop_
_atom_site_type_symbol
_atom_site_label
_atom_site_fract_x
_atom_site_fract_y
_atom_site_fract_z
Si Si1 0.965268 0.596881 0.643104
Si Si2 0.852403 0.761280 0.343957
Si Si3 0.620965 0.253212 0.507414
Si Si4 0.500000 0.000000 0.000000
Si Si5 0.604032 0.931900 0.359316
Si Si6 0.176026 0.484934 0.200596
Si Si7 0.518426 0.317153 0.172004
Si Si8 0.196998 0.631907 0.960672
O O1 0.812857 0.414632 0.593008
O O2 0.826702 0.813731 0.521381
O O3 0.031574 0.447844 0.616458
O O4 0.183873 0.708565 0.858960
O O5 0.711104 0.857332 0.171481
O O6 0.335815 0.410573 0.741422
O O7 0.000000 0.000000 0.500000
O O8 0.393000 0.368996 0.337218
O O9 0.724225 0.271184 0.670798
O O10 0.570222 0.988020 0.425301
O O11 0.549170 0.145509 0.121432
O O12 0.392747 0.757364 0.163847
O O13 0.603508 0.185658 0.309700
O O14 0.000000 0.500000 0.000000
O O15 0.021076 0.325112 0.152937
O O16 0.263947 0.354412 0.000879
#
# Coordination Sequence:
#
# PCOD9020245 Si02
#       8
#     2   2   2   1   2   2   2   2
#     4  11  27  51  78 118 163 212 269 331 408 480
#     4  12  31  55  83 114 161 218 277 337 402 475
#     4  10  25  47  74 117 159 202 272 327 392 489
#     4  12  28  54  80 114 160 208 274 344 390 480
#     4  12  27  48  80 117 165 209 264 339 399 485
#     4  10  21  47  81 109 155 213 262 325 399 485
#     4  12  28  53  78 118 163 214 273 337 401 476
#     4  11  26  50  78 114 165 210 265 331 407 474
#
# _framework density 27.458136
#
# number of rings (size 3 to 8) (size 9 to 14) (size 15 to 20)
#    0.000    0.800    1.333    3.600    7.467    5.867 
#    0.000   12.000    0.000    0.000    0.000    0.000 
#    0.000    0.000    0.000    0.000    0.000    0.000 
#
# Total GULP energy -83756.885381 kJ/mol
# GULP energy per Si atom -5583.792359 kJ/mol
# Density = 2.739564 g / cm^3
# Si number density = 27.458136 Si / 1000 Ang^3
#
#
#
# Elastic Constant Matrix: (Units=GPa)
#
#
# Indices 1 2 3 4 5 6 
#
# 1 121.9106 58.3537 34.8544 9.8941 -1.4084 -25.3198
# 2 58.3537 97.1977 42.1010 -8.0499 -2.6960 -29.5669
# 3 34.8544 42.1010 184.7907 -10.8475 -29.4101 -25.2619
# 4 9.8941 -8.0499 -10.8475 46.8208 -10.9160 -14.3359
# 5 -1.4084 -2.6960 -29.4101 -10.9160 70.1353 4.0171
# 6 -25.3198 -29.5669 -25.2619 -14.3359 4.0171 65.2568
#
#
#
# Elastic Compliance Matrix: (Units=1/GPa)
#
#
# Indices 1 2 3 4 5 6 
#
# 1 0.012386 -0.007296 -0.001088 -0.004337 -0.001174 0.000198
# 2 -0.007296 0.017597 -0.001363 0.006207 0.000584 0.005942
# 3 -0.001088 -0.001363 0.006889 0.002966 0.003157 0.002084
# 4 -0.004337 0.006207 0.002966 0.027715 0.005248 0.008043
# 5 -0.001174 0.000584 0.003157 0.005248 0.016330 0.001178
# 6 0.000198 0.005942 0.002084 0.008043 0.001178 0.020594
#
#
# Mechanical properties :
#
#
# Convention : Reuss Voigt Hill
#
# Bulk Modulus (GPa) = 57.55095 74.94636 66.24866
# Shear Modulus (GPa) = 39.43283 54.34858 46.89071
#
# Velocity S-wave (km/s) = 3.79371 4.45379 4.13694
# Velocity P-wave (km/s) = 6.33993 7.33501 6.85555
#
# Compressibility (1/GPa) = 0.01737591
#
# Stress axis : x y z
#
# Youngs Moduli (GPa) = 80.73778 56.82849 145.16346
#
# Poissons Ratio (x) = 0.41462 0.15798
# Poissons Ratio (y) = 0.58906 0.19792
# Poissons Ratio (z) = 0.08787 0.07748
#
# Static dielectric constant tensor:
#      x y z
#    x 2.569150 0.543550 0.193410 
#    y 0.543550 2.714300 0.283750 
#    z 0.193410 0.283750 2.259780 
# 
# From -- ./inp_files/547054.got.cif
#   From: 2010.05.17/outbox.cif.g08.bks.cpg/sg2_274_cif.got.tgz:547054.got - 2010.06.03 11:33:40.
