data_PCOD9020993
_publ_section_title
;
Structure prediction by ZEFSAII (Michael W. Deem and Ramdas Pophale) SiO2 
 PCOD9020993
Probable space group: P -1
;
_chemical_formula_sum "Si O2"
_cell_formula_units_Z 14
_cell_length_a 5.372046
_cell_length_b 11.619156
_cell_length_c 17.143515
_cell_angle_alpha 45.317620
_cell_angle_beta 119.816440
_cell_angle_gamma 107.360885
_cell_volume 657.840613
_symmetry_space_group_name_H-M "P -1"
_symmetry_group_IT_number 2
_symmetry_cell_setting 'triclinic'
loop_
_space_group_symop_operation_xyz
x,y,z
-x,-y,-z
loop_
_atom_site_type_symbol
_atom_site_label
_atom_site_fract_x
_atom_site_fract_y
_atom_site_fract_z
Si Si1 0.061331 0.603264 0.343427
Si Si2 0.116493 0.647308 0.001400
Si Si3 0.942874 0.221324 0.334817
Si Si4 0.553387 0.982468 0.425525
Si Si5 0.971317 0.038131 0.265895
Si Si6 0.703149 0.714743 0.387706
Si Si7 0.809347 0.596117 0.139663
O O1 0.372295 0.675190 0.359229
O O2 0.127491 0.409734 0.465098
O O3 0.846616 0.667017 0.348662
O O4 0.921873 0.649857 0.215684
O O5 0.462060 0.608346 0.080900
O O6 0.942625 0.662861 0.048966
O O7 0.082008 0.827732 0.872289
O O8 0.000000 0.500000 0.000000
O O9 0.008555 0.148140 0.295251
O O10 0.933782 0.409837 0.244211
O O11 0.160897 0.140358 0.472140
O O12 0.630678 0.159901 0.328833
O O13 0.500000 0.000000 0.500000
O O14 0.280152 0.933749 0.359787
O O15 0.745543 0.906326 0.309623
#
# Coordination Sequence:
#
# PCOD9020993 Si02
#       7
#     2   2   2   2   2   2   2
#     4  10  24  46  68  98 131 173 222 279 337 393
#     4  12  26  45  65 101 140 184 223 268 329 401
#     4  10  22  37  63  98 131 171 217 277 346 405
#     4   9  21  36  56  99 131 162 216 274 349 396
#     4  11  24  40  67  94 135 175 221 275 335 396
#     4  10  24  45  70  98 130 171 223 280 340 393
#     4  12  26  44  70  94 140 182 225 271 330 400
#
# _framework density 21.281752000000001
#
# number of rings (size 3 to 8) (size 9 to 14) (size 15 to 20)
#    0.000    1.429    1.429    2.143   12.000    2.286 
#    0.000    4.286    0.000    0.000    0.000    0.000 
#    0.000    0.000    0.000    0.000    0.000    0.000 
#
# Total GULP energy -78078.435398 kJ/mol
# GULP energy per Si atom -5577.031100 kJ/mol
# Density = 2.123331 g / cm^3
# Si number density = 21.281752 Si / 1000 Ang^3
#
#
#
# Elastic Constant Matrix: (Units=GPa)
#
#
# Indices 1 2 3 4 5 6 
#
# 1 115.8140 28.3965 25.8632 13.3027 -12.4338 2.3433
# 2 28.3965 56.1591 34.8519 -0.5151 6.7672 -1.7397
# 3 25.8632 34.8519 104.0788 4.4959 -11.6348 12.7563
# 4 13.3027 -0.5151 4.4959 32.9282 2.2095 -10.8035
# 5 -12.4338 6.7672 -11.6348 2.2095 32.7719 3.1755
# 6 2.3433 -1.7397 12.7563 -10.8035 3.1755 31.6274
#
#
#
# Elastic Compliance Matrix: (Units=1/GPa)
#
#
# Indices 1 2 3 4 5 6 
#
# 1 0.012153 -0.008379 0.001670 -0.007584 0.007971 -0.005425
# 2 -0.008379 0.032341 -0.012621 0.010929 -0.016321 0.012862
# 3 0.001670 -0.012621 0.016266 -0.007401 0.010576 -0.010968
# 4 -0.007584 0.010929 -0.007401 0.041924 -0.012500 0.019724
# 5 0.007971 -0.016321 0.010576 -0.012500 0.042894 -0.014330
# 6 -0.005425 0.012862 -0.010968 0.019724 -0.014330 0.045328
#
#
# Mechanical properties :
#
#
# Convention : Reuss Voigt Hill
#
# Bulk Modulus (GPa) = 45.25093 50.47504 47.86298
# Shear Modulus (GPa) = 21.10300 31.92818 26.51559
#
# Velocity S-wave (km/s) = 3.15239 3.87752 3.53360
# Velocity P-wave (km/s) = 5.87869 6.61936 6.25999
#
# Compressibility (1/GPa) = 0.02209899
#
# Stress axis : x y z
#
# Youngs Moduli (GPa) = 82.28568 30.92042 61.47905
#
# Poissons Ratio (x) = 0.25909 -0.10264
# Poissons Ratio (y) = 0.68949 0.77591
# Poissons Ratio (z) = -0.13738 0.39024
#
# Static dielectric constant tensor:
#      x y z
#    x 2.516450 -0.207820 -0.049280 
#    y -0.207820 1.848460 0.021700 
#    z -0.049280 0.021700 1.794220 
# 
# From -- ./inp_files/95000.got.cif
#   From: 2010.05.17/outbox.cif.g08.bks.cpg/sg2_48_cif.got.tgz:95000.got - 2010.06.03 11:33:40.
