data_PCOD9020824
_publ_section_title
;
Structure prediction by ZEFSAII (Michael W. Deem and Ramdas Pophale) SiO2 
 PCOD9020824
Probable space group: P -1
;
_chemical_formula_sum "Si O2"
_cell_formula_units_Z 16
_cell_length_a 9.802510
_cell_length_b 17.530627
_cell_length_c 6.728417
_cell_angle_alpha 137.153147
_cell_angle_beta 117.627569
_cell_angle_gamma 55.680979
_cell_volume 646.790135
_symmetry_space_group_name_H-M "P -1"
_symmetry_group_IT_number 2
_symmetry_cell_setting 'triclinic'
loop_
_space_group_symop_operation_xyz
x,y,z
-x,-y,-z
loop_
_atom_site_type_symbol
_atom_site_label
_atom_site_fract_x
_atom_site_fract_y
_atom_site_fract_z
Si Si1 0.771661 0.320899 0.794755
Si Si2 0.788457 0.096257 0.966006
Si Si3 0.337808 0.498870 0.278638
Si Si4 0.441831 0.287532 0.617331
Si Si5 0.553075 0.857252 0.304504
Si Si6 0.920841 0.953731 0.171367
Si Si7 0.191417 0.470086 0.521804
Si Si8 0.847863 0.854411 0.284166
O O1 0.737474 0.379089 0.665078
O O2 0.629050 0.270151 0.652589
O O3 0.961655 0.232759 0.760640
O O4 0.753964 0.428222 0.142020
O O5 0.598650 0.175204 0.946796
O O6 0.925415 0.137201 0.028754
O O7 0.825588 0.969214 0.630675
O O8 0.825453 0.055144 0.139658
O O9 0.500000 0.500000 0.500000
O O10 0.216722 0.481470 0.328176
O O11 0.385450 0.390858 0.946622
O O12 0.435780 0.172530 0.512023
O O13 0.314113 0.344609 0.461867
O O14 0.725911 0.798459 0.195378
O O15 0.500000 0.000000 0.500000
O O16 0.808235 0.897997 0.112083
O O17 0.000000 0.000000 0.500000
O O18 0.000000 0.500000 0.500000
#
# Coordination Sequence:
#
# PCOD9020824 Si02
#       8
#     2   2   2   2   2   2   2   2
#     4  11  23  41  68  99 136 174 226 273 326 418
#     4   9  19  40  62  85 124 168 217 271 332 388
#     4  11  21  44  68 101 134 172 219 271 341 412
#     4  11  23  44  69  97 135 181 227 273 335 406
#     4  10  23  43  63  93 134 175 222 283 331 389
#     4   9  18  37  62  86 116 159 221 270 321 387
#     4  11  25  42  69 104 139 171 215 281 342 404
#     4  10  22  37  59  93 126 168 214 271 332 386
#
# _framework density 24.737545000000001
#
# number of rings (size 3 to 8) (size 9 to 14) (size 15 to 20)
#    0.000    1.750    2.500    1.500    3.500    3.500 
#    9.000    2.500    0.000    0.000    0.000    0.000 
#    0.000    0.000    0.000    0.000    0.000    0.000 
#
# Total GULP energy -89516.644399 kJ/mol
# GULP energy per Si atom -5594.790275 kJ/mol
# Density = 2.468124 g / cm^3
# Si number density = 24.737545 Si / 1000 Ang^3
#
#
#
# Elastic Constant Matrix: (Units=GPa)
#
#
# Indices 1 2 3 4 5 6 
#
# 1 187.4257 66.0816 27.3831 -22.3768 -51.7062 6.4336
# 2 66.0816 117.0531 27.7714 -28.0905 -30.7241 14.2731
# 3 27.3831 27.7714 95.5445 -16.8259 -21.8637 10.5884
# 4 -22.3768 -28.0905 -16.8259 41.9159 10.0821 -4.5139
# 5 -51.7062 -30.7241 -21.8637 10.0821 38.6241 -6.1615
# 6 6.4336 14.2731 10.5884 -4.5139 -6.1615 44.6104
#
#
#
# Elastic Compliance Matrix: (Units=1/GPa)
#
#
# Indices 1 2 3 4 5 6 
#
# 1 0.009061 -0.002361 0.000569 0.001067 0.010433 0.000863
# 2 -0.002361 0.012997 -0.000705 0.005730 0.004901 -0.002394
# 3 0.000569 -0.000705 0.012701 0.003239 0.006277 -0.001676
# 4 0.001067 0.005730 0.003239 0.029560 0.000144 0.000255
# 5 0.010433 0.004901 0.006277 0.000144 0.047594 0.002026
# 6 0.000863 -0.002394 -0.001676 0.000255 0.002026 0.023761
#
#
# Mechanical properties :
#
#
# Convention : Reuss Voigt Hill
#
# Bulk Modulus (GPa) = 33.59754 71.38838 52.49296
# Shear Modulus (GPa) = 33.20299 43.61590 38.40945
#
# Velocity S-wave (km/s) = 3.66759 4.20354 3.94468
# Velocity P-wave (km/s) = 5.61659 7.24435 6.48177
#
# Compressibility (1/GPa) = 0.02976408
#
# Stress axis : x y z
#
# Youngs Moduli (GPa) = 110.36817 76.94295 78.73464
#
# Poissons Ratio (x) = 0.18166 -0.04481
# Poissons Ratio (y) = 0.26057 0.05552
# Poissons Ratio (z) = -0.06281 0.05426
#
# Static dielectric constant tensor:
#      x y z
#    x 2.092090 0.082240 0.052910 
#    y 0.082240 2.045280 0.056400 
#    z 0.052910 0.056400 1.989040 
# 
# From -- ./inp_files/49041.got.cif
#   From: 2010.05.17/outbox.cif.g08.bks.cpg/sg2_25_cif.got.tgz:49041.got - 2010.06.03 11:33:40.
