data_PCOD9020984
_publ_section_title
;
Structure prediction by ZEFSAII (Michael W. Deem and Ramdas Pophale) SiO2 
 PCOD9020984
Probable space group: P -1
;
_chemical_formula_sum "Si O2"
_cell_formula_units_Z 12
_cell_length_a 12.178031
_cell_length_b 15.851127
_cell_length_c 16.018544
_cell_angle_alpha 19.252021
_cell_angle_beta 144.778354
_cell_angle_gamma 141.389888
_cell_volume 587.178117
_symmetry_space_group_name_H-M "P -1"
_symmetry_group_IT_number 2
_symmetry_cell_setting 'triclinic'
loop_
_space_group_symop_operation_xyz
x,y,z
-x,-y,-z
loop_
_atom_site_type_symbol
_atom_site_label
_atom_site_fract_x
_atom_site_fract_y
_atom_site_fract_z
Si Si1 0.038126 0.144888 0.091171
Si Si2 0.631618 0.532854 0.918995
Si Si3 0.666201 0.221559 0.386746
Si Si4 0.056422 0.721687 0.265087
Si Si5 0.404872 0.995440 0.035531
Si Si6 0.537780 0.422357 0.404753
O O1 0.188991 0.270882 0.131908
O O2 0.134646 0.887446 0.363184
O O3 0.318718 0.707236 0.768320
O O4 0.819418 0.094330 0.027544
O O5 0.427483 0.581693 0.791942
O O6 0.602929 0.536634 0.798890
O O7 0.500000 0.000000 0.500000
O O8 0.961294 0.679350 0.154696
O O9 0.280230 0.705991 0.402894
O O10 0.000000 0.500000 0.500000
O O11 0.000000 0.000000 0.000000
O O12 0.415541 0.288214 0.803249
O O13 0.500000 0.000000 0.000000
O O14 0.504910 0.785540 0.353182
#
# Coordination Sequence:
#
# PCOD9020984 Si02
#       6
#     2   2   2   2   2   2
#     4  10  23  39  62  91 126 176 212 265 321 385
#     4  10  22  37  63  95 136 170 210 256 322 396
#     4   9  20  35  60  91 139 174 205 238 326 391
#     4  11  23  36  59  94 135 168 211 250 311 395
#     4  11  26  49  70  90 124 172 228 288 336 370
#     4  11  25  42  68  96 128 170 220 273 327 390
#
# _framework density 20.436727000000001
#
# number of rings (size 3 to 8) (size 9 to 14) (size 15 to 20)
#    0.000    1.667    0.000    3.500   18.667    0.000 
#    0.000    1.667    0.000    0.000    0.000    0.000 
#    0.000    0.000    0.000    0.000    0.000    0.000 
#
# Total GULP energy -66869.206215 kJ/mol
# GULP energy per Si atom -5572.433851 kJ/mol
# Density = 2.039021 g / cm^3
# Si number density = 20.436727 Si / 1000 Ang^3
#
#
#
# Elastic Constant Matrix: (Units=GPa)
#
#
# Indices 1 2 3 4 5 6 
#
# 1 112.2828 60.5221 57.6430 6.4607 -29.2015 -3.1257
# 2 60.5221 123.2155 51.5754 11.4394 -8.9310 -12.6965
# 3 57.6430 51.5754 152.4095 2.5460 -33.5264 -8.0598
# 4 6.4607 11.4394 2.5460 41.7802 -6.1339 -2.9889
# 5 -29.2015 -8.9310 -33.5264 -6.1339 38.8324 6.3866
# 6 -3.1257 -12.6965 -8.0598 -2.9889 6.3866 19.0883
#
#
#
# Elastic Compliance Matrix: (Units=1/GPa)
#
#
# Indices 1 2 3 4 5 6 
#
# 1 0.016041 -0.007082 -0.001810 0.000596 0.009967 -0.006089
# 2 -0.007082 0.013408 -0.002794 -0.002759 -0.006456 0.008307
# 3 -0.001810 -0.002794 0.009598 0.001412 0.006516 -0.000061
# 4 0.000596 -0.002759 0.001412 0.025308 0.004833 0.001204
# 5 0.009967 -0.006456 0.006516 0.004833 0.040225 -0.012613
# 6 -0.006089 0.008307 -0.000061 0.001204 -0.012613 0.061299
#
#
# Mechanical properties :
#
#
# Convention : Reuss Voigt Hill
#
# Bulk Modulus (GPa) = 63.79232 80.82099 72.30665
# Shear Modulus (GPa) = 25.71041 34.48466 30.09754
#
# Velocity S-wave (km/s) = 3.55075 4.11224 3.84176
# Velocity P-wave (km/s) = 6.93489 7.88544 7.42539
#
# Compressibility (1/GPa) = 0.01567587
#
# Stress axis : x y z
#
# Youngs Moduli (GPa) = 62.34154 74.58262 104.19271
#
# Poissons Ratio (x) = 0.52819 0.18856
# Poissons Ratio (y) = 0.44150 0.29106
# Poissons Ratio (z) = 0.11282 0.20835
#
# Static dielectric constant tensor:
#      x y z
#    x 1.729630 -0.059950 0.002510 
#    y -0.059950 1.790450 -0.001470 
#    z 0.002510 -0.001470 1.825700 
# 
# From -- ./inp_files/84367.got.cif
#   From: 2010.05.17/outbox.cif.g08.bks.cpg/sg2_43_cif.got.tgz:84367.got - 2010.06.03 11:33:40.
