data_PCOD9020009
_publ_section_title
;
Structure prediction by ZEFSAII (Michael W. Deem and Ramdas Pophale) SiO2 
 PCOD9020009
Probable space group: P -1
;
_chemical_formula_sum "Si O2"
_cell_formula_units_Z 16
_cell_length_a 5.545080
_cell_length_b 18.443860
_cell_length_c 7.646681
_cell_angle_alpha 95.890512
_cell_angle_beta 58.581830
_cell_angle_gamma 82.493905
_cell_volume 648.057934
_symmetry_space_group_name_H-M "P -1"
_symmetry_group_IT_number 2
_symmetry_cell_setting 'triclinic'
loop_
_space_group_symop_operation_xyz
x,y,z
-x,-y,-z
loop_
_atom_site_type_symbol
_atom_site_label
_atom_site_fract_x
_atom_site_fract_y
_atom_site_fract_z
Si Si1 0.305635 0.091842 0.777096
Si Si2 0.761334 0.161844 0.650653
Si Si3 0.301446 0.838872 0.906374
Si Si4 0.705829 0.942848 0.631331
Si Si5 0.487065 0.670556 0.654281
Si Si6 0.741352 0.464369 0.261600
Si Si7 0.367489 0.430982 0.975511
Si Si8 0.852985 0.319100 0.583708
O O1 0.439523 0.164022 0.706271
O O2 0.262509 0.061824 0.593306
O O3 0.537089 0.025507 0.765142
O O4 0.023310 0.117166 0.005665
O O5 0.898675 0.231172 0.575394
O O6 0.960942 0.091150 0.458052
O O7 0.715813 0.159871 0.875873
O O8 0.519773 0.886072 0.759717
O O9 0.377451 0.753605 0.793200
O O10 0.386473 0.604456 0.784752
O O11 0.313741 0.667917 0.536620
O O12 0.837236 0.657923 0.509341
O O13 0.500000 0.500000 0.500000
O O14 0.752036 0.537742 0.162896
O O15 0.070542 0.429167 0.186731
O O16 0.618421 0.359806 0.823979
O O17 0.500000 0.500000 0.000000
#
# Coordination Sequence:
#
# PCOD9020009 Si02
#       8
#     2   2   2   2   2   2   2   2
#     4  10  23  40  72  95 138 183 235 297 354 427
#     4  11  25  41  67 100 140 183 239 291 360 419
#     4  11  25  41  67 103 138 186 238 292 355 424
#     4  10  21  46  64 100 136 183 233 296 358 423
#     4  12  28  47  77 103 149 194 237 296 356 424
#     4  11  25  49  73 108 143 187 241 290 357 420
#     4  11  27  45  77 106 145 188 237 298 351 425
#     4  12  28  48  74 106 148 193 237 295 358 421
#
# _framework density 24.689153999999998
#
# number of rings (size 3 to 8) (size 9 to 14) (size 15 to 20)
#    0.000    1.000    2.500    2.250   10.500    2.500 
#    0.000    0.000    0.000    0.000    0.000    0.000 
#    0.000    0.000    0.000    0.000    0.000    0.000 
#
# Total GULP energy -89341.873678 kJ/mol
# GULP energy per Si atom -5583.867105 kJ/mol
# Density = 2.463296 g / cm^3
# Si number density = 24.689154 Si / 1000 Ang^3
#
#
#
# Elastic Constant Matrix: (Units=GPa)
#
#
# Indices 1 2 3 4 5 6 
#
# 1 99.5322 23.1574 53.6215 6.0510 -32.1482 17.1027
# 2 23.1574 112.7063 33.1618 1.0268 -23.8701 12.6713
# 3 53.6215 33.1618 124.0729 16.4554 -40.3800 -7.3813
# 4 6.0510 1.0268 16.4554 43.3993 -3.2551 -4.3861
# 5 -32.1482 -23.8701 -40.3800 -3.2551 58.2821 -5.9799
# 6 17.1027 12.6713 -7.3813 -4.3861 -5.9799 35.4603
#
#
#
# Elastic Compliance Matrix: (Units=1/GPa)
#
#
# Indices 1 2 3 4 5 6 
#
# 1 0.016055 0.000302 -0.006250 -0.000462 0.003743 -0.008578
# 2 0.000302 0.010474 -0.002445 0.000417 0.002381 -0.003944
# 3 -0.006250 -0.002445 0.014246 -0.003268 0.006004 0.007462
# 4 -0.000462 0.000417 -0.003268 0.024512 -0.000743 0.002300
# 5 0.003743 0.002381 0.006004 -0.000743 0.024588 0.002648
# 6 -0.008578 -0.003944 0.007462 0.002300 0.002648 0.036031
#
#
# Mechanical properties :
#
#
# Convention : Reuss Voigt Hill
#
# Bulk Modulus (GPa) = 41.68741 61.79918 51.74329
# Shear Modulus (GPa) = 33.18094 42.51972 37.85033
#
# Velocity S-wave (km/s) = 3.66997 4.15444 3.91970
# Velocity P-wave (km/s) = 5.90591 6.93526 6.44118
#
# Compressibility (1/GPa) = 0.02398806
#
# Stress axis : x y z
#
# Youngs Moduli (GPa) = 62.28568 95.47580 70.19624
#
# Poissons Ratio (x) = -0.02879 0.43873
# Poissons Ratio (y) = -0.01878 0.17162
# Poissons Ratio (z) = 0.38929 0.23343
#
# Static dielectric constant tensor:
#      x y z
#    x 2.170570 -0.124810 0.058080 
#    y -0.124810 2.019040 -0.053350 
#    z 0.058080 -0.053350 1.960850 
# 
# From -- ./inp_files/11354.got.cif
#   From: 2010.05.17/outbox.cif.g08.bks.cpg/sg2_6_cif.got.tgz:11354.got - 2010.06.03 11:33:40.
