data_PCOD9020846
_publ_section_title
;
Structure prediction by ZEFSAII (Michael W. Deem and Ramdas Pophale) SiO2 
 PCOD9020846
Probable space group: P -1
;
_chemical_formula_sum "Si O2"
_cell_formula_units_Z 16
_cell_length_a 23.403449
_cell_length_b 15.690874
_cell_length_c 5.498897
_cell_angle_alpha 123.398936
_cell_angle_beta 120.675173
_cell_angle_gamma 24.000163
_cell_volume 685.537239
_symmetry_space_group_name_H-M "P -1"
_symmetry_group_IT_number 2
_symmetry_cell_setting 'triclinic'
loop_
_space_group_symop_operation_xyz
x,y,z
-x,-y,-z
loop_
_atom_site_type_symbol
_atom_site_label
_atom_site_fract_x
_atom_site_fract_y
_atom_site_fract_z
Si Si1 0.621134 0.307258 0.773674
Si Si2 0.337760 0.204663 0.529312
Si Si3 0.761471 0.832314 0.052789
Si Si4 0.678567 0.458748 0.114732
Si Si5 0.113029 0.663748 0.523029
Si Si6 0.892114 0.838585 0.577012
Si Si7 0.125638 0.494964 0.905241
Si Si8 0.518140 0.699877 0.663427
O O1 0.545731 0.327608 0.466512
O O2 0.754884 0.061826 0.773583
O O3 0.500000 0.500000 0.000000
O O4 0.680533 0.335839 0.870142
O O5 0.242052 0.414245 0.497448
O O6 0.281142 0.298637 0.823571
O O7 0.500000 0.000000 0.500000
O O8 0.289293 0.154647 0.280237
O O9 0.838306 0.836592 0.243243
O O10 0.862327 0.613451 0.052483
O O11 0.616714 0.044317 0.221588
O O12 0.829079 0.303008 0.257402
O O13 0.589845 0.600148 0.395264
O O14 0.614706 0.593765 0.940082
O O15 0.976217 0.819619 0.620567
O O16 0.084837 0.659455 0.186902
O O17 0.008142 0.626941 0.660326
#
# Coordination Sequence:
#
# PCOD9020846 Si02
#       8
#     2   2   2   2   2   2   2   2
#     4   9  21  46  70 100 123 167 218 285 331 392
#     4  10  22  37  60  89 132 168 222 267 322 387
#     4  10  22  37  63  95 124 181 214 271 324 389
#     4  11  23  42  69  96 136 171 223 272 339 386
#     4  10  24  38  59  92 131 177 210 271 321 396
#     4  10  22  44  61  91 133 164 226 265 334 392
#     4  10  23  39  60  91 131 175 217 265 323 392
#     4  10  23  40  69 101 134 167 222 279 328 392
#
# _framework density 23.339358000000001
#
# number of rings (size 3 to 8) (size 9 to 14) (size 15 to 20)
#    0.000    2.000    0.000    1.500    8.750    7.000 
#   15.750    0.625    0.000    0.000    0.000    0.000 
#    0.000    0.000    0.000    0.000    0.000    0.000 
#
# Total GULP energy -89244.685400 kJ/mol
# GULP energy per Si atom -5577.792837 kJ/mol
# Density = 2.328624 g / cm^3
# Si number density = 23.339358 Si / 1000 Ang^3
#
#
#
# Elastic Constant Matrix: (Units=GPa)
#
#
# Indices 1 2 3 4 5 6 
#
# 1 61.1508 20.3386 26.3851 -8.0530 17.4382 -15.4816
# 2 20.3386 87.8576 20.9380 9.6061 -3.0434 -24.2273
# 3 26.3851 20.9380 95.9418 -9.8421 10.3532 -7.9212
# 4 -8.0530 9.6061 -9.8421 27.8550 -9.5610 2.7415
# 5 17.4382 -3.0434 10.3532 -9.5610 40.1131 -3.3055
# 6 -15.4816 -24.2273 -7.9212 2.7415 -3.3055 26.9088
#
#
#
# Elastic Compliance Matrix: (Units=1/GPa)
#
#
# Indices 1 2 3 4 5 6 
#
# 1 0.023959 -0.002709 -0.004104 0.002731 -0.008181 0.008854
# 2 -0.002709 0.017853 -0.003084 -0.008631 0.002490 0.014793
# 3 -0.004104 -0.003084 0.012588 0.004225 -0.000854 -0.001968
# 4 0.002731 -0.008631 0.004225 0.044389 0.006937 -0.008626
# 5 -0.008181 0.002490 -0.000854 0.006937 0.030576 0.000333
# 6 0.008854 0.014793 -0.001968 -0.008626 0.000333 0.055916
#
#
# Mechanical properties :
#
#
# Convention : Reuss Voigt Hill
#
# Bulk Modulus (GPa) = 28.89598 42.25264 35.57431
# Shear Modulus (GPa) = 23.08291 30.79462 26.93877
#
# Velocity S-wave (km/s) = 3.14827 3.63634 3.40107
# Velocity P-wave (km/s) = 5.06193 5.98109 5.54061
#
# Compressibility (1/GPa) = 0.03460689
#
# Stress axis : x y z
#
# Youngs Moduli (GPa) = 41.73795 56.01191 79.44213
#
# Poissons Ratio (x) = 0.15172 0.32601
# Poissons Ratio (y) = 0.11306 0.24500
# Poissons Ratio (z) = 0.17128 0.17274
#
# Static dielectric constant tensor:
#      x y z
#    x 1.935880 0.015420 0.019640 
#    y 0.015420 1.865710 0.002450 
#    z 0.019640 0.002450 1.971550 
# 
# From -- ./inp_files/97688.got.cif
#   From: 2010.05.17/outbox.cif.g08.bks.cpg/sg2_49_cif.got.tgz:97688.got - 2010.06.03 11:33:40.
