data_PCOD9020201
_publ_section_title
;
Structure prediction by ZEFSAII (Michael W. Deem and Ramdas Pophale) SiO2 
 PCOD9020201
Probable space group: P -1
;
_chemical_formula_sum "Si O2"
_cell_formula_units_Z 16
_cell_length_a 7.115330
_cell_length_b 9.223287
_cell_length_c 20.357124
_cell_angle_alpha 136.214441
_cell_angle_beta 58.263293
_cell_angle_gamma 124.950693
_cell_volume 742.673599
_symmetry_space_group_name_H-M "P -1"
_symmetry_group_IT_number 2
_symmetry_cell_setting 'triclinic'
loop_
_space_group_symop_operation_xyz
x,y,z
-x,-y,-z
loop_
_atom_site_type_symbol
_atom_site_label
_atom_site_fract_x
_atom_site_fract_y
_atom_site_fract_z
Si Si1 0.195857 0.984996 0.617927
Si Si2 0.607540 0.360971 0.601775
Si Si3 0.376031 0.107790 0.771106
Si Si4 0.012229 0.296709 0.973472
Si Si5 0.394301 0.090961 0.128458
Si Si6 0.322890 0.157571 0.306150
Si Si7 0.745521 0.515635 0.766930
Si Si8 0.930181 0.215715 0.099299
O O1 0.288478 0.791274 0.511242
O O2 0.920351 0.922260 0.635694
O O3 0.353709 0.209827 0.626156
O O4 0.247769 0.013877 0.695544
O O5 0.600309 0.578444 0.635744
O O6 0.765132 0.430207 0.661869
O O7 0.204056 0.190239 0.876671
O O8 0.593532 0.319348 0.776936
O O9 0.484603 0.934239 0.727453
O O10 0.046778 0.370827 0.066964
O O11 0.754999 0.112181 0.954388
O O12 0.000000 0.500000 0.000000
O O13 0.261294 0.057825 0.211620
O O14 0.392895 0.312224 0.164703
O O15 0.654189 0.130886 0.116941
O O16 0.976333 0.659988 0.809828
O O17 0.000000 0.000000 0.000000
#
# Coordination Sequence:
#
# PCOD9020201 Si02
#       8
#     2   2   2   2   2   2   2   2
#     4  10  21  47  70 100 139 176 220 274 340 402
#     4   9  22  44  74  98 138 180 218 275 338 404
#     4  11  25  43  66 102 132 173 226 279 333 401
#     4  12  26  43  67  94 133 178 222 281 334 396
#     4  11  24  45  63  93 130 177 220 273 339 395
#     4  11  23  40  69 101 137 175 219 278 337 395
#     4  10  24  44  65  94 132 174 221 274 330 401
#     4  12  25  41  66  92 125 175 225 277 328 399
#
# _framework density 21.543783999999999
#
# number of rings (size 3 to 8) (size 9 to 14) (size 15 to 20)
#    0.000    1.250    2.500    2.250    3.500    4.000 
#    0.000    8.125    0.000    0.000    0.000    0.000 
#    0.000    0.000    0.000    0.000    0.000    0.000 
#
# Total GULP energy -89416.648376 kJ/mol
# GULP energy per Si atom -5588.540523 kJ/mol
# Density = 2.149475 g / cm^3
# Si number density = 21.543784 Si / 1000 Ang^3
#
#
#
# Elastic Constant Matrix: (Units=GPa)
#
#
# Indices 1 2 3 4 5 6 
#
# 1 112.8924 66.5759 44.7440 5.7052 -25.9036 11.1672
# 2 66.5759 98.9833 43.4772 1.2699 -10.4474 -4.9980
# 3 44.7440 43.4772 84.9107 -5.2404 -4.3346 14.1806
# 4 5.7052 1.2699 -5.2404 28.9708 8.5171 -2.1814
# 5 -25.9036 -10.4474 -4.3346 8.5171 25.2893 3.3311
# 6 11.1672 -4.9980 14.1806 -2.1814 3.3311 26.4360
#
#
#
# Elastic Compliance Matrix: (Units=1/GPa)
#
#
# Indices 1 2 3 4 5 6 
#
# 1 0.029118 -0.015383 -0.003834 -0.016151 0.030669 -0.018349
# 2 -0.015383 0.022882 -0.006568 0.005408 -0.011388 0.016229
# 3 -0.003834 -0.006568 0.018728 0.004927 -0.003936 -0.008766
# 4 -0.016151 0.005408 0.004927 0.048630 -0.031581 0.013194
# 5 0.030669 -0.011388 -0.003936 -0.031581 0.079590 -0.025632
# 6 -0.018349 0.016229 -0.008766 0.013194 -0.025632 0.057667
#
#
# Mechanical properties :
#
#
# Convention : Reuss Voigt Hill
#
# Bulk Modulus (GPa) = 52.19881 67.37564 59.78722
# Shear Modulus (GPa) = 15.89467 25.60518 20.74993
#
# Velocity S-wave (km/s) = 2.71917 3.45123 3.10684
# Velocity P-wave (km/s) = 5.84297 6.87190 6.37822
#
# Compressibility (1/GPa) = 0.01915752
#
# Stress axis : x y z
#
# Youngs Moduli (GPa) = 34.34335 43.70201 53.39665
#
# Poissons Ratio (x) = 0.67225 0.20472
# Poissons Ratio (y) = 0.52829 0.35073
# Poissons Ratio (z) = 0.13167 0.28705
#
# Static dielectric constant tensor:
#      x y z
#    x 1.711740 -0.018120 -0.032490 
#    y -0.018120 1.854910 -0.050770 
#    z -0.032490 -0.050770 1.769960 
# 
# From -- ./inp_files/116703.got.cif
#   From: 2010.05.17/outbox.cif.g08.bks.cpg/sg2_59_cif.got.tgz:116703.got - 2010.06.03 11:33:40.
