data_PCOD9020022
_publ_section_title
;
Structure prediction by ZEFSAII (Michael W. Deem and Ramdas Pophale) SiO2 
 PCOD9020022
Probable space group: P -1
;
_chemical_formula_sum "Si O2"
_cell_formula_units_Z 13
_cell_length_a 11.118067
_cell_length_b 8.428158
_cell_length_c 6.331531
_cell_angle_alpha 77.463108
_cell_angle_beta 75.125415
_cell_angle_gamma 116.938168
_cell_volume 471.384667
_symmetry_space_group_name_H-M "P -1"
_symmetry_group_IT_number 2
_symmetry_cell_setting 'triclinic'
loop_
_space_group_symop_operation_xyz
x,y,z
-x,-y,-z
loop_
_atom_site_type_symbol
_atom_site_label
_atom_site_fract_x
_atom_site_fract_y
_atom_site_fract_z
Si Si1 0.047056 0.690544 0.680635
Si Si2 0.381433 0.779509 0.070022
Si Si3 0.793979 0.063662 0.109338
Si Si4 0.362043 0.317628 0.481248
Si Si5 0.156969 0.053384 0.312268
Si Si6 0.180461 0.481023 0.547590
Si Si7 0.500000 0.500000 0.000000
O O1 0.060418 0.800091 0.856126
O O2 0.170801 0.878935 0.440312
O O3 0.091801 0.535710 0.724198
O O4 0.911020 0.599957 0.607842
O O5 0.320556 0.680088 0.352021
O O6 0.437183 0.649549 0.982938
O O7 0.263753 0.800730 0.978762
O O8 0.500000 0.000000 0.000000
O O9 0.667479 0.878239 0.351465
O O10 0.838187 0.975198 0.926726
O O11 0.236983 0.346640 0.623985
O O12 0.508090 0.506683 0.274309
O O13 0.296691 0.257744 0.272156
O O14 0.000000 0.000000 0.500000
#
# Coordination Sequence:
#
# PCOD9020022 Si02
#       7
#     2   2   2   2   2   2   1
#     4  10  22  42  70  99 145 184 232 291 359 439
#     4  11  24  47  73  97 145 193 240 303 363 421
#     4  11  25  43  74 109 134 194 243 288 366 437
#     4  10  23  44  69 104 141 189 239 294 355 431
#     4  11  21  43  67 101 148 184 228 299 363 423
#     4  10  21  46  66 101 148 188 225 298 369 411
#     4  10  24  46  72  98 140 190 240 304 358 410
#
# _framework density 27.578326000000001
#
# number of rings (size 3 to 8) (size 9 to 14) (size 15 to 20)
#    0.000    1.538    3.077    0.923    2.154    3.692 
#    8.308    3.846    0.000    0.000    0.000    0.000 
#    0.000    0.000    0.000    0.000    0.000    0.000 
#
# Total GULP energy -72388.115564 kJ/mol
# GULP energy per Si atom -5568.316582 kJ/mol
# Density = 2.751556 g / cm^3
# Si number density = 27.578326 Si / 1000 Ang^3
#
#
#
# Elastic Constant Matrix: (Units=GPa)
#
#
# Indices 1 2 3 4 5 6 
#
# 1 119.8061 43.9576 3.8145 23.5265 -4.2441 -34.3221
# 2 43.9576 114.9306 4.5400 -19.5843 6.9381 -21.5374
# 3 3.8145 4.5400 49.8533 -24.2635 2.8433 -33.2552
# 4 23.5265 -19.5843 -24.2635 49.5737 -8.4609 7.4353
# 5 -4.2441 6.9381 2.8433 -8.4609 31.5218 2.7584
# 6 -34.3221 -21.5374 -33.2552 7.4353 2.7584 70.5183
#
#
#
# Elastic Compliance Matrix: (Units=1/GPa)
#
#
# Indices 1 2 3 4 5 6 
#
# 1 0.014513 -0.006488 -0.002855 -0.011574 0.000100 0.004952
# 2 -0.006488 0.013454 0.006712 0.010922 -0.001774 0.003034
# 3 -0.002855 0.006712 0.042834 0.021930 -0.001467 0.018605
# 4 -0.011574 0.010922 0.021930 0.040994 0.004754 0.003536
# 5 0.000100 -0.001774 -0.001467 0.004754 0.033800 -0.003009
# 6 0.004952 0.003034 0.018605 0.003536 -0.003009 0.026037
#
#
# Mechanical properties :
#
#
# Convention : Reuss Voigt Hill
#
# Bulk Modulus (GPa) = 15.25809 43.24603 29.25206
# Shear Modulus (GPa) = 25.15840 45.80795 35.48318
#
# Velocity S-wave (km/s) = 3.02363 4.07997 3.59086
# Velocity P-wave (km/s) = 4.21123 6.15712 5.27468
#
# Compressibility (1/GPa) = 0.06553899
#
# Stress axis : x y z
#
# Youngs Moduli (GPa) = 68.90154 74.32655 23.34591
#
# Poissons Ratio (x) = 0.48226 0.06665
# Poissons Ratio (y) = 0.44706 -0.15670
# Poissons Ratio (z) = 0.19670 -0.49887
#
# Static dielectric constant tensor:
#      x y z
#    x 2.158360 0.009790 0.414110 
#    y 0.009790 2.094020 0.554790 
#    z 0.414110 0.554790 1.924690 
# 
# From -- ./inp_files/59178.got.cif
#   From: 2010.05.17/outbox.cif.g08.bks.cpg/sg2_30_cif.got.tgz:59178.got - 2010.06.03 11:33:40.
