data_PCOD9020710
_publ_section_title
;
Structure prediction by ZEFSAII (Michael W. Deem and Ramdas Pophale) SiO2 
 PCOD9020710
Probable space group: P -1
;
_chemical_formula_sum "Si O2"
_cell_formula_units_Z 13
_cell_length_a 7.496906
_cell_length_b 12.065588
_cell_length_c 11.080003
_cell_angle_alpha 138.367250
_cell_angle_beta 54.214922
_cell_angle_gamma 126.129347
_cell_volume 518.046687
_symmetry_space_group_name_H-M "P -1"
_symmetry_group_IT_number 2
_symmetry_cell_setting 'triclinic'
loop_
_space_group_symop_operation_xyz
x,y,z
-x,-y,-z
loop_
_atom_site_type_symbol
_atom_site_label
_atom_site_fract_x
_atom_site_fract_y
_atom_site_fract_z
Si Si1 0.041694 0.061647 0.343004
Si Si2 0.773729 0.356239 0.428762
Si Si3 0.687048 0.795374 0.405581
Si Si4 0.424043 0.566609 0.961143
Si Si5 0.311567 0.310427 0.269115
Si Si6 0.000000 0.500000 0.000000
Si Si7 0.775635 0.240257 0.081478
O O1 0.793912 0.950693 0.397794
O O2 0.186718 0.156612 0.477913
O O3 0.076168 0.194691 0.325854
O O4 0.152148 0.913911 0.133902
O O5 0.586069 0.248125 0.508232
O O6 0.641845 0.493246 0.542680
O O7 0.824049 0.246571 0.209904
O O8 0.000000 0.500000 0.500000
O O9 0.732665 0.613029 0.192122
O O10 0.638868 0.660807 0.870663
O O11 0.223666 0.656872 0.105147
O O12 0.500000 0.500000 0.000000
O O13 0.508623 0.226367 0.162923
O O14 0.086262 0.584791 0.898385
#
# Coordination Sequence:
#
# PCOD9020710 Si02
#       7
#     2   2   2   2   2   1   2
#     4  11  22  41  70 103 137 174 226 287 341 412
#     4  11  25  43  66  96 134 180 224 282 333 406
#     4  10  23  40  66  95 140 174 222 283 342 394
#     4  10  22  42  65  97 134 175 231 286 329 409
#     4  10  23  40  69  99 130 176 227 281 339 399
#     4  10  22  36  68 100 122 182 234 270 336 402
#     4  11  22  40  71  99 132 173 233 273 343 409
#
# _framework density 25.094265
#
# number of rings (size 3 to 8) (size 9 to 14) (size 15 to 20)
#    0.000    1.538    3.077    0.923    8.615    0.000 
#    0.000    3.846    0.000    0.000    0.000    0.000 
#    0.000    0.000    0.000    0.000    0.000    0.000 
#
# Total GULP energy -72451.394643 kJ/mol
# GULP energy per Si atom -5573.184203 kJ/mol
# Density = 2.503715 g / cm^3
# Si number density = 25.094265 Si / 1000 Ang^3
#
#
#
# Elastic Constant Matrix: (Units=GPa)
#
#
# Indices 1 2 3 4 5 6 
#
# 1 80.2192 30.1162 21.7612 -17.8253 12.4580 16.6235
# 2 30.1162 240.8060 34.5652 -48.5327 6.2874 5.3387
# 3 21.7612 34.5652 97.5972 -4.4481 8.9131 5.1302
# 4 -17.8253 -48.5327 -4.4481 41.0015 -2.9797 -4.7320
# 5 12.4580 6.2874 8.9131 -2.9797 24.8082 -12.1395
# 6 16.6235 5.3387 5.1302 -4.7320 -12.1395 43.3830
#
#
#
# Elastic Compliance Matrix: (Units=1/GPa)
#
#
# Indices 1 2 3 4 5 6 
#
# 1 0.018248 -0.000396 -0.002054 0.005233 -0.012394 -0.009598
# 2 -0.000396 0.005741 -0.001705 0.006518 0.000365 0.000460
# 3 -0.002054 -0.001705 0.011646 -0.002117 -0.003794 -0.001673
# 4 0.005233 0.006518 -0.002117 0.034434 0.001394 0.001589
# 5 -0.012394 0.000365 -0.003794 0.001394 0.058589 0.021699
# 6 -0.009598 0.000460 -0.001673 0.001589 0.021699 0.033115
#
#
# Mechanical properties :
#
#
# Convention : Reuss Voigt Hill
#
# Bulk Modulus (GPa) = 36.59693 65.72305 51.15999
# Shear Modulus (GPa) = 27.90305 43.98386 35.94346
#
# Velocity S-wave (km/s) = 3.33818 4.19112 3.78873
# Velocity P-wave (km/s) = 5.42894 7.04755 6.29052
#
# Compressibility (1/GPa) = 0.02732469
#
# Stress axis : x y z
#
# Youngs Moduli (GPa) = 54.79994 174.18728 85.86701
#
# Poissons Ratio (x) = 0.06904 0.17633
# Poissons Ratio (y) = 0.02172 0.14643
# Poissons Ratio (z) = 0.11253 0.29704
#
# Static dielectric constant tensor:
#      x y z
#    x 1.555460 -0.065510 0.406790 
#    y -0.065510 2.036840 0.014900 
#    z 0.406790 0.014900 1.715150 
# 
# From -- ./inp_files/396519.got.cif
#   From: 2010.05.17/outbox.cif.g08.bks.cpg/sg2_199_cif.got.tgz:396519.got - 2010.06.03 11:33:40.
