data_PCOD9020342
_publ_section_title
;
Structure prediction by ZEFSAII (Michael W. Deem and Ramdas Pophale) SiO2 
 PCOD9020342
Probable space group: P -1
;
_chemical_formula_sum "Si O2"
_cell_formula_units_Z 16
_cell_length_a 14.666103
_cell_length_b 29.605740
_cell_length_c 8.952360
_cell_angle_alpha 37.911164
_cell_angle_beta 38.653808
_cell_angle_gamma 19.362557
_cell_volume 778.980147
_symmetry_space_group_name_H-M "P -1"
_symmetry_group_IT_number 2
_symmetry_cell_setting 'triclinic'
loop_
_space_group_symop_operation_xyz
x,y,z
-x,-y,-z
loop_
_atom_site_type_symbol
_atom_site_label
_atom_site_fract_x
_atom_site_fract_y
_atom_site_fract_z
Si Si1 0.246422 0.209142 0.346610
Si Si2 0.195918 0.097620 0.473922
Si Si3 0.226311 0.842055 0.083506
Si Si4 0.672630 0.614676 0.915990
Si Si5 0.389443 0.427180 0.221936
Si Si6 0.289027 0.355555 0.786013
Si Si7 0.795716 0.336172 0.141791
Si Si8 0.358843 0.514012 0.511848
O O1 0.238503 0.150834 0.381299
O O2 0.966139 0.323854 0.505213
O O3 0.525289 0.071279 0.442775
O O4 0.253634 0.283725 0.053839
O O5 0.953823 0.153999 0.715285
O O6 0.068386 0.180219 0.265812
O O7 0.436879 0.745444 0.205246
O O8 0.415414 0.777017 0.866030
O O9 0.000000 0.000000 0.000000
O O10 0.633708 0.588319 0.879209
O O11 0.976778 0.519968 0.791311
O O12 0.654835 0.561137 0.206820
O O13 0.342135 0.372338 0.516874
O O14 0.674309 0.343288 0.137565
O O15 0.177284 0.586797 0.110270
O O16 0.551116 0.435373 0.324627
O O17 0.500000 0.500000 0.500000
#
# Coordination Sequence:
#
# PCOD9020342 Si02
#       8
#     2   2   2   2   2   2   2   2
#     4  10  22  34  66  97 123 155 207 266 309 360
#     4  11  20  39  60  94 123 159 203 259 313 358
#     4  12  23  41  66  91 126 163 209 261 313 370
#     4  11  22  37  64  91 124 160 213 258 309 360
#     4  11  23  38  61  94 129 168 203 256 308 378
#     4  11  22  41  62  96 127 162 206 257 314 368
#     4  11  21  37  66  91 126 163 211 252 310 368
#     4  11  17  36  63  95 116 154 216 263 299 357
#
# _framework density 20.539677000000001
#
# number of rings (size 3 to 8) (size 9 to 14) (size 15 to 20)
#    0.000    1.000    6.250    1.500    0.000    1.000 
#    0.000    0.625    0.000    4.500    0.000    0.000 
#    0.000    0.000    0.000    0.000    0.000    0.000 
#
# Total GULP energy -89189.812274 kJ/mol
# GULP energy per Si atom -5574.363267 kJ/mol
# Density = 2.049293 g / cm^3
# Si number density = 20.539677 Si / 1000 Ang^3
#
#
#
# Elastic Constant Matrix: (Units=GPa)
#
#
# Indices 1 2 3 4 5 6 
#
# 1 74.6587 46.7542 17.7041 -6.3604 10.7763 -13.5411
# 2 46.7542 143.2559 28.7788 -10.6197 0.9076 -21.6241
# 3 17.7041 28.7788 81.3808 -17.0000 -3.2705 -4.3250
# 4 -6.3604 -10.6197 -17.0000 23.3287 -3.2812 -1.5500
# 5 10.7763 0.9076 -3.2705 -3.2812 23.2489 -5.2613
# 6 -13.5411 -21.6241 -4.3250 -1.5500 -5.2613 30.8254
#
#
#
# Elastic Compliance Matrix: (Units=1/GPa)
#
#
# Indices 1 2 3 4 5 6 
#
# 1 0.018958 -0.005196 -0.002453 0.000049 -0.008259 0.002932
# 2 -0.005196 0.009934 -0.001350 0.002952 0.003431 0.005231
# 3 -0.002453 -0.001350 0.015948 0.011211 0.005400 0.001698
# 4 0.000049 0.002952 0.011211 0.054490 0.011004 0.008283
# 5 -0.008259 0.003431 0.005400 0.011004 0.051010 0.008796
# 6 0.002932 0.005231 0.001698 0.008283 0.008796 0.039554
#
#
# Mechanical properties :
#
#
# Convention : Reuss Voigt Hill
#
# Bulk Modulus (GPa) = 37.25423 53.97440 45.61432
# Shear Modulus (GPa) = 23.05844 29.21781 26.13813
#
# Velocity S-wave (km/s) = 3.35420 3.77570 3.57118
# Velocity P-wave (km/s) = 5.76003 6.73373 6.26582
#
# Compressibility (1/GPa) = 0.02684259
#
# Stress axis : x y z
#
# Youngs Moduli (GPa) = 52.74841 100.66163 62.70372
#
# Poissons Ratio (x) = 0.52305 0.15379
# Poissons Ratio (y) = 0.27409 0.08466
# Poissons Ratio (z) = 0.12937 0.13591
#
# Static dielectric constant tensor:
#      x y z
#    x 1.764650 0.001370 -0.025930 
#    y 0.001370 1.808970 -0.021230 
#    z -0.025930 -0.021230 1.776080 
# 
# From -- ./inp_files/321010.got.cif
#   From: 2010.05.17/outbox.cif.g08.bks.cpg/sg2_161_cif.got.tgz:321010.got - 2010.06.03 11:33:40.
