data_PCOD9020117
_publ_section_title
;
Structure prediction by ZEFSAII (Michael W. Deem and Ramdas Pophale) SiO2 
 PCOD9020117
Probable space group: P -1
;
_chemical_formula_sum "Si O2"
_cell_formula_units_Z 16
_cell_length_a 20.529102
_cell_length_b 8.757592
_cell_length_c 12.317824
_cell_angle_alpha 74.496123
_cell_angle_beta 43.043015
_cell_angle_gamma 40.121314
_cell_volume 729.303844
_symmetry_space_group_name_H-M "P -1"
_symmetry_group_IT_number 2
_symmetry_cell_setting 'triclinic'
loop_
_space_group_symop_operation_xyz
x,y,z
-x,-y,-z
loop_
_atom_site_type_symbol
_atom_site_label
_atom_site_fract_x
_atom_site_fract_y
_atom_site_fract_z
Si Si1 0.189914 0.684216 0.894128
Si Si2 0.679159 0.858437 0.127000
Si Si3 0.028037 0.204036 0.537188
Si Si4 0.648526 0.122704 0.638174
Si Si5 0.956913 0.117991 0.293664
Si Si6 0.023227 0.578173 0.682115
Si Si7 0.588044 0.542156 0.526628
Si Si8 0.602698 0.808174 0.022001
O O1 0.229723 0.439260 0.890879
O O2 0.362129 0.516271 0.649972
O O3 0.134623 0.818459 0.056509
O O4 0.000000 0.000000 0.000000
O O5 0.547807 0.992322 0.159180
O O6 0.575681 0.103890 0.301285
O O7 0.838748 0.744755 0.907591
O O8 0.000136 0.318308 0.431136
O O9 0.212708 0.016499 0.406082
O O10 0.050368 0.983192 0.571248
O O11 0.827397 0.518577 0.784740
O O12 0.573255 0.383892 0.616675
O O13 0.475551 0.257210 0.854731
O O14 0.796072 0.797532 0.456469
O O15 0.958630 0.296995 0.287535
O O16 0.772630 0.339663 0.405820
O O17 0.500000 0.000000 0.000000
#
# Coordination Sequence:
#
# PCOD9020117 Si02
#       8
#     2   2   2   2   2   2   2   2
#     4  10  21  46  71  90 131 176 220 285 344 382
#     4  12  24  42  66 102 134 171 227 276 326 404
#     4  11  22  43  64  96 141 181 217 273 330 391
#     4  11  23  43  65  97 135 181 222 271 328 397
#     4  10  22  42  65  95 129 179 221 272 335 399
#     4  12  22  39  65  94 136 179 218 267 332 397
#     4  10  24  43  66  96 128 173 225 281 334 390
#     4  12  23  40  70  98 139 181 220 268 331 396
#
# _framework density 21.938728999999999
#
# number of rings (size 3 to 8) (size 9 to 14) (size 15 to 20)
#    0.000    1.000    3.750    4.125    1.750    0.000 
#    0.000   11.250    0.000    0.000    0.000    0.000 
#    0.000    0.000    0.000    0.000    0.000    0.000 
#
# Total GULP energy -89370.725207 kJ/mol
# GULP energy per Si atom -5585.670325 kJ/mol
# Density = 2.188880 g / cm^3
# Si number density = 21.938729 Si / 1000 Ang^3
#
#
#
# Elastic Constant Matrix: (Units=GPa)
#
#
# Indices 1 2 3 4 5 6 
#
# 1 79.3128 42.7554 33.6932 -2.9425 -11.2721 16.0802
# 2 42.7554 105.5532 34.7687 -2.7224 18.0620 38.6317
# 3 33.6932 34.7687 112.7984 -14.8074 4.6306 8.8659
# 4 -2.9425 -2.7224 -14.8074 38.4461 4.5747 -9.0440
# 5 -11.2721 18.0620 4.6306 4.5747 32.8160 -0.2790
# 6 16.0802 38.6317 8.8659 -9.0440 -0.2790 33.3063
#
#
#
# Elastic Compliance Matrix: (Units=1/GPa)
#
#
# Indices 1 2 3 4 5 6 
#
# 1 0.021675 -0.011080 -0.004118 -0.001683 0.014386 0.003147
# 2 -0.011080 0.028250 -0.003013 -0.004377 -0.018557 -0.027959
# 3 -0.004118 -0.003013 0.011470 0.005021 -0.002042 0.003776
# 4 -0.001683 -0.004377 0.005021 0.030911 -0.003077 0.012921
# 5 0.014386 -0.018557 -0.002042 -0.003077 0.046470 0.014676
# 6 0.003147 -0.027959 0.003776 0.012921 0.014676 0.063561
#
#
# Mechanical properties :
#
#
# Convention : Reuss Voigt Hill
#
# Bulk Modulus (GPa) = 40.04363 57.78878 48.91621
# Shear Modulus (GPa) = 20.23606 33.34349 26.78978
#
# Velocity S-wave (km/s) = 3.04038 3.90275 3.49824
# Velocity P-wave (km/s) = 5.53329 6.83424 6.21788
#
# Compressibility (1/GPa) = 0.02497276
#
# Stress axis : x y z
#
# Youngs Moduli (GPa) = 46.13671 35.39834 87.18147
#
# Poissons Ratio (x) = 0.39221 0.35901
# Poissons Ratio (y) = 0.51119 0.26270
# Poissons Ratio (z) = 0.18999 0.10667
#
# Static dielectric constant tensor:
#      x y z
#    x 1.763080 0.004770 0.000340 
#    y 0.004770 1.826900 0.028660 
#    z 0.000340 0.028660 1.802970 
# 
# From -- ./inp_files/469947.got.cif
#   From: 2010.05.17/outbox.cif.g08.bks.cpg/sg2_235_cif.got.tgz:469947.got - 2010.06.03 11:33:40.
