data_PCOD9020410
_publ_section_title
;
Structure prediction by ZEFSAII (Michael W. Deem and Ramdas Pophale) SiO2 
 PCOD9020410
Probable space group: P -1
;
_chemical_formula_sum "Si O2"
_cell_formula_units_Z 16
_cell_length_a 19.485529
_cell_length_b 16.522489
_cell_length_c 12.270266
_cell_angle_alpha 30.402503
_cell_angle_beta 149.247996
_cell_angle_gamma 158.113221
_cell_volume 707.777496
_symmetry_space_group_name_H-M "P -1"
_symmetry_group_IT_number 2
_symmetry_cell_setting 'triclinic'
loop_
_space_group_symop_operation_xyz
x,y,z
-x,-y,-z
loop_
_atom_site_type_symbol
_atom_site_label
_atom_site_fract_x
_atom_site_fract_y
_atom_site_fract_z
Si Si1 0.913464 0.751111 0.820929
Si Si2 0.462365 0.573088 0.011650
Si Si3 0.474217 0.100092 0.748647
Si Si4 0.803449 0.954995 0.311887
Si Si5 0.773711 0.606849 0.304171
Si Si6 0.109831 0.443984 0.267670
Si Si7 0.591926 0.261574 0.037706
Si Si8 0.833974 0.913953 0.720044
O O1 0.907541 0.845729 0.813707
O O2 0.122230 0.924024 0.847162
O O3 0.806718 0.772564 0.560939
O O4 0.792894 0.489375 0.990211
O O5 0.665002 0.655363 0.168471
O O6 0.314644 0.301086 0.153367
O O7 0.380167 0.576523 0.783744
O O8 0.438539 0.677170 0.958237
O O9 0.674498 0.368101 0.704143
O O10 0.296150 0.067728 0.542313
O O11 0.437899 0.953556 0.764049
O O12 0.500000 0.000000 0.000000
O O13 0.966063 0.177136 0.350998
O O14 0.584861 0.820562 0.179186
O O15 0.845781 0.531479 0.572410
O O16 0.973712 0.842659 0.251508
O O17 0.000000 0.500000 0.000000
#
# Coordination Sequence:
#
# PCOD9020410 Si02
#       8
#     2   2   2   2   2   2   2   2
#     4  10  22  35  60  92 124 166 209 268 325 378
#     4  10  24  42  71  94 126 171 223 278 312 383
#     4  12  24  40  62  97 136 175 213 262 331 403
#     4  11  21  37  62  92 127 167 214 267 323 385
#     4  11  22  44  68  96 125 170 228 266 322 383
#     4  12  23  41  64  96 134 172 211 263 328 395
#     4  11  23  41  60  94 133 167 217 266 329 380
#     4  11  21  41  66  93 128 173 214 272 321 389
#
# _framework density 22.605975000000001
#
# number of rings (size 3 to 8) (size 9 to 14) (size 15 to 20)
#    0.000    1.000    3.750    3.750    1.750    1.000 
#    0.000    1.250    0.000    0.000    0.000    0.000 
#    0.000    0.000    0.000    0.000    0.000    0.000 
#
# Total GULP energy -89292.805401 kJ/mol
# GULP energy per Si atom -5580.800338 kJ/mol
# Density = 2.255452 g / cm^3
# Si number density = 22.605975 Si / 1000 Ang^3
#
#
#
# Elastic Constant Matrix: (Units=GPa)
#
#
# Indices 1 2 3 4 5 6 
#
# 1 65.8010 24.1808 12.6647 -0.3442 -7.5126 -6.1913
# 2 24.1808 103.7400 22.6305 5.8402 0.3177 6.2927
# 3 12.6647 22.6305 75.8302 15.1846 -10.9987 -9.0278
# 4 -0.3442 5.8402 15.1846 28.1777 0.3381 3.1303
# 5 -7.5126 0.3177 -10.9987 0.3381 21.2385 1.9581
# 6 -6.1913 6.2927 -9.0278 3.1303 1.9581 37.6902
#
#
#
# Elastic Compliance Matrix: (Units=1/GPa)
#
#
# Indices 1 2 3 4 5 6 
#
# 1 0.017853 -0.004267 -0.000732 0.001086 0.005698 0.003083
# 2 -0.004267 0.011639 -0.003605 -0.000113 -0.003241 -0.003330
# 3 -0.000732 -0.003605 0.018260 -0.009787 0.008927 0.005204
# 4 0.001086 -0.000113 -0.009787 0.041451 -0.004850 -0.005338
# 5 0.005698 -0.003241 0.008927 -0.004850 0.053735 0.001227
# 6 0.003083 -0.003330 0.005204 -0.005338 0.001227 0.029221
#
#
# Mechanical properties :
#
#
# Convention : Reuss Voigt Hill
#
# Bulk Modulus (GPa) = 32.74066 40.48037 36.61052
# Shear Modulus (GPa) = 25.05676 29.81431 27.43553
#
# Velocity S-wave (km/s) = 3.33290 3.63556 3.48751
# Velocity P-wave (km/s) = 5.41531 5.96397 5.69625
#
# Compressibility (1/GPa) = 0.03054306
#
# Stress axis : x y z
#
# Youngs Moduli (GPa) = 56.01372 85.91976 54.76595
#
# Poissons Ratio (x) = 0.36664 0.04009
# Poissons Ratio (y) = 0.23902 0.19741
# Poissons Ratio (z) = 0.04101 0.30971
#
# Static dielectric constant tensor:
#      x y z
#    x 1.982280 -0.017480 -0.037070 
#    y -0.017480 1.840710 -0.028790 
#    z -0.037070 -0.028790 1.841260 
# 
# From -- ./inp_files/472364.got.cif
#   From: 2010.05.17/outbox.cif.g08.bks.cpg/sg2_237_cif.got.tgz:472364.got - 2010.06.03 11:33:40.
