data_PCOD9020958
_publ_section_title
;
Structure prediction by ZEFSAII (Michael W. Deem and Ramdas Pophale) SiO2 
 PCOD9020958
Probable space group: P -1
;
_chemical_formula_sum "Si O2"
_cell_formula_units_Z 12
_cell_length_a 11.739542
_cell_length_b 8.878927
_cell_length_c 9.034420
_cell_angle_alpha 58.263157
_cell_angle_beta 137.907770
_cell_angle_gamma 113.968890
_cell_volume 536.648053
_symmetry_space_group_name_H-M "P -1"
_symmetry_group_IT_number 2
_symmetry_cell_setting 'triclinic'
loop_
_space_group_symop_operation_xyz
x,y,z
-x,-y,-z
loop_
_atom_site_type_symbol
_atom_site_label
_atom_site_fract_x
_atom_site_fract_y
_atom_site_fract_z
Si Si1 0.388186 0.650354 0.675091
Si Si2 0.790853 0.091874 0.817319
Si Si3 0.848197 0.123359 0.517751
Si Si4 0.759865 0.681625 0.976168
Si Si5 0.085237 0.252631 0.217658
Si Si6 0.941138 0.578538 0.589485
O O1 0.325000 0.769471 0.690415
O O2 0.579979 0.593841 0.891577
O O3 0.244240 0.497538 0.593040
O O4 0.366486 0.785819 0.442811
O O5 0.749037 0.886272 0.913512
O O6 0.885485 0.097694 0.743874
O O7 0.907429 0.187930 0.002690
O O8 0.988918 0.240165 0.509050
O O9 0.838446 0.926782 0.547608
O O10 0.790007 0.689147 0.824586
O O11 0.918818 0.567004 0.239637
O O12 0.060358 0.390713 0.251823
#
# Coordination Sequence:
#
# PCOD9020958 Si02
#       6
#     2   2   2   2   2   2
#     4  10  22  37  63  88 114 153 203 238 288 337
#     4   9  20  40  60  88 108 158 203 231 283 346
#     4   9  21  39  61  83 118 159 196 234 288 354
#     4  11  21  38  63  88 115 153 202 245 276 349
#     4  11  21  39  63  87 118 158 190 241 299 344
#     4  12  23  38  59  92 124 148 189 246 302 344
#
# _framework density 22.361022999999999
#
# number of rings (size 3 to 8) (size 9 to 14) (size 15 to 20)
#    1.000    0.667    1.667    5.000    0.000    1.333 
#    0.000    0.000    0.000    3.000    0.000    0.000 
#    0.000    0.000    0.000    0.000    0.000    0.000 
#
# Total GULP energy -66979.369856 kJ/mol
# GULP energy per Si atom -5581.614155 kJ/mol
# Density = 2.231013 g / cm^3
# Si number density = 22.361023 Si / 1000 Ang^3
#
#
#
# Elastic Constant Matrix: (Units=GPa)
#
#
# Indices 1 2 3 4 5 6 
#
# 1 96.0099 40.7189 37.8225 16.1105 13.4074 13.3309
# 2 40.7189 83.1832 24.5552 -5.8619 11.3673 12.2696
# 3 37.8225 24.5552 76.5735 2.1962 19.8710 5.2281
# 4 16.1105 -5.8619 2.1962 34.1819 4.5317 -8.2963
# 5 13.4074 11.3673 19.8710 4.5317 38.0374 4.1537
# 6 13.3309 12.2696 5.2281 -8.2963 4.1537 42.9522
#
#
#
# Elastic Compliance Matrix: (Units=1/GPa)
#
#
# Indices 1 2 3 4 5 6 
#
# 1 0.018389 -0.007273 -0.006311 -0.010841 0.000830 -0.005036
# 2 -0.007273 0.016901 -0.001308 0.006518 -0.002481 -0.000913
# 3 -0.006311 -0.001308 0.018358 0.002896 -0.007470 0.001380
# 4 -0.010841 0.006518 0.002896 0.038172 -0.005173 0.009024
# 5 0.000830 -0.002481 -0.007470 -0.005173 0.031551 -0.002690
# 6 -0.005036 -0.000913 0.001380 0.009024 -0.002690 0.026940
#
#
# Mechanical properties :
#
#
# Convention : Reuss Voigt Hill
#
# Bulk Modulus (GPa) = 41.90754 51.32887 46.61820
# Shear Modulus (GPa) = 26.58855 33.21230 29.90042
#
# Velocity S-wave (km/s) = 3.45201 3.85811 3.66070
# Velocity P-wave (km/s) = 5.88817 6.54608 6.22582
#
# Compressibility (1/GPa) = 0.02386206
#
# Stress axis : x y z
#
# Youngs Moduli (GPa) = 54.38046 59.16818 54.47350
#
# Poissons Ratio (x) = 0.43034 0.34381
# Poissons Ratio (y) = 0.39552 0.07126
# Poissons Ratio (z) = 0.34322 0.07740
#
# Static dielectric constant tensor:
#      x y z
#    x 1.812860 0.003550 0.006790 
#    y 0.003550 1.861500 -0.089500 
#    z 0.006790 -0.089500 1.955920 
# 
# From -- ./inp_files/145089.got.cif
#   From: 2010.05.17/outbox.cif.g08.bks.cpg/sg2_73_cif.got.tgz:145089.got - 2010.06.03 11:33:40.
