data_PCOD9020815
_publ_section_title
;
Structure prediction by ZEFSAII (Michael W. Deem and Ramdas Pophale) SiO2 
 PCOD9020815
Probable space group: P -1
;
_chemical_formula_sum "Si O2"
_cell_formula_units_Z 16
_cell_length_a 27.649180
_cell_length_b 22.109192
_cell_length_c 8.441470
_cell_angle_alpha 130.501849
_cell_angle_beta 49.667552
_cell_angle_gamma 168.837955
_cell_volume 757.819548
_symmetry_space_group_name_H-M "P -1"
_symmetry_group_IT_number 2
_symmetry_cell_setting 'triclinic'
loop_
_space_group_symop_operation_xyz
x,y,z
-x,-y,-z
loop_
_atom_site_type_symbol
_atom_site_label
_atom_site_fract_x
_atom_site_fract_y
_atom_site_fract_z
Si Si1 0.633104 0.596897 0.993131
Si Si2 0.289785 0.674936 0.006808
Si Si3 0.736685 0.821715 0.459256
Si Si4 0.013132 0.274297 0.475145
Si Si5 0.559017 0.283656 0.473067
Si Si6 0.818402 0.355206 0.115119
Si Si7 0.130158 0.210389 0.447475
Si Si8 0.825961 0.075080 0.189668
O O1 0.839192 0.806913 0.801565
O O2 0.412903 0.267278 0.943403
O O3 0.500000 0.500000 0.000000
O O4 0.752075 0.786162 0.209858
O O5 0.408468 0.751355 0.770696
O O6 0.200115 0.636640 0.014368
O O7 0.048116 0.352438 0.065360
O O8 0.525061 0.983512 0.143583
O O9 0.500000 0.500000 0.500000
O O10 0.775810 0.957527 0.545033
O O11 0.945395 0.058487 0.548844
O O12 0.944644 0.181809 0.279726
O O13 0.238818 0.491202 0.431968
O O14 0.082345 0.448749 0.663625
O O15 0.613663 0.428449 0.493090
O O16 0.297472 0.989779 0.608879
O O17 0.000000 0.500000 0.000000
O O18 0.000000 0.000000 0.500000
#
# Coordination Sequence:
#
# PCOD9020815 Si02
#       8
#     2   2   2   2   2   2   2   2
#     4  11  22  38  58  90 131 164 213 262 310 384
#     4  10  23  42  68  95 124 169 211 266 324 385
#     4  11  23  38  62  91 127 170 212 260 316 385
#     4  10  22  41  63  91 130 166 210 271 316 381
#     4   9  22  41  60  91 134 162 214 265 312 381
#     4  10  22  44  67  94 129 163 216 267 323 387
#     4  10  22  37  59  88 126 173 212 260 317 374
#     4  11  23  40  66  95 129 170 213 261 327 377
#
# _framework density 21.113206999999999
#
# number of rings (size 3 to 8) (size 9 to 14) (size 15 to 20)
#    0.000    1.750    1.250    1.875    8.750    1.500 
#    0.000    8.750    0.000    0.000    0.000    0.000 
#    0.000    0.000    0.000    0.000    0.000    0.000 
#
# Total GULP energy -89117.770986 kJ/mol
# GULP energy per Si atom -5569.860687 kJ/mol
# Density = 2.106515 g / cm^3
# Si number density = 21.113207 Si / 1000 Ang^3
#
#
#
# Elastic Constant Matrix: (Units=GPa)
#
#
# Indices 1 2 3 4 5 6 
#
# 1 97.1100 11.7239 8.6613 -2.2063 -6.3891 13.8806
# 2 11.7239 74.7855 19.3595 -2.1272 -2.8634 -3.5756
# 3 8.6613 19.3595 64.4982 4.5889 -11.2604 -9.0131
# 4 -2.2063 -2.1272 4.5889 33.5910 0.5442 0.4907
# 5 -6.3891 -2.8634 -11.2604 0.5442 23.5614 -0.3029
# 6 13.8806 -3.5756 -9.0131 0.4907 -0.3029 34.1045
#
#
#
# Elastic Compliance Matrix: (Units=1/GPa)
#
#
# Indices 1 2 3 4 5 6 
#
# 1 0.011531 -0.001562 -0.001506 0.000906 0.002129 -0.005249
# 2 -0.001562 0.014795 -0.004313 0.001420 -0.000706 0.001020
# 3 -0.001506 -0.004313 0.019479 -0.003250 0.008522 0.005431
# 4 0.000906 0.001420 -0.003250 0.030416 -0.001857 -0.001533
# 5 0.002129 -0.000706 0.008522 -0.001857 0.047072 0.001756
# 6 -0.005249 0.001020 0.005431 -0.001533 0.001756 0.033038
#
#
# Mechanical properties :
#
#
# Convention : Reuss Voigt Hill
#
# Bulk Modulus (GPa) = 32.21201 35.09814 33.65508
# Shear Modulus (GPa) = 27.55720 31.36130 29.45925
#
# Velocity S-wave (km/s) = 3.61669 3.85825 3.73942
# Velocity P-wave (km/s) = 5.72106 6.04219 5.88382
#
# Compressibility (1/GPa) = 0.03104432
#
# Stress axis : x y z
#
# Youngs Moduli (GPa) = 86.71951 67.59055 51.33705
#
# Poissons Ratio (x) = 0.10554 0.07732
# Poissons Ratio (y) = 0.13541 0.22141
# Poissons Ratio (z) = 0.13062 0.29151
#
# Static dielectric constant tensor:
#      x y z
#    x 1.755130 0.112870 -0.048290 
#    y 0.112870 1.516660 0.087330 
#    z -0.048290 0.087330 1.775050 
# 
# From -- ./inp_files/355711.got.cif
#   From: 2010.05.17/outbox.cif.g08.bks.cpg/sg2_178_cif.got.tgz:355711.got - 2010.06.03 11:33:40.
