data_PCOD9020879
_publ_section_title
;
Structure prediction by ZEFSAII (Michael W. Deem and Ramdas Pophale) SiO2 
 PCOD9020879
Probable space group: P -1
;
_chemical_formula_sum "Si O2"
_cell_formula_units_Z 14
_cell_length_a 7.462369
_cell_length_b 6.970215
_cell_length_c 14.901148
_cell_angle_alpha 123.843118
_cell_angle_beta 92.377714
_cell_angle_gamma 54.486082
_cell_volume 476.222816
_symmetry_space_group_name_H-M "P -1"
_symmetry_group_IT_number 2
_symmetry_cell_setting 'triclinic'
loop_
_space_group_symop_operation_xyz
x,y,z
-x,-y,-z
loop_
_atom_site_type_symbol
_atom_site_label
_atom_site_fract_x
_atom_site_fract_y
_atom_site_fract_z
Si Si1 0.880475 0.740093 0.931203
Si Si2 0.741762 0.923717 0.629337
Si Si3 0.778089 0.222183 0.339001
Si Si4 0.752784 0.077553 0.483678
Si Si5 0.716849 0.723975 0.749954
Si Si6 0.585511 0.363656 0.187674
Si Si7 0.323532 0.431028 0.978521
O O1 0.116305 0.640417 0.954829
O O2 0.811755 0.558717 0.933281
O O3 0.905380 0.680820 0.809925
O O4 0.671282 0.108042 0.047284
O O5 0.739558 0.896715 0.514921
O O6 0.738769 0.708506 0.639877
O O7 0.517991 0.291330 0.742827
O O8 0.989710 0.829912 0.642472
O O9 0.779918 0.018495 0.361535
O O10 0.514651 0.574680 0.430217
O O11 0.786725 0.167283 0.218956
O O12 0.000000 0.000000 0.500000
O O13 0.481254 0.079211 0.857744
O O14 0.652872 0.537942 0.743671
O O15 0.500000 0.500000 0.000000
#
# Coordination Sequence:
#
# PCOD9020879 Si02
#       7
#     2   2   2   2   2   2   2
#     4  10  24  42  58  89 130 164 211 267 302 367
#     4  10  22  37  61  88 120 160 201 250 309 373
#     4   9  18  35  65  89 115 160 200 251 310 365
#     4   8  16  36  61  91 120 151 200 249 305 372
#     4  11  25  39  57  88 126 160 206 256 302 368
#     4  10  22  39  59  86 123 160 206 255 307 360
#     4  10  23  41  65  85 119 173 215 257 316 361
#
# _framework density 29.398002999999999
#
# number of rings (size 3 to 8) (size 9 to 14) (size 15 to 20)
#    0.000    2.286    0.000    1.714    6.000    5.143 
#    0.000    0.714    0.000   29.143    0.000    0.000 
#    0.000    0.000    0.000    0.000    0.000    0.000 
#
# Total GULP energy -78313.241883 kJ/mol
# GULP energy per Si atom -5593.802992 kJ/mol
# Density = 2.933109 g / cm^3
# Si number density = 29.398003 Si / 1000 Ang^3
#
#
#
# Elastic Constant Matrix: (Units=GPa)
#
#
# Indices 1 2 3 4 5 6 
#
# 1 160.8569 55.2830 22.9908 -26.3498 6.1395 -3.6399
# 2 55.2830 192.9338 65.9044 -20.6080 -6.4614 -8.5682
# 3 22.9908 65.9044 56.7460 -8.9990 -5.9466 0.5921
# 4 -26.3498 -20.6080 -8.9990 87.5609 -5.1696 -11.0493
# 5 6.1395 -6.4614 -5.9466 -5.1696 29.8545 -17.3643
# 6 -3.6399 -8.5682 0.5921 -11.0493 -17.3643 73.9032
#
#
#
# Elastic Compliance Matrix: (Units=1/GPa)
#
#
# Indices 1 2 3 4 5 6 
#
# 1 0.007245 -0.001633 -0.000970 0.001592 -0.001761 -0.000001
# 2 -0.001633 0.009193 -0.009728 0.000953 0.001453 0.001547
# 3 -0.000970 -0.009728 0.029835 0.000667 0.003924 -0.000393
# 4 0.001592 0.000953 0.000667 0.012812 0.003998 0.003038
# 5 -0.001761 0.001453 0.003924 0.003998 0.041725 0.010452
# 6 -0.000001 0.001547 -0.000393 0.003038 0.010452 0.016624
#
#
# Mechanical properties :
#
#
# Convention : Reuss Voigt Hill
#
# Bulk Modulus (GPa) = 46.27659 77.65479 61.96569
# Shear Modulus (GPa) = 33.48955 56.02095 44.75525
#
# Velocity S-wave (km/s) = 3.37883 4.37006 3.90602
# Velocity P-wave (km/s) = 5.56755 7.20663 6.43945
#
# Compressibility (1/GPa) = 0.02160920
#
# Stress axis : x y z
#
# Youngs Moduli (GPa) = 138.03105 108.77374 33.51816
#
# Poissons Ratio (x) = 0.17767 0.03252
# Poissons Ratio (y) = 0.22546 0.32607
# Poissons Ratio (z) = 0.13393 1.05816
#
# Static dielectric constant tensor:
#      x y z
#    x 2.365990 0.024390 -0.015040 
#    y 0.024390 2.215780 -0.079330 
#    z -0.015040 -0.079330 2.366420 
# 
# From -- ./inp_files/586283.got.cif
#   From: 2010.05.17/outbox.cif.g08.bks.cpg/sg2_294_cif.got.tgz:586283.got - 2010.06.03 11:33:40.
