data_PCOD9020642
_publ_section_title
;
Structure prediction by ZEFSAII (Michael W. Deem and Ramdas Pophale) SiO2 
 PCOD9020642
Probable space group: P -1
;
_chemical_formula_sum "Si O2"
_cell_formula_units_Z 14
_cell_length_a 10.919102
_cell_length_b 8.912965
_cell_length_c 11.921530
_cell_angle_alpha 38.776193
_cell_angle_beta 89.873633
_cell_angle_gamma 71.181780
_cell_volume 624.024401
_symmetry_space_group_name_H-M "P -1"
_symmetry_group_IT_number 2
_symmetry_cell_setting 'triclinic'
loop_
_space_group_symop_operation_xyz
x,y,z
-x,-y,-z
loop_
_atom_site_type_symbol
_atom_site_label
_atom_site_fract_x
_atom_site_fract_y
_atom_site_fract_z
Si Si1 0.653521 0.783403 0.365184
Si Si2 0.282466 0.586772 0.214806
Si Si3 0.988506 0.715327 0.546201
Si Si4 0.096048 0.137232 0.781811
Si Si5 0.596310 0.636907 0.893561
Si Si6 0.224568 0.706018 0.713188
Si Si7 0.526810 0.694389 0.209888
O O1 0.728761 0.592000 0.582801
O O2 0.757941 0.876179 0.255123
O O3 0.610574 0.628002 0.364822
O O4 0.504794 0.047066 0.252069
O O5 0.360900 0.400048 0.214359
O O6 0.379727 0.700984 0.200891
O O7 0.142849 0.853799 0.010574
O O8 0.993862 0.811803 0.361703
O O9 0.022641 0.404250 0.706611
O O10 0.108165 0.692959 0.643416
O O11 0.840191 0.969059 0.447176
O O12 0.500000 0.500000 0.000000
O O13 0.736356 0.466574 0.070167
O O14 0.370376 0.542826 0.739277
O O15 0.500000 0.000000 0.000000
#
# Coordination Sequence:
#
# PCOD9020642 Si02
#       7
#     2   2   2   2   2   2   2
#     4  12  24  39  65  95 125 158 200 255 316 367
#     4  12  24  39  65  95 125 158 200 255 316 367
#     4  10  22  36  64  87 114 173 207 249 293 355
#     4  11  21  42  64  86 121 161 214 248 300 353
#     4  12  20  39  65  94 127 159 195 255 314 368
#     4  11  19  36  66  90 121 161 208 240 310 359
#     4  12  20  39  65  94 127 159 195 255 314 368
#
# _framework density 22.435017999999999
#
# number of rings (size 3 to 8) (size 9 to 14) (size 15 to 20)
#    0.000    0.571    8.571    0.857    0.000    0.000 
#    0.000    2.857    0.000    1.714    0.000    0.000 
#    0.000    0.000    0.000    0.000    0.000    0.000 
#
# Total GULP energy -78297.878220 kJ/mol
# GULP energy per Si atom -5592.705587 kJ/mol
# Density = 2.238396 g / cm^3
# Si number density = 22.435018 Si / 1000 Ang^3
#
#
#
# Elastic Constant Matrix: (Units=GPa)
#
#
# Indices 1 2 3 4 5 6 
#
# 1 65.1714 21.2173 22.6976 8.2668 15.8514 11.5538
# 2 21.2173 151.3444 47.1086 -4.6507 7.6833 2.8955
# 3 22.6976 47.1086 127.1524 8.4783 18.5762 -3.8262
# 4 8.2668 -4.6507 8.4783 51.1226 2.4604 21.6702
# 5 15.8514 7.6833 18.5762 2.4604 29.3169 6.7788
# 6 11.5538 2.8955 -3.8262 21.6702 6.7788 35.8962
#
#
#
# Elastic Compliance Matrix: (Units=1/GPa)
#
#
# Indices 1 2 3 4 5 6 
#
# 1 0.019267 -0.001703 -0.001746 -0.000781 -0.007804 -0.004305
# 2 -0.001703 0.007819 -0.002948 0.002252 0.001000 -0.001945
# 3 -0.001746 -0.002948 0.010527 -0.003673 -0.005858 0.005246
# 4 -0.000781 0.002252 -0.003673 0.027905 0.003960 -0.017916
# 5 -0.007804 0.001000 -0.005858 0.003960 0.043481 -0.008795
# 6 -0.004305 -0.001945 0.005246 -0.017916 -0.008795 0.042436
#
#
# Mechanical properties :
#
#
# Convention : Reuss Voigt Hill
#
# Bulk Modulus (GPa) = 40.28980 58.41280 49.35130
# Shear Modulus (GPa) = 28.98521 40.11011 34.54766
#
# Velocity S-wave (km/s) = 3.59829 4.23287 3.92841
# Velocity P-wave (km/s) = 5.93810 7.06983 6.52853
#
# Compressibility (1/GPa) = 0.02482018
#
# Stress axis : x y z
#
# Youngs Moduli (GPa) = 51.90215 127.88687 94.99394
#
# Poissons Ratio (x) = 0.21781 0.16583
# Poissons Ratio (y) = 0.08840 0.28002
# Poissons Ratio (z) = 0.09060 0.37699
#
# Static dielectric constant tensor:
#      x y z
#    x 1.861850 -0.026620 0.029940 
#    y -0.026620 1.843250 0.007520 
#    z 0.029940 0.007520 1.839360 
# 
# From -- ./inp_files/195235.got.cif
#   From: 2010.05.17/outbox.cif.g08.bks.cpg/sg2_98_cif.got.tgz:195235.got - 2010.06.03 11:33:40.
