data_PCOD9020235
_publ_section_title
;
Structure prediction by ZEFSAII (Michael W. Deem and Ramdas Pophale) SiO2 
 PCOD9020235
Probable space group: P -1
;
_chemical_formula_sum "Si O2"
_cell_formula_units_Z 12
_cell_length_a 4.862377
_cell_length_b 12.644285
_cell_length_c 16.284914
_cell_angle_alpha 153.774535
_cell_angle_beta 76.511255
_cell_angle_gamma 94.376960
_cell_volume 409.136391
_symmetry_space_group_name_H-M "P -1"
_symmetry_group_IT_number 2
_symmetry_cell_setting 'triclinic'
loop_
_space_group_symop_operation_xyz
x,y,z
-x,-y,-z
loop_
_atom_site_type_symbol
_atom_site_label
_atom_site_fract_x
_atom_site_fract_y
_atom_site_fract_z
Si Si1 0.000000 0.500000 0.000000
Si Si2 0.406137 0.933453 0.624790
Si Si3 0.775709 0.212008 0.893730
Si Si4 0.500000 0.000000 0.000000
Si Si5 0.934711 0.743139 0.344323
Si Si6 0.572853 0.551093 0.622312
Si Si7 0.000720 0.267390 0.096843
O O1 0.670398 0.489405 0.059279
O O2 0.927850 0.429054 0.860799
O O3 0.588523 0.834995 0.461850
O O4 0.318818 0.711751 0.521934
O O5 0.100712 0.152373 0.780548
O O6 0.603252 0.035114 0.745660
O O7 0.882237 0.192702 0.966466
O O8 0.749487 0.749523 0.760757
O O9 0.693740 0.909382 0.011819
O O10 0.044359 0.541273 0.271842
O O11 0.000000 0.000000 0.500000
O O12 0.500000 0.500000 0.500000
O O13 0.288380 0.717433 0.815047
#
# Coordination Sequence:
#
# PCOD9020235 Si02
#       7
#     1   2   2   1   2   2   2
#     4  10  22  44  74 112 148 204 248 314 384 456
#     4  11  26  47  78 109 157 199 258 318 387 463
#     4  11  25  48  76 112 154 203 256 320 382 467
#     4  12  26  48  72 106 148 202 250 326 374 466
#     4  10  21  47  75 114 150 203 250 320 379 468
#     4  11  27  47  75 107 141 205 255 321 378 459
#     4  10  26  47  73 112 153 198 262 314 396 455
#
# _framework density 29.330072000000001
#
# number of rings (size 3 to 8) (size 9 to 14) (size 15 to 20)
#    0.000    1.333    1.667    1.500    9.333    2.000 
#    0.000    0.000    0.000    0.000    0.000    0.000 
#    0.000    0.000    0.000    0.000    0.000    0.000 
#
# Total GULP energy -66804.918421 kJ/mol
# GULP energy per Si atom -5567.076535 kJ/mol
# Density = 2.926332 g / cm^3
# Si number density = 29.330072 Si / 1000 Ang^3
#
#
#
# Elastic Constant Matrix: (Units=GPa)
#
#
# Indices 1 2 3 4 5 6 
#
# 1 146.6762 40.9697 11.5157 -10.6297 -3.7552 -19.8799
# 2 40.9697 184.4829 33.7849 9.2682 -5.2573 4.8904
# 3 11.5157 33.7849 106.1412 -3.6475 16.8395 6.7610
# 4 -10.6297 9.2682 -3.6475 88.9847 -5.5908 12.1892
# 5 -3.7552 -5.2573 16.8395 -5.5908 51.5174 -7.4516
# 6 -19.8799 4.8904 6.7610 12.1892 -7.4516 32.7996
#
#
#
# Elastic Compliance Matrix: (Units=1/GPa)
#
#
# Indices 1 2 3 4 5 6 
#
# 1 0.008225 -0.001786 -0.000918 0.000459 0.001581 0.005629
# 2 -0.001786 0.006255 -0.001888 -0.000729 0.000879 -0.001155
# 3 -0.000918 -0.001888 0.011085 0.000794 -0.004353 -0.003844
# 4 0.000459 -0.000729 0.000794 0.011994 0.000402 -0.004143
# 5 0.001581 0.000879 -0.004353 0.000402 0.022034 0.006581
# 6 0.005629 -0.001155 -0.003844 -0.004143 0.006581 0.037899
#
#
# Mechanical properties :
#
#
# Convention : Reuss Voigt Hill
#
# Bulk Modulus (GPa) = 61.04338 67.76009 64.40174
# Shear Modulus (GPa) = 44.58833 58.06233 51.32533
#
# Velocity S-wave (km/s) = 3.90324 4.45412 4.18774
# Velocity P-wave (km/s) = 6.41650 7.04308 6.73708
#
# Compressibility (1/GPa) = 0.01638179
#
# Stress axis : x y z
#
# Youngs Moduli (GPa) = 121.57507 159.86575 90.21455
#
# Poissons Ratio (x) = 0.28550 0.08279
# Poissons Ratio (y) = 0.21712 0.17035
# Poissons Ratio (z) = 0.11156 0.30187
#
# Static dielectric constant tensor:
#      x y z
#    x 2.210650 -0.251710 -0.064130 
#    y -0.251710 2.168950 -0.076140 
#    z -0.064130 -0.076140 2.441950 
# 
# From -- ./inp_files/104300.got.cif
#   From: 2010.05.17/outbox.cif.g08.bks.cpg/sg2_53_cif.got.tgz:104300.got - 2010.06.03 11:33:40.
