data_PCOD9020603
_publ_section_title
;
Structure prediction by ZEFSAII (Michael W. Deem and Ramdas Pophale) SiO2 
 PCOD9020603
Probable space group: P -1
;
_chemical_formula_sum "Si O2"
_cell_formula_units_Z 16
_cell_length_a 8.480974
_cell_length_b 12.308817
_cell_length_c 7.854233
_cell_angle_alpha 71.348987
_cell_angle_beta 84.003682
_cell_angle_gamma 113.349980
_cell_volume 687.571221
_symmetry_space_group_name_H-M "P -1"
_symmetry_group_IT_number 2
_symmetry_cell_setting 'triclinic'
loop_
_space_group_symop_operation_xyz
x,y,z
-x,-y,-z
loop_
_atom_site_type_symbol
_atom_site_label
_atom_site_fract_x
_atom_site_fract_y
_atom_site_fract_z
Si Si1 0.081255 0.607053 0.584138
Si Si2 0.036582 0.379129 0.894913
Si Si3 0.966519 0.779988 0.688958
Si Si4 0.657001 0.999593 0.365424
Si Si5 0.423252 0.303616 0.189712
Si Si6 0.586496 0.562876 0.235500
Si Si7 0.365828 0.807284 0.977143
Si Si8 0.476332 0.745562 0.343003
O O1 0.069692 0.525882 0.797724
O O2 0.981109 0.694048 0.576569
O O3 0.284938 0.699060 0.473203
O O4 0.000000 0.500000 0.500000
O O5 0.205939 0.385504 0.769825
O O6 0.045575 0.310172 0.102285
O O7 0.834839 0.295099 0.901467
O O8 0.149032 0.910875 0.621988
O O9 0.784232 0.790547 0.706582
O O10 0.645261 0.069620 0.157355
O O11 0.500000 0.000000 0.500000
O O12 0.617763 0.855429 0.392468
O O13 0.497410 0.412269 0.272663
O O14 0.552484 0.241353 0.161979
O O15 0.426586 0.375378 0.975279
O O16 0.500822 0.379526 0.649868
O O17 0.477053 0.814425 0.128458
#
# Coordination Sequence:
#
# PCOD9020603 Si02
#       8
#     2   2   2   2   2   2   2   2
#     4  12  22  35  62  91 127 152 195 252 305 362
#     4  10  22  36  62  95 117 162 196 245 308 357
#     4  10  22  40  61  87 120 162 205 244 296 360
#     4  11  23  42  63  86 118 165 211 245 289 358
#     4   9  19  36  61  92 119 156 198 252 311 349
#     4   9  20  35  59  91 128 152 196 252 304 365
#     4  10  22  40  65  88 120 161 204 248 300 364
#     4  11  22  41  59  90 125 162 198 247 304 353
#
# _framework density 23.270318
#
# number of rings (size 3 to 8) (size 9 to 14) (size 15 to 20)
#    0.000    1.750    2.500    1.500    8.750    0.500 
#    0.000   13.125    0.000    0.000    0.000    0.000 
#    0.000    0.000    0.000    0.000    0.000    0.000 
#
# Total GULP energy -89404.136609 kJ/mol
# GULP energy per Si atom -5587.758538 kJ/mol
# Density = 2.321735 g / cm^3
# Si number density = 23.270318 Si / 1000 Ang^3
#
#
#
# Elastic Constant Matrix: (Units=GPa)
#
#
# Indices 1 2 3 4 5 6 
#
# 1 79.9635 36.3869 11.5633 1.1464 -13.2715 12.6670
# 2 36.3869 142.6270 32.6303 0.9543 -11.5908 7.2307
# 3 11.5633 32.6303 86.0248 -0.3490 -3.6869 13.1567
# 4 1.1464 0.9543 -0.3490 34.5500 2.9609 3.8946
# 5 -13.2715 -11.5908 -3.6869 2.9609 39.9076 -5.3413
# 6 12.6670 7.2307 13.1567 3.8946 -5.3413 22.9454
#
#
#
# Elastic Compliance Matrix: (Units=1/GPa)
#
#
# Indices 1 2 3 4 5 6 
#
# 1 0.015689 -0.003476 0.000431 0.000093 0.003296 -0.007062
# 2 -0.003476 0.008613 -0.002939 -0.000403 0.001272 0.001254
# 3 0.000431 -0.002939 0.013817 0.001102 -0.000525 -0.007544
# 4 0.000093 -0.000403 0.001102 0.029940 -0.003055 -0.006350
# 5 0.003296 0.001272 -0.000525 -0.003055 0.027367 0.004970
# 6 -0.007062 0.001254 -0.007544 -0.006350 0.004970 0.053645
#
#
# Mechanical properties :
#
#
# Convention : Reuss Voigt Hill
#
# Bulk Modulus (GPa) = 38.23760 52.19738 45.21749
# Shear Modulus (GPa) = 29.45403 34.68290 32.06846
#
# Velocity S-wave (km/s) = 3.56157 3.86480 3.71628
# Velocity P-wave (km/s) = 5.77760 6.51116 6.15532
#
# Compressibility (1/GPa) = 0.02615227
#
# Stress axis : x y z
#
# Youngs Moduli (GPa) = 63.73703 116.10494 72.37466
#
# Poissons Ratio (x) = 0.40360 -0.03121
# Poissons Ratio (y) = 0.22156 0.21269
# Poissons Ratio (z) = -0.02749 0.34120
#
# Static dielectric constant tensor:
#      x y z
#    x 1.860380 -0.005000 0.044580 
#    y -0.005000 1.852310 0.018770 
#    z 0.044580 0.018770 1.948810 
# 
# From -- ./inp_files/200291.got.cif
#   From: 2010.05.17/outbox.cif.g08.bks.cpg/sg2_101_cif.got.tgz:200291.got - 2010.06.03 11:33:40.
