data_PCOD9020933
_publ_section_title
;
Structure prediction by ZEFSAII (Michael W. Deem and Ramdas Pophale) SiO2 
 PCOD9020933
Probable space group: P -1
;
_chemical_formula_sum "Si O2"
_cell_formula_units_Z 12
_cell_length_a 14.227970
_cell_length_b 8.799621
_cell_length_c 13.762531
_cell_angle_alpha 73.320681
_cell_angle_beta 159.456157
_cell_angle_gamma 115.485719
_cell_volume 507.981025
_symmetry_space_group_name_H-M "P -1"
_symmetry_group_IT_number 2
_symmetry_cell_setting 'triclinic'
loop_
_space_group_symop_operation_xyz
x,y,z
-x,-y,-z
loop_
_atom_site_type_symbol
_atom_site_label
_atom_site_fract_x
_atom_site_fract_y
_atom_site_fract_z
Si Si1 0.326630 0.250270 0.357427
Si Si2 0.314234 0.060616 0.738182
Si Si3 0.378193 0.433948 0.548864
Si Si4 0.842484 0.460214 0.132498
Si Si5 0.717581 0.975628 0.829259
Si Si6 0.902283 0.148269 0.637360
O O1 0.371748 0.266860 0.514278
O O2 0.590380 0.430601 0.531607
O O3 0.319712 0.107772 0.298503
O O4 0.961235 0.187807 0.016310
O O5 0.212334 0.955901 0.556334
O O6 0.541669 0.275594 0.905754
O O7 0.000000 0.000000 0.500000
O O8 0.500000 0.000000 0.000000
O O9 0.103662 0.412847 0.356223
O O10 0.703583 0.525965 0.899001
O O11 0.970435 0.634696 0.294179
O O12 0.392290 0.919596 0.567737
O O13 0.865171 0.895994 0.067085
#
# Coordination Sequence:
#
# PCOD9020933 Si02
#       6
#     2   2   2   2   2   2
#     4  10  22  37  62  92 138 174 224 251 290 362
#     4  12  28  47  72  98 120 158 210 269 336 398
#     4  11  23  39  61  97 131 178 212 257 302 361
#     4  12  24  45  67  94 131 166 210 262 324 375
#     4  11  23  39  61  97 131 178 212 257 302 361
#     4  12  24  45  67  94 131 166 210 262 324 375
#
# _framework density 23.622931000000001
#
# number of rings (size 3 to 8) (size 9 to 14) (size 15 to 20)
#    0.000    0.667    3.333    4.000    0.000    9.333 
#    0.000    0.000    0.000    0.000    0.000    0.000 
#    0.000    0.000    0.000    0.000    0.000    0.000 
#
# Total GULP energy -66916.333417 kJ/mol
# GULP energy per Si atom -5576.361118 kJ/mol
# Density = 2.356916 g / cm^3
# Si number density = 23.622931 Si / 1000 Ang^3
#
#
#
# Elastic Constant Matrix: (Units=GPa)
#
#
# Indices 1 2 3 4 5 6 
#
# 1 115.6446 59.5838 50.0661 9.0630 -11.0277 -7.1931
# 2 59.5838 119.4680 53.1818 25.7824 -4.9618 -1.3936
# 3 50.0661 53.1818 112.4331 -6.1478 2.5082 -11.9319
# 4 9.0630 25.7824 -6.1478 63.7589 0.2702 -1.1390
# 5 -11.0277 -4.9618 2.5082 0.2702 48.5375 3.9205
# 6 -7.1931 -1.3936 -11.9319 -1.1390 3.9205 21.6743
#
#
#
# Elastic Compliance Matrix: (Units=1/GPa)
#
#
# Indices 1 2 3 4 5 6 
#
# 1 0.012931 -0.004768 -0.003395 -0.000218 0.002494 0.001653
# 2 -0.004768 0.014427 -0.005481 -0.005763 0.001043 -0.004164
# 3 -0.003395 -0.005481 0.014023 0.004186 -0.002640 0.006938
# 4 -0.000218 -0.005763 0.004186 0.018509 -0.001205 0.003052
# 5 0.002494 0.001043 -0.002640 -0.001205 0.021788 -0.004563
# 6 0.001653 -0.004164 0.006938 0.003052 -0.004563 0.051224
#
#
# Mechanical properties :
#
#
# Convention : Reuss Voigt Hill
#
# Bulk Modulus (GPa) = 70.95987 74.80101 72.88044
# Shear Modulus (GPa) = 30.32365 39.10841 34.71603
#
# Velocity S-wave (km/s) = 3.58670 4.07323 3.83768
# Velocity P-wave (km/s) = 6.87432 7.33859 7.11025
#
# Compressibility (1/GPa) = 0.01409247
#
# Stress axis : x y z
#
# Youngs Moduli (GPa) = 77.33067 69.31418 71.31285
#
# Poissons Ratio (x) = 0.33050 0.24211
# Poissons Ratio (y) = 0.36872 0.39088
# Poissons Ratio (z) = 0.26254 0.37992
#
# Static dielectric constant tensor:
#      x y z
#    x 1.900480 0.049910 -0.030290 
#    y 0.049910 2.241110 0.069370 
#    z -0.030290 0.069370 1.958600 
# 
# From -- ./inp_files/313007.got.cif
#   From: 2010.05.17/outbox.cif.g08.bks.cpg/sg2_157_cif.got.tgz:313007.got - 2010.06.03 11:33:40.
