data_PCOD9020768
_publ_section_title
;
Structure prediction by ZEFSAII (Michael W. Deem and Ramdas Pophale) SiO2 
 PCOD9020768
Probable space group: P -1
;
_chemical_formula_sum "Si O2"
_cell_formula_units_Z 12
_cell_length_a 12.654944
_cell_length_b 7.056896
_cell_length_c 16.761060
_cell_angle_alpha 115.488823
_cell_angle_beta 23.068223
_cell_angle_gamma 123.643696
_cell_volume 473.580365
_symmetry_space_group_name_H-M "P -1"
_symmetry_group_IT_number 2
_symmetry_cell_setting 'triclinic'
loop_
_space_group_symop_operation_xyz
x,y,z
-x,-y,-z
loop_
_atom_site_type_symbol
_atom_site_label
_atom_site_fract_x
_atom_site_fract_y
_atom_site_fract_z
Si Si1 0.616684 0.891788 0.200256
Si Si2 0.599206 0.576667 0.642394
Si Si3 0.228814 0.634194 0.777980
Si Si4 0.889461 0.772283 0.316844
Si Si5 0.393800 0.240982 0.992308
Si Si6 0.080342 0.756459 0.452863
O O1 0.839254 0.143950 0.125994
O O2 0.493545 0.684978 0.311571
O O3 0.318614 0.924740 0.382454
O O4 0.709817 0.804123 0.037816
O O5 0.314193 0.579376 0.797034
O O6 0.835873 0.660484 0.421034
O O7 0.772097 0.739536 0.627910
O O8 0.550987 0.735505 0.523032
O O9 0.030596 0.395352 0.826424
O O10 0.138489 0.037428 0.183119
O O11 0.500000 0.500000 0.000000
O O12 0.695420 0.209148 0.769808
O O13 0.000000 0.500000 0.500000
#
# Coordination Sequence:
#
# PCOD9020768 Si02
#       6
#     2   2   2   2   2   2
#     4   9  20  37  60  85 110 161 185 226 300 337
#     4   9  18  37  62  84 113 152 196 227 284 351
#     4   9  20  39  61  83 121 150 191 232 283 350
#     4   9  21  38  58  87 119 148 190 243 279 330
#     4  10  22  37  57  87 121 146 189 252 280 326
#     4   8  18  34  56  83 109 149 190 223 290 336
#
# _framework density 25.338889999999999
#
# number of rings (size 3 to 8) (size 9 to 14) (size 15 to 20)
#    2.000    1.000    0.000    0.000    4.667    2.667 
#    3.000    0.833    0.000    0.000    0.000    0.000 
#    0.000    0.000    0.000    0.000    0.000    0.000 
#
# Total GULP energy -66866.674796 kJ/mol
# GULP energy per Si atom -5572.222900 kJ/mol
# Density = 2.528122 g / cm^3
# Si number density = 25.338890 Si / 1000 Ang^3
#
#
#
# Elastic Constant Matrix: (Units=GPa)
#
#
# Indices 1 2 3 4 5 6 
#
# 1 112.5072 34.4524 41.8254 -12.5442 12.8159 -4.6926
# 2 34.4524 199.3189 44.9605 -30.0791 24.2905 6.7490
# 3 41.8254 44.9605 118.6531 -17.2703 21.2258 0.4813
# 4 -12.5442 -30.0791 -17.2703 43.5506 1.2166 0.0041
# 5 12.8159 24.2905 21.2258 1.2166 45.6398 -6.3641
# 6 -4.6926 6.7490 0.4813 0.0041 -6.3641 26.3678
#
#
#
# Elastic Compliance Matrix: (Units=1/GPa)
#
#
# Indices 1 2 3 4 5 6 
#
# 1 0.010629 -0.000926 -0.003080 0.001223 -0.000815 0.001988
# 2 -0.000926 0.006461 -0.000973 0.003899 -0.003188 -0.002571
# 3 -0.003080 -0.000973 0.011037 0.002930 -0.004033 -0.001474
# 4 0.001223 0.003899 0.002930 0.027303 -0.004787 -0.001993
# 5 -0.000815 -0.003188 -0.004033 -0.004787 0.026847 0.007225
# 6 0.001988 -0.002571 -0.001474 -0.001993 0.007225 0.040708
#
#
# Mechanical properties :
#
#
# Convention : Reuss Voigt Hill
#
# Bulk Modulus (GPa) = 55.04434 74.77287 64.90860
# Shear Modulus (GPa) = 35.97153 43.72771 39.84962
#
# Velocity S-wave (km/s) = 3.77187 4.15868 3.96999
# Velocity P-wave (km/s) = 6.38277 7.25484 6.83273
#
# Compressibility (1/GPa) = 0.01816717
#
# Stress axis : x y z
#
# Youngs Moduli (GPa) = 94.08184 154.78324 90.60807
#
# Poissons Ratio (x) = 0.14331 0.27909
# Poissons Ratio (y) = 0.08711 0.08821
# Poissons Ratio (z) = 0.28979 0.15068
#
# Static dielectric constant tensor:
#      x y z
#    x 2.065910 0.053970 -0.086120 
#    y 0.053970 2.116890 -0.006680 
#    z -0.086120 -0.006680 2.108450 
# 
# From -- ./inp_files/572417.got.cif
#   From: 2010.05.17/outbox.cif.g08.bks.cpg/sg2_287_cif.got.tgz:572417.got - 2010.06.03 11:33:40.
