data_PCOD9020262
_publ_section_title
;
Structure prediction by ZEFSAII (Michael W. Deem and Ramdas Pophale) SiO2 
 PCOD9020262
Probable space group: P -1
;
_chemical_formula_sum "Si O2"
_cell_formula_units_Z 10
_cell_length_a 14.225822
_cell_length_b 14.401112
_cell_length_c 9.029758
_cell_angle_alpha 130.412526
_cell_angle_beta 31.504950
_cell_angle_gamma 152.281733
_cell_volume 404.207201
_symmetry_space_group_name_H-M "P -1"
_symmetry_group_IT_number 2
_symmetry_cell_setting 'triclinic'
loop_
_space_group_symop_operation_xyz
x,y,z
-x,-y,-z
loop_
_atom_site_type_symbol
_atom_site_label
_atom_site_fract_x
_atom_site_fract_y
_atom_site_fract_z
Si Si1 0.731839 0.742600 0.498668
Si Si2 0.769195 0.047427 0.180802
Si Si3 0.452728 0.477853 0.864837
Si Si4 0.705321 0.366160 0.427518
Si Si5 0.594468 0.194299 0.091862
O O1 0.500000 0.500000 0.500000
O O2 0.647680 0.690349 0.731551
O O3 0.648847 0.831550 0.644113
O O4 0.078170 0.895984 0.125387
O O5 0.500000 0.000000 0.500000
O O6 0.575117 0.822858 0.274917
O O7 0.074810 0.257020 0.093073
O O8 0.621542 0.448293 0.555934
O O9 0.500000 0.500000 0.000000
O O10 0.684663 0.258747 0.211108
O O11 0.074447 0.584957 0.215290
O O12 0.500000 0.000000 0.000000
#
# Coordination Sequence:
#
# PCOD9020262 Si02
#       5
#     2   2   2   2   2
#     4  10  21  48  77 106 157 206 257 317 388 466
#     4  11  24  45  79 109 152 209 261 319 392 457
#     4  11  25  46  78 115 156 203 262 323 393 464
#     4  11  24  45  73 110 160 200 261 328 386 460
#     4  11  25  45  79 113 155 210 262 318 394 470
#
# _framework density 24.739785999999999
#
# number of rings (size 3 to 8) (size 9 to 14) (size 15 to 20)
#    0.000    1.200    4.000    3.000    5.600    0.000 
#    3.600    5.000    4.400    0.000    0.000    0.000 
#    0.000    0.000    0.000    0.000    0.000    0.000 
#
# Total GULP energy -55915.600681 kJ/mol
# GULP energy per Si atom -5591.560068 kJ/mol
# Density = 2.468348 g / cm^3
# Si number density = 24.739786 Si / 1000 Ang^3
#
#
#
# Elastic Constant Matrix: (Units=GPa)
#
#
# Indices 1 2 3 4 5 6 
#
# 1 96.6079 31.6535 56.0776 3.7379 2.8653 -7.5410
# 2 31.6535 137.9630 59.6952 14.9405 3.1891 -0.5504
# 3 56.0776 59.6952 161.0595 -21.3111 -9.5163 1.3802
# 4 3.7379 14.9405 -21.3111 54.8362 -10.3336 -2.1014
# 5 2.8653 3.1891 -9.5163 -10.3336 67.0630 0.2203
# 6 -7.5410 -0.5504 1.3802 -2.1014 0.2203 40.8932
#
#
#
# Elastic Compliance Matrix: (Units=1/GPa)
#
#
# Indices 1 2 3 4 5 6 
#
# 1 0.013904 -0.000581 -0.005153 -0.003027 -0.001773 0.002584
# 2 -0.000581 0.009674 -0.004080 -0.004506 -0.001708 -0.000062
# 3 -0.005153 -0.004080 0.010490 0.006033 0.002836 -0.001064
# 4 -0.003027 -0.004506 0.006033 0.022919 0.004730 0.000330
# 5 -0.001773 -0.001708 0.002836 0.004730 0.016201 -0.000290
# 6 0.002584 -0.000062 -0.001064 0.000330 -0.000290 0.024984
#
#
# Mechanical properties :
#
#
# Convention : Reuss Voigt Hill
#
# Bulk Modulus (GPa) = 69.25180 76.72035 72.98607
# Shear Modulus (GPa) = 40.77831 49.10545 44.94188
#
# Velocity S-wave (km/s) = 4.06432 4.46003 4.26676
# Velocity P-wave (km/s) = 7.07656 7.58951 7.33752
#
# Compressibility (1/GPa) = 0.01444006
#
# Stress axis : x y z
#
# Youngs Moduli (GPa) = 71.92073 103.36731 95.32649
#
# Poissons Ratio (x) = 0.06009 0.49123
# Poissons Ratio (y) = 0.04181 0.38892
# Poissons Ratio (z) = 0.37062 0.42173
#
# Static dielectric constant tensor:
#      x y z
#    x 2.085340 0.038770 0.042370 
#    y 0.038770 2.130450 -0.035350 
#    z 0.042370 -0.035350 2.002150 
# 
# From -- ./inp_files/296621.got.cif
#   From: 2010.05.17/outbox.cif.g08.bks.cpg/sg2_149_cif.got.tgz:296621.got - 2010.06.03 11:33:40.
