data_PCOD9020788
_publ_section_title
;
Structure prediction by ZEFSAII (Michael W. Deem and Ramdas Pophale) SiO2 
 PCOD9020788
Probable space group: P -1
;
_chemical_formula_sum "Si O2"
_cell_formula_units_Z 12
_cell_length_a 6.694905
_cell_length_b 6.909376
_cell_length_c 13.274534
_cell_angle_alpha 70.960928
_cell_angle_beta 99.341387
_cell_angle_gamma 118.104855
_cell_volume 511.986579
_symmetry_space_group_name_H-M "P -1"
_symmetry_group_IT_number 2
_symmetry_cell_setting 'triclinic'
loop_
_space_group_symop_operation_xyz
x,y,z
-x,-y,-z
loop_
_atom_site_type_symbol
_atom_site_label
_atom_site_fract_x
_atom_site_fract_y
_atom_site_fract_z
Si Si1 0.178803 0.892295 0.596041
Si Si2 0.836890 0.648799 0.108708
Si Si3 0.238971 0.928100 0.980999
Si Si4 0.675933 0.653536 0.572437
Si Si5 0.964973 0.965657 0.238473
Si Si6 0.482270 0.279811 0.252534
O O1 0.355490 0.810897 0.665861
O O2 0.933873 0.686424 0.581641
O O3 0.122130 0.024802 0.659842
O O4 0.283626 0.084180 0.486418
O O5 0.616149 0.413931 0.141475
O O6 0.072949 0.701065 0.066657
O O7 0.887497 0.725119 0.217162
O O8 0.782170 0.844692 0.021860
O O9 0.142273 0.906357 0.863699
O O10 0.500000 0.000000 0.000000
O O11 0.500000 0.500000 0.500000
O O12 0.577771 0.579700 0.689215
O O13 0.235049 0.087523 0.236814
#
# Coordination Sequence:
#
# PCOD9020788 Si02
#       6
#     2   2   2   2   2   2
#     4  10  22  37  58  88 117 149 190 234 286 335
#     4   9  21  38  56  86 114 150 196 233 280 343
#     4   9  20  39  61  81 116 155 191 236 285 335
#     4  10  22  40  58  85 117 151 191 232 280 348
#     4   9  21  37  58  85 116 151 190 239 276 340
#     4  11  22  37  60  88 116 149 193 236 287 337
#
# _framework density 23.438115
#
# number of rings (size 3 to 8) (size 9 to 14) (size 15 to 20)
#    1.000    1.333    0.000    1.500    2.333    5.333 
#    0.000    1.667    0.000    0.000    0.000    0.000 
#    0.000    0.000    0.000    0.000    0.000    0.000 
#
# Total GULP energy -66911.718618 kJ/mol
# GULP energy per Si atom -5575.976552 kJ/mol
# Density = 2.338477 g / cm^3
# Si number density = 23.438115 Si / 1000 Ang^3
#
#
#
# Elastic Constant Matrix: (Units=GPa)
#
#
# Indices 1 2 3 4 5 6 
#
# 1 109.5940 37.6932 19.0545 -12.4904 14.5412 49.5910
# 2 37.6932 75.4836 18.1571 4.9465 2.5653 38.7972
# 3 19.0545 18.1571 78.6803 -8.6982 -7.3464 21.3467
# 4 -12.4904 4.9465 -8.6982 47.7708 13.0051 -6.4522
# 5 14.5412 2.5653 -7.3464 13.0051 37.5623 3.7135
# 6 49.5910 38.7972 21.3467 -6.4522 3.7135 41.1378
#
#
#
# Elastic Compliance Matrix: (Units=1/GPa)
#
#
# Indices 1 2 3 4 5 6 
#
# 1 0.022806 0.004249 0.001706 0.003499 -0.006911 -0.031212
# 2 0.004249 0.028777 0.001036 -0.006929 0.002363 -0.034101
# 3 0.001706 0.001036 0.015483 0.000788 0.003134 -0.011228
# 4 0.003499 -0.006929 0.000788 0.026548 -0.010614 0.007029
# 5 -0.006911 0.002363 0.003134 -0.010614 0.033445 -0.000207
# 6 -0.031212 -0.034101 -0.011228 0.007029 -0.000207 0.101042
#
#
# Mechanical properties :
#
#
# Convention : Reuss Voigt Hill
#
# Bulk Modulus (GPa) = 12.33808 45.95195 29.14502
# Shear Modulus (GPa) = 20.73538 37.88439 29.30989
#
# Velocity S-wave (km/s) = 2.97759 4.02476 3.54011
# Velocity P-wave (km/s) = 4.13485 6.42234 5.40108
#
# Compressibility (1/GPa) = 0.08104986
#
# Stress axis : x y z
#
# Youngs Moduli (GPa) = 43.84906 34.74939 64.58582
#
# Poissons Ratio (x) = -0.14767 -0.11019
# Poissons Ratio (y) = -0.18634 -0.06693
# Poissons Ratio (z) = -0.07481 -0.03601
#
# Static dielectric constant tensor:
#      x y z
#    x 1.927220 -0.000980 -0.032480 
#    y -0.000980 1.961110 0.001630 
#    z -0.032480 0.001630 1.901500 
# 
# From -- ./inp_files/7145.got.cif
#   From: 2010.05.17/outbox.cif.g08.bks.cpg/sg2_4_cif.got.tgz:7145.got - 2010.06.03 11:33:40.
