data_PCOD9020397
_publ_section_title
;
Structure prediction by ZEFSAII (Michael W. Deem and Ramdas Pophale) SiO2 
 PCOD9020397
Probable space group: P -1
;
_chemical_formula_sum "Si O2"
_cell_formula_units_Z 14
_cell_length_a 14.355812
_cell_length_b 13.808662
_cell_length_c 12.721221
_cell_angle_alpha 65.161908
_cell_angle_beta 124.442497
_cell_angle_gamma 159.550149
_cell_volume 671.713218
_symmetry_space_group_name_H-M "P -1"
_symmetry_group_IT_number 2
_symmetry_cell_setting 'triclinic'
loop_
_space_group_symop_operation_xyz
x,y,z
-x,-y,-z
loop_
_atom_site_type_symbol
_atom_site_label
_atom_site_fract_x
_atom_site_fract_y
_atom_site_fract_z
Si Si1 0.432453 0.490540 0.753753
Si Si2 0.466317 0.299666 0.954574
Si Si3 0.192076 0.991801 0.133561
Si Si4 0.901528 0.192578 0.477340
Si Si5 0.200823 0.977517 0.731608
Si Si6 0.459464 0.838232 0.549265
Si Si7 0.563789 0.480364 0.645305
O O1 0.318985 0.286298 0.839136
O O2 0.671348 0.776302 0.839950
O O3 0.619959 0.602547 0.726343
O O4 0.150387 0.316225 0.607932
O O5 0.452022 0.213905 0.879199
O O6 0.294499 0.085441 0.035218
O O7 0.819528 0.641734 0.060225
O O8 0.358870 0.050645 0.285572
O O9 0.104170 0.479195 0.492111
O O10 0.789194 0.091414 0.330361
O O11 0.622506 0.938352 0.500444
O O12 0.260926 0.142037 0.634268
O O13 0.864248 0.675438 0.713353
O O14 0.500000 0.000000 0.500000
O O15 0.500000 0.500000 0.500000
#
# Coordination Sequence:
#
# PCOD9020397 Si02
#       7
#     2   2   2   2   2   2   2
#     4  10  22  35  59  89 128 166 203 237 285 346
#     4  11  23  37  57  87 132 169 191 229 283 368
#     4  11  23  40  58  86 119 161 206 243 294 362
#     4  11  23  39  65  93 120 153 205 254 299 356
#     4  11  23  37  56  87 126 165 204 237 291 345
#     4  11  25  45  69  90 111 147 201 272 323 346
#     4  11  21  33  52  83 128 166 202 238 277 334
#
# _framework density 20.842227000000001
#
# number of rings (size 3 to 8) (size 9 to 14) (size 15 to 20)
#    0.000    1.143    1.429    6.000    4.000    4.571 
#    0.000    0.000    0.000    5.143    0.000    0.000 
#    0.000    0.000    0.000    0.000    0.000    0.000 
#
# Total GULP energy -78194.099380 kJ/mol
# GULP energy per Si atom -5585.292813 kJ/mol
# Density = 2.079479 g / cm^3
# Si number density = 20.842227 Si / 1000 Ang^3
#
#
#
# Elastic Constant Matrix: (Units=GPa)
#
#
# Indices 1 2 3 4 5 6 
#
# 1 47.4633 5.8978 34.1258 -12.5960 -9.7798 -5.8520
# 2 5.8978 71.7666 7.4000 -11.2669 8.5636 1.4641
# 3 34.1258 7.4000 61.0512 -13.3271 -18.7640 -14.1822
# 4 -12.5960 -11.2669 -13.3271 40.4220 -1.4709 -6.8376
# 5 -9.7798 8.5636 -18.7640 -1.4709 19.9405 -4.3355
# 6 -5.8520 1.4641 -14.1822 -6.8376 -4.3355 32.5586
#
#
#
# Elastic Compliance Matrix: (Units=1/GPa)
#
#
# Indices 1 2 3 4 5 6 
#
# 1 0.036157 -0.000123 -0.019717 0.004498 -0.000704 -0.001233
# 2 -0.000123 0.017082 -0.009002 -0.000070 -0.017404 -0.007044
# 3 -0.019717 -0.009002 0.057820 0.018155 0.057223 0.033479
# 4 0.004498 -0.000070 0.018155 0.036427 0.026328 0.019876
# 5 -0.000704 -0.017404 0.057223 0.026328 0.123404 0.047543
# 6 -0.001233 -0.007044 0.033479 0.019876 0.047543 0.055897
#
#
# Mechanical properties :
#
#
# Convention : Reuss Voigt Hill
#
# Bulk Modulus (GPa) = 18.73570 30.56980 24.65275
# Shear Modulus (GPa) = 12.42971 27.44137 19.93554
#
# Velocity S-wave (km/s) = 2.44472 3.63247 3.09608
# Velocity P-wave (km/s) = 4.12040 5.68262 4.96336
#
# Compressibility (1/GPa) = 0.05337404
#
# Stress axis : x y z
#
# Youngs Moduli (GPa) = 27.65720 58.54147 17.29516
#
# Poissons Ratio (x) = 0.00721 0.34100
# Poissons Ratio (y) = 0.00340 0.15570
# Poissons Ratio (z) = 0.54531 0.52701
#
# Static dielectric constant tensor:
#      x y z
#    x 1.772120 0.025360 -0.048020 
#    y 0.025360 1.845450 -0.069240 
#    z -0.048020 -0.069240 1.845930 
# 
# From -- ./inp_files/454769.got.cif
#   From: 2010.05.17/outbox.cif.g08.bks.cpg/sg2_228_cif.got.tgz:454769.got - 2010.06.03 11:33:40.
