data_PCOD9020944
_publ_section_title
;
Structure prediction by ZEFSAII (Michael W. Deem and Ramdas Pophale) SiO2 
 PCOD9020944
Probable space group: P -1
;
_chemical_formula_sum "Si O2"
_cell_formula_units_Z 16
_cell_length_a 10.889989
_cell_length_b 7.893936
_cell_length_c 13.261909
_cell_angle_alpha 47.797026
_cell_angle_beta 73.780255
_cell_angle_gamma 104.989373
_cell_volume 631.435441
_symmetry_space_group_name_H-M "P -1"
_symmetry_group_IT_number 2
_symmetry_cell_setting 'triclinic'
loop_
_space_group_symop_operation_xyz
x,y,z
-x,-y,-z
loop_
_atom_site_type_symbol
_atom_site_label
_atom_site_fract_x
_atom_site_fract_y
_atom_site_fract_z
Si Si1 0.237428 0.260819 0.626967
Si Si2 0.716741 0.187934 0.163931
Si Si3 0.356900 0.506816 0.705279
Si Si4 0.110877 0.444517 0.433664
Si Si5 0.393121 0.022455 0.409696
Si Si6 0.133901 0.178495 0.064589
Si Si7 0.205992 0.144384 0.272583
Si Si8 0.671819 0.234953 0.925745
O O1 0.362372 0.426590 0.623872
O O2 0.251649 0.473492 0.455004
O O3 0.241212 0.995793 0.712554
O O4 0.054815 0.102989 0.777591
O O5 0.545181 0.094514 0.282008
O O6 0.847024 0.533596 0.021933
O O7 0.698010 0.138092 0.066498
O O8 0.527547 0.696100 0.649577
O O9 0.221047 0.244807 0.912052
O O10 0.320951 0.737220 0.606395
O O11 0.185829 0.644746 0.237898
O O12 0.000000 0.500000 0.500000
O O13 0.990797 0.094198 0.575792
O O14 0.268202 0.991996 0.375074
O O15 0.233188 0.169235 0.136299
O O16 0.297051 0.465587 0.168154
O O17 0.500000 0.000000 0.000000
#
# Coordination Sequence:
#
# PCOD9020944 Si02
#       8
#     2   2   2   2   2   2   2   2
#     4  11  23  41  67  95 136 177 226 283 348 404
#     4  10  24  42  64  97 141 175 233 281 343 408
#     4  10  22  37  62  95 131 169 226 279 338 404
#     4  11  26  48  73 105 140 184 235 288 350 417
#     4  10  23  43  64  98 135 184 223 282 341 411
#     4   9  21  42  64  96 125 178 224 286 339 409
#     4  10  23  46  74  95 140 186 234 283 350 413
#     4  11  27  45  70 107 140 185 234 290 346 417
#
# _framework density 25.339089999999999
#
# number of rings (size 3 to 8) (size 9 to 14) (size 15 to 20)
#    0.000    1.750    0.000    1.875    5.250   12.000 
#    2.250    2.500    0.000    0.000    0.000    0.000 
#    0.000    0.000    0.000    0.000    0.000    0.000 
#
# Total GULP energy -89522.155385 kJ/mol
# GULP energy per Si atom -5595.134712 kJ/mol
# Density = 2.528142 g / cm^3
# Si number density = 25.339090 Si / 1000 Ang^3
#
#
#
# Elastic Constant Matrix: (Units=GPa)
#
#
# Indices 1 2 3 4 5 6 
#
# 1 49.9948 24.3815 23.6471 26.0430 16.8196 11.9767
# 2 24.3815 110.5909 29.0323 7.7778 -1.3722 0.0053
# 3 23.6471 29.0323 119.1522 28.0437 -4.0120 6.6330
# 4 26.0430 7.7778 28.0437 52.0508 3.4752 0.9698
# 5 16.8196 -1.3722 -4.0120 3.4752 39.4188 0.9242
# 6 11.9767 0.0053 6.6330 0.9698 0.9242 15.9724
#
#
#
# Elastic Compliance Matrix: (Units=1/GPa)
#
#
# Indices 1 2 3 4 5 6 
#
# 1 0.052295 -0.009845 -0.001495 -0.021878 -0.020034 -0.036101
# 2 -0.009845 0.011531 -0.002082 0.003922 0.003862 0.007781
# 3 -0.001495 -0.002082 0.010549 -0.004708 0.002127 -0.003096
# 4 -0.021878 0.003922 -0.004708 0.031419 0.005845 0.016113
# 5 -0.020034 0.003862 0.002127 0.005845 0.033475 0.011845
# 6 -0.036101 0.007781 -0.003096 0.016113 0.011845 0.089297
#
#
# Mechanical properties :
#
#
# Convention : Reuss Voigt Hill
#
# Bulk Modulus (GPa) = 21.03895 48.20663 34.62279
# Shear Modulus (GPa) = 18.43291 35.00021 26.71656
#
# Velocity S-wave (km/s) = 2.70005 3.72058 3.25062
# Velocity P-wave (km/s) = 4.24751 6.12559 5.27087
#
# Compressibility (1/GPa) = 0.04753089
#
# Stress axis : x y z
#
# Youngs Moduli (GPa) = 19.12211 86.72221 94.79733
#
# Poissons Ratio (x) = 0.85377 0.14177
# Poissons Ratio (y) = 0.18826 0.19736
# Poissons Ratio (z) = 0.02860 0.18055
#
# Static dielectric constant tensor:
#      x y z
#    x 1.950660 -0.030950 0.013430 
#    y -0.030950 2.107950 -0.020510 
#    z 0.013430 -0.020510 2.005230 
# 
# From -- ./inp_files/418930.got.cif
#   From: 2010.05.17/outbox.cif.g08.bks.cpg/sg2_210_cif.got.tgz:418930.got - 2010.06.03 11:33:40.
