data_PCOD9020813
_publ_section_title
;
Structure prediction by ZEFSAII (Michael W. Deem and Ramdas Pophale) SiO2 
 PCOD9020813
Probable space group: P -1
;
_chemical_formula_sum "Si O2"
_cell_formula_units_Z 16
_cell_length_a 7.234457
_cell_length_b 18.602268
_cell_length_c 12.091248
_cell_angle_alpha 33.651674
_cell_angle_beta 53.860175
_cell_angle_gamma 75.719948
_cell_volume 610.156245
_symmetry_space_group_name_H-M "P -1"
_symmetry_group_IT_number 2
_symmetry_cell_setting 'triclinic'
loop_
_space_group_symop_operation_xyz
x,y,z
-x,-y,-z
loop_
_atom_site_type_symbol
_atom_site_label
_atom_site_fract_x
_atom_site_fract_y
_atom_site_fract_z
Si Si1 0.064719 0.311579 0.596249
Si Si2 0.105810 0.834081 0.753292
Si Si3 0.456356 0.627422 0.968839
Si Si4 0.996750 0.302085 0.266680
Si Si5 0.829168 0.955610 0.830718
Si Si6 0.755558 0.859176 0.382008
Si Si7 0.492620 0.250350 0.607844
Si Si8 0.377742 0.826259 0.887542
O O1 0.171521 0.474441 0.292965
O O2 0.051975 0.199985 0.648298
O O3 0.317507 0.329149 0.558678
O O4 0.800304 0.244035 0.850542
O O5 0.008277 0.711574 0.846581
O O6 0.175694 0.785930 0.905811
O O7 0.894608 0.883214 0.797776
O O8 0.394470 0.991938 0.417019
O O9 0.513329 0.725620 0.712295
O O10 0.526418 0.743141 0.898557
O O11 0.697093 0.595486 0.926225
O O12 0.803113 0.347196 0.335069
O O13 0.878322 0.121218 0.574439
O O14 0.559967 0.833276 0.149504
O O15 0.066822 0.997065 0.785652
O O16 0.643534 0.874966 0.285433
#
# Coordination Sequence:
#
# PCOD9020813 Si02
#       8
#     2   2   2   2   2   2   2   2
#     4  10  23  38  64  84 117 154 201 240 282 337
#     4  11  22  39  62  90 118 152 191 242 303 343
#     4  11  22  42  58  87 119 156 198 237 282 348
#     4  11  24  36  59  87 122 157 186 236 300 351
#     4  11  20  39  58  91 122 145 195 245 296 344
#     4   9  20  37  62  88 110 156 194 244 285 336
#     4  10  22  37  59  88 119 152 190 241 291 348
#     4  11  22  38  66  87 114 150 201 247 285 338
#
# _framework density 26.222791999999998
#
# number of rings (size 3 to 8) (size 9 to 14) (size 15 to 20)
#    0.750    0.750    3.750    2.625    3.500    0.500 
#    0.000    0.625    0.000    0.000    0.000    0.000 
#    0.000    0.000    0.000    0.000    0.000    0.000 
#
# Total GULP energy -89554.111324 kJ/mol
# GULP energy per Si atom -5597.131958 kJ/mol
# Density = 2.616311 g / cm^3
# Si number density = 26.222792 Si / 1000 Ang^3
#
#
#
# Elastic Constant Matrix: (Units=GPa)
#
#
# Indices 1 2 3 4 5 6 
#
# 1 67.1029 12.7882 1.2036 13.8428 5.5447 5.5654
# 2 12.7882 89.4642 53.9178 27.9347 -0.3131 0.2548
# 3 1.2036 53.9178 173.9898 33.0701 15.7236 0.5980
# 4 13.8428 27.9347 33.0701 48.0260 -2.4461 -0.1356
# 5 5.5447 -0.3131 15.7236 -2.4461 20.8660 11.2041
# 6 5.5654 0.2548 0.5980 -0.1356 11.2041 37.1892
#
#
#
# Elastic Compliance Matrix: (Units=1/GPa)
#
#
# Indices 1 2 3 4 5 6 
#
# 1 0.016975 -0.002013 0.002144 -0.005529 -0.006464 -0.000634
# 2 -0.002013 0.015694 -0.004133 -0.005516 0.003710 -0.000878
# 3 0.002144 -0.004133 0.008697 -0.004651 -0.008935 0.002243
# 4 -0.005529 -0.005516 -0.004651 0.029294 0.009262 -0.001743
# 5 -0.006464 0.003710 -0.008935 0.009262 0.067900 -0.019337
# 6 -0.000634 -0.000878 0.002243 -0.001743 -0.019337 0.032774
#
#
# Mechanical properties :
#
#
# Convention : Reuss Voigt Hill
#
# Bulk Modulus (GPa) = 29.97474 51.81958 40.89716
# Shear Modulus (GPa) = 26.25230 38.72606 32.48918
#
# Velocity S-wave (km/s) = 3.16749 3.84710 3.52372
# Velocity P-wave (km/s) = 4.98326 6.28790 5.67321
#
# Compressibility (1/GPa) = 0.03336143
#
# Stress axis : x y z
#
# Youngs Moduli (GPa) = 58.91046 63.71773 114.97752
#
# Poissons Ratio (x) = 0.12824 -0.24646
# Poissons Ratio (y) = 0.11857 0.47525
# Poissons Ratio (z) = -0.12628 0.26337
#
# Static dielectric constant tensor:
#      x y z
#    x 2.167890 -0.071850 -0.002740 
#    y -0.071850 2.023840 0.009080 
#    z -0.002740 0.009080 2.016920 
# 
# From -- ./inp_files/404686.got.cif
#   From: 2010.05.17/outbox.cif.g08.bks.cpg/sg2_203_cif.got.tgz:404686.got - 2010.06.03 11:33:40.
