data_PCOD9020735
_publ_section_title
;
Structure prediction by ZEFSAII (Michael W. Deem and Ramdas Pophale) SiO2 
 PCOD9020735
Probable space group: P -1
;
_chemical_formula_sum "Si O2"
_cell_formula_units_Z 14
_cell_length_a 14.827598
_cell_length_b 5.289450
_cell_length_c 11.996744
_cell_angle_alpha 103.354453
_cell_angle_beta 124.406837
_cell_angle_gamma 97.742015
_cell_volume 712.878921
_symmetry_space_group_name_H-M "P -1"
_symmetry_group_IT_number 2
_symmetry_cell_setting 'triclinic'
loop_
_space_group_symop_operation_xyz
x,y,z
-x,-y,-z
loop_
_atom_site_type_symbol
_atom_site_label
_atom_site_fract_x
_atom_site_fract_y
_atom_site_fract_z
Si Si1 0.621705 0.416393 0.182141
Si Si2 0.641132 0.850754 0.048966
Si Si3 0.097634 0.135178 0.240047
Si Si4 0.850409 0.763308 0.069219
Si Si5 0.839015 0.511706 0.472372
Si Si6 0.134664 0.602100 0.139826
Si Si7 0.021613 0.268394 0.617439
O O1 0.485241 0.332947 0.102532
O O2 0.704427 0.449828 0.349912
O O3 0.657639 0.689260 0.157018
O O4 0.636109 0.153294 0.100741
O O5 0.745701 0.863328 0.041893
O O6 0.115834 0.219035 0.391057
O O7 0.145372 0.410869 0.229761
O O8 0.158479 0.915378 0.223675
O O9 0.958416 0.996659 0.109673
O O10 0.911327 0.708868 0.218649
O O11 0.807166 0.492342 0.934877
O O12 0.891755 0.515039 0.384906
O O13 0.899596 0.315406 0.553757
O O14 0.000000 0.500000 0.000000
O O15 0.000000 0.000000 0.500000
#
# Coordination Sequence:
#
# PCOD9020735 Si02
#       7
#     2   2   2   2   2   2   2
#     4  10  22  38  54  82 115 149 184 222 274 336
#     4  10  22  37  57  81 112 149 187 225 271 328
#     4  11  23  36  54  83 112 148 182 228 278 329
#     4  11  20  37  60  80 117 145 188 232 275 331
#     4  11  22  33  56  79 121 144 180 225 286 339
#     4  10  22  37  53  80 111 147 189 224 274 324
#     4  11  21  33  50  90 113 146 177 224 288 342
#
# _framework density 19.638679
#
# number of rings (size 3 to 8) (size 9 to 14) (size 15 to 20)
#    0.000    1.429    2.857    4.286    2.000    3.429 
#    0.000    0.000    0.000    1.714    0.000    0.000 
#    0.000    1.143    0.000    0.000    0.000    0.000 
#
# Total GULP energy -78087.592578 kJ/mol
# GULP energy per Si atom -5577.685184 kJ/mol
# Density = 1.959398 g / cm^3
# Si number density = 19.638679 Si / 1000 Ang^3
#
#
#
# Elastic Constant Matrix: (Units=GPa)
#
#
# Indices 1 2 3 4 5 6 
#
# 1 78.0941 24.2194 39.2393 -4.3111 -0.8020 -22.3042
# 2 24.2194 91.7113 21.5335 -10.4845 -11.1948 -17.9524
# 3 39.2393 21.5335 78.4784 -6.1191 -2.4594 -15.0044
# 4 -4.3111 -10.4845 -6.1191 25.6270 -3.7177 -3.8067
# 5 -0.8020 -11.1948 -2.4594 -3.7177 36.2506 -1.9292
# 6 -22.3042 -17.9524 -15.0044 -3.8067 -1.9292 27.4229
#
#
#
# Elastic Compliance Matrix: (Units=1/GPa)
#
#
# Indices 1 2 3 4 5 6 
#
# 1 0.020564 -0.000724 -0.007355 0.003412 0.000761 0.012755
# 2 -0.000724 0.014983 -0.000970 0.008157 0.005926 0.010238
# 3 -0.007355 -0.000970 0.017672 0.003304 0.001267 0.003600
# 4 0.003412 0.008157 0.003304 0.047513 0.008603 0.017124
# 5 0.000761 0.005926 0.001267 0.008603 0.030856 0.008557
# 6 0.012755 0.010238 0.003600 0.017124 0.008557 0.058491
#
#
# Mechanical properties :
#
#
# Convention : Reuss Voigt Hill
#
# Bulk Modulus (GPa) = 28.47324 46.47424 37.47374
# Shear Modulus (GPa) = 22.73933 28.74619 25.74276
#
# Velocity S-wave (km/s) = 3.40646 3.83005 3.62445
# Velocity P-wave (km/s) = 5.47741 6.57838 6.05298
#
# Compressibility (1/GPa) = 0.03512070
#
# Stress axis : x y z
#
# Youngs Moduli (GPa) = 48.62822 66.74342 56.58826
#
# Poissons Ratio (x) = 0.04832 0.41620
# Poissons Ratio (y) = 0.03521 0.05488
# Poissons Ratio (z) = 0.35766 0.06473
#
# Static dielectric constant tensor:
#      x y z
#    x 1.735040 0.035010 -0.022460 
#    y 0.035010 1.810830 0.003260 
#    z -0.022460 0.003260 1.729990 
# 
# From -- ./inp_files/63719.got.cif
#   From: 2010.05.17/outbox.cif.g08.bks.cpg/sg2_32_cif.got.tgz:63719.got - 2010.06.03 11:33:40.
