data_PCOD9020310
_publ_section_title
;
Structure prediction by ZEFSAII (Michael W. Deem and Ramdas Pophale) SiO2 
 PCOD9020310
Probable space group: P -1
;
_chemical_formula_sum "Si O2"
_cell_formula_units_Z 16
_cell_length_a 11.518360
_cell_length_b 11.181169
_cell_length_c 5.086212
_cell_angle_alpha 110.055071
_cell_angle_beta 86.612934
_cell_angle_gamma 101.163508
_cell_volume 603.665194
_symmetry_space_group_name_H-M "P -1"
_symmetry_group_IT_number 2
_symmetry_cell_setting 'triclinic'
loop_
_space_group_symop_operation_xyz
x,y,z
-x,-y,-z
loop_
_atom_site_type_symbol
_atom_site_label
_atom_site_fract_x
_atom_site_fract_y
_atom_site_fract_z
Si Si1 0.141021 0.271694 0.101177
Si Si2 0.495072 0.110874 0.868809
Si Si3 0.256349 0.069396 0.603360
Si Si4 0.673355 0.352766 0.061103
Si Si5 0.658908 0.750365 0.654330
Si Si6 0.913469 0.168197 0.299660
Si Si7 0.447937 0.593432 0.374174
Si Si8 0.915724 0.321275 0.929909
O O1 0.206230 0.192990 0.826069
O O2 0.050065 0.354376 0.048180
O O3 0.248767 0.335455 0.322267
O O4 0.049306 0.167862 0.207440
O O5 0.390383 0.049619 0.637221
O O6 0.620403 0.204057 0.856241
O O7 0.430812 0.220080 0.093542
O O8 0.500000 0.000000 0.000000
O O9 0.267839 0.109650 0.329187
O O10 0.163001 0.951283 0.634377
O O11 0.610524 0.436289 0.923911
O O12 0.812778 0.401010 0.042607
O O13 0.643648 0.355998 0.376953
O O14 0.569548 0.696537 0.395176
O O15 0.920198 0.283161 0.598100
O O16 0.865975 0.201409 0.046974
O O17 0.500000 0.500000 0.500000
#
# Coordination Sequence:
#
# PCOD9020310 Si02
#       8
#     2   2   2   2   2   2   2   2
#     4   9  22  36  56  83 119 166 202 250 291 351
#     4  10  22  35  53  87 129 169 198 245 298 361
#     4  11  20  35  53  82 121 162 217 247 284 351
#     4  11  22  42  64  93 125 156 204 248 308 373
#     4  10  22  38  59  87 119 159 208 251 299 359
#     4  10  22  34  55  84 121 171 207 234 289 347
#     4  11  24  45  69  92 117 154 204 264 316 358
#     4  10  22  38  56  88 121 164 197 241 295 358
#
# _framework density 26.504757000000001
#
# number of rings (size 3 to 8) (size 9 to 14) (size 15 to 20)
#    0.750    1.000    1.250    3.000    5.250    2.500 
#    0.000    0.000    0.000    1.500    0.000    0.000 
#    0.000    0.000    0.000    0.000    0.000    0.000 
#
# Total GULP energy -89147.911491 kJ/mol
# GULP energy per Si atom -5571.744468 kJ/mol
# Density = 2.644443 g / cm^3
# Si number density = 26.504757 Si / 1000 Ang^3
#
#
#
# Elastic Constant Matrix: (Units=GPa)
#
#
# Indices 1 2 3 4 5 6 
#
# 1 178.9156 20.1501 20.2472 -13.3610 13.6441 -20.5193
# 2 20.1501 65.1102 8.0153 -23.1896 -4.2815 13.9355
# 3 20.2472 8.0153 94.8487 -18.3245 -5.1823 2.8358
# 4 -13.3610 -23.1896 -18.3245 33.0682 -0.6399 -4.5631
# 5 13.6441 -4.2815 -5.1823 -0.6399 37.8218 -17.5172
# 6 -20.5193 13.9355 2.8358 -4.5631 -17.5172 24.4830
#
#
#
# Elastic Compliance Matrix: (Units=1/GPa)
#
#
# Indices 1 2 3 4 5 6 
#
# 1 0.007181 -0.003623 -0.001257 0.000954 0.001100 0.009191
# 2 -0.003623 0.024877 0.001818 0.014576 -0.003268 -0.017028
# 3 -0.001257 0.001818 0.012249 0.007527 0.002229 -0.000509
# 4 0.000954 0.014576 0.007527 0.045596 0.004739 0.003520
# 5 0.001100 -0.003268 0.002229 0.004739 0.041334 0.032981
# 6 0.009191 -0.017028 -0.000509 0.003520 0.032981 0.082551
#
#
# Mechanical properties :
#
#
# Convention : Reuss Voigt Hill
#
# Bulk Modulus (GPa) = 26.18989 48.41108 37.30048
# Shear Modulus (GPa) = 21.49244 38.43873 29.96559
#
# Velocity S-wave (km/s) = 2.85070 3.81236 3.36605
# Velocity P-wave (km/s) = 4.55390 6.13869 5.40469
#
# Compressibility (1/GPa) = 0.03818268
#
# Stress axis : x y z
#
# Youngs Moduli (GPa) = 139.25881 40.19808 81.63821
#
# Poissons Ratio (x) = 0.14562 0.10263
# Poissons Ratio (y) = 0.50447 -0.14839
# Poissons Ratio (z) = 0.17507 -0.07307
#
# Static dielectric constant tensor:
#      x y z
#    x 2.139350 0.015220 0.042780 
#    y 0.015220 2.262050 0.039760 
#    z 0.042780 0.039760 2.078110 
# 
# From -- ./inp_files/70570.got.cif
#   From: 2010.05.17/outbox.cif.g08.bks.cpg/sg2_36_cif.got.tgz:70570.got - 2010.06.03 11:33:40.
