data_PCOD9020600
_publ_section_title
;
Structure prediction by ZEFSAII (Michael W. Deem and Ramdas Pophale) SiO2 
 PCOD9020600
Probable space group: P -1
;
_chemical_formula_sum "Si O2"
_cell_formula_units_Z 14
_cell_length_a 5.255401
_cell_length_b 9.420217
_cell_length_c 21.180465
_cell_angle_alpha 144.634483
_cell_angle_beta 102.630284
_cell_angle_gamma 96.502559
_cell_volume 507.209038
_symmetry_space_group_name_H-M "P -1"
_symmetry_group_IT_number 2
_symmetry_cell_setting 'triclinic'
loop_
_space_group_symop_operation_xyz
x,y,z
-x,-y,-z
loop_
_atom_site_type_symbol
_atom_site_label
_atom_site_fract_x
_atom_site_fract_y
_atom_site_fract_z
Si Si1 0.159350 0.316400 0.389790
Si Si2 0.339210 0.949811 0.201693
Si Si3 0.018089 0.465903 0.792735
Si Si4 0.932567 0.088801 0.950640
Si Si5 0.114199 0.399711 0.555918
Si Si6 0.546589 0.573595 0.301658
Si Si7 0.534899 0.530340 0.088458
O O1 0.500000 0.500000 0.500000
O O2 0.013530 0.251659 0.428817
O O3 0.153068 0.540356 0.420617
O O4 0.113047 0.044171 0.251520
O O5 0.205930 0.809928 0.076269
O O6 0.418160 0.752250 0.174905
O O7 0.643547 0.258094 0.318248
O O8 0.222868 0.458629 0.744275
O O9 0.149383 0.371276 0.823639
O O10 0.658868 0.309417 0.697515
O O11 0.090541 0.776174 0.936055
O O12 0.717805 0.749366 0.811860
O O13 0.283783 0.234887 0.002299
O O14 0.247841 0.285379 0.573444
O O15 0.500000 0.500000 0.000000
#
# Coordination Sequence:
#
# PCOD9020600 Si02
#       7
#     2   2   2   2   2   2   2
#     4   9  19  38  65  97 121 153 214 268 349 371
#     4  10  22  36  62  93 126 171 206 271 325 384
#     4  12  25  42  61  92 132 184 223 260 319 382
#     4  11  24  40  62  94 132 177 219 267 316 384
#     4   9  21  40  65  97 122 160 208 284 328 388
#     4  11  26  40  67  93 132 174 221 270 325 382
#     4  12  26  40  61  93 140 181 224 261 312 387
#
# _framework density 27.602029000000002
#
# number of rings (size 3 to 8) (size 9 to 14) (size 15 to 20)
#    0.000    1.429    2.857    1.286   10.000    0.000 
#    0.000    0.000    0.000    1.714    0.000    0.000 
#    0.000    0.000    0.000    0.000    0.000    0.000 
#
# Total GULP energy -78138.490862 kJ/mol
# GULP energy per Si atom -5581.320776 kJ/mol
# Density = 2.753921 g / cm^3
# Si number density = 27.602029 Si / 1000 Ang^3
#
#
#
# Elastic Constant Matrix: (Units=GPa)
#
#
# Indices 1 2 3 4 5 6 
#
# 1 123.7966 53.3891 23.5141 -31.3145 -10.0866 -19.9132
# 2 53.3891 121.2288 37.0920 -40.5988 6.9227 -24.8342
# 3 23.5141 37.0920 82.5040 -31.4398 0.6345 -9.4104
# 4 -31.3145 -40.5988 -31.4398 59.7776 -4.6783 19.3542
# 5 -10.0866 6.9227 0.6345 -4.6783 41.8078 -11.6448
# 6 -19.9132 -24.8342 -9.4104 19.3542 -11.6448 62.0255
#
#
#
# Elastic Compliance Matrix: (Units=1/GPa)
#
#
# Indices 1 2 3 4 5 6 
#
# 1 0.011090 -0.003694 -0.000211 0.002891 0.004151 0.001927
# 2 -0.003694 0.012689 -0.002707 0.004557 -0.001970 0.001692
# 3 -0.000211 -0.002707 0.015855 0.006670 0.000710 -0.000694
# 4 0.002891 0.004557 0.006670 0.026315 0.001633 -0.004140
# 5 0.004151 -0.001970 0.000710 0.001633 0.026863 0.005185
# 6 0.001927 0.001692 -0.000694 -0.004140 0.005185 0.019578
#
#
# Mechanical properties :
#
#
# Convention : Reuss Voigt Hill
#
# Bulk Modulus (GPa) = 37.86278 61.72440 49.79359
# Shear Modulus (GPa) = 37.19768 46.95780 42.07774
#
# Velocity S-wave (km/s) = 3.67501 4.12909 3.90865
# Velocity P-wave (km/s) = 5.63514 6.71888 6.20073
#
# Compressibility (1/GPa) = 0.02641116
#
# Stress axis : x y z
#
# Youngs Moduli (GPa) = 90.16986 78.80690 63.07185
#
# Poissons Ratio (x) = 0.29109 0.01328
# Poissons Ratio (y) = 0.33307 0.17075
# Poissons Ratio (z) = 0.01898 0.21335
#
# Static dielectric constant tensor:
#      x y z
#    x 3.327940 0.078150 -0.036780 
#    y 0.078150 2.320170 0.013440 
#    z -0.036780 0.013440 2.088130 
# 
# From -- ./inp_files/582677.got.cif
#   From: 2010.05.17/outbox.cif.g08.bks.cpg/sg2_292_cif.got.tgz:582677.got - 2010.06.03 11:33:40.
