data_PCOD9020787
_publ_section_title
;
Structure prediction by ZEFSAII (Michael W. Deem and Ramdas Pophale) SiO2 
 PCOD9020787
Probable space group: P -1
;
_chemical_formula_sum "Si O2"
_cell_formula_units_Z 16
_cell_length_a 17.120396
_cell_length_b 13.654949
_cell_length_c 12.280616
_cell_angle_alpha 114.306306
_cell_angle_beta 52.144672
_cell_angle_gamma 157.658704
_cell_volume 736.134250
_symmetry_space_group_name_H-M "P -1"
_symmetry_group_IT_number 2
_symmetry_cell_setting 'triclinic'
loop_
_space_group_symop_operation_xyz
x,y,z
-x,-y,-z
loop_
_atom_site_type_symbol
_atom_site_label
_atom_site_fract_x
_atom_site_fract_y
_atom_site_fract_z
Si Si1 0.774441 0.431990 0.217738
Si Si2 0.817449 0.723799 0.826808
Si Si3 0.273228 0.809824 0.692755
Si Si4 0.294897 0.692554 0.029948
Si Si5 0.237411 0.399634 0.950923
Si Si6 0.863112 0.751600 0.267541
Si Si7 0.398957 0.167190 0.784077
Si Si8 0.418181 0.226571 0.546263
O O1 0.819879 0.382423 0.239089
O O2 0.965125 0.732514 0.193853
O O3 0.483598 0.192336 0.394945
O O4 0.776306 0.391957 0.075859
O O5 0.739935 0.653246 0.988553
O O6 0.588600 0.428640 0.820091
O O7 0.898128 0.919455 0.795577
O O8 0.105676 0.949437 0.680809
O O9 0.983511 0.562350 0.780594
O O10 0.500000 0.000000 0.500000
O O11 0.395671 0.037281 0.755739
O O12 0.388654 0.666801 0.967590
O O13 0.500000 0.000000 0.000000
O O14 0.299329 0.414844 0.786231
O O15 0.913505 0.104056 0.076544
O O16 0.636058 0.536177 0.457594
O O17 0.494474 0.272098 0.624503
#
# Coordination Sequence:
#
# PCOD9020787 Si02
#       8
#     2   2   2   2   2   2   2   2
#     4   9  20  38  57  81 119 158 187 239 299 344
#     4  11  21  36  64  86 113 156 196 241 295 349
#     4  11  20  39  61  84 121 153 189 247 298 345
#     4  10  22  38  60  86 117 156 197 242 294 357
#     4   9  21  41  56  84 121 148 193 248 292 348
#     4   9  19  39  60  81 118 156 191 241 296 341
#     4  10  22  37  58  88 116 151 195 240 297 351
#     4   9  20  40  56  85 120 151 194 244 290 344
#
# _framework density 21.735164000000001
#
# number of rings (size 3 to 8) (size 9 to 14) (size 15 to 20)
#    0.750    1.500    1.250    1.125    1.750    2.000 
#    0.000    2.500    5.500    0.000    0.000    0.000 
#    0.000    0.000    0.000    0.000    0.000    0.000 
#
# Total GULP energy -89226.417162 kJ/mol
# GULP energy per Si atom -5576.651073 kJ/mol
# Density = 2.168569 g / cm^3
# Si number density = 21.735164 Si / 1000 Ang^3
#
#
#
# Elastic Constant Matrix: (Units=GPa)
#
#
# Indices 1 2 3 4 5 6 
#
# 1 88.5615 41.4528 13.5470 -4.0574 9.7510 -22.0026
# 2 41.4528 114.3551 2.3197 -3.0514 1.3590 -28.5929
# 3 13.5470 2.3197 82.1339 4.9478 8.6908 7.8231
# 4 -4.0574 -3.0514 4.9478 15.2347 -7.4580 2.5791
# 5 9.7510 1.3590 8.6908 -7.4580 34.0514 0.2320
# 6 -22.0026 -28.5929 7.8231 2.5791 0.2320 29.8682
#
#
#
# Elastic Compliance Matrix: (Units=1/GPa)
#
#
# Indices 1 2 3 4 5 6 
#
# 1 0.016126 -0.003350 -0.003182 0.001383 -0.003433 0.009414
# 2 -0.003350 0.012365 -0.000819 0.000601 0.000741 0.009526
# 3 -0.003182 -0.000819 0.014139 -0.006532 -0.004053 -0.006236
# 4 0.001383 0.000601 -0.006532 0.077818 0.018315 -0.003557
# 5 -0.003433 0.000741 -0.004053 0.018315 0.035385 -0.002614
# 6 0.009414 0.009526 -0.006236 -0.003557 -0.002614 0.051495
#
#
# Mechanical properties :
#
#
# Convention : Reuss Voigt Hill
#
# Bulk Modulus (GPa) = 35.80394 44.40995 40.10694
# Shear Modulus (GPa) = 21.61342 31.01294 26.31318
#
# Velocity S-wave (km/s) = 3.15683 3.78147 3.48318
# Velocity P-wave (km/s) = 5.45857 6.28830 5.88807
#
# Compressibility (1/GPa) = 0.02792989
#
# Stress axis : x y z
#
# Youngs Moduli (GPa) = 62.01049 80.87646 70.72413
#
# Poissons Ratio (x) = 0.27091 0.22503
# Poissons Ratio (y) = 0.20772 0.05790
# Poissons Ratio (z) = 0.19731 0.06621
#
# Static dielectric constant tensor:
#      x y z
#    x 1.850240 -0.043640 -0.013490 
#    y -0.043640 1.776910 -0.011420 
#    z -0.013490 -0.011420 1.835800 
# 
# From -- ./inp_files/465877.got.cif
#   From: 2010.05.17/outbox.cif.g08.bks.cpg/sg2_233_cif.got.tgz:465877.got - 2010.06.03 11:33:40.
