data_PCOD9020628
_publ_section_title
;
Structure prediction by ZEFSAII (Michael W. Deem and Ramdas Pophale) SiO2 
 PCOD9020628
Probable space group: P -1
;
_chemical_formula_sum "Si O2"
_cell_formula_units_Z 12
_cell_length_a 7.698577
_cell_length_b 16.265955
_cell_length_c 5.454829
_cell_angle_alpha 116.394373
_cell_angle_beta 121.012182
_cell_angle_gamma 79.013974
_cell_volume 523.750880
_symmetry_space_group_name_H-M "P -1"
_symmetry_group_IT_number 2
_symmetry_cell_setting 'triclinic'
loop_
_space_group_symop_operation_xyz
x,y,z
-x,-y,-z
loop_
_atom_site_type_symbol
_atom_site_label
_atom_site_fract_x
_atom_site_fract_y
_atom_site_fract_z
Si Si1 0.233445 0.730245 0.281168
Si Si2 0.054546 0.448558 0.221682
Si Si3 0.367489 0.224829 0.628749
Si Si4 0.806580 0.063264 0.420452
Si Si5 0.754807 0.988220 0.783241
Si Si6 0.630287 0.680423 0.739298
O O1 0.390548 0.754432 0.205038
O O2 0.146073 0.827754 0.417886
O O3 0.389934 0.692800 0.547744
O O4 0.072680 0.648965 0.001446
O O5 0.000000 0.500000 0.500000
O O6 0.288706 0.421084 0.347964
O O7 0.000000 0.500000 0.000000
O O8 0.300585 0.118628 0.432423
O O9 0.283376 0.268120 0.374632
O O10 0.304638 0.272502 0.895952
O O11 0.693850 0.041191 0.565083
O O12 0.000000 0.000000 0.500000
O O13 0.688836 0.032483 0.048800
O O14 0.000000 0.000000 0.000000
#
# Coordination Sequence:
#
# PCOD9020628 Si02
#       6
#     2   2   2   2   2   2
#     4  10  28  45  76  99 150 184 236 292 357 410
#     4  12  29  49  77 108 134 181 239 298 366 429
#     4  10  23  44  67 103 142 192 226 289 342 415
#     4  10  23  39  64 102 139 190 229 279 333 409
#     4  10  22  36  63  98 143 182 238 273 329 401
#     4  10  25  47  72 100 141 181 237 284 360 417
#
# _framework density 22.911657999999999
#
# number of rings (size 3 to 8) (size 9 to 14) (size 15 to 20)
#    1.000    0.667    0.000    2.000   14.000    2.667 
#    0.000    0.000    0.000    0.000    0.000    0.000 
#    0.000    0.000    0.000    0.000    0.000    0.000 
#
# Total GULP energy -66996.443301 kJ/mol
# GULP energy per Si atom -5583.036942 kJ/mol
# Density = 2.285951 g / cm^3
# Si number density = 22.911658 Si / 1000 Ang^3
#
#
#
# Elastic Constant Matrix: (Units=GPa)
#
#
# Indices 1 2 3 4 5 6 
#
# 1 79.3257 50.5615 60.2115 -0.0514 -12.0054 -9.2128
# 2 50.5615 121.0609 51.6275 4.3089 -9.0714 -26.4532
# 3 60.2115 51.6275 154.3663 4.3372 -46.5854 5.3569
# 4 -0.0514 4.3089 4.3372 38.7207 8.4004 -8.0698
# 5 -12.0054 -9.0714 -46.5854 8.4004 50.0968 1.2815
# 6 -9.2128 -26.4532 5.3569 -8.0698 1.2815 38.5605
#
#
#
# Elastic Compliance Matrix: (Units=1/GPa)
#
#
# Indices 1 2 3 4 5 6 
#
# 1 0.022070 -0.005347 -0.008220 0.003136 -0.003939 0.003534
# 2 -0.005347 0.013801 -0.003688 0.001340 -0.002668 0.009072
# 3 -0.008220 -0.003688 0.015186 -0.005764 0.012661 -0.008230
# 4 0.003136 0.001340 -0.005764 0.030333 -0.009686 0.009139
# 5 -0.003939 -0.002668 0.012661 -0.009686 0.032127 -0.007625
# 6 0.003534 0.009072 -0.008230 0.009139 -0.007625 0.036310
#
#
# Mechanical properties :
#
#
# Convention : Reuss Voigt Hill
#
# Bulk Modulus (GPa) = 60.43040 75.50600 67.96820
# Shear Modulus (GPa) = 26.33652 38.29910 32.31781
#
# Velocity S-wave (km/s) = 3.39408 4.09295 3.75979
# Velocity P-wave (km/s) = 6.46470 7.44064 6.96978
#
# Compressibility (1/GPa) = 0.01654796
#
# Stress axis : x y z
#
# Youngs Moduli (GPa) = 45.31132 72.46032 65.84958
#
# Poissons Ratio (x) = 0.38742 0.54126
# Poissons Ratio (y) = 0.24226 0.24284
# Poissons Ratio (z) = 0.37245 0.26722
#
# Static dielectric constant tensor:
#      x y z
#    x 1.965430 0.013140 -0.004750 
#    y 0.013140 1.826830 -0.045180 
#    z -0.004750 -0.045180 1.834160 
# 
# From -- ./inp_files/45883.got.cif
#   From: 2010.05.17/outbox.cif.g08.bks.cpg/sg2_23_cif.got.tgz:45883.got - 2010.06.03 11:33:40.
