data_PCOD9020664
_publ_section_title
;
Structure prediction by ZEFSAII (Michael W. Deem and Ramdas Pophale) SiO2 
 PCOD9020664
Probable space group: P -1
;
_chemical_formula_sum "Si O2"
_cell_formula_units_Z 15
_cell_length_a 12.373541
_cell_length_b 14.550349
_cell_length_c 11.421193
_cell_angle_alpha 138.703298
_cell_angle_beta 132.554089
_cell_angle_gamma 30.290225
_cell_volume 682.120281
_symmetry_space_group_name_H-M "P -1"
_symmetry_group_IT_number 2
_symmetry_cell_setting 'triclinic'
loop_
_space_group_symop_operation_xyz
x,y,z
-x,-y,-z
loop_
_atom_site_type_symbol
_atom_site_label
_atom_site_fract_x
_atom_site_fract_y
_atom_site_fract_z
Si Si1 0.717211 0.867252 0.915859
Si Si2 0.934019 0.703192 0.679823
Si Si3 0.500000 0.000000 0.500000
Si Si4 0.498789 0.299446 0.151100
Si Si5 0.487750 0.297406 0.404771
Si Si6 0.173261 0.728579 0.712310
Si Si7 0.994000 0.338084 0.848824
Si Si8 0.793511 0.970737 0.501627
O O1 0.895650 0.741107 0.825031
O O2 0.612482 0.787496 0.766506
O O3 0.839801 0.819755 0.079518
O O4 0.537153 0.107517 0.985628
O O5 0.000000 0.500000 0.500000
O O6 0.100049 0.700100 0.747924
O O7 0.709064 0.883291 0.622887
O O8 0.378053 0.999453 0.521191
O O9 0.560971 0.292702 0.324879
O O10 0.662932 0.258277 0.143696
O O11 0.255089 0.518909 0.167701
O O12 0.303288 0.524461 0.536488
O O13 0.669990 0.161261 0.506835
O O14 0.963323 0.918125 0.666279
O O15 0.071339 0.220105 0.670834
O O16 0.000000 0.500000 0.000000
#
# Coordination Sequence:
#
# PCOD9020664 Si02
#       8
#     2   2   1   2   2   2   2   2
#     4  12  24  42  67  98 130 169 220 273 317 387
#     4  11  23  43  69  93 126 172 219 267 319 390
#     4  10  22  36  64  98 124 160 220 270 310 372
#     4  12  26  41  63  99 138 168 211 274 329 383
#     4  12  21  41  66  94 130 167 218 264 323 384
#     4  11  25  43  64  97 133 172 215 269 326 384
#     4  12  24  39  66  96 132 172 218 265 326 383
#     4  11  22  39  65  96 127 170 219 264 322 379
#
# _framework density 21.990255999999999
#
# number of rings (size 3 to 8) (size 9 to 14) (size 15 to 20)
#    0.000    0.533    6.667    1.600    1.867    2.133 
#    0.000    0.667    0.000    0.000    0.000    0.000 
#    0.000    0.000    0.000    0.000    0.000    0.000 
#
# Total GULP energy -83665.598254 kJ/mol
# GULP energy per Si atom -5577.706550 kJ/mol
# Density = 2.194020 g / cm^3
# Si number density = 21.990256 Si / 1000 Ang^3
#
#
#
# Elastic Constant Matrix: (Units=GPa)
#
#
# Indices 1 2 3 4 5 6 
#
# 1 117.0560 10.6923 5.7162 -3.6035 0.8847 -17.5059
# 2 10.6923 84.4025 -3.6065 -0.7300 11.7405 -3.0063
# 3 5.7162 -3.6065 27.6332 8.0632 -2.6072 8.4574
# 4 -3.6035 -0.7300 8.0632 20.0259 -0.4700 -5.3385
# 5 0.8847 11.7405 -2.6072 -0.4700 33.8293 -2.6248
# 6 -17.5059 -3.0063 8.4574 -5.3385 -2.6248 27.2531
#
#
#
# Elastic Compliance Matrix: (Units=1/GPa)
#
#
# Indices 1 2 3 4 5 6 
#
# 1 0.010972 -0.001347 -0.008180 0.008188 0.000524 0.011093
# 2 -0.001347 0.012666 0.001980 -0.000854 -0.004271 -0.000661
# 3 -0.008180 0.001980 0.056221 -0.031622 0.001204 -0.028562
# 4 0.008188 -0.000854 -0.031622 0.071902 0.000906 0.029151
# 5 0.000524 -0.004271 0.001204 0.000906 0.031343 0.002688
# 6 0.011093 -0.000661 -0.028562 0.029151 0.002688 0.058578
#
#
# Mechanical properties :
#
#
# Convention : Reuss Voigt Hill
#
# Bulk Modulus (GPa) = 15.43995 28.29952 21.86974
# Shear Modulus (GPa) = 17.96197 30.64098 24.30147
#
# Velocity S-wave (km/s) = 2.86110 3.73686 3.32791
# Velocity P-wave (km/s) = 4.23686 5.61390 4.97328
#
# Compressibility (1/GPa) = 0.06476703
#
# Stress axis : x y z
#
# Youngs Moduli (GPa) = 91.13750 78.94910 17.78680
#
# Poissons Ratio (x) = 0.10631 0.14550
# Poissons Ratio (y) = 0.12272 -0.03522
# Poissons Ratio (z) = 0.74554 -0.15635
#
# Static dielectric constant tensor:
#      x y z
#    x 1.841550 -0.009460 0.012160 
#    y -0.009460 1.816940 0.010680 
#    z 0.012160 0.010680 1.796590 
# 
# From -- ./inp_files/433379.got.cif
#   From: 2010.05.17/outbox.cif.g08.bks.cpg/sg2_217_cif.got.tgz:433379.got - 2010.06.03 11:33:40.
