data_PCOD9020217
_publ_section_title
;
Structure prediction by ZEFSAII (Michael W. Deem and Ramdas Pophale) SiO2 
 PCOD9020217
Probable space group: P -1
;
_chemical_formula_sum "Si O2"
_cell_formula_units_Z 14
_cell_length_a 7.933073
_cell_length_b 8.527685
_cell_length_c 14.196150
_cell_angle_alpha 93.074034
_cell_angle_beta 116.066786
_cell_angle_gamma 46.060108
_cell_volume 572.403130
_symmetry_space_group_name_H-M "P -1"
_symmetry_group_IT_number 2
_symmetry_cell_setting 'triclinic'
loop_
_space_group_symop_operation_xyz
x,y,z
-x,-y,-z
loop_
_atom_site_type_symbol
_atom_site_label
_atom_site_fract_x
_atom_site_fract_y
_atom_site_fract_z
Si Si1 0.469576 0.457253 0.734988
Si Si2 0.842463 0.329184 0.166085
Si Si3 0.089966 0.014700 0.921739
Si Si4 0.804246 0.765013 0.929714
Si Si5 0.648602 0.101639 0.296575
Si Si6 0.226604 0.579378 0.477749
Si Si7 0.715880 0.782143 0.613658
O O1 0.400597 0.436521 0.823400
O O2 0.390877 0.690224 0.726469
O O3 0.299486 0.504521 0.603573
O O4 0.803289 0.223399 0.798362
O O5 0.006980 0.288714 0.113643
O O6 0.083076 0.204368 0.300237
O O7 0.742159 0.221173 0.103090
O O8 0.220551 0.096732 0.987067
O O9 0.000000 0.000000 0.000000
O O10 0.496166 0.906385 0.822910
O O11 0.000000 0.500000 0.000000
O O12 0.449804 0.184966 0.338030
O O13 0.960027 0.855539 0.396250
O O14 0.500000 0.500000 0.500000
O O15 0.160694 0.450536 0.412567
O O16 0.500000 0.000000 0.500000
#
# Coordination Sequence:
#
# PCOD9020217 Si02
#       7
#     2   2   2   2   2   2   2
#     4  12  24  43  72 103 142 184 235 287 349 414
#     4  10  25  41  70 102 139 177 234 284 348 407
#     4  10  23  44  73 100 140 181 234 283 352 411
#     4  10  21  47  72 101 141 182 232 292 343 415
#     4  11  25  44  72 104 140 185 234 288 356 412
#     4  12  27  44  74 103 140 188 237 283 355 419
#     4  11  24  44  68 102 144 179 232 293 342 415
#
# _framework density 24.458285
#
# number of rings (size 3 to 8) (size 9 to 14) (size 15 to 20)
#    0.000    1.143    2.857    2.143    4.000    8.000 
#    0.000    2.143    0.000    0.000    0.000    0.000 
#    0.000    0.000    0.000    0.000    0.000    0.000 
#
# Total GULP energy -78229.850672 kJ/mol
# GULP energy per Si atom -5587.846477 kJ/mol
# Density = 2.440262 g / cm^3
# Si number density = 24.458285 Si / 1000 Ang^3
#
#
#
# Elastic Constant Matrix: (Units=GPa)
#
#
# Indices 1 2 3 4 5 6 
#
# 1 68.3475 3.9690 15.5405 19.9390 4.3204 -2.9276
# 2 3.9690 57.4274 36.9396 16.2647 4.5456 8.1663
# 3 15.5405 36.9396 140.9806 16.7934 16.4309 2.6284
# 4 19.9390 16.2647 16.7934 51.3121 -2.0784 2.9808
# 5 4.3204 4.5456 16.4309 -2.0784 35.5780 1.5745
# 6 -2.9276 8.1663 2.6284 2.9808 1.5745 36.6405
#
#
#
# Elastic Compliance Matrix: (Units=1/GPa)
#
#
# Indices 1 2 3 4 5 6 
#
# 1 0.017045 0.001480 -0.001227 -0.006882 -0.002173 0.001773
# 2 0.001480 0.023072 -0.005327 -0.005939 -0.000832 -0.004123
# 3 -0.001227 -0.005327 0.009137 -0.001005 -0.003478 0.000665
# 4 -0.006882 -0.005939 -0.001005 0.024594 0.003553 -0.001308
# 5 -0.002173 -0.000832 -0.003478 0.003553 0.030350 -0.001332
# 6 0.001773 -0.004123 0.000665 -0.001308 -0.001332 0.028469
#
#
# Mechanical properties :
#
#
# Convention : Reuss Voigt Hill
#
# Bulk Modulus (GPa) = 25.57150 42.18376 33.87763
# Shear Modulus (GPa) = 32.08220 38.72656 35.40438
#
# Velocity S-wave (km/s) = 3.62568 3.98348 3.80878
# Velocity P-wave (km/s) = 5.29200 6.20017 5.76400
#
# Compressibility (1/GPa) = 0.03910604
#
# Stress axis : x y z
#
# Youngs Moduli (GPa) = 58.66785 43.34295 109.44699
#
# Poissons Ratio (x) = -0.06415 0.13426
# Poissons Ratio (y) = -0.08683 0.58304
# Poissons Ratio (z) = 0.07197 0.23089
#
# Static dielectric constant tensor:
#      x y z
#    x 2.053310 -0.021080 0.029530 
#    y -0.021080 1.961490 -0.019600 
#    z 0.029530 -0.019600 1.910450 
# 
# From -- ./inp_files/99512.got.cif
#   From: 2010.05.17/outbox.cif.g08.bks.cpg/sg2_50_cif.got.tgz:99512.got - 2010.06.03 11:33:40.
