data_PCOD9020900
_publ_section_title
;
Structure prediction by ZEFSAII (Michael W. Deem and Ramdas Pophale) SiO2 
 PCOD9020900
Probable space group: P -1
;
_chemical_formula_sum "Si O2"
_cell_formula_units_Z 14
_cell_length_a 20.355443
_cell_length_b 7.124285
_cell_length_c 18.722573
_cell_angle_alpha 142.136515
_cell_angle_beta 160.392347
_cell_angle_gamma 45.452012
_cell_volume 547.377708
_symmetry_space_group_name_H-M "P -1"
_symmetry_group_IT_number 2
_symmetry_cell_setting 'triclinic'
loop_
_space_group_symop_operation_xyz
x,y,z
-x,-y,-z
loop_
_atom_site_type_symbol
_atom_site_label
_atom_site_fract_x
_atom_site_fract_y
_atom_site_fract_z
Si Si1 0.476134 0.345444 0.602689
Si Si2 0.298005 0.996935 0.746315
Si Si3 0.302693 0.566452 0.274179
Si Si4 0.272794 0.160604 0.609101
Si Si5 0.579223 0.184063 0.806473
Si Si6 0.985542 0.514876 0.357316
Si Si7 0.110400 0.462175 0.193418
O O1 0.596516 0.566844 0.730677
O O2 0.554708 0.406729 0.781080
O O3 0.248035 0.361228 0.363896
O O4 0.500000 0.000000 0.500000
O O5 0.344974 0.080376 0.736845
O O6 0.156977 0.242184 0.697080
O O7 0.541660 0.744182 0.226384
O O8 0.500000 0.000000 0.000000
O O9 0.195468 0.398315 0.183827
O O10 0.464395 0.846013 0.558938
O O11 0.120376 0.686546 0.086166
O O12 0.129126 0.410690 0.533017
O O13 0.141869 0.835808 0.347257
O O14 0.142661 0.668958 0.503702
O O15 0.813465 0.222186 0.071187
#
# Coordination Sequence:
#
# PCOD9020900 Si02
#       7
#     2   2   2   2   2   2   2
#     4  10  22  37  61  94 138 186 231 283 333 401
#     4  11  27  50  77 102 139 180 229 299 361 429
#     4   9  21  41  61  97 139 188 232 281 336 406
#     4  11  26  45  72 105 143 183 233 293 349 425
#     4  10  24  41  68 104 141 183 235 287 342 411
#     4  11  26  47  72 106 138 182 234 285 366 424
#     4  10  22  38  66  97 142 189 235 283 343 401
#
# _framework density 25.576488000000001
#
# number of rings (size 3 to 8) (size 9 to 14) (size 15 to 20)
#    0.000    1.714    0.000    1.714    6.000   16.000 
#    0.000    0.000    0.000    0.000    0.000    0.000 
#    0.000    0.000    0.000    0.000    0.000    0.000 
#
# Total GULP energy -78255.710854 kJ/mol
# GULP energy per Si atom -5589.693632 kJ/mol
# Density = 2.551827 g / cm^3
# Si number density = 25.576488 Si / 1000 Ang^3
#
#
#
# Elastic Constant Matrix: (Units=GPa)
#
#
# Indices 1 2 3 4 5 6 
#
# 1 201.0005 36.9304 63.2923 -26.4773 1.3698 25.1464
# 2 36.9304 108.1518 37.6449 -31.5299 -1.3045 5.2535
# 3 63.2923 37.6449 162.6169 -38.0967 15.1726 8.5797
# 4 -26.4773 -31.5299 -38.0967 57.4471 8.2920 -11.5318
# 5 1.3698 -1.3045 15.1726 8.2920 30.7415 -5.1141
# 6 25.1464 5.2535 8.5797 -11.5318 -5.1141 40.7093
#
#
#
# Elastic Compliance Matrix: (Units=1/GPa)
#
#
# Indices 1 2 3 4 5 6 
#
# 1 0.006241 -0.001226 -0.001907 0.000295 -0.000003 -0.003212
# 2 -0.001226 0.011507 -0.000961 0.005344 -0.000266 0.000955
# 3 -0.001907 -0.000961 0.008898 0.005371 -0.005759 0.000224
# 4 0.000295 0.005344 0.005371 0.026170 -0.008780 0.004306
# 5 -0.000003 -0.000266 -0.005759 -0.008780 0.038324 0.003577
# 6 -0.003212 0.000955 0.000224 0.004306 0.003577 0.028047
#
#
# Mechanical properties :
#
#
# Convention : Reuss Voigt Hill
#
# Bulk Modulus (GPa) = 54.16794 83.05604 68.61199
# Shear Modulus (GPa) = 37.44579 48.03968 42.74274
#
# Velocity S-wave (km/s) = 3.83047 4.33861 4.09243
# Velocity P-wave (km/s) = 6.38656 7.59224 7.01535
#
# Compressibility (1/GPa) = 0.01846110
#
# Stress axis : x y z
#
# Youngs Moduli (GPa) = 160.22008 86.90006 112.39070
#
# Poissons Ratio (x) = 0.10650 0.21428
# Poissons Ratio (y) = 0.19635 0.10796
# Poissons Ratio (z) = 0.30547 0.08347
#
# Static dielectric constant tensor:
#      x y z
#    x 2.000080 0.034830 0.002810 
#    y 0.034830 2.206120 0.084170 
#    z 0.002810 0.084170 2.020940 
# 
# From -- ./inp_files/601241.got.cif
#   From: 2010.05.17/outbox.cif.g08.bks.cpg/sg2_301_cif.got.tgz:601241.got - 2010.06.03 11:33:40.
