data_PCOD9020141
_publ_section_title
;
Structure prediction by ZEFSAII (Michael W. Deem and Ramdas Pophale) SiO2 
 PCOD9020141
Probable space group: P -1
;
_chemical_formula_sum "Si O2"
_cell_formula_units_Z 16
_cell_length_a 8.522119
_cell_length_b 6.329107
_cell_length_c 14.801211
_cell_angle_alpha 80.074804
_cell_angle_beta 111.605259
_cell_angle_gamma 113.350267
_cell_volume 681.132211
_symmetry_space_group_name_H-M "P -1"
_symmetry_group_IT_number 2
_symmetry_cell_setting 'triclinic'
loop_
_space_group_symop_operation_xyz
x,y,z
-x,-y,-z
loop_
_atom_site_type_symbol
_atom_site_label
_atom_site_fract_x
_atom_site_fract_y
_atom_site_fract_z
Si Si1 0.697504 0.561088 0.270229
Si Si2 0.692186 0.705686 0.527901
Si Si3 0.230141 0.821451 0.013895
Si Si4 0.995526 0.423254 0.316384
Si Si5 0.600578 0.826078 0.685444
Si Si6 0.130382 0.378110 0.149214
Si Si7 0.472594 0.707102 0.926617
Si Si8 0.337353 0.043313 0.675845
O O1 0.911670 0.615035 0.310730
O O2 0.587433 0.397030 0.339864
O O3 0.615653 0.409347 0.176350
O O4 0.648807 0.786360 0.250787
O O5 0.500000 0.500000 0.500000
O O6 0.684448 0.863350 0.600927
O O7 0.721915 0.850622 0.432475
O O8 0.841413 0.594750 0.589256
O O9 0.218689 0.616930 0.095930
O O10 0.342952 0.072429 0.058147
O O11 0.336909 0.788481 0.950435
O O12 0.029374 0.780441 0.938060
O O13 0.051067 0.433666 0.222653
O O14 0.824209 0.191034 0.317283
O O15 0.734334 0.748074 0.782100
O O16 0.527990 0.017341 0.694395
O O17 0.500000 0.500000 0.000000
#
# Coordination Sequence:
#
# PCOD9020141 Si02
#       8
#     2   2   2   2   2   2   2   2
#     4  11  23  44  65 105 138 189 232 281 357 427
#     4  11  22  47  70 105 140 180 233 296 355 420
#     4  10  23  45  74  99 147 183 240 300 350 425
#     4  10  24  44  71 102 140 178 240 288 351 432
#     4  10  23  43  71 101 141 179 241 288 350 427
#     4  10  21  46  73 109 137 186 243 296 360 409
#     4  11  24  42  70 106 141 189 235 293 359 429
#     4  11  24  44  73  97 143 191 228 293 353 430
#
# _framework density 23.490302
#
# number of rings (size 3 to 8) (size 9 to 14) (size 15 to 20)
#    0.000    1.500    2.500    1.500    1.750    3.500 
#    6.750    8.125    0.000    0.750    0.000    0.000 
#    0.000    0.000    0.000    0.000    0.000    0.000 
#
# Total GULP energy -89529.332563 kJ/mol
# GULP energy per Si atom -5595.583285 kJ/mol
# Density = 2.343684 g / cm^3
# Si number density = 23.490302 Si / 1000 Ang^3
#
#
#
# Elastic Constant Matrix: (Units=GPa)
#
#
# Indices 1 2 3 4 5 6 
#
# 1 129.0140 44.1257 55.6188 10.1445 19.0678 -19.4702
# 2 44.1257 98.4902 45.3450 9.2824 13.4016 -4.2055
# 3 55.6188 45.3450 141.2972 -7.1437 8.3332 1.5153
# 4 10.1445 9.2824 -7.1437 20.6790 1.2700 -7.5024
# 5 19.0678 13.4016 8.3332 1.2700 46.2041 -6.8324
# 6 -19.4702 -4.2055 1.5153 -7.5024 -6.8324 43.6919
#
#
#
# Elastic Compliance Matrix: (Units=1/GPa)
#
#
# Indices 1 2 3 4 5 6 
#
# 1 0.011590 -0.002471 -0.003873 -0.004336 -0.002672 0.003899
# 2 -0.002471 0.013819 -0.003643 -0.006515 -0.002319 -0.001126
# 3 -0.003873 -0.003643 0.010087 0.006545 0.000474 -0.001228
# 4 -0.004336 -0.006515 0.006545 0.058281 0.002011 0.007536
# 5 -0.002672 -0.002319 0.000474 0.002011 0.023664 0.002615
# 6 0.003899 -0.001126 -0.001228 0.007536 0.002615 0.026262
#
#
# Mechanical properties :
#
#
# Convention : Reuss Voigt Hill
#
# Bulk Modulus (GPa) = 64.41955 73.22004 68.81980
# Shear Modulus (GPa) = 29.61199 37.02915 33.32057
#
# Velocity S-wave (km/s) = 3.55435 3.97465 3.77036
# Velocity P-wave (km/s) = 6.65793 7.23199 6.95089
#
# Compressibility (1/GPa) = 0.01552324
#
# Stress axis : x y z
#
# Youngs Moduli (GPa) = 86.28155 72.36458 99.13961
#
# Poissons Ratio (x) = 0.17880 0.38393
# Poissons Ratio (y) = 0.21319 0.36114
# Poissons Ratio (z) = 0.33414 0.26360
#
# Static dielectric constant tensor:
#      x y z
#    x 1.922570 -0.047590 0.005210 
#    y -0.047590 1.930480 -0.020120 
#    z 0.005210 -0.020120 1.942580 
# 
# From -- ./inp_files/488336.got.cif
#   From: 2010.05.17/outbox.cif.g08.bks.cpg/sg2_245_cif.got.tgz:488336.got - 2010.06.03 11:33:40.
