data_PCOD9020712
_publ_section_title
;
Structure prediction by ZEFSAII (Michael W. Deem and Ramdas Pophale) SiO2 
 PCOD9020712
Probable space group: P -1
;
_chemical_formula_sum "Si O2"
_cell_formula_units_Z 13
_cell_length_a 8.840508
_cell_length_b 11.887831
_cell_length_c 11.480985
_cell_angle_alpha 67.252683
_cell_angle_beta 75.897247
_cell_angle_gamma 132.651728
_cell_volume 545.487003
_symmetry_space_group_name_H-M "P -1"
_symmetry_group_IT_number 2
_symmetry_cell_setting 'triclinic'
loop_
_space_group_symop_operation_xyz
x,y,z
-x,-y,-z
loop_
_atom_site_type_symbol
_atom_site_label
_atom_site_fract_x
_atom_site_fract_y
_atom_site_fract_z
Si Si1 0.761529 0.333414 0.717408
Si Si2 0.603212 0.499564 0.130382
Si Si3 0.477135 0.174306 0.147854
Si Si4 0.109434 0.310621 0.421664
Si Si5 0.151036 0.784975 0.046382
Si Si6 0.500000 0.500000 0.500000
Si Si7 0.049835 0.026018 0.120855
O O1 0.824560 0.505012 0.700188
O O2 0.837791 0.266709 0.807770
O O3 0.000000 0.500000 0.500000
O O4 0.406172 0.061669 0.861249
O O5 0.598021 0.381654 0.094862
O O6 0.268401 0.324155 0.297072
O O7 0.803587 0.594770 0.167834
O O8 0.802336 0.749174 0.951945
O O9 0.281619 0.077421 0.106824
O O10 0.740016 0.254222 0.038282
O O11 0.240271 0.956063 0.373219
O O12 0.300770 0.420584 0.459740
O O13 0.731598 0.774866 0.338868
O O14 0.000000 0.000000 0.000000
#
# Coordination Sequence:
#
# PCOD9020712 Si02
#       7
#     2   2   2   2   2   1   2
#     4  11  24  43  71 104 137 178 231 294 345 394
#     4  12  25  44  71 102 142 183 230 284 345 414
#     4  11  25  47  67 102 145 185 223 284 350 418
#     4  11  23  42  71 100 140 178 235 285 343 403
#     4  11  26  42  73  99 138 186 231 278 349 413
#     4  10  22  36  68 102 130 160 232 288 334 386
#     4  11  23  41  71  99 132 174 231 283 337 400
#
# _framework density 23.831914999999999
#
# number of rings (size 3 to 8) (size 9 to 14) (size 15 to 20)
#    0.000    0.923    3.077    3.231    6.462    0.000 
#    0.000    0.769    0.000    0.000    0.000    0.000 
#    0.000    0.000    0.000    0.000    0.000    0.000 
#
# Total GULP energy -72467.717117 kJ/mol
# GULP energy per Si atom -5574.439778 kJ/mol
# Density = 2.377767 g / cm^3
# Si number density = 23.831915 Si / 1000 Ang^3
#
#
#
# Elastic Constant Matrix: (Units=GPa)
#
#
# Indices 1 2 3 4 5 6 
#
# 1 95.8051 20.9036 27.0595 -2.0113 6.7566 -24.7725
# 2 20.9036 60.0347 30.7064 -18.1444 5.1767 -31.9873
# 3 27.0595 30.7064 159.8763 -18.2173 8.0388 -26.6611
# 4 -2.0113 -18.1444 -18.2173 23.2779 -13.9378 11.6120
# 5 6.7566 5.1767 8.0388 -13.9378 42.8724 3.8529
# 6 -24.7725 -31.9873 -26.6611 11.6120 3.8529 56.7922
#
#
#
# Elastic Compliance Matrix: (Units=1/GPa)
#
#
# Indices 1 2 3 4 5 6 
#
# 1 0.012948 -0.002908 -0.001399 -0.007383 -0.004290 0.005154
# 2 -0.002908 0.029207 -0.001451 0.016980 0.001744 0.010910
# 3 -0.001399 -0.001451 0.007427 0.004093 0.000225 0.001207
# 4 -0.007383 0.016980 0.004093 0.078175 0.024604 -0.009388
# 5 -0.004290 0.001744 0.000225 0.024604 0.032468 -0.008017
# 6 0.005154 0.010910 0.001207 -0.009388 -0.008017 0.029031
#
#
# Mechanical properties :
#
#
# Convention : Reuss Voigt Hill
#
# Bulk Modulus (GPa) = 26.27075 52.56168 39.41622
# Shear Modulus (GPa) = 23.42372 40.39160 31.90766
#
# Velocity S-wave (km/s) = 3.13848 4.12133 3.66302
# Velocity P-wave (km/s) = 4.91739 6.68956 5.87073
#
# Compressibility (1/GPa) = 0.03806515
#
# Stress axis : x y z
#
# Youngs Moduli (GPa) = 77.23410 34.23892 134.65137
#
# Poissons Ratio (x) = 0.09957 0.18837
# Poissons Ratio (y) = 0.22461 0.19534
# Poissons Ratio (z) = 0.10805 0.04967
#
# Static dielectric constant tensor:
#      x y z
#    x 1.961470 0.006380 -0.019740 
#    y 0.006380 1.962210 0.058270 
#    z -0.019740 0.058270 1.893370 
# 
# From -- ./inp_files/389427.got.cif
#   From: 2010.05.17/outbox.cif.g08.bks.cpg/sg2_195_cif.got.tgz:389427.got - 2010.06.03 11:33:40.
