data_PCOD9020246
_publ_section_title
;
Structure prediction by ZEFSAII (Michael W. Deem and Ramdas Pophale) SiO2 
 PCOD9020246
Probable space group: P -1
;
_chemical_formula_sum "Si O2"
_cell_formula_units_Z 14
_cell_length_a 7.987335
_cell_length_b 16.012133
_cell_length_c 8.321349
_cell_angle_alpha 59.426641
_cell_angle_beta 128.987868
_cell_angle_gamma 143.620410
_cell_volume 490.646601
_symmetry_space_group_name_H-M "P -1"
_symmetry_group_IT_number 2
_symmetry_cell_setting 'triclinic'
loop_
_space_group_symop_operation_xyz
x,y,z
-x,-y,-z
loop_
_atom_site_type_symbol
_atom_site_label
_atom_site_fract_x
_atom_site_fract_y
_atom_site_fract_z
Si Si1 0.271777 0.399351 0.812773
Si Si2 0.715950 0.173512 0.090784
Si Si3 0.748511 0.999272 0.598958
Si Si4 0.917126 0.591542 0.650313
Si Si5 0.444601 0.278750 0.670919
Si Si6 0.050195 0.892990 0.977138
Si Si7 0.346485 0.715990 0.505550
O O1 0.284400 0.423785 0.602208
O O2 0.976155 0.371850 0.694970
O O3 0.500000 0.500000 0.000000
O O4 0.155411 0.250568 0.906860
O O5 0.869581 0.140074 0.106371
O O6 0.953928 0.298800 0.238139
O O7 0.077545 0.158053 0.605580
O O8 0.568095 0.213078 0.859825
O O9 0.554969 0.880165 0.460358
O O10 0.500000 0.000000 0.500000
O O11 0.395945 0.028912 0.117832
O O12 0.711314 0.436907 0.743998
O O13 0.226120 0.659904 0.668228
O O14 0.476937 0.304657 0.471587
O O15 0.870077 0.936579 0.814487
#
# Coordination Sequence:
#
# PCOD9020246 Si02
#       7
#     2   2   2   2   2   2   2
#     4  10  24  48  77 125 170 226 279 344 436 506
#     4  10  21  47  82 134 166 221 286 351 442 503
#     4  11  27  52  82 124 166 229 295 352 430 506
#     4  10  24  44  87 128 176 217 281 360 428 526
#     4  11  22  49  86 125 174 222 283 359 428 514
#     4  10  23  47  85 117 177 223 280 361 419 524
#     4  10  24  48  78 124 162 226 282 338 432 512
#
# _framework density 28.533776
#
# number of rings (size 3 to 8) (size 9 to 14) (size 15 to 20)
#    0.857    0.857    1.429    1.286    2.000    1.714 
#    5.143    9.286    0.000    0.857    0.000    0.000 
#    0.000    0.000    0.000    0.000    0.000    0.000 
#
# Total GULP energy -78201.264328 kJ/mol
# GULP energy per Si atom -5585.804595 kJ/mol
# Density = 2.846883 g / cm^3
# Si number density = 28.533776 Si / 1000 Ang^3
#
#
#
# Elastic Constant Matrix: (Units=GPa)
#
#
# Indices 1 2 3 4 5 6 
#
# 1 172.6159 79.9460 69.0676 15.8463 15.8419 -8.9676
# 2 79.9460 246.2831 49.3993 28.0665 -6.5121 -9.0350
# 3 69.0676 49.3993 96.9173 12.0400 2.1061 -5.8828
# 4 15.8463 28.0665 12.0400 71.6576 -6.1405 2.2135
# 5 15.8419 -6.5121 2.1061 -6.1405 21.9356 8.2054
# 6 -8.9676 -9.0350 -5.8828 2.2135 8.2054 48.3256
#
#
#
# Elastic Compliance Matrix: (Units=1/GPa)
#
#
# Indices 1 2 3 4 5 6 
#
# 1 0.010035 -0.002138 -0.005582 -0.001248 -0.008553 0.002292
# 2 -0.002138 0.005166 -0.001030 -0.001133 0.002855 0.000011
# 3 -0.005582 -0.001030 0.014881 -0.000700 0.001997 0.000276
# 4 -0.001248 -0.001133 -0.000700 0.015354 0.005756 -0.002209
# 5 -0.008553 0.002855 0.001997 0.005756 0.058126 -0.010943
# 6 0.002292 0.000011 0.000276 -0.002209 -0.010943 0.023113
#
#
# Mechanical properties :
#
#
# Convention : Reuss Voigt Hill
#
# Bulk Modulus (GPa) = 79.47390 101.40467 90.43929
# Shear Modulus (GPa) = 33.69941 49.54399 41.62170
#
# Velocity S-wave (km/s) = 3.44035 4.17145 3.82341
# Velocity P-wave (km/s) = 6.61017 7.66922 7.15930
#
# Compressibility (1/GPa) = 0.01258275
#
# Stress axis : x y z
#
# Youngs Moduli (GPa) = 99.64697 193.57309 67.19766
#
# Poissons Ratio (x) = 0.41383 0.37510
# Poissons Ratio (y) = 0.21303 0.06923
# Poissons Ratio (z) = 0.55623 0.19943
#
# Static dielectric constant tensor:
#      x y z
#    x 2.360790 -0.045090 -0.052910 
#    y -0.045090 2.239020 -0.031370 
#    z -0.052910 -0.031370 2.344040 
# 
# From -- ./inp_files/279115.got.cif
#   From: 2010.05.17/outbox.cif.g08.bks.cpg/sg2_140_cif.got.tgz:279115.got - 2010.06.03 11:33:40.
