data_PCOD9020953
_publ_section_title
;
Structure prediction by ZEFSAII (Michael W. Deem and Ramdas Pophale) SiO2 
 PCOD9020953
Probable space group: P -1
;
_chemical_formula_sum "Si O2"
_cell_formula_units_Z 13
_cell_length_a 18.262529
_cell_length_b 6.374709
_cell_length_c 11.082015
_cell_angle_alpha 58.567542
_cell_angle_beta 153.899719
_cell_angle_gamma 117.235545
_cell_volume 484.106337
_symmetry_space_group_name_H-M "P -1"
_symmetry_group_IT_number 2
_symmetry_cell_setting 'triclinic'
loop_
_space_group_symop_operation_xyz
x,y,z
-x,-y,-z
loop_
_atom_site_type_symbol
_atom_site_label
_atom_site_fract_x
_atom_site_fract_y
_atom_site_fract_z
Si Si1 0.567174 0.217361 0.196390
Si Si2 0.176320 0.070068 0.487011
Si Si3 0.675793 0.420193 0.516088
Si Si4 0.000000 0.000000 0.000000
Si Si5 0.772716 0.012000 0.153752
Si Si6 0.827798 0.512272 0.962921
Si Si7 0.633218 0.780866 0.789874
O O1 0.680120 0.129647 0.279335
O O2 0.692824 0.211798 0.500661
O O3 0.500000 0.500000 0.000000
O O4 0.416582 0.042111 0.061661
O O5 0.124472 0.059683 0.552360
O O6 0.264453 0.327568 0.523798
O O7 0.039911 0.052496 0.186895
O O8 0.765498 0.391049 0.784184
O O9 0.480384 0.425211 0.257254
O O10 0.031780 0.300688 0.923021
O O11 0.823667 0.287874 0.117948
O O12 0.766349 0.858103 0.065006
O O13 0.698327 0.696938 0.782646
O O14 0.500000 0.000000 0.500000
#
# Coordination Sequence:
#
# PCOD9020953 Si02
#       7
#     2   2   2   1   2   2   2
#     4  11  23  37  69 108 135 160 209 274 346 396
#     4  11  24  44  65  93 139 175 218 264 320 391
#     4  10  22  37  62  99 135 171 205 264 341 388
#     4  10  28  48  66  86 124 198 228 256 308 388
#     4  11  24  38  68 101 127 168 208 279 341 375
#     4  11  24  43  63  91 132 174 224 263 317 379
#     4  11  23  36  66 105 133 162 210 272 340 397
#
# _framework density 26.853605999999999
#
# number of rings (size 3 to 8) (size 9 to 14) (size 15 to 20)
#    0.000    1.231    3.077    1.846   12.923    0.615 
#    0.000    7.692    0.000    0.000    0.000    0.000 
#    0.000    0.000    0.000    0.000    0.000    0.000 
#
# Total GULP energy -72512.055255 kJ/mol
# GULP energy per Si atom -5577.850404 kJ/mol
# Density = 2.679249 g / cm^3
# Si number density = 26.853606 Si / 1000 Ang^3
#
#
#
# Elastic Constant Matrix: (Units=GPa)
#
#
# Indices 1 2 3 4 5 6 
#
# 1 121.8646 55.9281 64.6772 -17.2941 -16.8037 -9.3866
# 2 55.9281 151.0289 59.5541 11.7805 -11.4324 30.9492
# 3 64.6772 59.5541 95.5481 31.7671 -31.6281 5.9886
# 4 -17.2941 11.7805 31.7671 60.8317 -7.1104 -12.3287
# 5 -16.8037 -11.4324 -31.6281 -7.1104 61.2910 -6.8453
# 6 -9.3866 30.9492 5.9886 -12.3287 -6.8453 72.8560
#
#
#
# Elastic Compliance Matrix: (Units=1/GPa)
#
#
# Indices 1 2 3 4 5 6 
#
# 1 0.027941 -0.004727 -0.025516 0.024268 -0.002278 0.011598
# 2 -0.004727 0.010656 -0.002474 -0.003454 -0.001619 -0.005669
# 3 -0.025516 -0.002474 0.043366 -0.030233 0.010302 -0.009949
# 4 0.024268 -0.003454 -0.030233 0.042253 -0.003134 0.013934
# 5 -0.002278 -0.001619 0.010302 -0.003134 0.020447 0.000938
# 6 0.011598 -0.005669 -0.009949 0.013934 0.000938 0.020892
#
#
# Mechanical properties :
#
#
# Convention : Reuss Voigt Hill
#
# Bulk Modulus (GPa) = 60.50671 80.97338 70.74004
# Shear Modulus (GPa) = 21.14171 51.54790 36.34480
#
# Velocity S-wave (km/s) = 2.80892 4.38606 3.68291
# Velocity P-wave (km/s) = 5.75335 7.47457 6.66972
#
# Compressibility (1/GPa) = 0.01652709
#
# Stress axis : x y z
#
# Youngs Moduli (GPa) = 35.78988 93.84410 23.05954
#
# Poissons Ratio (x) = 0.44363 0.58840
# Poissons Ratio (y) = 0.16919 0.05705
# Poissons Ratio (z) = 0.91323 0.23219
#
# Static dielectric constant tensor:
#      x y z
#    x 2.378420 0.025690 0.217010 
#    y 0.025690 2.094980 -0.193460 
#    z 0.217010 -0.193460 2.988920 
# 
# From -- ./inp_files/82349.got.cif
#   From: 2010.05.17/outbox.cif.g08.bks.cpg/sg2_42_cif.got.tgz:82349.got - 2010.06.03 11:33:40.
