data_PCOD9020873
_publ_section_title
;
Structure prediction by ZEFSAII (Michael W. Deem and Ramdas Pophale) SiO2 
 PCOD9020873
Probable space group: P -1
;
_chemical_formula_sum "Si O2"
_cell_formula_units_Z 16
_cell_length_a 27.011324
_cell_length_b 5.866550
_cell_length_c 12.587256
_cell_angle_alpha 69.643632
_cell_angle_beta 152.577381
_cell_angle_gamma 105.183108
_cell_volume 856.163070
_symmetry_space_group_name_H-M "P -1"
_symmetry_group_IT_number 2
_symmetry_cell_setting 'triclinic'
loop_
_space_group_symop_operation_xyz
x,y,z
-x,-y,-z
loop_
_atom_site_type_symbol
_atom_site_label
_atom_site_fract_x
_atom_site_fract_y
_atom_site_fract_z
Si Si1 0.336069 0.035178 0.754249
Si Si2 0.166598 0.470815 0.346396
Si Si3 0.538875 0.228604 0.162990
Si Si4 0.139714 0.717165 0.473982
Si Si5 0.070707 0.718845 0.572894
Si Si6 0.894474 0.188457 0.144524
Si Si7 0.246223 0.904398 0.300162
Si Si8 0.083801 0.304834 0.009077
O O1 0.394618 0.904492 0.786302
O O2 0.237859 0.882213 0.623610
O O3 0.278097 0.300140 0.572685
O O4 0.433578 0.089427 0.008674
O O5 0.150706 0.510829 0.435473
O O6 0.183356 0.728927 0.284683
O O7 0.086783 0.348599 0.134098
O O8 0.627938 0.189385 0.431505
O O9 0.500000 0.500000 0.000000
O O10 0.135669 0.647269 0.600912
O O11 0.017544 0.836903 0.194511
O O12 0.134357 0.763896 0.794844
O O13 0.000000 0.500000 0.500000
O O14 0.991098 0.967765 0.360847
O O15 0.930522 0.435788 0.121322
O O16 0.797339 0.118935 0.897538
O O17 0.198110 0.169235 0.209439
#
# Coordination Sequence:
#
# PCOD9020873 Si02
#       8
#     2   2   2   2   2   2   2   2
#     4  11  23  36  58  86 119 162 196 242 295 350
#     4  11  22  35  54  88 122 164 190 232 302 356
#     4  11  21  41  60  83 122 158 205 242 292 356
#     4  12  23  36  56  87 126 157 196 242 296 357
#     4  11  22  41  58  84 120 158 206 243 291 357
#     4  10  22  37  61  85 114 165 198 244 299 344
#     4  11  20  39  59  88 121 155 200 244 295 352
#     4  11  22  37  55  89 127 157 193 238 300 367
#
# _framework density 18.688029
#
# number of rings (size 3 to 8) (size 9 to 14) (size 15 to 20)
#    0.000    1.000    6.250    0.375    1.750    2.000 
#    0.000    0.000    0.000    0.750    0.000    7.000 
#    0.000    0.000    0.000    0.000    0.000    0.000 
#
# Total GULP energy -89182.389168 kJ/mol
# GULP energy per Si atom -5573.899323 kJ/mol
# Density = 1.864549 g / cm^3
# Si number density = 18.688029 Si / 1000 Ang^3
#
#
#
# Elastic Constant Matrix: (Units=GPa)
#
#
# Indices 1 2 3 4 5 6 
#
# 1 93.1215 41.5484 51.7277 13.3323 -23.7225 -14.8929
# 2 41.5484 76.1971 45.1802 -3.7933 -8.6732 -1.1603
# 3 51.7277 45.1802 134.9650 19.7990 -9.7572 -7.1440
# 4 13.3323 -3.7933 19.7990 51.2881 -7.4997 1.9379
# 5 -23.7225 -8.6732 -9.7572 -7.4997 27.9461 13.6671
# 6 -14.8929 -1.1603 -7.1440 1.9379 13.6671 35.6892
#
#
#
# Elastic Compliance Matrix: (Units=1/GPa)
#
#
# Indices 1 2 3 4 5 6 
#
# 1 0.019831 -0.007450 -0.003737 -0.002799 0.010863 0.003277
# 2 -0.007450 0.020615 -0.004995 0.005877 0.002146 -0.004580
# 3 -0.003737 -0.004995 0.011008 -0.004136 -0.002872 0.001806
# 4 -0.002799 0.005877 -0.004136 0.023525 0.007167 -0.005827
# 5 0.010863 0.002146 -0.002872 0.007167 0.055138 -0.017476
# 6 0.003277 -0.004580 0.001806 -0.005827 -0.017476 0.036609
#
#
# Mechanical properties :
#
#
# Convention : Reuss Voigt Hill
#
# Bulk Modulus (GPa) = 52.38420 64.57736 58.48078
# Shear Modulus (GPa) = 24.33641 34.03981 29.18811
#
# Velocity S-wave (km/s) = 3.61258 4.27251 3.95633
# Velocity P-wave (km/s) = 6.74483 7.67916 7.22711
#
# Compressibility (1/GPa) = 0.01908973
#
# Stress axis : x y z
#
# Youngs Moduli (GPa) = 50.42652 48.50806 90.83989
#
# Poissons Ratio (x) = 0.36140 0.33948
# Poissons Ratio (y) = 0.37569 0.45373
# Poissons Ratio (z) = 0.18845 0.24229
#
# Static dielectric constant tensor:
#      x y z
#    x 1.647860 -0.019030 0.004780 
#    y -0.019030 1.721620 0.032260 
#    z 0.004780 0.032260 1.701550 
# 
# From -- ./inp_files/369512.got.cif
#   From: 2010.05.17/outbox.cif.g08.bks.cpg/sg2_185_cif.got.tgz:369512.got - 2010.06.03 11:33:40.
