data_PCOD9020956
_publ_section_title
;
Structure prediction by ZEFSAII (Michael W. Deem and Ramdas Pophale) SiO2 
 PCOD9020956
Probable space group: P -1
;
_chemical_formula_sum "Si O2"
_cell_formula_units_Z 16
_cell_length_a 23.598934
_cell_length_b 12.782961
_cell_length_c 5.103763
_cell_angle_alpha 56.778872
_cell_angle_beta 56.096462
_cell_angle_gamma 30.397641
_cell_volume 638.371124
_symmetry_space_group_name_H-M "P -1"
_symmetry_group_IT_number 2
_symmetry_cell_setting 'triclinic'
loop_
_space_group_symop_operation_xyz
x,y,z
-x,-y,-z
loop_
_atom_site_type_symbol
_atom_site_label
_atom_site_fract_x
_atom_site_fract_y
_atom_site_fract_z
Si Si1 0.037243 0.084729 0.570930
Si Si2 0.777183 0.454429 0.830735
Si Si3 0.247758 0.724588 0.226948
Si Si4 0.814823 0.965623 0.372279
Si Si5 0.607126 0.114729 0.885268
Si Si6 0.518715 0.610408 0.678472
Si Si7 0.985369 0.414492 0.936401
Si Si8 0.257936 0.327429 0.885984
O O1 0.914433 0.224847 0.803111
O O2 0.122736 0.876196 0.460778
O O3 0.117413 0.024492 0.669778
O O4 0.008259 0.248095 0.246357
O O5 0.725441 0.406461 0.901756
O O6 0.739128 0.569194 0.044940
O O7 0.748327 0.601635 0.482492
O O8 0.346595 0.565862 0.400982
O O9 0.245882 0.870559 0.931646
O O10 0.722528 0.029324 0.695779
O O11 0.912652 0.729772 0.337913
O O12 0.528282 0.292919 0.620753
O O13 0.643063 0.920116 0.996634
O O14 0.548843 0.204129 0.195097
O O15 0.500000 0.500000 0.000000
O O16 0.861267 0.572935 0.917712
O O17 0.000000 0.500000 0.000000
#
# Coordination Sequence:
#
# PCOD9020956 Si02
#       8
#     2   2   2   2   2   2   2   2
#     4  10  22  40  63 103 137 176 222 278 343 409
#     4  11  25  46  69 102 139 184 223 272 341 422
#     4  11  26  43  71  97 136 179 232 286 338 401
#     4  11  23  39  69 103 136 178 222 285 348 403
#     4  12  27  44  72 100 138 175 231 288 337 398
#     4  12  26  48  69 104 132 178 231 288 345 391
#     4  10  22  37  63 101 142 180 222 270 344 419
#     4  11  25  46  67 101 143 182 222 278 339 403
#
# _framework density 25.063793
#
# number of rings (size 3 to 8) (size 9 to 14) (size 15 to 20)
#    0.000    1.000    2.500    3.000   10.500    1.500 
#    0.000    3.750    0.000    0.000    0.000    0.000 
#    0.000    0.000    0.000    0.000    0.000    0.000 
#
# Total GULP energy -89663.600711 kJ/mol
# GULP energy per Si atom -5603.975044 kJ/mol
# Density = 2.500675 g / cm^3
# Si number density = 25.063793 Si / 1000 Ang^3
#
#
#
# Elastic Constant Matrix: (Units=GPa)
#
#
# Indices 1 2 3 4 5 6 
#
# 1 70.9076 17.7863 -9.9477 -6.2517 15.6157 12.6389
# 2 17.7863 89.1160 -0.1485 -7.8540 -5.9862 12.9339
# 3 -9.9477 -0.1485 73.6497 -5.5950 2.5491 0.7893
# 4 -6.2517 -7.8540 -5.5950 35.3515 5.0648 6.6529
# 5 15.6157 -5.9862 2.5491 5.0648 34.6188 -0.6031
# 6 12.6389 12.9339 0.7893 6.6529 -0.6031 42.7616
#
#
#
# Elastic Compliance Matrix: (Units=1/GPa)
#
#
# Indices 1 2 3 4 5 6 
#
# 1 0.019240 -0.003172 0.003460 0.005841 -0.010438 -0.005847
# 2 -0.003172 0.012751 -0.000301 0.002367 0.003255 -0.003236
# 3 0.003460 -0.000301 0.014452 0.003637 -0.003241 -0.001810
# 4 0.005841 0.002367 0.003637 0.032946 -0.007448 -0.007740
# 5 -0.010438 0.003255 -0.003241 -0.007448 0.035552 0.003821
# 6 -0.005847 -0.003236 -0.001810 -0.007740 0.003821 0.027384
#
#
# Mechanical properties :
#
#
# Convention : Reuss Voigt Hill
#
# Bulk Modulus (GPa) = 21.54363 27.67260 24.60812
# Shear Modulus (GPa) = 31.68096 37.61193 34.64645
#
# Velocity S-wave (km/s) = 3.55915 3.87802 3.72200
# Velocity P-wave (km/s) = 5.05018 5.57825 5.32077
#
# Compressibility (1/GPa) = 0.04641743
#
# Stress axis : x y z
#
# Youngs Moduli (GPa) = 51.97503 78.42640 69.19272
#
# Poissons Ratio (x) = 0.24877 -0.23941
# Poissons Ratio (y) = 0.16486 0.02082
# Poissons Ratio (z) = -0.17983 0.02360
#
# Static dielectric constant tensor:
#      x y z
#    x 1.961800 -0.033820 0.040230 
#    y -0.033820 2.000210 -0.041610 
#    z 0.040230 -0.041610 2.137250 
# 
# From -- ./inp_files/81120.got.cif
#   From: 2010.05.17/outbox.cif.g08.bks.cpg/sg2_41_cif.got.tgz:81120.got - 2010.06.03 11:33:40.
