data_PCOD9020575
_publ_section_title
;
Structure prediction by ZEFSAII (Michael W. Deem and Ramdas Pophale) SiO2 
 PCOD9020575
Probable space group: P -1
;
_chemical_formula_sum "Si O2"
_cell_formula_units_Z 14
_cell_length_a 15.617975
_cell_length_b 5.014066
_cell_length_c 9.490396
_cell_angle_alpha 106.312407
_cell_angle_beta 76.347442
_cell_angle_gamma 130.611329
_cell_volume 540.028901
_symmetry_space_group_name_H-M "P -1"
_symmetry_group_IT_number 2
_symmetry_cell_setting 'triclinic'
loop_
_space_group_symop_operation_xyz
x,y,z
-x,-y,-z
loop_
_atom_site_type_symbol
_atom_site_label
_atom_site_fract_x
_atom_site_fract_y
_atom_site_fract_z
Si Si1 0.024755 0.991406 0.824719
Si Si2 0.688867 0.853164 0.914302
Si Si3 0.377378 0.697017 0.930866
Si Si4 0.486618 0.823115 0.286879
Si Si5 0.203242 0.242045 0.584348
Si Si6 0.350105 0.998760 0.512762
Si Si7 0.090531 0.806966 0.293388
O O1 0.943500 0.581123 0.746841
O O2 0.149444 0.146268 0.746718
O O3 0.998267 0.206710 0.771441
O O4 0.000000 0.000000 0.000000
O O5 0.574238 0.534459 0.832534
O O6 0.792005 0.936311 0.799113
O O7 0.673920 0.687646 0.049514
O O8 0.700018 0.202881 0.973571
O O9 0.409936 0.815256 0.775598
O O10 0.500000 0.000000 0.000000
O O11 0.393110 0.876435 0.356091
O O12 0.540522 0.785587 0.396453
O O13 0.251673 0.632419 0.574718
O O14 0.298784 0.192546 0.522669
O O15 0.108485 0.966192 0.465021
#
# Coordination Sequence:
#
# PCOD9020575 Si02
#       7
#     2   2   2   2   2   2   2
#     4  12  28  50  75 107 139 174 229 302 362 418
#     4  11  23  40  67 100 135 183 228 274 338 410
#     4  10  22  36  61  91 136 181 223 278 328 397
#     4  10  23  43  63 101 145 181 235 276 337 393
#     4  12  26  48  73 104 139 185 239 282 351 421
#     4  11  26  41  71  99 140 191 227 287 330 407
#     4  12  25  47  78 103 139 185 232 286 353 424
#
# _framework density 25.924534999999999
#
# number of rings (size 3 to 8) (size 9 to 14) (size 15 to 20)
#    0.000    0.857    1.429    5.571    4.000   10.286 
#    0.000    0.000    0.000    0.000    0.000    0.000 
#    0.000    0.000    0.000    0.000    0.000    0.000 
#
# Total GULP energy -78509.063511 kJ/mol
# GULP energy per Si atom -5607.790251 kJ/mol
# Density = 2.586553 g / cm^3
# Si number density = 25.924535 Si / 1000 Ang^3
#
#
#
# Elastic Constant Matrix: (Units=GPa)
#
#
# Indices 1 2 3 4 5 6 
#
# 1 98.1567 -6.6136 28.2723 -4.8184 -14.0024 -12.6453
# 2 -6.6136 83.0141 5.7944 -8.2468 -11.0747 4.0823
# 3 28.2723 5.7944 110.3638 -8.5123 -12.5823 11.8187
# 4 -4.8184 -8.2468 -8.5123 40.3982 5.7236 -5.3429
# 5 -14.0024 -11.0747 -12.5823 5.7236 38.0061 -9.5269
# 6 -12.6453 4.0823 11.8187 -5.3429 -9.5269 36.1081
#
#
#
# Elastic Compliance Matrix: (Units=1/GPa)
#
#
# Indices 1 2 3 4 5 6 
#
# 1 0.013152 0.001847 -0.003474 0.001347 0.005855 0.007278
# 2 0.001847 0.012970 -0.000595 0.002264 0.004122 0.000798
# 3 -0.003474 -0.000595 0.010612 0.001019 0.000841 -0.004250
# 4 0.001347 0.002264 0.001019 0.026263 -0.001625 0.003340
# 5 0.005855 0.004122 0.000841 -0.001625 0.032618 0.009675
# 6 0.007278 0.000798 -0.004250 0.003340 0.009675 0.034591
#
#
# Mechanical properties :
#
#
# Convention : Reuss Voigt Hill
#
# Bulk Modulus (GPa) = 30.96905 38.49343 34.73124
# Shear Modulus (GPa) = 34.38453 40.50791 37.44622
#
# Velocity S-wave (km/s) = 3.64583 3.95718 3.80469
# Velocity P-wave (km/s) = 5.44927 5.97992 5.72075
#
# Compressibility (1/GPa) = 0.03229030
#
# Stress axis : x y z
#
# Youngs Moduli (GPa) = 76.03414 77.09827 94.23480
#
# Poissons Ratio (x) = -0.14242 0.32739
# Poissons Ratio (y) = -0.14046 0.05608
# Poissons Ratio (z) = 0.26416 0.04588
#
# Static dielectric constant tensor:
#      x y z
#    x 2.016310 0.051600 0.043410 
#    y 0.051600 1.978620 0.001140 
#    z 0.043410 0.001140 2.108170 
# 
# From -- ./inp_files/322752.got.cif
#   From: 2010.05.17/outbox.cif.g08.bks.cpg/sg2_162_cif.got.tgz:322752.got - 2010.06.03 11:33:40.
