data_PCOD9020860
_publ_section_title
;
Structure prediction by ZEFSAII (Michael W. Deem and Ramdas Pophale) SiO2 
 PCOD9020860
Probable space group: P -1
;
_chemical_formula_sum "Si O2"
_cell_formula_units_Z 16
_cell_length_a 17.098890
_cell_length_b 12.054258
_cell_length_c 8.609976
_cell_angle_alpha 126.841272
_cell_angle_beta 50.106282
_cell_angle_gamma 149.408117
_cell_volume 687.780722
_symmetry_space_group_name_H-M "P -1"
_symmetry_group_IT_number 2
_symmetry_cell_setting 'triclinic'
loop_
_space_group_symop_operation_xyz
x,y,z
-x,-y,-z
loop_
_atom_site_type_symbol
_atom_site_label
_atom_site_fract_x
_atom_site_fract_y
_atom_site_fract_z
Si Si1 0.031061 0.597918 0.211860
Si Si2 0.394093 0.648804 0.563653
Si Si3 0.884894 0.005267 0.596075
Si Si4 0.237124 0.612794 0.429119
Si Si5 0.671645 0.613054 0.327128
Si Si6 0.632695 0.093765 0.783084
Si Si7 0.155435 0.234633 0.072615
Si Si8 0.351621 0.325571 0.157372
O O1 0.019741 0.752302 0.333114
O O2 0.203120 0.749359 0.197621
O O3 0.896538 0.421296 0.364854
O O4 0.000000 0.500000 0.000000
O O5 0.334592 0.681281 0.523070
O O6 0.299604 0.505228 0.721809
O O7 0.382879 0.488444 0.364074
O O8 0.562454 0.881647 0.611458
O O9 0.806079 0.864534 0.421566
O O10 0.725062 0.867794 0.791697
O O11 0.000000 0.000000 0.500000
O O12 0.340748 0.778691 0.292412
O O13 0.152509 0.386214 0.274035
O O14 0.500000 0.500000 0.500000
O O15 0.699736 0.616474 0.113432
O O16 0.500000 0.000000 0.000000
O O17 0.202471 0.189834 0.119053
O O18 0.000000 0.000000 0.000000
O O19 0.500000 0.500000 0.000000
#
# Coordination Sequence:
#
# PCOD9020860 Si02
#       8
#     2   2   2   2   2   2   2   2
#     4  12  27  46  69 103 140 184 234 289 352 421
#     4  10  22  41  65  92 128 174 225 280 338 401
#     4  11  23  43  67  94 133 179 223 276 343 415
#     4  11  25  45  66  95 135 181 234 287 346 418
#     4  11  21  38  64  97 133 173 224 288 345 408
#     4  12  26  45  69  97 133 182 231 285 349 420
#     4  11  22  37  62  95 130 172 223 281 342 402
#     4  10  22  37  60  93 127 165 216 276 333 393
#
# _framework density 23.26323
#
# number of rings (size 3 to 8) (size 9 to 14) (size 15 to 20)
#    0.000    1.000    0.000    8.250    0.000    6.000 
#    0.000    0.000    0.000    0.000    0.000    0.000 
#    0.000    0.000    0.000    0.000    0.000    0.000 
#
# Total GULP energy -89192.971051 kJ/mol
# GULP energy per Si atom -5574.560691 kJ/mol
# Density = 2.321028 g / cm^3
# Si number density = 23.263230 Si / 1000 Ang^3
#
#
#
# Elastic Constant Matrix: (Units=GPa)
#
#
# Indices 1 2 3 4 5 6 
#
# 1 118.7303 26.6766 40.5112 -0.1018 29.1292 13.5139
# 2 26.6766 89.4688 41.2475 -6.1194 18.5570 2.3679
# 3 40.5112 41.2475 115.5960 -21.8794 33.8753 9.8791
# 4 -0.1018 -6.1194 -21.8794 62.3996 2.8792 13.3349
# 5 29.1292 18.5570 33.8753 2.8792 37.0812 0.5419
# 6 13.5139 2.3679 9.8791 13.3349 0.5419 48.3747
#
#
#
# Elastic Compliance Matrix: (Units=1/GPa)
#
#
# Indices 1 2 3 4 5 6 
#
# 1 0.011146 -0.001255 -0.001005 0.000496 -0.007206 -0.002903
# 2 -0.001255 0.013803 -0.003798 0.000033 -0.002462 0.000469
# 3 -0.001005 -0.003798 0.015437 0.006515 -0.011855 -0.004349
# 4 0.000496 0.000033 0.006515 0.020158 -0.007822 -0.006940
# 5 -0.007206 -0.002462 -0.011855 -0.007822 0.045207 0.006204
# 6 -0.002903 0.000469 -0.004349 -0.006940 0.006204 0.024192
#
#
# Mechanical properties :
#
#
# Convention : Reuss Voigt Hill
#
# Bulk Modulus (GPa) = 35.37214 60.07394 47.72304
# Shear Modulus (GPa) = 33.00760 43.92841 38.46801
#
# Velocity S-wave (km/s) = 3.77088 4.35019 4.07086
# Velocity P-wave (km/s) = 5.84787 7.14926 6.53106
#
# Compressibility (1/GPa) = 0.02827084
#
# Stress axis : x y z
#
# Youngs Moduli (GPa) = 89.71855 72.45054 64.77989
#
# Poissons Ratio (x) = 0.09091 0.06509
# Poissons Ratio (y) = 0.11258 0.24601
# Poissons Ratio (z) = 0.09015 0.27514
#
# Static dielectric constant tensor:
#      x y z
#    x 2.041190 -0.018800 0.041650 
#    y -0.018800 1.903920 -0.102970 
#    z 0.041650 -0.102970 1.972560 
# 
# From -- ./inp_files/333720.got.cif
#   From: 2010.05.17/outbox.cif.g08.bks.cpg/sg2_167_cif.got.tgz:333720.got - 2010.06.03 11:33:40.
