data_PCOD9020982
_publ_section_title
;
Structure prediction by ZEFSAII (Michael W. Deem and Ramdas Pophale) SiO2 
 PCOD9020982
Probable space group: P -1
;
_chemical_formula_sum "Si O2"
_cell_formula_units_Z 14
_cell_length_a 11.812391
_cell_length_b 13.665267
_cell_length_c 13.653632
_cell_angle_alpha 59.901429
_cell_angle_beta 158.795543
_cell_angle_gamma 116.222926
_cell_volume 687.355210
_symmetry_space_group_name_H-M "P -1"
_symmetry_group_IT_number 2
_symmetry_cell_setting 'triclinic'
loop_
_space_group_symop_operation_xyz
x,y,z
-x,-y,-z
loop_
_atom_site_type_symbol
_atom_site_label
_atom_site_fract_x
_atom_site_fract_y
_atom_site_fract_z
Si Si1 0.310399 0.794786 0.775083
Si Si2 0.492782 0.396325 0.122198
Si Si3 0.736588 0.162246 0.913248
Si Si4 0.236481 0.056355 0.832230
Si Si5 0.226564 0.567631 0.462240
Si Si6 0.327731 0.282859 0.375734
Si Si7 0.791332 0.672666 0.527305
O O1 0.396215 0.716889 0.789958
O O2 0.078725 0.902455 0.500307
O O3 0.107213 0.722744 0.720342
O O4 0.615091 0.837362 0.050939
O O5 0.706912 0.419295 0.375934
O O6 0.500000 0.500000 0.000000
O O7 0.134846 0.392314 0.870525
O O8 0.544685 0.176952 0.650272
O O9 0.493441 0.229227 0.759528
O O10 0.036627 0.234088 0.112391
O O11 0.819130 0.037938 0.083633
O O12 0.500000 0.000000 0.000000
O O13 0.465333 0.640651 0.560203
O O14 0.271829 0.437602 0.529138
O O15 0.203766 0.350263 0.340311
#
# Coordination Sequence:
#
# PCOD9020982 Si02
#       7
#     2   2   2   2   2   2   2
#     4  12  25  40  65  94 137 157 218 256 319 387
#     4  12  27  44  65  91 130 180 209 258 308 375
#     4  10  22  37  63  95 132 157 208 257 335 368
#     4  12  22  39  65  97 126 169 201 268 331 370
#     4  12  25  42  69  90 134 172 216 252 315 384
#     4  10  22  41  62  99 130 165 210 264 322 371
#     4  10  24  36  67  99 132 163 203 273 320 382
#
# _framework density 20.367927000000002
#
# number of rings (size 3 to 8) (size 9 to 14) (size 15 to 20)
#    0.857    0.000    2.857    4.714    4.000    0.571 
#    0.000    0.000    0.000   17.143    0.000    0.000 
#    0.000    0.000    0.000    0.000    0.000    0.000 
#
# Total GULP energy -78258.998512 kJ/mol
# GULP energy per Si atom -5589.928465 kJ/mol
# Density = 2.032157 g / cm^3
# Si number density = 20.367927 Si / 1000 Ang^3
#
#
#
# Elastic Constant Matrix: (Units=GPa)
#
#
# Indices 1 2 3 4 5 6 
#
# 1 54.6293 18.8871 -9.9898 1.5567 6.2460 7.2467
# 2 18.8871 53.5531 -7.4040 4.7937 15.5967 11.7284
# 3 -9.9898 -7.4040 58.3368 12.1833 6.0559 -0.0911
# 4 1.5567 4.7937 12.1833 33.8681 5.6680 6.8399
# 5 6.2460 15.5967 6.0559 5.6680 32.5268 10.6139
# 6 7.2467 11.7284 -0.0911 6.8399 10.6139 22.0136
#
#
#
# Elastic Compliance Matrix: (Units=1/GPa)
#
#
# Indices 1 2 3 4 5 6 
#
# 1 0.021539 -0.006247 0.003036 -0.000430 -0.000535 -0.003358
# 2 -0.006247 0.025668 0.003504 -0.001719 -0.009314 -0.006580
# 3 0.003036 0.003504 0.020227 -0.007436 -0.005434 0.002148
# 4 -0.000430 -0.001719 -0.007436 0.034466 -0.000659 -0.009365
# 5 -0.000535 -0.009314 -0.005434 -0.000659 0.041182 -0.014535
# 6 -0.003358 -0.006580 0.002148 -0.009365 -0.014535 0.059964
#
#
# Mechanical properties :
#
#
# Convention : Reuss Voigt Hill
#
# Bulk Modulus (GPa) = 14.70189 18.83398 16.76793
# Shear Modulus (GPa) = 22.20897 28.68343 25.44620
#
# Velocity S-wave (km/s) = 3.30569 3.75676 3.53842
# Velocity P-wave (km/s) = 4.66947 5.29949 4.99442
#
# Compressibility (1/GPa) = 0.06801847
#
# Stress axis : x y z
#
# Youngs Moduli (GPa) = 46.42751 38.95902 49.43942
#
# Poissons Ratio (x) = 0.24337 -0.15008
# Poissons Ratio (y) = 0.29003 -0.17321
# Poissons Ratio (z) = -0.14094 -0.13649
#
# Static dielectric constant tensor:
#      x y z
#    x 1.719080 0.007070 -0.005080 
#    y 0.007070 1.698180 -0.023770 
#    z -0.005080 -0.023770 1.713830 
# 
# From -- ./inp_files/410456.got.cif
#   From: 2010.05.17/outbox.cif.g08.bks.cpg/sg2_206_cif.got.tgz:410456.got - 2010.06.03 11:33:40.
