data_PCOD9020360
_publ_section_title
;
Structure prediction by ZEFSAII (Michael W. Deem and Ramdas Pophale) SiO2 
 PCOD9020360
Probable space group: P -1
;
_chemical_formula_sum "Si O2"
_cell_formula_units_Z 16
_cell_length_a 14.721880
_cell_length_b 4.949821
_cell_length_c 11.533321
_cell_angle_alpha 94.690461
_cell_angle_beta 121.896233
_cell_angle_gamma 99.109638
_cell_volume 690.685475
_symmetry_space_group_name_H-M "P -1"
_symmetry_group_IT_number 2
_symmetry_cell_setting 'triclinic'
loop_
_space_group_symop_operation_xyz
x,y,z
-x,-y,-z
loop_
_atom_site_type_symbol
_atom_site_label
_atom_site_fract_x
_atom_site_fract_y
_atom_site_fract_z
Si Si1 0.410857 0.745381 0.691032
Si Si2 0.996959 0.236901 0.146991
Si Si3 0.655476 0.231471 0.083327
Si Si4 0.629609 0.663632 0.911081
Si Si5 0.920011 0.307423 0.590095
Si Si6 0.133987 0.344834 0.018778
Si Si7 0.275632 0.157625 0.559524
Si Si8 0.850584 0.620539 0.334208
O O1 0.390687 0.760975 0.817650
O O2 0.533903 0.710811 0.763960
O O3 0.326191 0.475245 0.570365
O O4 0.376389 0.011527 0.626857
O O5 0.042229 0.423991 0.293923
O O6 0.095084 0.269233 0.121264
O O7 0.905366 0.378386 0.031400
O O8 0.939248 0.913712 0.113083
O O9 0.778965 0.426506 0.182407
O O10 0.592333 0.387782 0.955903
O O11 0.655147 0.929520 0.023878
O O12 0.739057 0.637669 0.917728
O O13 0.871876 0.421129 0.446064
O O14 0.030857 0.220228 0.624511
O O15 0.828254 0.056456 0.575294
O O16 0.223749 0.189512 0.653459
#
# Coordination Sequence:
#
# PCOD9020360 Si02
#       8
#     2   2   2   2   2   2   2   2
#     4  11  23  37  54  80 119 154 190 229 275 328
#     4  10  23  40  63  86 115 146 179 233 292 337
#     4  11  21  36  54  85 118 148 186 231 279 334
#     4  12  22  36  61  82 111 155 191 229 282 331
#     4  11  21  37  59  83 113 155 187 221 284 340
#     4  10  22  42  60  89 115 138 187 240 280 333
#     4  11  21  39  52  80 120 153 185 232 270 327
#     4  10  22  35  55  86 118 147 187 229 272 342
#
# _framework density 23.165393999999999
#
# number of rings (size 3 to 8) (size 9 to 14) (size 15 to 20)
#    0.000    1.250    2.500    5.625    1.750    0.000 
#    0.000    0.000    0.000    1.500    0.000    0.000 
#    0.000    0.000    0.000    0.000    0.000    0.000 
#
# Total GULP energy -89542.412918 kJ/mol
# GULP energy per Si atom -5596.400807 kJ/mol
# Density = 2.311267 g / cm^3
# Si number density = 23.165394 Si / 1000 Ang^3
#
#
#
# Elastic Constant Matrix: (Units=GPa)
#
#
# Indices 1 2 3 4 5 6 
#
# 1 96.6731 9.2987 7.7955 -0.9246 18.1049 -16.7900
# 2 9.2987 90.3260 -3.7020 6.4055 -7.1963 -16.4088
# 3 7.7955 -3.7020 42.9152 13.3567 13.0127 -2.7089
# 4 -0.9246 6.4055 13.3567 33.3440 -3.3520 2.1503
# 5 18.1049 -7.1963 13.0127 -3.3520 25.8124 -1.8027
# 6 -16.7900 -16.4088 -2.7089 2.1503 -1.8027 22.4514
#
#
#
# Elastic Compliance Matrix: (Units=1/GPa)
#
#
# Indices 1 2 3 4 5 6 
#
# 1 0.013811 -0.000261 0.001789 -0.001939 -0.010235 0.009717
# 2 -0.000261 0.013647 0.002143 -0.003858 0.003151 0.010660
# 3 0.001789 0.002143 0.034881 -0.016797 -0.019926 0.007121
# 4 -0.001939 -0.003858 -0.016797 0.039316 0.013229 -0.009000
# 5 -0.010235 0.003151 -0.019926 0.013229 0.058258 -0.004344
# 6 0.009717 0.010660 0.007121 -0.009000 -0.004344 0.060971
#
#
# Mechanical properties :
#
#
# Convention : Reuss Voigt Hill
#
# Bulk Modulus (GPa) = 14.35139 28.52209 21.43674
# Shear Modulus (GPa) = 21.11769 30.75636 25.93703
#
# Velocity S-wave (km/s) = 3.02256 3.64770 3.34974
# Velocity P-wave (km/s) = 4.28833 5.48452 4.92289
#
# Compressibility (1/GPa) = 0.06967964
#
# Stress axis : x y z
#
# Youngs Moduli (GPa) = 72.40660 73.27727 28.66918
#
# Poissons Ratio (x) = 0.01913 -0.05129
# Poissons Ratio (y) = 0.01891 -0.06143
# Poissons Ratio (z) = -0.12954 -0.15701
#
# Static dielectric constant tensor:
#      x y z
#    x 1.889260 0.010320 0.039200 
#    y 0.010320 1.881410 -0.002770 
#    z 0.039200 -0.002770 1.894420 
# 
# From -- ./inp_files/442183.got.cif
#   From: 2010.05.17/outbox.cif.g08.bks.cpg/sg2_222_cif.got.tgz:442183.got - 2010.06.03 11:33:40.
