data_PCOD9020595
_publ_section_title
;
Structure prediction by ZEFSAII (Michael W. Deem and Ramdas Pophale) SiO2 
 PCOD9020595
Probable space group: P -1
;
_chemical_formula_sum "Si O2"
_cell_formula_units_Z 12
_cell_length_a 16.590813
_cell_length_b 10.731268
_cell_length_c 7.071687
_cell_angle_alpha 45.976240
_cell_angle_beta 37.135003
_cell_angle_gamma 34.098079
_cell_volume 423.850964
_symmetry_space_group_name_H-M "P -1"
_symmetry_group_IT_number 2
_symmetry_cell_setting 'triclinic'
loop_
_space_group_symop_operation_xyz
x,y,z
-x,-y,-z
loop_
_atom_site_type_symbol
_atom_site_label
_atom_site_fract_x
_atom_site_fract_y
_atom_site_fract_z
Si Si1 0.470300 0.543986 0.736955
Si Si2 0.093874 0.047031 0.512006
Si Si3 0.956327 0.517267 0.344207
Si Si4 0.674008 0.684153 0.214963
Si Si5 0.470228 0.858821 0.019001
Si Si6 0.159276 0.022150 0.973419
O O1 0.500000 0.500000 0.500000
O O2 0.631316 0.525980 0.520577
O O3 0.469229 0.346890 0.009374
O O4 0.311880 0.787900 0.842903
O O5 0.952170 0.315343 0.525712
O O6 0.141636 0.002278 0.249393
O O7 0.276215 0.963309 0.346367
O O8 0.014187 0.926255 0.844137
O O9 0.000000 0.500000 0.500000
O O10 0.128053 0.438207 0.996331
O O11 0.826156 0.782519 0.278561
O O12 0.607555 0.755768 0.042943
O O13 0.563781 0.932716 0.239145
#
# Coordination Sequence:
#
# PCOD9020595 Si02
#       6
#     2   2   2   2   2   2
#     4  10  22  36  62  92 128 165 209 266 312 376
#     4  10  24  45  66  94 132 173 212 262 321 390
#     4  11  25  40  71  97 124 171 217 272 320 372
#     4   9  20  38  59  91 126 158 212 268 307 373
#     4   9  19  38  61  86 127 163 208 255 314 374
#     4  11  25  43  65  96 135 170 212 262 324 386
#
# _framework density 28.31184
#
# number of rings (size 3 to 8) (size 9 to 14) (size 15 to 20)
#    0.000    2.000    0.000    1.500   16.333    1.333 
#    0.000    3.333    0.000    0.000    0.000    0.000 
#    0.000    0.000    0.000    0.000    0.000    0.000 
#
# Total GULP energy -67143.908938 kJ/mol
# GULP energy per Si atom -5595.325745 kJ/mol
# Density = 2.824740 g / cm^3
# Si number density = 28.311840 Si / 1000 Ang^3
#
#
#
# Elastic Constant Matrix: (Units=GPa)
#
#
# Indices 1 2 3 4 5 6 
#
# 1 95.7382 27.7241 29.1078 -0.9762 -0.8336 12.8774
# 2 27.7241 252.6659 39.4715 -9.1278 -6.9690 40.7967
# 3 29.1078 39.4715 36.2602 1.5192 -15.1814 14.1389
# 4 -0.9762 -9.1278 1.5192 47.9533 -2.2319 -11.3500
# 5 -0.8336 -6.9690 -15.1814 -2.2319 53.8655 12.1867
# 6 12.8774 40.7967 14.1389 -11.3500 12.1867 44.8459
#
#
#
# Elastic Compliance Matrix: (Units=1/GPa)
#
#
# Indices 1 2 3 4 5 6 
#
# 1 0.014465 0.000341 -0.014227 0.000943 -0.004008 0.001349
# 2 0.000341 0.005190 -0.004576 0.000359 0.000155 -0.003328
# 3 -0.014227 -0.004576 0.059142 -0.006215 0.019507 -0.017272
# 4 0.000943 0.000359 -0.006215 0.022875 -0.002515 0.007835
# 5 -0.004008 0.000155 0.019507 -0.002515 0.026875 -0.013080
# 6 0.001349 -0.003328 -0.017272 0.007835 -0.013080 0.035921
#
#
# Mechanical properties :
#
#
# Convention : Reuss Voigt Hill
#
# Bulk Modulus (GPa) = 23.88116 64.14123 44.01119
# Shear Modulus (GPa) = 23.21808 48.55700 35.88754
#
# Velocity S-wave (km/s) = 2.86682 4.14584 3.56417
# Velocity P-wave (km/s) = 4.40585 6.75439 5.70234
#
# Compressibility (1/GPa) = 0.04187402
#
# Stress axis : x y z
#
# Youngs Moduli (GPa) = 69.13230 192.68737 16.90844
#
# Poissons Ratio (x) = -0.06569 0.24055
# Poissons Ratio (y) = -0.02357 0.07737
# Poissons Ratio (z) = 0.98351 0.88170
#
# Static dielectric constant tensor:
#      x y z
#    x 2.412920 0.005640 0.043890 
#    y 0.005640 2.228370 -0.000180 
#    z 0.043890 -0.000180 2.291780 
# 
# From -- ./inp_files/240797.got.cif
#   From: 2010.05.17/outbox.cif.g08.bks.cpg/sg2_121_cif.got.tgz:240797.got - 2010.06.03 11:33:40.
