data_PCOD9020687
_publ_section_title
;
Structure prediction by ZEFSAII (Michael W. Deem and Ramdas Pophale) SiO2 
 PCOD9020687
Probable space group: P -1
;
_chemical_formula_sum "Si O2"
_cell_formula_units_Z 13
_cell_length_a 9.259729
_cell_length_b 20.217405
_cell_length_c 7.898650
_cell_angle_alpha 42.317495
_cell_angle_beta 130.937053
_cell_angle_gamma 153.396938
_cell_volume 445.710214
_symmetry_space_group_name_H-M "P -1"
_symmetry_group_IT_number 2
_symmetry_cell_setting 'triclinic'
loop_
_space_group_symop_operation_xyz
x,y,z
-x,-y,-z
loop_
_atom_site_type_symbol
_atom_site_label
_atom_site_fract_x
_atom_site_fract_y
_atom_site_fract_z
Si Si1 0.155969 0.769441 0.716165
Si Si2 0.570845 0.159950 0.558835
Si Si3 0.000000 0.500000 0.000000
Si Si4 0.873078 0.495371 0.588051
Si Si5 0.134794 0.175771 0.420715
Si Si6 0.106074 0.276602 0.889645
Si Si7 0.773813 0.961972 0.033003
O O1 0.328500 0.851988 0.512743
O O2 0.971876 0.790807 0.584615
O O3 0.919443 0.580397 0.858764
O O4 0.440757 0.865586 0.885897
O O5 0.741578 0.175091 0.815725
O O6 0.776468 0.345484 0.338715
O O7 0.195002 0.008254 0.554343
O O8 0.712459 0.386340 0.840025
O O9 0.000000 0.500000 0.500000
O O10 0.742626 0.553105 0.356795
O O11 0.330169 0.168022 0.666740
O O12 0.261013 0.294357 0.141007
O O13 0.006770 0.141835 0.954095
O O14 0.000000 0.000000 0.000000
#
# Coordination Sequence:
#
# PCOD9020687 Si02
#       7
#     2   2   1   2   2   2   2
#     4  11  21  41  60  93 118 163 211 249 307 370
#     4   9  19  34  59  87 120 151 198 251 305 364
#     4  10  22  36  66  88 118 168 212 250 300 374
#     4   9  19  36  60  90 118 161 209 251 304 365
#     4  12  21  37  65  89 127 158 196 267 319 359
#     4  10  22  37  57  95 125 152 212 255 307 373
#     4  12  24  37  63  92 125 162 199 256 315 371
#
# _framework density 29.166934999999999
#
# number of rings (size 3 to 8) (size 9 to 14) (size 15 to 20)
#    0.923    0.615    3.077    3.231    0.000    0.000 
#    0.000    0.769    0.000    1.846    0.000    0.000 
#    0.000    0.000    0.000    0.000    0.000    0.000 
#
# Total GULP energy -72392.530477 kJ/mol
# GULP energy per Si atom -5568.656191 kJ/mol
# Density = 2.910055 g / cm^3
# Si number density = 29.166935 Si / 1000 Ang^3
#
#
#
# Elastic Constant Matrix: (Units=GPa)
#
#
# Indices 1 2 3 4 5 6 
#
# 1 146.3200 57.7881 42.8707 -3.3136 21.7816 -42.8913
# 2 57.7881 100.5351 24.4896 18.1706 12.0497 -23.9141
# 3 42.8707 24.4896 192.5869 14.4409 25.2195 -17.3413
# 4 -3.3136 18.1706 14.4409 51.8724 -16.8760 -1.2711
# 5 21.7816 12.0497 25.2195 -16.8760 51.0857 -7.2781
# 6 -42.8913 -23.9141 -17.3413 -1.2711 -7.2781 65.2609
#
#
#
# Elastic Compliance Matrix: (Units=1/GPa)
#
#
# Indices 1 2 3 4 5 6 
#
# 1 0.010919 -0.005108 -0.001378 0.002592 -0.001223 0.004852
# 2 -0.005108 0.014816 0.000359 -0.006706 -0.003475 0.001650
# 3 -0.001378 0.000359 0.006179 -0.003063 -0.003500 0.000418
# 4 0.002592 -0.006706 -0.003063 0.026107 0.010631 0.000126
# 5 -0.001223 -0.003475 -0.003500 0.010631 0.026173 0.000119
# 6 0.004852 0.001650 0.000418 0.000126 0.000119 0.019243
#
#
# Mechanical properties :
#
#
# Convention : Reuss Voigt Hill
#
# Bulk Modulus (GPa) = 50.86405 76.63765 63.75085
# Shear Modulus (GPa) = 40.90177 54.59670 47.74924
#
# Velocity S-wave (km/s) = 3.74884 4.33120 4.05050
# Velocity P-wave (km/s) = 6.01790 7.16554 6.61665
#
# Compressibility (1/GPa) = 0.01966025
#
# Stress axis : x y z
#
# Youngs Moduli (GPa) = 91.58720 67.49339 161.83515
#
# Poissons Ratio (x) = 0.34476 0.22305
# Poissons Ratio (y) = 0.46783 -0.05817
# Poissons Ratio (z) = 0.12623 -0.02426
#
# Static dielectric constant tensor:
#      x y z
#    x 1.833700 -0.115650 0.553720 
#    y -0.115650 2.464270 -0.007120 
#    z 0.553720 -0.007120 1.570140 
# 
# From -- ./inp_files/209855.got.cif
#   From: 2010.05.17/outbox.cif.g08.bks.cpg/sg2_105_cif.got.tgz:209855.got - 2010.06.03 11:33:40.
