data_PCOD9020086
_publ_section_title
;
Structure prediction by ZEFSAII (Michael W. Deem and Ramdas Pophale) SiO2 
 PCOD9020086
Probable space group: P -1
;
_chemical_formula_sum "Si O2"
_cell_formula_units_Z 16
_cell_length_a 17.540699
_cell_length_b 5.360938
_cell_length_c 21.426841
_cell_angle_alpha 121.632332
_cell_angle_beta 154.185997
_cell_angle_gamma 73.450353
_cell_volume 644.708638
_symmetry_space_group_name_H-M "P -1"
_symmetry_group_IT_number 2
_symmetry_cell_setting 'triclinic'
loop_
_space_group_symop_operation_xyz
x,y,z
-x,-y,-z
loop_
_atom_site_type_symbol
_atom_site_label
_atom_site_fract_x
_atom_site_fract_y
_atom_site_fract_z
Si Si1 0.794230 0.662268 0.098175
Si Si2 0.946097 0.581762 0.675203
Si Si3 0.609579 0.232279 0.795659
Si Si4 0.031152 0.545713 0.102928
Si Si5 0.361236 0.208459 0.501503
Si Si6 0.666512 0.647469 0.697113
Si Si7 0.912378 0.245342 0.480666
Si Si8 0.296258 0.966335 0.819227
O O1 0.943131 0.516136 0.203591
O O2 0.910140 0.035660 0.198128
O O3 0.724483 0.736224 0.123431
O O4 0.612947 0.359166 0.885015
O O5 0.741620 0.562001 0.545332
O O6 0.881035 0.303171 0.536296
O O7 0.413784 0.173865 0.606453
O O8 0.658310 0.946647 0.767441
O O9 0.830991 0.539927 0.979058
O O10 0.118354 0.301605 0.158467
O O11 0.209654 0.890119 0.308041
O O12 0.000000 0.500000 0.000000
O O13 0.575544 0.359242 0.645099
O O14 0.500000 0.500000 0.500000
O O15 0.714317 0.078938 0.269100
O O16 0.091850 0.619908 0.642210
O O17 0.000000 0.000000 0.500000
O O18 0.500000 0.000000 0.000000
#
# Coordination Sequence:
#
# PCOD9020086 Si02
#       8
#     2   2   2   2   2   2   2   2
#     4  11  26  48  72 106 147 193 236 292 358 430
#     4  11  26  47  75 101 152 191 236 294 360 421
#     4  12  27  45  68 100 139 184 237 287 368 422
#     4  12  24  47  70  91 136 180 230 297 360 416
#     4  12  27  46  67 104 139 183 239 293 358 434
#     4  12  26  45  70 100 133 180 240 300 351 430
#     4  10  21  46  70 102 143 189 234 292 351 415
#     4  10  23  44  72 106 143 186 244 290 348 421
#
# _framework density 24.817412000000001
#
# number of rings (size 3 to 8) (size 9 to 14) (size 15 to 20)
#    0.000    0.750    5.000    1.500    8.750    0.500 
#    2.250    0.000    0.000    0.000    0.000    0.000 
#    0.000    0.000    0.000    0.000    0.000    0.000 
#
# Total GULP energy -89299.358327 kJ/mol
# GULP energy per Si atom -5581.209895 kJ/mol
# Density = 2.476093 g / cm^3
# Si number density = 24.817412 Si / 1000 Ang^3
#
#
#
# Elastic Constant Matrix: (Units=GPa)
#
#
# Indices 1 2 3 4 5 6 
#
# 1 45.7115 16.2830 33.4879 18.4743 -28.5695 -18.6753
# 2 16.2830 103.7377 48.6118 -6.8221 -22.5948 -28.1626
# 3 33.4879 48.6118 180.7731 -16.3220 -47.2858 -14.2309
# 4 18.4743 -6.8221 -16.3220 44.0177 -13.0139 -8.7820
# 5 -28.5695 -22.5948 -47.2858 -13.0139 51.7944 7.5065
# 6 -18.6753 -28.1626 -14.2309 -8.7820 7.5065 44.9800
#
#
#
# Elastic Compliance Matrix: (Units=1/GPa)
#
#
# Indices 1 2 3 4 5 6 
#
# 1 0.045741 0.001195 -0.004764 -0.013425 0.016158 0.012915
# 2 0.001195 0.013960 -0.001540 0.004363 0.005173 0.008738
# 3 -0.004764 -0.001540 0.009364 0.007377 0.007062 0.000282
# 4 -0.013425 0.004363 0.007377 0.035528 0.009457 0.004850
# 5 0.016158 0.005173 0.007062 0.009457 0.038190 0.007655
# 6 0.012915 0.008738 0.000282 0.004850 0.007655 0.032824
#
#
# Mechanical properties :
#
#
# Convention : Reuss Voigt Hill
#
# Bulk Modulus (GPa) = 16.99335 58.55419 37.77377
# Shear Modulus (GPa) = 24.33792 43.61439 33.97615
#
# Velocity S-wave (km/s) = 3.13498 4.19670 3.70407
# Velocity P-wave (km/s) = 4.46837 6.86500 5.79200
#
# Compressibility (1/GPa) = 0.05884655
#
# Stress axis : x y z
#
# Youngs Moduli (GPa) = 21.86214 71.63480 106.79170
#
# Poissons Ratio (x) = -0.08561 0.50874
# Poissons Ratio (y) = -0.02613 0.16451
# Poissons Ratio (z) = 0.10415 0.11035
#
# Static dielectric constant tensor:
#      x y z
#    x 2.318460 0.177380 0.010730 
#    y 0.177380 2.132330 0.070070 
#    z 0.010730 0.070070 2.011960 
# 
# From -- ./inp_files/47278.got.cif
#   From: 2010.05.17/outbox.cif.g08.bks.cpg/sg2_24_cif.got.tgz:47278.got - 2010.06.03 11:33:40.
