data_PCOD9020844
_publ_section_title
;
Structure prediction by ZEFSAII (Michael W. Deem and Ramdas Pophale) SiO2 
 PCOD9020844
Probable space group: P -1
;
_chemical_formula_sum "Si O2"
_cell_formula_units_Z 12
_cell_length_a 15.566144
_cell_length_b 5.330406
_cell_length_c 20.075848
_cell_angle_alpha 96.555404
_cell_angle_beta 19.885748
_cell_angle_gamma 89.308648
_cell_volume 526.576779
_symmetry_space_group_name_H-M "P -1"
_symmetry_group_IT_number 2
_symmetry_cell_setting 'triclinic'
loop_
_space_group_symop_operation_xyz
x,y,z
-x,-y,-z
loop_
_atom_site_type_symbol
_atom_site_label
_atom_site_fract_x
_atom_site_fract_y
_atom_site_fract_z
Si Si1 0.089624 0.072538 0.273871
Si Si2 0.880260 0.276706 0.053764
Si Si3 0.256127 0.509290 0.555415
Si Si4 0.611449 0.721860 0.827553
Si Si5 0.960556 0.802854 0.467030
Si Si6 0.211803 0.066491 0.675793
O O1 0.266258 0.106349 0.208246
O O2 0.947266 0.359248 0.352611
O O3 0.887699 0.950680 0.454076
O O4 0.292773 0.862821 0.068950
O O5 0.560007 0.394373 0.302611
O O6 0.000000 0.500000 0.000000
O O7 0.979260 0.199677 0.903637
O O8 0.000000 0.000000 0.000000
O O9 0.200525 0.281417 0.632683
O O10 0.216100 0.778712 0.636836
O O11 0.746942 0.431943 0.753557
O O12 0.736999 0.701948 0.661435
O O13 0.000000 0.000000 0.500000
O O14 0.500000 0.000000 0.500000
#
# Coordination Sequence:
#
# PCOD9020844 Si02
#       6
#     2   2   2   2   2   2
#     4  10  22  37  60  89 125 164 211 257 317 368
#     4  12  23  43  72  92 124 172 214 264 333 390
#     4  12  26  43  66 104 131 170 221 277 316 394
#     4   9  19  39  61  84 125 170 205 252 318 373
#     4   9  18  36  61  85 115 166 209 252 307 382
#     4  12  24  45  70  94 132 171 219 268 335 396
#
# _framework density 22.788696999999999
#
# number of rings (size 3 to 8) (size 9 to 14) (size 15 to 20)
#    0.000    1.333    3.333    2.000    2.333    1.333 
#    9.000    0.000    0.000    0.000    0.000    0.000 
#    0.000    0.000    0.000    0.000    0.000    0.000 
#
# Total GULP energy -67049.655951 kJ/mol
# GULP energy per Si atom -5587.471329 kJ/mol
# Density = 2.273683 g / cm^3
# Si number density = 22.788697 Si / 1000 Ang^3
#
#
#
# Elastic Constant Matrix: (Units=GPa)
#
#
# Indices 1 2 3 4 5 6 
#
# 1 67.8091 36.5133 50.0096 -14.3171 9.6344 -23.0697
# 2 36.5133 142.3670 49.6886 6.2983 9.6319 -30.8004
# 3 50.0096 49.6886 175.7031 13.1753 21.7303 -23.3985
# 4 -14.3171 6.2983 13.1753 29.9178 -0.6065 8.5581
# 5 9.6344 9.6319 21.7303 -0.6065 28.0747 1.1930
# 6 -23.0697 -30.8004 -23.3985 8.5581 1.1930 54.7859
#
#
#
# Elastic Compliance Matrix: (Units=1/GPa)
#
#
# Indices 1 2 3 4 5 6 
#
# 1 0.027037 -0.004290 -0.006907 0.015806 -0.002273 0.003604
# 2 -0.004290 0.009500 -0.000278 -0.005189 -0.001866 0.004267
# 3 -0.006907 -0.000278 0.009256 -0.008069 -0.004969 0.002258
# 4 0.015806 -0.005189 -0.008069 0.047791 0.003943 -0.007259
# 5 -0.002273 -0.001866 -0.004969 0.003943 0.041210 -0.005641
# 6 0.003604 0.004267 0.002258 -0.007259 -0.005641 0.024391
#
#
# Mechanical properties :
#
#
# Convention : Reuss Voigt Hill
#
# Bulk Modulus (GPa) = 43.77168 73.14468 58.45818
# Shear Modulus (GPa) = 26.35076 39.20019 32.77547
#
# Velocity S-wave (km/s) = 3.40414 4.15198 3.79652
# Velocity P-wave (km/s) = 5.89069 7.42643 6.70269
#
# Compressibility (1/GPa) = 0.02284582
#
# Stress axis : x y z
#
# Youngs Moduli (GPa) = 36.98637 105.26167 108.03801
#
# Poissons Ratio (x) = 0.45152 0.74617
# Poissons Ratio (y) = 0.15865 0.02999
# Poissons Ratio (z) = 0.25545 0.02922
#
# Static dielectric constant tensor:
#      x y z
#    x 1.904000 0.038300 0.018460 
#    y 0.038300 1.888510 -0.063560 
#    z 0.018460 -0.063560 1.889360 
# 
# From -- ./inp_files/97905.got.cif
#   From: 2010.05.17/outbox.cif.g08.bks.cpg/sg2_49_cif.got.tgz:97905.got - 2010.06.03 11:33:40.
