data_PCOD9020692
_publ_section_title
;
Structure prediction by ZEFSAII (Michael W. Deem and Ramdas Pophale) SiO2 
 PCOD9020692
Probable space group: P -1
;
_chemical_formula_sum "Si O2"
_cell_formula_units_Z 13
_cell_length_a 14.302427
_cell_length_b 17.185596
_cell_length_c 4.958150
_cell_angle_alpha 67.798787
_cell_angle_beta 105.734634
_cell_angle_gamma 154.955020
_cell_volume 469.724172
_symmetry_space_group_name_H-M "P -1"
_symmetry_group_IT_number 2
_symmetry_cell_setting 'triclinic'
loop_
_space_group_symop_operation_xyz
x,y,z
-x,-y,-z
loop_
_atom_site_type_symbol
_atom_site_label
_atom_site_fract_x
_atom_site_fract_y
_atom_site_fract_z
Si Si1 0.903483 0.743485 0.716230
Si Si2 0.405360 0.533417 0.664294
Si Si3 0.993118 0.348591 0.982269
Si Si4 0.363463 0.820566 0.763033
Si Si5 0.183967 0.102119 0.204647
Si Si6 0.000000 0.500000 0.500000
Si Si7 0.516516 0.255106 0.888442
O O1 0.701022 0.584311 0.543167
O O2 0.049097 0.939390 0.523262
O O3 0.074983 0.796936 0.778477
O O4 0.830382 0.296730 0.033519
O O5 0.212335 0.364746 0.947376
O O6 0.643783 0.698135 0.777033
O O7 0.460956 0.674426 0.458645
O O8 0.996106 0.387383 0.630358
O O9 0.238439 0.541801 0.053787
O O10 0.232715 0.676764 0.604193
O O11 0.500000 0.000000 0.500000
O O12 0.509527 0.865291 0.974081
O O13 0.332158 0.157913 0.052569
O O14 0.000000 0.000000 0.000000
#
# Coordination Sequence:
#
# PCOD9020692 Si02
#       7
#     2   2   2   2   2   1   2
#     4  11  27  46  78 108 151 197 244 302 378 439
#     4  11  25  51  73 109 152 192 243 314 369 439
#     4  10  22  41  67 103 139 191 233 290 360 429
#     4  11  24  39  67 104 140 185 245 289 357 437
#     4  12  28  50  78 112 145 196 252 311 374 444
#     4  10  22  36  66  92 140 182 230 278 350 404
#     4  10  23  46  71 105 149 193 244 305 367 436
#
# _framework density 27.675820000000002
#
# number of rings (size 3 to 8) (size 9 to 14) (size 15 to 20)
#    0.000    1.231    3.077    2.769    8.615    3.692 
#    0.000    0.000    0.000    0.000    0.000    0.000 
#    0.000    0.000    0.000    0.000    0.000    0.000 
#
# Total GULP energy -72510.969565 kJ/mol
# GULP energy per Si atom -5577.766890 kJ/mol
# Density = 2.761283 g / cm^3
# Si number density = 27.675820 Si / 1000 Ang^3
#
#
#
# Elastic Constant Matrix: (Units=GPa)
#
#
# Indices 1 2 3 4 5 6 
#
# 1 119.3006 26.2622 42.1609 -13.8138 6.8195 30.1782
# 2 26.2622 147.2108 34.7691 8.3967 4.6876 8.3444
# 3 42.1609 34.7691 134.9380 -4.9778 0.5794 0.0313
# 4 -13.8138 8.3967 -4.9778 59.3558 2.4533 3.7996
# 5 6.8195 4.6876 0.5794 2.4533 44.7167 -9.0014
# 6 30.1782 8.3444 0.0313 3.7996 -9.0014 38.4391
#
#
#
# Elastic Compliance Matrix: (Units=1/GPa)
#
#
# Indices 1 2 3 4 5 6 
#
# 1 0.013722 -0.000930 -0.003879 0.003959 -0.004584 -0.012033
# 2 -0.000930 0.007511 -0.001691 -0.001330 -0.000740 -0.000941
# 3 -0.003879 -0.001691 0.009044 -0.000204 0.001419 0.003758
# 4 0.003959 -0.001330 -0.000204 0.018379 -0.002522 -0.005227
# 5 -0.004584 -0.000740 0.001419 -0.002522 0.025257 0.009923
# 6 -0.012033 -0.000941 0.003758 -0.005227 0.009923 0.038504
#
#
# Mechanical properties :
#
#
# Convention : Reuss Voigt Hill
#
# Bulk Modulus (GPa) = 57.87658 67.53706 62.70682
# Shear Modulus (GPa) = 38.11690 48.38613 43.25151
#
# Velocity S-wave (km/s) = 3.71518 4.18583 3.95750
# Velocity P-wave (km/s) = 6.27384 6.91501 6.60222
#
# Compressibility (1/GPa) = 0.01727815
#
# Stress axis : x y z
#
# Youngs Moduli (GPa) = 72.87436 133.14065 110.57052
#
# Poissons Ratio (x) = 0.12376 0.42895
# Poissons Ratio (y) = 0.06774 0.18692
# Poissons Ratio (z) = 0.28271 0.22508
#
# Static dielectric constant tensor:
#      x y z
#    x 2.332000 -0.124000 0.305110 
#    y -0.124000 2.338030 -0.231710 
#    z 0.305110 -0.231710 2.154930 
# 
# From -- ./inp_files/112167.got.cif
#   From: 2010.05.17/outbox.cif.g08.bks.cpg/sg2_57_cif.got.tgz:112167.got - 2010.06.03 11:33:40.
