data_PCOD9020769
_publ_section_title
;
Structure prediction by ZEFSAII (Michael W. Deem and Ramdas Pophale) SiO2 
 PCOD9020769
Probable space group: P -1
;
_chemical_formula_sum "Si O2"
_cell_formula_units_Z 14
_cell_length_a 23.372593
_cell_length_b 14.123856
_cell_length_c 7.764410
_cell_angle_alpha 45.214743
_cell_angle_beta 134.488515
_cell_angle_gamma 157.387834
_cell_volume 687.393542
_symmetry_space_group_name_H-M "P -1"
_symmetry_group_IT_number 2
_symmetry_cell_setting 'triclinic'
loop_
_space_group_symop_operation_xyz
x,y,z
-x,-y,-z
loop_
_atom_site_type_symbol
_atom_site_label
_atom_site_fract_x
_atom_site_fract_y
_atom_site_fract_z
Si Si1 0.609078 0.855744 0.670587
Si Si2 0.613847 0.579890 0.516021
Si Si3 0.445371 0.872564 0.330711
Si Si4 0.175812 0.922312 0.861072
Si Si5 0.845705 0.406482 0.781005
Si Si6 0.134454 0.602186 0.575411
Si Si7 0.681082 0.379320 0.989475
O O1 0.489660 0.603919 0.632803
O O2 0.520533 0.845818 0.601798
O O3 0.715033 0.095787 0.461864
O O4 0.721732 0.937272 0.930396
O O5 0.500000 0.500000 0.500000
O O6 0.678479 0.535227 0.794205
O O7 0.752489 0.867367 0.380594
O O8 0.302889 0.720261 0.331550
O O9 0.386310 0.746099 0.180149
O O10 0.570223 0.160589 0.180991
O O11 0.996820 0.684256 0.823543
O O12 0.183247 0.784751 0.969175
O O13 0.876987 0.429673 0.614292
O O14 0.000000 0.500000 0.500000
O O15 0.167715 0.498813 0.841286
#
# Coordination Sequence:
#
# PCOD9020769 Si02
#       7
#     2   2   2   2   2   2   2
#     4   9  21  39  59  89 113 158 200 246 297 350
#     4  11  22  37  61  86 124 161 198 239 299 362
#     4   9  18  37  62  86 118 147 203 254 294 346
#     4  10  22  37  57  89 118 152 200 239 295 357
#     4  10  22  37  62  90 114 155 205 248 297 350
#     4  10  22  37  64  88 122 153 199 253 300 350
#     4   9  20  36  59  91 118 156 197 250 296 353
#
# _framework density 20.366790999999999
#
# number of rings (size 3 to 8) (size 9 to 14) (size 15 to 20)
#    0.000    2.286    0.000    2.143    8.000    6.286 
#    0.000    3.571    3.143    0.000    0.000    0.000 
#    0.000    0.000    0.000    0.000    0.000    0.000 
#
# Total GULP energy -78096.206936 kJ/mol
# GULP energy per Si atom -5578.300495 kJ/mol
# Density = 2.032043 g / cm^3
# Si number density = 20.366791 Si / 1000 Ang^3
#
#
#
# Elastic Constant Matrix: (Units=GPa)
#
#
# Indices 1 2 3 4 5 6 
#
# 1 112.8057 53.5539 49.4444 4.1834 21.6025 31.1070
# 2 53.5539 108.7258 43.7174 -2.8530 17.4544 9.1953
# 3 49.4444 43.7174 113.0838 -5.1935 24.9831 1.8282
# 4 4.1834 -2.8530 -5.1935 35.4607 -2.4683 9.4757
# 5 21.6025 17.4544 24.9831 -2.4683 28.4164 11.0977
# 6 31.1070 9.1953 1.8282 9.4757 11.0977 31.0957
#
#
#
# Elastic Compliance Matrix: (Units=1/GPa)
#
#
# Indices 1 2 3 4 5 6 
#
# 1 0.018603 -0.005467 -0.006000 0.001278 0.001455 -0.017549
# 2 -0.005467 0.012957 -0.001956 0.000457 -0.003107 0.002721
# 3 -0.006000 -0.001956 0.014418 -0.000710 -0.010805 0.009805
# 4 0.001278 0.000457 -0.000710 0.032227 0.007602 -0.013905
# 5 0.001455 -0.003107 -0.010805 0.007602 0.054634 -0.021716
# 6 -0.017549 0.002721 0.009805 -0.013905 -0.021716 0.060321
#
#
# Mechanical properties :
#
#
# Convention : Reuss Voigt Hill
#
# Bulk Modulus (GPa) = 52.26086 69.78295 61.02191
# Shear Modulus (GPa) = 22.08658 31.52120 26.80389
#
# Velocity S-wave (km/s) = 3.29666 3.93832 3.63169
# Velocity P-wave (km/s) = 6.34083 7.41741 6.90015
#
# Compressibility (1/GPa) = 0.01913478
#
# Stress axis : x y z
#
# Youngs Moduli (GPa) = 53.75457 77.17879 69.35670
#
# Poissons Ratio (x) = 0.42190 0.41612
# Poissons Ratio (y) = 0.29385 0.13563
# Poissons Ratio (z) = 0.32251 0.15092
#
# Static dielectric constant tensor:
#      x y z
#    x 1.736150 -0.001550 0.000790 
#    y -0.001550 1.762560 0.036600 
#    z 0.000790 0.036600 1.793330 
# 
# From -- ./inp_files/238632.got.cif
#   From: 2010.05.17/outbox.cif.g08.bks.cpg/sg2_120_cif.got.tgz:238632.got - 2010.06.03 11:33:40.
