data_PCOD9020028
_publ_section_title
;
Structure prediction by ZEFSAII (Michael W. Deem and Ramdas Pophale) SiO2 
 PCOD9020028
Probable space group: P -1
;
_chemical_formula_sum "Si O2"
_cell_formula_units_Z 14
_cell_length_a 14.113498
_cell_length_b 8.465873
_cell_length_c 9.236534
_cell_angle_alpha 87.891804
_cell_angle_beta 142.291862
_cell_angle_gamma 115.404882
_cell_volume 510.136809
_symmetry_space_group_name_H-M "P -1"
_symmetry_group_IT_number 2
_symmetry_cell_setting 'triclinic'
loop_
_space_group_symop_operation_xyz
x,y,z
-x,-y,-z
loop_
_atom_site_type_symbol
_atom_site_label
_atom_site_fract_x
_atom_site_fract_y
_atom_site_fract_z
Si Si1 0.294982 0.154953 0.166428
Si Si2 0.467792 0.205983 0.897407
Si Si3 0.015644 0.850865 0.356564
Si Si4 0.878954 0.546691 0.940764
Si Si5 0.635445 0.637263 0.481011
Si Si6 0.891858 0.565504 0.463121
Si Si7 0.684721 0.168226 0.902849
O O1 0.430528 0.400942 0.281539
O O2 0.290119 0.166967 0.333596
O O3 0.386611 0.049409 0.231658
O O4 0.080368 0.055799 0.832305
O O5 0.405837 0.319943 0.726840
O O6 0.561312 0.144121 0.895553
O O7 0.246561 0.006134 0.691438
O O8 0.659846 0.365753 0.229506
O O9 0.880342 0.703105 0.332905
O O10 0.000828 0.715276 0.211467
O O11 0.803158 0.621531 0.729355
O O12 0.697194 0.330447 0.809563
O O13 0.000000 0.500000 0.000000
O O14 0.000000 0.500000 0.500000
O O15 0.071947 0.704202 0.788776
#
# Coordination Sequence:
#
# PCOD9020028 Si02
#       7
#     2   2   2   2   2   2   2
#     4  10  22  40  66  95 131 174 217 269 337 385
#     4  11  23  42  70  97 129 181 218 267 333 383
#     4  11  23  43  66  98 130 179 217 267 338 386
#     4  11  25  41  64 101 137 168 220 280 325 395
#     4  10  22  42  65  91 141 172 211 274 334 394
#     4  10  21  46  66  93 138 171 223 270 324 389
#     4  11  24  42  68  97 132 176 221 275 322 391
#
# _framework density 27.443619999999999
#
# number of rings (size 3 to 8) (size 9 to 14) (size 15 to 20)
#    0.000    1.429    4.286    1.714    6.000    5.143 
#    0.000    0.714    0.000    0.000    0.000    0.000 
#    0.000    0.000    0.000    0.000    0.000    0.000 
#
# Total GULP energy -78362.910114 kJ/mol
# GULP energy per Si atom -5597.350722 kJ/mol
# Density = 2.738116 g / cm^3
# Si number density = 27.443620 Si / 1000 Ang^3
#
#
#
# Elastic Constant Matrix: (Units=GPa)
#
#
# Indices 1 2 3 4 5 6 
#
# 1 69.1784 20.4547 1.7034 10.2190 7.7023 -18.4198
# 2 20.4547 116.3180 18.5972 -8.0945 -4.3662 -18.6342
# 3 1.7034 18.5972 167.7895 1.1297 10.5113 1.6834
# 4 10.2190 -8.0945 1.1297 43.0161 4.8786 2.2784
# 5 7.7023 -4.3662 10.5113 4.8786 29.9681 1.5372
# 6 -18.4198 -18.6342 1.6834 2.2784 1.5372 46.3547
#
#
#
# Elastic Compliance Matrix: (Units=1/GPa)
#
#
# Indices 1 2 3 4 5 6 
#
# 1 0.018205 -0.002722 0.000383 -0.004649 -0.004787 0.006513
# 2 -0.002722 0.009952 -0.001249 0.002167 0.002092 0.002788
# 3 0.000383 -0.001249 0.006252 -0.000190 -0.002417 -0.000488
# 4 -0.004649 0.002167 -0.000190 0.025150 -0.002408 -0.002126
# 5 -0.004787 0.002092 -0.002417 -0.002408 0.036249 -0.002057
# 6 0.006513 0.002788 -0.000488 -0.002126 -0.002057 0.025472
#
#
# Mechanical properties :
#
#
# Convention : Reuss Voigt Hill
#
# Bulk Modulus (GPa) = 36.72260 48.31074 42.51667
# Shear Modulus (GPa) = 36.35465 44.70314 40.52889
#
# Velocity S-wave (km/s) = 3.64360 4.04035 3.84709
# Velocity P-wave (km/s) = 5.57774 6.27756 5.93797
#
# Compressibility (1/GPa) = 0.02723119
#
# Stress axis : x y z
#
# Youngs Moduli (GPa) = 54.93047 100.48691 159.94894
#
# Poissons Ratio (x) = 0.27356 -0.06122
# Poissons Ratio (y) = 0.14954 0.19977
# Poissons Ratio (z) = -0.02103 0.12550
#
# Static dielectric constant tensor:
#      x y z
#    x 2.170390 0.021700 0.007980 
#    y 0.021700 2.171720 0.028050 
#    z 0.007980 0.028050 2.162440 
# 
# From -- ./inp_files/461329.got.cif
#   From: 2010.05.17/outbox.cif.g08.bks.cpg/sg2_231_cif.got.tgz:461329.got - 2010.06.03 11:33:40.
