data_PCOD9020757
_publ_section_title
;
Structure prediction by ZEFSAII (Michael W. Deem and Ramdas Pophale) SiO2 
 PCOD9020757
Probable space group: P -1
;
_chemical_formula_sum "Si O2"
_cell_formula_units_Z 14
_cell_length_a 16.860925
_cell_length_b 9.361283
_cell_length_c 5.218851
_cell_angle_alpha 106.053612
_cell_angle_beta 57.806431
_cell_angle_gamma 126.394640
_cell_volume 560.177740
_symmetry_space_group_name_H-M "P -1"
_symmetry_group_IT_number 2
_symmetry_cell_setting 'triclinic'
loop_
_space_group_symop_operation_xyz
x,y,z
-x,-y,-z
loop_
_atom_site_type_symbol
_atom_site_label
_atom_site_fract_x
_atom_site_fract_y
_atom_site_fract_z
Si Si1 0.482870 0.083344 0.318534
Si Si2 0.676244 0.802590 0.420878
Si Si3 0.948366 0.256806 0.235185
Si Si4 0.858918 0.779725 0.960692
Si Si5 0.866091 0.314285 0.899721
Si Si6 0.678000 0.629288 0.837667
Si Si7 0.311647 0.601341 0.670660
O O1 0.368253 0.073618 0.489904
O O2 0.581317 0.289153 0.281402
O O3 0.500000 0.000000 0.500000
O O4 0.500000 0.000000 0.000000
O O5 0.645722 0.712590 0.705978
O O6 0.810300 0.891953 0.210034
O O7 0.630599 0.659743 0.194273
O O8 0.860489 0.229943 0.592330
O O9 0.019943 0.177367 0.170389
O O10 0.041222 0.473990 0.180611
O O11 0.905432 0.233113 0.007277
O O12 0.812768 0.741620 0.729137
O O13 0.776279 0.589101 0.146997
O O14 0.753708 0.300078 0.176124
O O15 0.653291 0.444073 0.679789
#
# Coordination Sequence:
#
# PCOD9020757 Si02
#       7
#     2   2   2   2   2   2   2
#     4  12  28  43  59  79 107 151 198 236 271 327
#     4   9  20  38  56  83 110 140 186 226 288 322
#     4   9  17  27  46  81 116 147 174 194 276 338
#     4   8  19  32  58  86 118 143 170 228 274 342
#     4   9  19  27  47  76 119 152 167 212 258 346
#     4   9  19  33  59  83 114 140 175 224 283 336
#     4  10  22  37  56  83 118 147 187 226 282 321
#
# _framework density 24.992066999999999
#
# number of rings (size 3 to 8) (size 9 to 14) (size 15 to 20)
#    0.857    1.714    0.000    0.857   14.000    2.857 
#    0.000    0.000    0.000    0.000    0.000    6.000 
#    0.000    0.000    0.000    0.000    0.000    0.000 
#
# Total GULP energy -78156.819940 kJ/mol
# GULP energy per Si atom -5582.629996 kJ/mol
# Density = 2.493518 g / cm^3
# Si number density = 24.992067 Si / 1000 Ang^3
#
#
#
# Elastic Constant Matrix: (Units=GPa)
#
#
# Indices 1 2 3 4 5 6 
#
# 1 172.1524 36.9323 88.3421 10.7216 -1.7297 -29.2216
# 2 36.9323 55.0757 37.3167 0.5259 -7.8653 -5.0907
# 3 88.3421 37.3167 144.2239 26.9112 17.5504 -22.3251
# 4 10.7216 0.5259 26.9112 20.4951 -11.2776 -2.5661
# 5 -1.7297 -7.8653 17.5504 -11.2776 57.6733 6.3703
# 6 -29.2216 -5.0907 -22.3251 -2.5661 6.3703 47.3864
#
#
#
# Elastic Compliance Matrix: (Units=1/GPa)
#
#
# Indices 1 2 3 4 5 6 
#
# 1 0.009546 -0.001503 -0.006362 0.005244 0.002751 0.002642
# 2 -0.001503 0.029896 -0.013946 0.025300 0.013749 -0.004764
# 3 -0.006362 -0.013946 0.024581 -0.037470 -0.017618 0.006498
# 4 0.005244 0.025300 -0.037470 0.114491 0.038579 -0.010688
# 5 0.002751 0.013749 -0.017618 0.038579 0.033028 -0.007478
# 6 0.002642 -0.004764 0.006498 -0.010688 -0.007478 0.025708
#
#
# Mechanical properties :
#
#
# Convention : Reuss Voigt Hill
#
# Bulk Modulus (GPa) = 49.02208 77.40382 63.21295
# Shear Modulus (GPa) = 17.38094 39.03499 28.20796
#
# Velocity S-wave (km/s) = 2.64001 3.95637 3.36322
# Velocity P-wave (km/s) = 5.38057 7.20479 6.35844
#
# Compressibility (1/GPa) = 0.02039897
#
# Stress axis : x y z
#
# Youngs Moduli (GPa) = 104.75897 33.44982 40.68228
#
# Poissons Ratio (x) = 0.05028 0.25884
# Poissons Ratio (y) = 0.15748 0.56735
# Poissons Ratio (z) = 0.66652 0.46649
#
# Static dielectric constant tensor:
#      x y z
#    x 1.957620 0.023060 -0.028760 
#    y 0.023060 2.128570 0.009180 
#    z -0.028760 0.009180 1.968380 
# 
# From -- ./inp_files/107465.got.cif
#   From: 2010.05.17/outbox.cif.g08.bks.cpg/sg2_54_cif.got.tgz:107465.got - 2010.06.03 11:33:40.
