data_PCOD9020882
_publ_section_title
;
Structure prediction by ZEFSAII (Michael W. Deem and Ramdas Pophale) SiO2 
 PCOD9020882
Probable space group: P -1
;
_chemical_formula_sum "Si O2"
_cell_formula_units_Z 12
_cell_length_a 18.898439
_cell_length_b 5.262609
_cell_length_c 5.302039
_cell_angle_alpha 93.618488
_cell_angle_beta 59.285338
_cell_angle_gamma 94.135615
_cell_volume 451.951107
_symmetry_space_group_name_H-M "P -1"
_symmetry_group_IT_number 2
_symmetry_cell_setting 'triclinic'
loop_
_space_group_symop_operation_xyz
x,y,z
-x,-y,-z
loop_
_atom_site_type_symbol
_atom_site_label
_atom_site_fract_x
_atom_site_fract_y
_atom_site_fract_z
Si Si1 0.828813 0.975065 0.598319
Si Si2 0.633675 0.605334 0.208686
Si Si3 0.331606 0.972931 0.402373
Si Si4 0.779445 0.351867 0.084739
Si Si5 0.484850 0.791317 0.292758
Si Si6 0.904277 0.489771 0.233312
O O1 0.734317 0.926994 0.668099
O O2 0.878497 0.721827 0.470709
O O3 0.818935 0.098502 0.896831
O O4 0.874906 0.211489 0.377743
O O5 0.658960 0.838942 0.362674
O O6 0.575613 0.681859 0.085672
O O7 0.572337 0.424547 0.476912
O O8 0.717352 0.461802 0.000262
O O9 0.425319 0.886963 0.184136
O O10 0.281519 0.722908 0.581797
O O11 0.851612 0.529524 0.077250
O O12 0.500000 0.000000 0.500000
O O13 0.000000 0.500000 0.000000
#
# Coordination Sequence:
#
# PCOD9020882 Si02
#       6
#     2   2   2   2   2   2
#     4  11  24  40  66  92 120 161 200 245 307 362
#     4   9  15  31  55  80 118 159 197 245 298 343
#     4   9  18  35  55  85 122 157 202 247 294 351
#     4  10  22  37  61  89 122 158 201 251 299 359
#     4   8  15  27  53  83 113 162 197 240 298 341
#     4  11  25  44  64  91 123 156 199 251 304 366
#
# _framework density 26.551542000000001
#
# number of rings (size 3 to 8) (size 9 to 14) (size 15 to 20)
#    0.000    2.333    1.667    0.500    2.333    1.333 
#    0.000    0.833    0.000   34.000    0.000    0.000 
#    0.000    0.000    0.000    0.000    0.000    0.000 
#
# Total GULP energy -67124.159589 kJ/mol
# GULP energy per Si atom -5593.679966 kJ/mol
# Density = 2.649111 g / cm^3
# Si number density = 26.551542 Si / 1000 Ang^3
#
#
#
# Elastic Constant Matrix: (Units=GPa)
#
#
# Indices 1 2 3 4 5 6 
#
# 1 97.2143 41.4647 38.6768 -0.5627 -40.9965 13.7232
# 2 41.4647 111.0280 25.7942 -0.4346 -12.7795 1.6859
# 3 38.6768 25.7942 83.4978 24.9143 -22.4625 10.5789
# 4 -0.5627 -0.4346 24.9143 49.6163 -1.4433 -4.7381
# 5 -40.9965 -12.7795 -22.4625 -1.4433 53.0203 -9.5049
# 6 13.7232 1.6859 10.5789 -4.7381 -9.5049 43.1190
#
#
#
# Elastic Compliance Matrix: (Units=1/GPa)
#
#
# Indices 1 2 3 4 5 6 
#
# 1 0.019452 -0.004722 -0.005079 0.002881 0.011486 -0.001911
# 2 -0.004722 0.011082 -0.002225 0.001246 -0.001640 0.001391
# 3 -0.005079 -0.002225 0.019172 -0.009957 0.002763 -0.003485
# 4 0.002881 0.001246 -0.009957 0.025596 -0.000234 0.004238
# 5 0.011486 -0.001640 0.002763 -0.000234 0.028883 0.002072
# 6 -0.001911 0.001391 -0.003485 0.004238 0.002072 0.025523
#
#
# Mechanical properties :
#
#
# Convention : Reuss Voigt Hill
#
# Bulk Modulus (GPa) = 38.98095 55.95683 47.46889
# Shear Modulus (GPa) = 30.80487 41.53808 36.17148
#
# Velocity S-wave (km/s) = 3.40985 3.95958 3.69495
# Velocity P-wave (km/s) = 5.49690 6.48266 6.01003
#
# Compressibility (1/GPa) = 0.02565356
#
# Stress axis : x y z
#
# Youngs Moduli (GPa) = 51.40900 90.23384 52.15885
#
# Poissons Ratio (x) = 0.42610 0.26491
# Poissons Ratio (y) = 0.24276 0.11607
# Poissons Ratio (z) = 0.26110 0.20080
#
# Static dielectric constant tensor:
#      x y z
#    x 2.095140 -0.111170 0.028810 
#    y -0.111170 2.194120 -0.067070 
#    z 0.028810 -0.067070 2.062800 
# 
# From -- ./inp_files/3171.got.cif
#   From: 2010.05.17/outbox.cif.g08.bks.cpg/sg2_2_cif.got.tgz:3171.got - 2010.06.03 11:33:40.
