data_PCOD9020151
_publ_section_title
;
Structure prediction by ZEFSAII (Michael W. Deem and Ramdas Pophale) SiO2 
 PCOD9020151
Probable space group: P -1
;
_chemical_formula_sum "Si O2"
_cell_formula_units_Z 14
_cell_length_a 11.272294
_cell_length_b 16.226530
_cell_length_c 16.184232
_cell_angle_alpha 155.576000
_cell_angle_beta 31.264827
_cell_angle_gamma 147.774181
_cell_volume 602.852951
_symmetry_space_group_name_H-M "P -1"
_symmetry_group_IT_number 2
_symmetry_cell_setting 'triclinic'
loop_
_space_group_symop_operation_xyz
x,y,z
-x,-y,-z
loop_
_atom_site_type_symbol
_atom_site_label
_atom_site_fract_x
_atom_site_fract_y
_atom_site_fract_z
Si Si1 0.079076 0.228503 0.458897
Si Si2 0.564562 0.943535 0.501170
Si Si3 0.384780 0.021249 0.999849
Si Si4 0.620254 0.433778 0.622498
Si Si5 0.255670 0.144812 0.449506
Si Si6 0.742965 0.824453 0.013159
Si Si7 0.004932 0.618929 0.780248
O O1 0.262183 0.200225 0.253863
O O2 0.215623 0.256779 0.490628
O O3 0.971740 0.411503 0.664013
O O4 0.851901 0.017747 0.406376
O O5 0.500000 0.000000 0.500000
O O6 0.437796 0.705846 0.387090
O O7 0.452936 0.068981 0.747090
O O8 0.500000 0.000000 0.000000
O O9 0.590677 0.013185 0.805889
O O10 0.174742 0.811522 0.907498
O O11 0.399974 0.320391 0.588790
O O12 0.661454 0.668139 0.842514
O O13 0.851913 0.411554 0.415702
O O14 0.000000 0.000000 0.500000
O O15 0.787557 0.692377 0.944407
O O16 0.000000 0.000000 0.000000
#
# Coordination Sequence:
#
# PCOD9020151 Si02
#       7
#     2   2   2   2   2   2   2
#     4  11  24  44  72 105 144 179 231 292 342 414
#     4  12  26  44  71 104 143 179 234 298 345 410
#     4   9  22  41  71 100 137 184 226 276 350 411
#     4  11  25  44  73 102 138 186 230 288 353 414
#     4  10  21  46  74 106 145 178 230 288 348 417
#     4  12  27  46  72 101 138 190 239 283 352 414
#     4  11  24  43  72 103 136 184 239 282 347 415
#
# _framework density 23.222909999999999
#
# number of rings (size 3 to 8) (size 9 to 14) (size 15 to 20)
#    0.000    1.143    2.857    2.143    4.000    8.571 
#    0.000    0.714    0.000    0.000    0.000    0.000 
#    0.000    0.000    0.000    0.000    0.000    0.000 
#
# Total GULP energy -78334.536970 kJ/mol
# GULP energy per Si atom -5595.324069 kJ/mol
# Density = 2.317005 g / cm^3
# Si number density = 23.222910 Si / 1000 Ang^3
#
#
#
# Elastic Constant Matrix: (Units=GPa)
#
#
# Indices 1 2 3 4 5 6 
#
# 1 119.1080 28.5850 34.9089 9.8328 20.2342 -9.1078
# 2 28.5850 81.2626 33.1327 -5.2795 12.4978 0.9238
# 3 34.9089 33.1327 106.3304 -3.9578 14.4689 11.3756
# 4 9.8328 -5.2795 -3.9578 28.9800 2.3739 -4.4022
# 5 20.2342 12.4978 14.4689 2.3739 46.1500 9.2747
# 6 -9.1078 0.9238 11.3756 -4.4022 9.2747 41.9474
#
#
#
# Elastic Compliance Matrix: (Units=1/GPa)
#
#
# Indices 1 2 3 4 5 6 
#
# 1 0.011063 -0.002403 -0.002894 -0.003710 -0.003845 0.003701
# 2 -0.002403 0.015188 -0.003609 0.003429 -0.002304 0.000992
# 3 -0.002894 -0.003609 0.012029 0.001518 -0.000910 -0.003450
# 4 -0.003710 0.003429 0.001518 0.037263 -0.002324 0.003132
# 5 -0.003845 -0.002304 -0.000910 -0.002324 0.025681 -0.006460
# 6 0.003701 0.000992 -0.003450 0.003132 -0.006460 0.027314
#
#
# Mechanical properties :
#
#
# Convention : Reuss Voigt Hill
#
# Bulk Modulus (GPa) = 48.85618 55.55047 52.20333
# Shear Modulus (GPa) = 32.64284 37.42045 35.03165
#
# Velocity S-wave (km/s) = 3.75324 4.01853 3.88815
# Velocity P-wave (km/s) = 6.31395 6.74566 6.53337
#
# Compressibility (1/GPa) = 0.02046824
#
# Stress axis : x y z
#
# Youngs Moduli (GPa) = 90.38992 65.84010 83.13496
#
# Poissons Ratio (x) = 0.15824 0.24059
# Poissons Ratio (y) = 0.21724 0.30000
# Poissons Ratio (z) = 0.26158 0.23759
#
# Static dielectric constant tensor:
#      x y z
#    x 1.910020 -0.045160 -0.038220 
#    y -0.045160 1.859790 0.022390 
#    z -0.038220 0.022390 1.879010 
# 
# From -- ./inp_files/104906.got.cif
#   From: 2010.05.17/outbox.cif.g08.bks.cpg/sg2_53_cif.got.tgz:104906.got - 2010.06.03 11:33:40.
