data_PCOD9020917
_publ_section_title
;
Structure prediction by ZEFSAII (Michael W. Deem and Ramdas Pophale) SiO2 
 PCOD9020917
Probable space group: P -1
;
_chemical_formula_sum "Si O2"
_cell_formula_units_Z 12
_cell_length_a 12.188981
_cell_length_b 7.924559
_cell_length_c 13.393709
_cell_angle_alpha 38.823519
_cell_angle_beta 39.348667
_cell_angle_gamma 36.063004
_cell_volume 439.875326
_symmetry_space_group_name_H-M "P -1"
_symmetry_group_IT_number 2
_symmetry_cell_setting 'triclinic'
loop_
_space_group_symop_operation_xyz
x,y,z
-x,-y,-z
loop_
_atom_site_type_symbol
_atom_site_label
_atom_site_fract_x
_atom_site_fract_y
_atom_site_fract_z
Si Si1 0.527561 0.203119 0.747179
Si Si2 0.268990 0.450779 0.632862
Si Si3 0.368003 0.508151 0.184828
Si Si4 0.892939 0.539504 0.757189
Si Si5 0.282101 0.681328 0.852121
Si Si6 0.986634 0.829164 0.827327
O O1 0.396106 0.199185 0.747038
O O2 0.576065 0.474851 0.562210
O O3 0.395410 0.337894 0.876744
O O4 0.741006 0.887647 0.746702
O O5 0.105950 0.750472 0.675902
O O6 0.125886 0.415852 0.671002
O O7 0.200894 0.434309 0.297692
O O8 0.534814 0.285901 0.250499
O O9 0.500000 0.500000 0.000000
O O10 0.234384 0.863918 0.156863
O O11 0.838743 0.330796 0.962063
O O12 0.118181 0.887602 0.789737
O O13 0.000000 0.500000 0.000000
#
# Coordination Sequence:
#
# PCOD9020917 Si02
#       6
#     2   2   2   2   2   2
#     4  10  22  38  62  88 120 157 200 248 290 358
#     4  10  22  39  61  90 117 158 204 240 298 354
#     4  10  25  37  57  95 125 154 196 247 307 346
#     4  11  21  36  61  88 118 158 197 248 295 350
#     4  10  22  37  62  87 122 156 201 241 297 354
#     4  11  22  39  64  88 117 160 201 248 289 359
#
# _framework density 27.280457999999999
#
# number of rings (size 3 to 8) (size 9 to 14) (size 15 to 20)
#    0.000    1.667    1.667    2.000    9.333    4.000 
#    0.000    3.333    0.000    6.000    0.000    0.000 
#    0.000    0.000    0.000    0.000    0.000    0.000 
#
# Total GULP energy -67133.952649 kJ/mol
# GULP energy per Si atom -5594.496054 kJ/mol
# Density = 2.721837 g / cm^3
# Si number density = 27.280458 Si / 1000 Ang^3
#
#
#
# Elastic Constant Matrix: (Units=GPa)
#
#
# Indices 1 2 3 4 5 6 
#
# 1 225.8367 13.1786 13.1243 2.0758 -50.1099 -34.7349
# 2 13.1786 129.2844 3.4840 25.9611 -4.5562 -29.4857
# 3 13.1243 3.4840 61.6998 8.7321 -7.9981 0.9459
# 4 2.0758 25.9611 8.7321 12.7684 -4.4842 -4.1073
# 5 -50.1099 -4.5562 -7.9981 -4.4842 35.4452 18.0696
# 6 -34.7349 -29.4857 0.9459 -4.1073 18.0696 52.6671
#
#
#
# Elastic Compliance Matrix: (Units=1/GPa)
#
#
# Indices 1 2 3 4 5 6 
#
# 1 0.006734 -0.001254 -0.000974 0.005727 0.009358 0.000993
# 2 -0.001254 0.016550 0.003275 -0.035718 -0.007607 0.008204
# 3 -0.000974 0.003275 0.019203 -0.019484 0.001521 -0.001195
# 4 0.005727 -0.035718 -0.019484 0.168842 0.026478 -0.011787
# 5 0.009358 -0.007607 0.001521 0.026478 0.051076 -0.013574
# 6 0.000993 0.008204 -0.001195 -0.011787 -0.013574 0.027994
#
#
# Mechanical properties :
#
#
# Convention : Reuss Voigt Hill
#
# Bulk Modulus (GPa) = 22.43112 52.93275 37.68193
# Shear Modulus (GPa) = 16.49263 45.97841 31.23552
#
# Velocity S-wave (km/s) = 2.46144 4.10981 3.38742
# Velocity P-wave (km/s) = 4.03962 6.47812 5.39836
#
# Compressibility (1/GPa) = 0.04458093
#
# Stress axis : x y z
#
# Youngs Moduli (GPa) = 148.49673 60.42327 52.07594
#
# Poissons Ratio (x) = 0.07577 0.05074
# Poissons Ratio (y) = 0.18621 -0.17057
# Poissons Ratio (z) = 0.14468 -0.19791
#
# Static dielectric constant tensor:
#      x y z
#    x 2.225510 0.058960 -0.037190 
#    y 0.058960 2.145890 -0.040960 
#    z -0.037190 -0.040960 2.062840 
# 
# From -- ./inp_files/241235.got.cif
#   From: 2010.05.17/outbox.cif.g08.bks.cpg/sg2_121_cif.got.tgz:241235.got - 2010.06.03 11:33:40.
