data_PCOD9020317
_publ_section_title
;
Structure prediction by ZEFSAII (Michael W. Deem and Ramdas Pophale) SiO2 
 PCOD9020317
Probable space group: P -1
;
_chemical_formula_sum "Si O2"
_cell_formula_units_Z 16
_cell_length_a 12.439375
_cell_length_b 16.988139
_cell_length_c 5.365325
_cell_angle_alpha 113.305654
_cell_angle_beta 85.090832
_cell_angle_gamma 125.705198
_cell_volume 829.358343
_symmetry_space_group_name_H-M "P -1"
_symmetry_group_IT_number 2
_symmetry_cell_setting 'triclinic'
loop_
_space_group_symop_operation_xyz
x,y,z
-x,-y,-z
loop_
_atom_site_type_symbol
_atom_site_label
_atom_site_fract_x
_atom_site_fract_y
_atom_site_fract_z
Si Si1 0.693023 0.428759 0.194346
Si Si2 0.873166 0.019588 0.818297
Si Si3 0.408829 0.329584 0.896573
Si Si4 0.030669 0.752580 0.773415
Si Si5 0.418632 0.515469 0.332107
Si Si6 0.821783 0.908121 0.188651
Si Si7 0.912531 0.636880 0.142437
Si Si8 0.903289 0.390322 0.224307
O O1 0.698535 0.487139 0.518185
O O2 0.769564 0.377045 0.158816
O O3 0.774656 0.523055 0.093802
O O4 0.536700 0.354521 0.058838
O O5 0.818418 0.977581 0.497480
O O6 0.796866 0.931448 0.943484
O O7 0.027253 0.058360 0.818336
O O8 0.883519 0.121840 0.038182
O O9 0.475919 0.366725 0.657515
O O10 0.281317 0.213091 0.847703
O O11 0.376278 0.415211 0.044571
O O12 0.958062 0.713045 0.470604
O O13 0.115056 0.704684 0.728248
O O14 0.928389 0.698173 0.962205
O O15 0.500000 0.500000 0.500000
O O16 0.018029 0.609457 0.031584
O O17 0.000000 0.500000 0.500000
#
# Coordination Sequence:
#
# PCOD9020317 Si02
#       8
#     2   2   2   2   2   2   2   2
#     4  11  21  35  57  88 126 161 198 234 300 371
#     4  10  22  42  61  90 109 157 205 255 303 353
#     4  10  23  37  59  87 123 161 196 247 296 360
#     4  10  22  36  60  86 122 157 194 256 298 351
#     4   9  22  38  54  87 121 162 194 232 290 381
#     4  10  23  40  65  84 118 151 206 254 302 353
#     4  10  22  34  57  89 121 162 188 247 293 362
#     4  10  22  36  58  90 127 161 198 246 299 362
#
# _framework density 19.292021999999999
#
# number of rings (size 3 to 8) (size 9 to 14) (size 15 to 20)
#    0.750    1.250    1.250    1.125    8.750    2.000 
#    0.000    0.000    0.000    1.500    0.000    0.000 
#    0.000    0.000    0.000    0.000    0.000    0.000 
#
# Total GULP energy -89106.314493 kJ/mol
# GULP energy per Si atom -5569.144656 kJ/mol
# Density = 1.924811 g / cm^3
# Si number density = 19.292022 Si / 1000 Ang^3
#
#
#
# Elastic Constant Matrix: (Units=GPa)
#
#
# Indices 1 2 3 4 5 6 
#
# 1 53.1180 6.4600 15.6649 1.3064 -9.1580 -2.7450
# 2 6.4600 108.9489 34.7244 -10.9714 -6.9357 0.0881
# 3 15.6649 34.7244 104.6706 -16.3852 -8.7920 -1.2029
# 4 1.3064 -10.9714 -16.3852 30.2107 -4.0946 -5.8110
# 5 -9.1580 -6.9357 -8.7920 -4.0946 25.9224 0.2045
# 6 -2.7450 0.0881 -1.2029 -5.8110 0.2045 24.5092
#
#
#
# Elastic Compliance Matrix: (Units=1/GPa)
#
#
# Indices 1 2 3 4 5 6 
#
# 1 0.020840 -0.000093 -0.002737 -0.001221 0.006202 0.001859
# 2 -0.000093 0.010505 -0.002865 0.002647 0.002221 0.000420
# 3 -0.002737 -0.002865 0.012247 0.006537 0.003438 0.001826
# 4 -0.001221 0.002647 0.006537 0.040737 0.008852 0.009759
# 5 0.006202 0.002221 0.003438 0.008852 0.043906 0.002588
# 6 0.001859 0.000420 0.001826 0.009759 0.002588 0.043390
#
#
# Mechanical properties :
#
#
# Convention : Reuss Voigt Hill
#
# Bulk Modulus (GPa) = 31.05475 42.27067 36.66271
# Shear Modulus (GPa) = 25.80655 30.12100 27.96378
#
# Velocity S-wave (km/s) = 3.66140 3.95564 3.81136
# Velocity P-wave (km/s) = 5.83152 6.54380 6.19790
#
# Compressibility (1/GPa) = 0.03220119
#
# Stress axis : x y z
#
# Youngs Moduli (GPa) = 47.98518 95.19317 81.65159
#
# Poissons Ratio (x) = 0.00886 0.22347
# Poissons Ratio (y) = 0.00446 0.23396
# Poissons Ratio (z) = 0.13133 0.27277
#
# Static dielectric constant tensor:
#      x y z
#    x 1.685100 0.001030 0.026680 
#    y 0.001030 1.678070 -0.003820 
#    z 0.026680 -0.003820 1.781450 
# 
# From -- ./inp_files/79385.got.cif
#   From: 2010.05.17/outbox.cif.g08.bks.cpg/sg2_40_cif.got.tgz:79385.got - 2010.06.03 11:33:40.
