data_PCOD9020508
_publ_section_title
;
Structure prediction by ZEFSAII (Michael W. Deem and Ramdas Pophale) SiO2 
 PCOD9020508
Probable space group: P -1
;
_chemical_formula_sum "Si O2"
_cell_formula_units_Z 15
_cell_length_a 12.494790
_cell_length_b 5.042907
_cell_length_c 14.887083
_cell_angle_alpha 90.597722
_cell_angle_beta 57.432990
_cell_angle_gamma 67.253230
_cell_volume 699.634112
_symmetry_space_group_name_H-M "P -1"
_symmetry_group_IT_number 2
_symmetry_cell_setting 'triclinic'
loop_
_space_group_symop_operation_xyz
x,y,z
-x,-y,-z
loop_
_atom_site_type_symbol
_atom_site_label
_atom_site_fract_x
_atom_site_fract_y
_atom_site_fract_z
Si Si1 0.000000 0.500000 0.500000
Si Si2 0.431021 0.499176 0.221083
Si Si3 0.354786 0.595914 0.736828
Si Si4 0.943008 0.639298 0.738409
Si Si5 0.383184 0.046252 0.127178
Si Si6 0.507673 0.944792 0.600839
Si Si7 0.756740 0.080263 0.535357
Si Si8 0.118130 0.960909 0.708656
O O1 0.956957 0.625077 0.624272
O O2 0.908331 0.838296 0.502113
O O3 0.591518 0.396806 0.186508
O O4 0.411348 0.219108 0.197736
O O5 0.317514 0.675901 0.352317
O O6 0.398206 0.734049 0.156587
O O7 0.391081 0.254980 0.699640
O O8 0.205559 0.822185 0.760010
O O9 0.466059 0.683111 0.635027
O O10 0.777134 0.747191 0.834385
O O11 0.991799 0.874052 0.754429
O O12 0.051697 0.316538 0.729189
O O13 0.500000 0.000000 0.000000
O O14 0.658703 0.911966 0.566952
O O15 0.500000 0.000000 0.500000
O O16 0.778668 0.181653 0.426504
#
# Coordination Sequence:
#
# PCOD9020508 Si02
#       8
#     1   2   2   2   2   2   2   2
#     4  10  22  36  58  88 138 162 206 248 318 388
#     4  11  24  41  69  98 125 167 225 271 321 374
#     4  11  23  38  61  90 133 169 217 262 309 383
#     4  11  25  40  62  94 128 174 210 257 320 390
#     4  12  26  49  71  93 124 168 226 280 327 371
#     4  11  21  34  53  85 127 180 224 238 296 372
#     4  10  22  36  60  92 139 175 209 253 315 390
#     4  11  24  38  61  94 137 176 199 250 321 397
#
# _framework density 21.439778
#
# number of rings (size 3 to 8) (size 9 to 14) (size 15 to 20)
#    0.000    1.067    2.667    4.000    5.600    1.067 
#    0.000    0.000    0.000    4.800    0.000    0.000 
#    0.000    0.000    0.000    0.000    0.000    0.000 
#
# Total GULP energy -83601.163974 kJ/mol
# GULP energy per Si atom -5573.410932 kJ/mol
# Density = 2.139098 g / cm^3
# Si number density = 21.439778 Si / 1000 Ang^3
#
#
#
# Elastic Constant Matrix: (Units=GPa)
#
#
# Indices 1 2 3 4 5 6 
#
# 1 72.3641 -6.4924 11.7715 10.9726 -2.7944 -3.5018
# 2 -6.4924 55.5908 -3.2952 -6.9828 0.9937 -12.6545
# 3 11.7715 -3.2952 32.3130 2.6125 -7.2103 -0.9605
# 4 10.9726 -6.9828 2.6125 8.9602 0.7544 -0.1177
# 5 -2.7944 0.9937 -7.2103 0.7544 12.2891 2.7914
# 6 -3.5018 -12.6545 -0.9605 -0.1177 2.7914 33.5272
#
#
#
# Elastic Compliance Matrix: (Units=1/GPa)
#
#
# Indices 1 2 3 4 5 6 
#
# 1 0.017841 -0.000614 -0.004207 -0.021309 0.002670 0.001214
# 2 -0.000614 0.022383 0.000135 0.018696 -0.005033 0.008873
# 3 -0.004207 0.000135 0.038006 -0.007697 0.022068 -0.001164
# 4 -0.021309 0.018696 -0.007697 0.156463 -0.022067 0.006997
# 5 0.002670 -0.005033 0.022068 -0.022067 0.098800 -0.009292
# 6 0.001214 0.008873 -0.001164 0.006997 -0.009292 0.034067
#
#
# Mechanical properties :
#
#
# Convention : Reuss Voigt Hill
#
# Bulk Modulus (GPa) = 14.52252 18.24841 16.38546
# Shear Modulus (GPa) = 12.50361 21.50757 17.00559
#
# Velocity S-wave (km/s) = 2.41757 3.17071 2.81940
# Velocity P-wave (km/s) = 3.81853 4.68343 4.27292
#
# Compressibility (1/GPa) = 0.06885859
#
# Stress axis : x y z
#
# Youngs Moduli (GPa) = 56.04983 44.67664 26.31178
#
# Poissons Ratio (x) = 0.02742 0.11070
# Poissons Ratio (y) = 0.03440 -0.00356
# Poissons Ratio (z) = 0.23582 -0.00604
#
# Static dielectric constant tensor:
#      x y z
#    x 1.834320 -0.020980 -0.017420 
#    y -0.020980 1.813770 0.006580 
#    z -0.017420 0.006580 1.766330 
# 
# From -- ./inp_files/101720.got.cif
#   From: 2010.05.17/outbox.cif.g08.bks.cpg/sg2_51_cif.got.tgz:101720.got - 2010.06.03 11:33:40.
