data_PCOD9020699
_publ_section_title
;
Structure prediction by ZEFSAII (Michael W. Deem and Ramdas Pophale) SiO2 
 PCOD9020699
Probable space group: P -1
;
_chemical_formula_sum "Si O2"
_cell_formula_units_Z 16
_cell_length_a 16.133111
_cell_length_b 14.625826
_cell_length_c 12.558265
_cell_angle_alpha 29.133942
_cell_angle_beta 128.634731
_cell_angle_gamma 147.141598
_cell_volume 712.472651
_symmetry_space_group_name_H-M "P -1"
_symmetry_group_IT_number 2
_symmetry_cell_setting 'triclinic'
loop_
_space_group_symop_operation_xyz
x,y,z
-x,-y,-z
loop_
_atom_site_type_symbol
_atom_site_label
_atom_site_fract_x
_atom_site_fract_y
_atom_site_fract_z
Si Si1 0.322788 0.802066 0.619459
Si Si2 0.142412 0.150860 0.675017
Si Si3 0.931217 0.824008 0.017411
Si Si4 0.365134 0.328596 0.400874
Si Si5 0.350468 0.272715 0.195666
Si Si6 0.131772 0.494385 0.989026
Si Si7 0.488049 0.756523 0.240470
Si Si8 0.004315 0.740180 0.666777
O O1 0.176877 0.512664 0.725269
O O2 0.280920 0.671718 0.841444
O O3 0.500000 0.000000 0.500000
O O4 0.296189 0.985363 0.425312
O O5 0.326044 0.438775 0.489519
O O6 0.066405 0.254684 0.497275
O O7 0.104852 0.030347 0.883940
O O8 0.025810 0.847299 0.826171
O O9 0.795633 0.779446 0.898078
O O10 0.000000 0.000000 0.000000
O O11 0.407289 0.366187 0.270697
O O12 0.471116 0.637685 0.230571
O O13 0.377261 0.157982 0.659446
O O14 0.164138 0.082092 0.484837
O O15 0.500000 0.500000 0.000000
O O16 0.070784 0.626289 0.808367
O O17 0.141582 0.462426 0.155045
O O18 0.500000 0.000000 0.000000
#
# Coordination Sequence:
#
# PCOD9020699 Si02
#       8
#     2   2   2   2   2   2   2   2
#     4  11  23  43  70 104 136 186 244 288 353 424
#     4  11  23  41  64  96 129 172 223 283 342 412
#     4  11  26  46  69 101 141 183 241 299 360 415
#     4  11  25  47  66 102 142 183 234 286 356 427
#     4  12  25  47  72 101 140 188 244 299 352 427
#     4  10  22  36  67 100 127 167 224 285 337 407
#     4  11  28  44  67 103 147 183 224 287 365 425
#     4  11  21  38  70  96 128 168 226 277 342 413
#
# _framework density 22.457001999999999
#
# number of rings (size 3 to 8) (size 9 to 14) (size 15 to 20)
#    0.000    1.000    5.000    0.375    5.250    1.500 
#    2.250    0.000    0.000    0.000    0.000    0.000 
#    0.000    0.000    0.000    0.000    0.000    0.000 
#
# Total GULP energy -89153.887436 kJ/mol
# GULP energy per Si atom -5572.117965 kJ/mol
# Density = 2.240589 g / cm^3
# Si number density = 22.457002 Si / 1000 Ang^3
#
#
#
# Elastic Constant Matrix: (Units=GPa)
#
#
# Indices 1 2 3 4 5 6 
#
# 1 119.4200 37.4297 59.0176 -7.2734 -9.6076 -26.7266
# 2 37.4297 81.6933 31.3094 -8.1600 4.3407 -23.8523
# 3 59.0176 31.3094 106.5975 -33.3717 -6.7906 -18.8097
# 4 -7.2734 -8.1600 -33.3717 19.7501 -1.5276 1.6563
# 5 -9.6076 4.3407 -6.7906 -1.5276 73.1572 -1.8532
# 6 -26.7266 -23.8523 -18.8097 1.6563 -1.8532 45.5273
#
#
#
# Elastic Compliance Matrix: (Units=1/GPa)
#
#
# Indices 1 2 3 4 5 6 
#
# 1 0.014877 -0.003109 -0.011693 -0.015744 0.000797 0.002878
# 2 -0.003109 0.016228 -0.001067 0.003151 -0.001251 0.006070
# 3 -0.011693 -0.001067 0.033133 0.051074 0.002784 0.004520
# 4 -0.015744 0.003151 0.051074 0.132110 0.005471 0.008926
# 5 0.000797 -0.001251 0.002784 0.005471 0.014255 0.001344
# 6 0.002878 0.006070 0.004520 0.008926 0.001344 0.028433
#
#
# Mechanical properties :
#
#
# Convention : Reuss Voigt Hill
#
# Bulk Modulus (GPa) = 30.77122 62.58048 46.67585
# Shear Modulus (GPa) = 17.75525 39.68385 28.71955
#
# Velocity S-wave (km/s) = 2.81487 4.20825 3.58001
# Velocity P-wave (km/s) = 4.92917 7.17912 6.15778
#
# Compressibility (1/GPa) = 0.03249790
#
# Stress axis : x y z
#
# Youngs Moduli (GPa) = 67.21963 61.62199 30.18152
#
# Poissons Ratio (x) = 0.19158 0.35293
# Poissons Ratio (y) = 0.20899 0.03221
# Poissons Ratio (z) = 0.78603 0.06577
#
# Static dielectric constant tensor:
#      x y z
#    x 1.935350 0.010500 -0.078590 
#    y 0.010500 1.821800 0.181610 
#    z -0.078590 0.181610 1.547150 
# 
# From -- ./inp_files/466040.got.cif
#   From: 2010.05.17/outbox.cif.g08.bks.cpg/sg2_234_cif.got.tgz:466040.got - 2010.06.03 11:33:40.
