data_PCOD9020051
_publ_section_title
;
Structure prediction by ZEFSAII (Michael W. Deem and Ramdas Pophale) SiO2 
 PCOD9020051
Probable space group: P -1
;
_chemical_formula_sum "Si O2"
_cell_formula_units_Z 16
_cell_length_a 7.808649
_cell_length_b 8.825571
_cell_length_c 21.906559
_cell_angle_alpha 34.428142
_cell_angle_beta 56.403025
_cell_angle_gamma 66.926973
_cell_volume 704.258586
_symmetry_space_group_name_H-M "P -1"
_symmetry_group_IT_number 2
_symmetry_cell_setting 'triclinic'
loop_
_space_group_symop_operation_xyz
x,y,z
-x,-y,-z
loop_
_atom_site_type_symbol
_atom_site_label
_atom_site_fract_x
_atom_site_fract_y
_atom_site_fract_z
Si Si1 0.552462 0.798359 0.823639
Si Si2 0.279683 0.095662 0.998857
Si Si3 0.069131 0.708359 0.571819
Si Si4 0.879040 0.477061 0.800381
Si Si5 0.662423 0.392170 0.551957
Si Si6 0.472818 0.143191 0.520983
Si Si7 0.801283 0.356223 0.215647
Si Si8 0.799876 0.672079 0.934254
O O1 0.684354 0.617038 0.815199
O O2 0.660302 0.800105 0.868427
O O3 0.573426 0.098509 0.692961
O O4 0.324644 0.628811 0.930208
O O5 0.188368 0.165577 0.059181
O O6 0.151381 0.841381 0.074781
O O7 0.295365 0.370073 0.866368
O O8 0.500000 0.000000 0.000000
O O9 0.121939 0.630169 0.518427
O O10 0.296968 0.733171 0.547604
O O11 0.915907 0.510151 0.709851
O O12 0.000000 0.000000 0.500000
O O13 0.073178 0.622851 0.752199
O O14 0.500000 0.500000 0.500000
O O15 0.670816 0.619730 0.526861
O O16 0.500000 0.000000 0.500000
O O17 0.369168 0.905535 0.664777
O O18 0.978329 0.338853 0.136072
#
# Coordination Sequence:
#
# PCOD9020051 Si02
#       8
#     2   2   2   2   2   2   2   2
#     4  10  21  46  68 100 144 172 232 284 344 409
#     4  12  26  42  70 105 132 178 231 285 342 402
#     4  11  23  43  70  99 134 178 222 283 337 405
#     4  11  23  45  69 101 139 179 226 280 351 403
#     4  10  24  40  69 101 135 181 226 278 345 404
#     4  11  25  47  66 100 134 180 230 279 344 404
#     4  11  26  46  68  95 141 178 229 284 340 415
#     4  10  24  44  70  98 134 186 223 288 341 400
#
# _framework density 22.718928999999999
#
# number of rings (size 3 to 8) (size 9 to 14) (size 15 to 20)
#    0.000    1.250    3.750    0.750    7.000    3.000 
#    0.000    3.125    0.000    0.000    0.000    0.000 
#    0.000    0.000    0.000    0.000    0.000    0.000 
#
# Total GULP energy -89450.137675 kJ/mol
# GULP energy per Si atom -5590.633605 kJ/mol
# Density = 2.266722 g / cm^3
# Si number density = 22.718929 Si / 1000 Ang^3
#
#
#
# Elastic Constant Matrix: (Units=GPa)
#
#
# Indices 1 2 3 4 5 6 
#
# 1 26.7505 0.9134 -7.3134 5.8197 9.6536 -1.2766
# 2 0.9134 156.1722 42.5086 0.1328 9.9305 -5.8108
# 3 -7.3134 42.5086 143.4451 -4.2966 17.7100 -10.9127
# 4 5.8197 0.1328 -4.2966 42.6448 -9.1876 -4.9397
# 5 9.6536 9.9305 17.7100 -9.1876 25.2111 -5.7347
# 6 -1.2766 -5.8108 -10.9127 -4.9397 -5.7347 26.8667
#
#
#
# Elastic Compliance Matrix: (Units=1/GPa)
#
#
# Indices 1 2 3 4 5 6 
#
# 1 0.052467 -0.000092 0.005678 -0.013501 -0.029891 -0.004083
# 2 -0.000092 0.007027 -0.001890 -0.000485 -0.001505 0.000337
# 3 0.005678 -0.001890 0.008861 -0.001380 -0.007806 0.001540
# 4 -0.013501 -0.000485 -0.001380 0.030275 0.019267 0.008372
# 5 -0.029891 -0.001505 -0.007806 0.019267 0.067157 0.012961
# 6 -0.004083 0.000337 0.001540 0.008372 0.012961 0.042031
#
#
# Mechanical properties :
#
#
# Convention : Reuss Voigt Hill
#
# Bulk Modulus (GPa) = 13.20207 44.28719 28.74463
# Shear Modulus (GPa) = 22.15574 38.29513 30.22543
#
# Velocity S-wave (km/s) = 3.12622 4.11007 3.65143
# Velocity P-wave (km/s) = 4.34220 6.48532 5.51879
#
# Compressibility (1/GPa) = 0.07574567
#
# Stress axis : x y z
#
# Youngs Moduli (GPa) = 19.05953 142.31136 112.86034
#
# Poissons Ratio (x) = 0.01310 -0.64079
# Poissons Ratio (y) = 0.00175 0.21332
# Poissons Ratio (z) = -0.10821 0.26898
#
# Static dielectric constant tensor:
#      x y z
#    x 1.876760 0.059410 0.021770 
#    y 0.059410 1.912620 0.015170 
#    z 0.021770 0.015170 1.852200 
# 
# From -- ./inp_files/217843.got.cif
#   From: 2010.05.17/outbox.cif.g08.bks.cpg/sg2_109_cif.got.tgz:217843.got - 2010.06.03 11:33:40.
