data_PCOD9020087
_publ_section_title
;
Structure prediction by ZEFSAII (Michael W. Deem and Ramdas Pophale) SiO2 
 PCOD9020087
Probable space group: P -1
;
_chemical_formula_sum "Si O2"
_cell_formula_units_Z 16
_cell_length_a 8.904533
_cell_length_b 19.090478
_cell_length_c 5.824976
_cell_angle_alpha 120.742683
_cell_angle_beta 73.220366
_cell_angle_gamma 126.349236
_cell_volume 685.303776
_symmetry_space_group_name_H-M "P -1"
_symmetry_group_IT_number 2
_symmetry_cell_setting 'triclinic'
loop_
_space_group_symop_operation_xyz
x,y,z
-x,-y,-z
loop_
_atom_site_type_symbol
_atom_site_label
_atom_site_fract_x
_atom_site_fract_y
_atom_site_fract_z
Si Si1 0.510714 0.549528 0.327216
Si Si2 0.213663 0.900324 0.502974
Si Si3 0.445403 0.104192 0.885789
Si Si4 0.186800 0.277264 0.755298
Si Si5 0.202241 0.543841 0.697954
Si Si6 0.509272 0.275332 0.871275
Si Si7 0.004995 0.638283 0.738964
Si Si8 0.658249 0.179119 0.316319
O O1 0.500000 0.500000 0.500000
O O2 0.700610 0.654937 0.398512
O O3 0.335991 0.562295 0.450624
O O4 0.500000 0.500000 0.000000
O O5 0.373568 0.897031 0.283283
O O6 0.245514 0.869529 0.686800
O O7 0.006089 0.821803 0.383894
O O8 0.273034 0.010850 0.685780
O O9 0.453131 0.202124 0.988058
O O10 0.467379 0.102581 0.145699
O O11 0.331427 0.261516 0.800424
O O12 0.135226 0.339431 0.043507
O O13 0.064457 0.579977 0.776263
O O14 0.078756 0.427480 0.563535
O O15 0.347046 0.612616 0.940924
O O16 0.613646 0.238095 0.610526
O O17 0.192581 0.739581 0.781728
#
# Coordination Sequence:
#
# PCOD9020087 Si02
#       8
#     2   2   2   2   2   2   2   2
#     4  12  27  48  72 103 149 196 244 303 377 440
#     4  10  23  40  74 104 138 183 240 301 364 441
#     4  10  21  46  70 103 140 185 237 303 370 432
#     4  12  25  46  69 108 139 194 238 301 364 442
#     4  11  24  45  67 101 140 196 232 306 358 436
#     4  11  25  43  71  98 150 192 238 297 372 441
#     4  11  23  42  72 101 140 177 260 293 354 434
#     4  11  21  44  70 103 139 188 236 304 370 433
#
# _framework density 23.347311000000001
#
# number of rings (size 3 to 8) (size 9 to 14) (size 15 to 20)
#    0.000    1.000    3.750    2.625    1.750    1.000 
#    0.000    0.625    0.000    0.000    0.000    0.000 
#    0.000    0.000    0.000    0.000    0.000    0.000 
#
# Total GULP energy -89375.857029 kJ/mol
# GULP energy per Si atom -5585.991064 kJ/mol
# Density = 2.329417 g / cm^3
# Si number density = 23.347311 Si / 1000 Ang^3
#
#
#
# Elastic Constant Matrix: (Units=GPa)
#
#
# Indices 1 2 3 4 5 6 
#
# 1 108.2375 33.5422 13.9871 -1.0391 15.5690 -0.0876
# 2 33.5422 69.8228 36.4467 29.1158 17.0039 18.4623
# 3 13.9871 36.4467 81.6697 22.8354 17.3705 4.7568
# 4 -1.0391 29.1158 22.8354 31.5431 11.0333 7.1686
# 5 15.5690 17.0039 17.3705 11.0333 39.6517 4.5473
# 6 -0.0876 18.4623 4.7568 7.1686 4.5473 35.5649
#
#
#
# Elastic Compliance Matrix: (Units=1/GPa)
#
#
# Indices 1 2 3 4 5 6 
#
# 1 0.013436 -0.011384 0.000267 0.011252 -0.004119 0.004166
# 2 -0.011384 0.038481 -0.006627 -0.028118 0.000241 -0.013481
# 3 0.000267 -0.006627 0.017388 -0.005837 -0.003571 0.002749
# 4 0.011252 -0.028118 -0.005837 0.064293 -0.008092 0.003480
# 5 -0.004119 0.000241 -0.003571 -0.008092 0.030774 -0.001962
# 6 0.004166 -0.013481 0.002749 0.003480 -0.001962 0.034308
#
#
# Mechanical properties :
#
#
# Convention : Reuss Voigt Hill
#
# Bulk Modulus (GPa) = 29.57236 47.52020 38.54628
# Shear Modulus (GPa) = 20.37142 33.06887 26.72015
#
# Velocity S-wave (km/s) = 2.95708 3.76758 3.38666
# Velocity P-wave (km/s) = 4.93486 6.27088 5.64256
#
# Compressibility (1/GPa) = 0.03381536
#
# Stress axis : x y z
#
# Youngs Moduli (GPa) = 74.42538 25.98679 57.51104
#
# Poissons Ratio (x) = 0.29584 -0.01534
# Poissons Ratio (y) = 0.84727 0.38115
# Poissons Ratio (z) = -0.01985 0.17223
#
# Static dielectric constant tensor:
#      x y z
#    x 1.874130 -0.016840 0.057150 
#    y -0.016840 1.961230 -0.030600 
#    z 0.057150 -0.030600 1.944800 
# 
# From -- ./inp_files/53682.got.cif
#   From: 2010.05.17/outbox.cif.g08.bks.cpg/sg2_27_cif.got.tgz:53682.got - 2010.06.03 11:33:40.
