data_PCOD9020129
_publ_section_title
;
Structure prediction by ZEFSAII (Michael W. Deem and Ramdas Pophale) SiO2 
 PCOD9020129
Probable space group: P -1
;
_chemical_formula_sum "Si O2"
_cell_formula_units_Z 12
_cell_length_a 8.319754
_cell_length_b 12.044663
_cell_length_c 5.074398
_cell_angle_alpha 66.502517
_cell_angle_beta 84.490845
_cell_angle_gamma 101.226892
_cell_volume 448.806684
_symmetry_space_group_name_H-M "P -1"
_symmetry_group_IT_number 2
_symmetry_cell_setting 'triclinic'
loop_
_space_group_symop_operation_xyz
x,y,z
-x,-y,-z
loop_
_atom_site_type_symbol
_atom_site_label
_atom_site_fract_x
_atom_site_fract_y
_atom_site_fract_z
Si Si1 0.120447 0.446958 0.348616
Si Si2 0.969064 0.818423 0.634387
Si Si3 0.377528 0.370163 0.730647
Si Si4 0.628150 0.859187 0.422019
Si Si5 0.804776 0.124483 0.949184
Si Si6 0.630754 0.304106 0.060751
O O1 0.209748 0.389388 0.624081
O O2 0.000000 0.500000 0.500000
O O3 0.055730 0.329852 0.277088
O O4 0.235754 0.562052 0.052245
O O5 0.048954 0.852566 0.874268
O O6 0.794067 0.853578 0.573131
O O7 0.105254 0.881656 0.334995
O O8 0.500000 0.500000 0.500000
O O9 0.388217 0.244396 0.702679
O O10 0.458469 0.349137 0.014342
O O11 0.445673 0.814408 0.628579
O O12 0.672198 0.995805 0.160245
O O13 0.718820 0.240208 0.880316
#
# Coordination Sequence:
#
# PCOD9020129 Si02
#       6
#     2   2   2   2   2   2
#     4  10  21  46  72 106 140 189 240 301 351 423
#     4  11  27  47  74 104 144 192 241 293 354 421
#     4   9  23  42  68 100 141 178 236 286 364 409
#     4  11  26  44  71 104 143 190 236 298 353 430
#     4  12  27  47  73 107 145 192 239 289 357 428
#     4  11  25  43  71 105 142 189 236 297 360 421
#
# _framework density 26.737572
#
# number of rings (size 3 to 8) (size 9 to 14) (size 15 to 20)
#    0.000    1.333    1.667    1.500    9.333    7.333 
#    3.000    0.000    0.000    0.000    0.000    0.000 
#    0.000    0.000    0.000    0.000    0.000    0.000 
#
# Total GULP energy -67060.323246 kJ/mol
# GULP energy per Si atom -5588.360271 kJ/mol
# Density = 2.667672 g / cm^3
# Si number density = 26.737572 Si / 1000 Ang^3
#
#
#
# Elastic Constant Matrix: (Units=GPa)
#
#
# Indices 1 2 3 4 5 6 
#
# 1 60.8614 17.5001 27.3060 2.0417 9.5633 2.8779
# 2 17.5001 129.9019 25.8381 -45.9076 -8.2062 7.4622
# 3 27.3060 25.8381 117.3658 -28.4239 -37.6824 23.0460
# 4 2.0417 -45.9076 -28.4239 51.3365 14.7555 -5.7137
# 5 9.5633 -8.2062 -37.6824 14.7555 50.7826 -4.6397
# 6 2.8779 7.4622 23.0460 -5.7137 -4.6397 34.5688
#
#
#
# Elastic Compliance Matrix: (Units=1/GPa)
#
#
# Indices 1 2 3 4 5 6 
#
# 1 0.024268 -0.004721 -0.010506 -0.007580 -0.010623 0.003324
# 2 -0.004721 0.012277 0.001709 0.011791 0.000590 -0.001369
# 3 -0.010506 0.001709 0.018195 0.007369 0.012821 -0.008686
# 4 -0.007580 0.011791 0.007369 0.034660 -0.001388 -0.001284
# 5 -0.010623 0.000590 0.012821 -0.001388 0.031357 -0.003812
# 6 0.003324 -0.001369 -0.008686 -0.001284 -0.003812 0.034013
#
#
# Mechanical properties :
#
#
# Convention : Reuss Voigt Hill
#
# Bulk Modulus (GPa) = 36.09419 49.93530 43.01475
# Shear Modulus (GPa) = 26.17259 43.16989 34.67124
#
# Velocity S-wave (km/s) = 3.13208 4.02254 3.60491
# Velocity P-wave (km/s) = 5.15836 6.34752 5.78359
#
# Compressibility (1/GPa) = 0.02770529
#
# Stress axis : x y z
#
# Youngs Moduli (GPa) = 41.20657 81.45417 54.96023
#
# Poissons Ratio (x) = 0.38451 0.57741
# Poissons Ratio (y) = 0.19452 -0.09394
# Poissons Ratio (z) = 0.43292 -0.13923
#
# Static dielectric constant tensor:
#      x y z
#    x 2.239710 0.011400 0.062700 
#    y 0.011400 1.972570 -0.032000 
#    z 0.062700 -0.032000 2.140030 
# 
# From -- ./inp_files/21067.got.cif
#   From: 2010.05.17/outbox.cif.g08.bks.cpg/sg2_11_cif.got.tgz:21067.got - 2010.06.03 11:33:40.
