data_PCOD9020363
_publ_section_title
;
Structure prediction by ZEFSAII (Michael W. Deem and Ramdas Pophale) SiO2 
 PCOD9020363
Probable space group: P -1
;
_chemical_formula_sum "Si O2"
_cell_formula_units_Z 12
_cell_length_a 16.280591
_cell_length_b 7.508372
_cell_length_c 10.266426
_cell_angle_alpha 137.320646
_cell_angle_beta 145.949260
_cell_angle_gamma 56.833523
_cell_volume 469.947677
_symmetry_space_group_name_H-M "P -1"
_symmetry_group_IT_number 2
_symmetry_cell_setting 'triclinic'
loop_
_space_group_symop_operation_xyz
x,y,z
-x,-y,-z
loop_
_atom_site_type_symbol
_atom_site_label
_atom_site_fract_x
_atom_site_fract_y
_atom_site_fract_z
Si Si1 0.546780 0.165733 0.517184
Si Si2 0.291697 0.460763 0.404908
Si Si3 0.116188 0.519346 0.546843
Si Si4 0.893713 0.712182 0.180551
Si Si5 0.822401 0.948433 0.736294
Si Si6 0.329830 0.943951 0.908609
O O1 0.449503 0.401312 0.526738
O O2 0.500000 0.000000 0.500000
O O3 0.724270 0.183445 0.742390
O O4 0.486621 0.016425 0.224403
O O5 0.315528 0.740978 0.661249
O O6 0.164210 0.403830 0.097657
O O7 0.237621 0.237843 0.321846
O O8 0.202377 0.267852 0.529961
O O9 0.233644 0.785931 0.818567
O O10 0.000000 0.500000 0.500000
O O11 0.003312 0.527466 0.282188
O O12 0.742563 0.798103 0.084570
O O13 0.000000 0.000000 0.500000
O O14 0.000000 0.000000 0.000000
#
# Coordination Sequence:
#
# PCOD9020363 Si02
#       6
#     2   2   2   2   2   2
#     4   9  19  35  59  87 118 153 199 245 287 349
#     4   9  19  37  62  86 112 159 202 238 289 351
#     4  10  22  35  55  91 122 149 189 246 301 343
#     4   9  19  35  59  87 118 153 199 245 287 349
#     4  10  22  35  55  91 122 149 189 246 301 343
#     4   9  19  37  62  86 112 159 202 238 289 351
#
# _framework density 25.534758
#
# number of rings (size 3 to 8) (size 9 to 14) (size 15 to 20)
#    0.000    2.667    0.000    0.000    9.333   12.000 
#    0.000    0.000    0.000    8.000    8.667    0.000 
#    0.000    0.000    0.000    0.000    0.000    0.000 
#
# Total GULP energy -66868.186023 kJ/mol
# GULP energy per Si atom -5572.348835 kJ/mol
# Density = 2.547664 g / cm^3
# Si number density = 25.534758 Si / 1000 Ang^3
#
#
#
# Elastic Constant Matrix: (Units=GPa)
#
#
# Indices 1 2 3 4 5 6 
#
# 1 116.0883 35.9010 31.8976 0.0855 3.1098 -30.4558
# 2 35.9010 120.8764 26.3686 0.8496 -3.4878 -42.8414
# 3 31.8976 26.3686 110.3894 -15.5511 -7.2388 -18.4937
# 4 0.0855 0.8496 -15.5511 33.0147 -11.3396 6.6822
# 5 3.1098 -3.4878 -7.2388 -11.3396 65.6753 -2.5484
# 6 -30.4558 -42.8414 -18.4937 6.6822 -2.5484 38.8243
#
#
#
# Elastic Compliance Matrix: (Units=1/GPa)
#
#
# Indices 1 2 3 4 5 6 
#
# 1 0.011509 0.000116 -0.002462 -0.003267 -0.001045 0.008478
# 2 0.000116 0.014180 -0.001295 -0.004001 0.000529 0.015845
# 3 -0.002462 -0.001295 0.011259 0.005922 0.002355 0.001138
# 4 -0.003267 -0.004001 0.005922 0.037546 0.006683 -0.010180
# 5 -0.001045 0.000529 0.002355 0.006683 0.016750 0.000835
# 6 0.008478 0.015845 0.001138 -0.010180 0.000835 0.052241
#
#
# Mechanical properties :
#
#
# Convention : Reuss Voigt Hill
#
# Bulk Modulus (GPa) = 33.70811 59.52094 46.61453
# Shear Modulus (GPa) = 31.12251 44.38198 37.75225
#
# Velocity S-wave (km/s) = 3.49496 4.17358 3.84925
# Velocity P-wave (km/s) = 5.43285 6.82535 6.16852
#
# Compressibility (1/GPa) = 0.02966645
#
# Stress axis : x y z
#
# Youngs Moduli (GPa) = 86.88712 70.52159 88.81819
#
# Poissons Ratio (x) = -0.00820 0.21867
# Poissons Ratio (y) = -0.01010 0.11503
# Poissons Ratio (z) = 0.21391 0.09134
#
# Static dielectric constant tensor:
#      x y z
#    x 2.183500 -0.153940 -0.074780 
#    y -0.153940 2.167710 0.012600 
#    z -0.074780 0.012600 1.962650 
# 
# From -- ./inp_files/234841.got.cif
#   From: 2010.05.17/outbox.cif.g08.bks.cpg/sg2_118_cif.got.tgz:234841.got - 2010.06.03 11:33:40.
