data_PCOD9020820
_publ_section_title
;
Structure prediction by ZEFSAII (Michael W. Deem and Ramdas Pophale) SiO2 
 PCOD9020820
Probable space group: P -1
;
_chemical_formula_sum "Si O2"
_cell_formula_units_Z 14
_cell_length_a 8.203554
_cell_length_b 20.746681
_cell_length_c 8.791683
_cell_angle_alpha 41.240084
_cell_angle_beta 77.722380
_cell_angle_gamma 49.509590
_cell_volume 626.639045
_symmetry_space_group_name_H-M "P -1"
_symmetry_group_IT_number 2
_symmetry_cell_setting 'triclinic'
loop_
_space_group_symop_operation_xyz
x,y,z
-x,-y,-z
loop_
_atom_site_type_symbol
_atom_site_label
_atom_site_fract_x
_atom_site_fract_y
_atom_site_fract_z
Si Si1 0.660638 0.572758 0.991955
Si Si2 0.410177 0.794304 0.910355
Si Si3 0.887119 0.261023 0.851881
Si Si4 0.481893 0.464452 0.332433
Si Si5 0.758070 0.723693 0.563572
Si Si6 0.594078 0.011600 0.614485
Si Si7 0.745857 0.642804 0.391935
O O1 0.492356 0.549765 0.060929
O O2 0.954824 0.415170 0.182598
O O3 0.618081 0.635297 0.059388
O O4 0.601765 0.694448 0.689633
O O5 0.327329 0.918461 0.597983
O O6 0.191875 0.815559 0.960152
O O7 0.545110 0.769924 0.080492
O O8 0.771591 0.328629 0.585653
O O9 0.712263 0.410093 0.723133
O O10 0.172276 0.141856 0.070412
O O11 0.373283 0.405131 0.429518
O O12 0.782777 0.703708 0.412396
O O13 0.620553 0.870780 0.422700
O O14 0.500000 0.000000 0.500000
O O15 0.000000 0.500000 0.500000
#
# Coordination Sequence:
#
# PCOD9020820 Si02
#       7
#     2   2   2   2   2   2   2
#     4   9  18  38  59  89 123 156 203 251 301 355
#     4   9  19  38  61  87 118 163 199 247 307 356
#     4   9  19  37  61  90 119 159 205 246 299 367
#     4   9  20  36  65  93 117 159 206 253 302 358
#     4  10  22  37  59  90 128 159 198 256 300 358
#     4  11  24  39  59  86 124 168 203 243 304 364
#     4  11  21  36  65  95 119 157 200 255 306 359
#
# _framework density 22.34141
#
# number of rings (size 3 to 8) (size 9 to 14) (size 15 to 20)
#    0.000    2.286    1.429    1.286    2.000    0.571 
#    0.000   10.000    0.000    0.000    0.000    0.000 
#    0.000    0.000    0.000    0.000    0.000    0.000 
#
# Total GULP energy -78014.246006 kJ/mol
# GULP energy per Si atom -5572.446143 kJ/mol
# Density = 2.229056 g / cm^3
# Si number density = 22.341410 Si / 1000 Ang^3
#
#
#
# Elastic Constant Matrix: (Units=GPa)
#
#
# Indices 1 2 3 4 5 6 
#
# 1 69.7430 26.0818 19.6379 -4.4665 -3.8057 8.6732
# 2 26.0818 109.1549 20.4668 -6.7046 17.9192 29.4126
# 3 19.6379 20.4668 66.4265 -18.3550 -0.3040 3.2517
# 4 -4.4665 -6.7046 -18.3550 19.9792 -14.2900 -1.0003
# 5 -3.8057 17.9192 -0.3040 -14.2900 40.8732 14.1927
# 6 8.6732 29.4126 3.2517 -1.0003 14.1927 33.1515
#
#
#
# Elastic Compliance Matrix: (Units=1/GPa)
#
#
# Indices 1 2 3 4 5 6 
#
# 1 0.017410 -0.003352 -0.002736 0.004240 0.005831 -0.003681
# 2 -0.003352 0.013599 -0.003560 -0.002862 -0.004120 -0.009162
# 3 -0.002736 -0.003560 0.026003 0.031847 0.013908 -0.003669
# 4 0.004240 -0.002862 0.031847 0.112490 0.047718 -0.018729
# 5 0.005831 -0.004120 0.013908 0.047718 0.050316 -0.019336
# 6 -0.003681 -0.009162 -0.003669 -0.018729 -0.019336 0.047329
#
#
# Mechanical properties :
#
#
# Convention : Reuss Voigt Hill
#
# Bulk Modulus (GPa) = 26.51384 41.96637 34.24011
# Shear Modulus (GPa) = 16.72166 30.74330 23.73248
#
# Velocity S-wave (km/s) = 2.73877 3.71356 3.26278
# Velocity P-wave (km/s) = 4.67915 6.10019 5.43630
#
# Compressibility (1/GPa) = 0.03771615
#
# Stress axis : x y z
#
# Youngs Moduli (GPa) = 57.43957 73.53495 38.45696
#
# Poissons Ratio (x) = 0.24648 0.10520
# Poissons Ratio (y) = 0.19253 0.13692
# Poissons Ratio (z) = 0.15713 0.26181
#
# Static dielectric constant tensor:
#      x y z
#    x 1.883720 -0.008640 -0.025610 
#    y -0.008640 1.847420 0.051830 
#    z -0.025610 0.051830 1.845960 
# 
# From -- ./inp_files/195600.got.cif
#   From: 2010.05.17/outbox.cif.g08.bks.cpg/sg2_98_cif.got.tgz:195600.got - 2010.06.03 11:33:40.
