data_PCOD9020411
_publ_section_title
;
Structure prediction by ZEFSAII (Michael W. Deem and Ramdas Pophale) SiO2 
 PCOD9020411
Probable space group: P -1
;
_chemical_formula_sum "Si O2"
_cell_formula_units_Z 16
_cell_length_a 15.392197
_cell_length_b 9.230688
_cell_length_c 11.249286
_cell_angle_alpha 74.625263
_cell_angle_beta 127.389531
_cell_angle_gamma 63.274314
_cell_volume 739.245141
_symmetry_space_group_name_H-M "P -1"
_symmetry_group_IT_number 2
_symmetry_cell_setting 'triclinic'
loop_
_space_group_symop_operation_xyz
x,y,z
-x,-y,-z
loop_
_atom_site_type_symbol
_atom_site_label
_atom_site_fract_x
_atom_site_fract_y
_atom_site_fract_z
Si Si1 0.411839 0.590881 0.777663
Si Si2 0.103625 0.087184 0.850730
Si Si3 0.698733 0.343143 0.721172
Si Si4 0.013988 0.064847 0.370771
Si Si5 0.661984 0.550885 0.878082
Si Si6 0.720333 0.512827 0.477360
Si Si7 0.517711 0.029234 0.190636
Si Si8 0.213370 0.221501 0.744055
O O1 0.559070 0.508261 0.835124
O O2 0.356569 0.488841 0.702388
O O3 0.219391 0.887957 0.558078
O O4 0.500000 0.500000 0.000000
O O5 0.217402 0.064708 0.860394
O O6 0.914821 0.378220 0.653636
O O7 0.035559 0.013796 0.742946
O O8 0.196027 0.915495 0.080909
O O9 0.500000 0.500000 0.500000
O O10 0.699739 0.481179 0.785866
O O11 0.756786 0.346170 0.642728
O O12 0.000000 0.000000 0.500000
O O13 0.853067 0.356405 0.148411
O O14 0.532141 0.817435 0.769645
O O15 0.580421 0.794877 0.333587
O O16 0.677065 0.915279 0.259754
O O17 0.337139 0.206143 0.921491
O O18 0.000000 0.500000 0.500000
#
# Coordination Sequence:
#
# PCOD9020411 Si02
#       8
#     2   2   2   2   2   2   2   2
#     4  11  23  37  68  94 131 168 229 279 332 394
#     4  10  23  41  67  98 124 175 228 282 323 392
#     4  11  22  43  72  93 128 176 237 277 325 387
#     4  10  22  35  60  93 129 169 213 274 334 386
#     4  11  25  41  60 101 131 175 218 281 330 393
#     4  11  23  46  66  99 130 182 225 275 334 400
#     4  11  27  39  66 100 139 177 220 265 349 413
#     4  11  24  42  65  95 141 180 215 267 341 410
#
# _framework density 21.643699999999999
#
# number of rings (size 3 to 8) (size 9 to 14) (size 15 to 20)
#    0.000    1.250    3.750    1.125    8.750    0.500 
#    0.000    0.000    0.000    1.500    0.000    0.000 
#    0.000    0.000    0.000    0.000    0.000    0.000 
#
# Total GULP energy -89290.296781 kJ/mol
# GULP energy per Si atom -5580.643549 kJ/mol
# Density = 2.159444 g / cm^3
# Si number density = 21.643700 Si / 1000 Ang^3
#
#
#
# Elastic Constant Matrix: (Units=GPa)
#
#
# Indices 1 2 3 4 5 6 
#
# 1 97.6338 0.0970 35.5932 -0.7584 -0.0611 -2.0541
# 2 0.0970 97.1757 36.0811 -7.8946 -7.1751 -4.3238
# 3 35.5932 36.0811 147.7684 -8.8415 13.2164 -4.3234
# 4 -0.7584 -7.8946 -8.8415 31.5156 -8.5545 -2.5160
# 5 -0.0611 -7.1751 13.2164 -8.5545 40.1107 -3.4102
# 6 -2.0541 -4.3238 -4.3234 -2.5160 -3.4102 26.3707
#
#
#
# Elastic Compliance Matrix: (Units=1/GPa)
#
#
# Indices 1 2 3 4 5 6 
#
# 1 0.011412 0.001313 -0.003162 0.000157 0.001394 0.000781
# 2 0.001313 0.012265 -0.003413 0.003502 0.004275 0.002441
# 3 -0.003162 -0.003413 0.008705 0.000628 -0.003328 0.000251
# 4 0.000157 0.003502 0.000628 0.035487 0.008427 0.005165
# 5 0.001394 0.004275 -0.003328 0.008427 0.029001 0.004818
# 6 0.000781 0.002441 0.000251 0.005165 0.004818 0.039539
#
#
# Mechanical properties :
#
#
# Convention : Reuss Voigt Hill
#
# Bulk Modulus (GPa) = 45.74670 54.01338 49.88004
# Shear Modulus (GPa) = 32.42141 37.65316 35.03728
#
# Velocity S-wave (km/s) = 3.87455 4.17547 4.02782
# Velocity P-wave (km/s) = 6.41859 6.94665 6.68784
#
# Compressibility (1/GPa) = 0.02185950
#
# Stress axis : x y z
#
# Youngs Moduli (GPa) = 87.62479 81.53204 114.87927
#
# Poissons Ratio (x) = -0.10706 0.36324
# Poissons Ratio (y) = -0.11506 0.39203
# Poissons Ratio (z) = 0.27706 0.27823
#
# Static dielectric constant tensor:
#      x y z
#    x 1.843660 -0.062630 0.066690 
#    y -0.062630 1.823940 -0.019010 
#    z 0.066690 -0.019010 1.743710 
# 
# From -- ./inp_files/447220.got.cif
#   From: 2010.05.17/outbox.cif.g08.bks.cpg/sg2_224_cif.got.tgz:447220.got - 2010.06.03 11:33:40.
