data_PCOD9020853
_publ_section_title
;
Structure prediction by ZEFSAII (Michael W. Deem and Ramdas Pophale) SiO2 
 PCOD9020853
Probable space group: P -1
;
_chemical_formula_sum "Si O2"
_cell_formula_units_Z 16
_cell_length_a 9.049195
_cell_length_b 19.317086
_cell_length_c 7.406281
_cell_angle_alpha 112.759753
_cell_angle_beta 131.514047
_cell_angle_gamma 38.432352
_cell_volume 577.715402
_symmetry_space_group_name_H-M "P -1"
_symmetry_group_IT_number 2
_symmetry_cell_setting 'triclinic'
loop_
_space_group_symop_operation_xyz
x,y,z
-x,-y,-z
loop_
_atom_site_type_symbol
_atom_site_label
_atom_site_fract_x
_atom_site_fract_y
_atom_site_fract_z
Si Si1 0.022741 0.216165 0.301943
Si Si2 0.226934 0.529814 0.219941
Si Si3 0.379813 0.435704 0.851544
Si Si4 0.671950 0.290981 0.463761
Si Si5 0.250475 0.162974 0.953354
Si Si6 0.207010 0.032934 0.023224
Si Si7 0.910039 0.639024 0.411775
Si Si8 0.281496 0.882371 0.497096
O O1 0.857175 0.235030 0.368997
O O2 0.181701 0.250548 0.495980
O O3 0.741780 0.322112 0.051487
O O4 0.197495 0.093596 0.240936
O O5 0.500000 0.500000 0.500000
O O6 0.339413 0.416544 0.274626
O O7 0.934932 0.632634 0.208480
O O8 0.244836 0.513211 0.003485
O O9 0.233069 0.524099 0.656541
O O10 0.283985 0.376102 0.701554
O O11 0.638352 0.222263 0.465658
O O12 0.897290 0.282870 0.747487
O O13 0.425961 0.153292 0.247269
O O14 0.479127 0.100675 0.903694
O O15 0.206994 0.089610 0.907721
O O16 0.890980 0.078208 0.795298
O O17 0.000000 0.000000 0.500000
#
# Coordination Sequence:
#
# PCOD9020853 Si02
#       8
#     2   2   2   2   2   2   2   2
#     4  11  23  40  59  88 127 157 200 258 304 361
#     4  11  22  42  64  92 130 169 201 260 309 363
#     4  10  24  40  62  91 125 167 215 250 305 374
#     4  10  22  37  60  91 119 160 204 242 310 365
#     4   9  19  39  60  87 115 154 204 244 302 370
#     4   9  20  37  62  86 117 154 198 253 301 361
#     4  11  23  43  64  88 130 170 205 258 309 364
#     4   9  19  39  61  84 118 154 199 253 297 358
#
# _framework density 27.695295999999999
#
# number of rings (size 3 to 8) (size 9 to 14) (size 15 to 20)
#    0.000    2.000    2.500    1.500    3.500    3.500 
#    4.500    2.500    0.000    0.000    0.000    0.000 
#    0.000    0.000    0.000    0.000    0.000    0.000 
#
# Total GULP energy -89424.287143 kJ/mol
# GULP energy per Si atom -5589.017946 kJ/mol
# Density = 2.763226 g / cm^3
# Si number density = 27.695296 Si / 1000 Ang^3
#
#
#
# Elastic Constant Matrix: (Units=GPa)
#
#
# Indices 1 2 3 4 5 6 
#
# 1 55.4601 17.7460 37.6320 18.8334 -3.5194 -2.8453
# 2 17.7460 86.0831 62.1261 17.4843 -7.1794 -21.6628
# 3 37.6320 62.1261 161.6616 15.0682 13.2823 -4.9398
# 4 18.8334 17.4843 15.0682 60.2155 -5.8512 -13.6613
# 5 -3.5194 -7.1794 13.2823 -5.8512 62.5038 17.1936
# 6 -2.8453 -21.6628 -4.9398 -13.6613 17.1936 42.7248
#
#
#
# Elastic Compliance Matrix: (Units=1/GPa)
#
#
# Indices 1 2 3 4 5 6 
#
# 1 0.023770 -0.000270 -0.005100 -0.006331 0.002384 -0.002127
# 2 -0.000270 0.019168 -0.007008 -0.001836 0.001372 0.007752
# 3 -0.005100 -0.007008 0.010210 0.000478 -0.002826 -0.001422
# 4 -0.006331 -0.001836 0.000478 0.020168 -0.000223 0.005241
# 5 0.002384 0.001372 -0.002826 -0.000223 0.018829 -0.007121
# 6 -0.002127 0.007752 -0.001422 0.005241 -0.007121 0.031571
#
#
# Mechanical properties :
#
#
# Convention : Reuss Voigt Hill
#
# Bulk Modulus (GPa) = 35.22147 59.80144 47.51146
# Shear Modulus (GPa) = 31.65802 45.46886 38.56344
#
# Velocity S-wave (km/s) = 3.38462 4.05625 3.73556
# Velocity P-wave (km/s) = 5.29333 6.60129 5.98316
#
# Compressibility (1/GPa) = 0.02839177
#
# Stress axis : x y z
#
# Youngs Moduli (GPa) = 42.06964 52.17040 97.93945
#
# Poissons Ratio (x) = 0.01408 0.49952
# Poissons Ratio (y) = 0.01136 0.68637
# Poissons Ratio (z) = 0.21457 0.36561
#
# Static dielectric constant tensor:
#      x y z
#    x 2.129020 -0.004010 0.028580 
#    y -0.004010 2.256030 -0.027490 
#    z 0.028580 -0.027490 2.261160 
# 
# From -- ./inp_files/284995.got.cif
#   From: 2010.05.17/outbox.cif.g08.bks.cpg/sg2_143_cif.got.tgz:284995.got - 2010.06.03 11:33:40.
