data_PCOD9020736
_publ_section_title
;
Structure prediction by ZEFSAII (Michael W. Deem and Ramdas Pophale) SiO2 
 PCOD9020736
Probable space group: P -1
;
_chemical_formula_sum "Si O2"
_cell_formula_units_Z 12
_cell_length_a 12.097814
_cell_length_b 10.853911
_cell_length_c 12.960299
_cell_angle_alpha 136.974087
_cell_angle_beta 142.259072
_cell_angle_gamma 34.371109
_cell_volume 572.760608
_symmetry_space_group_name_H-M "P -1"
_symmetry_group_IT_number 2
_symmetry_cell_setting 'triclinic'
loop_
_space_group_symop_operation_xyz
x,y,z
-x,-y,-z
loop_
_atom_site_type_symbol
_atom_site_label
_atom_site_fract_x
_atom_site_fract_y
_atom_site_fract_z
Si Si1 0.026956 0.532663 0.800064
Si Si2 0.205439 0.098822 0.963613
Si Si3 0.119761 0.722578 0.359255
Si Si4 0.520824 0.211902 0.326463
Si Si5 0.397646 0.088430 0.367107
Si Si6 0.476040 0.700394 0.046398
O O1 0.284347 0.408682 0.894555
O O2 0.978183 0.350447 0.670152
O O3 0.862492 0.700040 0.691401
O O4 0.944163 0.699521 0.940048
O O5 0.061990 0.163776 0.795576
O O6 0.430929 0.090518 0.123281
O O7 0.283971 0.857937 0.917186
O O8 0.332514 0.474995 0.325289
O O9 0.239303 0.839725 0.548838
O O10 0.504659 0.164191 0.407352
O O11 0.500000 0.000000 0.500000
O O12 0.423874 0.882541 0.204122
O O13 0.500000 0.500000 0.000000
#
# Coordination Sequence:
#
# PCOD9020736 Si02
#       6
#     2   2   2   2   2   2
#     4   9  19  35  54  79 112 144 181 233 277 327
#     4   9  19  35  56  81 113 147 181 226 279 334
#     4   9  16  32  57  81 110 147 180 222 284 336
#     4   8  16  31  54  83 108 138 185 226 267 331
#     4   9  20  37  56  79 112 149 186 231 278 329
#     4  10  22  37  53  81 112 145 193 233 272 333
#
# _framework density 20.951160999999999
#
# number of rings (size 3 to 8) (size 9 to 14) (size 15 to 20)
#    0.000    3.667    0.000    2.000    0.000    6.667 
#    0.000    6.667    0.000    0.000    0.000    0.000 
#    0.000    0.000    0.000    0.000    0.000    0.000 
#
# Total GULP energy -66878.873743 kJ/mol
# GULP energy per Si atom -5573.239479 kJ/mol
# Density = 2.090348 g / cm^3
# Si number density = 20.951161 Si / 1000 Ang^3
#
#
#
# Elastic Constant Matrix: (Units=GPa)
#
#
# Indices 1 2 3 4 5 6 
#
# 1 57.9772 50.7907 48.9547 -17.8465 12.4956 13.0026
# 2 50.7907 158.2492 58.9286 -15.3650 -2.5543 31.7054
# 3 48.9547 58.9286 98.4617 -30.5078 -2.6243 20.9059
# 4 -17.8465 -15.3650 -30.5078 35.0107 12.3433 -0.1249
# 5 12.4956 -2.5543 -2.6243 12.3433 37.9017 -4.4935
# 6 13.0026 31.7054 20.9059 -0.1249 -4.4935 25.2816
#
#
#
# Elastic Compliance Matrix: (Units=1/GPa)
#
#
# Indices 1 2 3 4 5 6 
#
# 1 0.046337 -0.007279 -0.011548 0.018706 -0.023759 -0.009284
# 2 -0.007279 0.010727 -0.001310 -0.001016 0.002390 -0.008207
# 3 -0.011548 -0.001310 0.023688 0.014406 -0.000764 -0.012071
# 4 0.018706 -0.001016 0.014406 0.059879 -0.027689 -0.024885
# 5 -0.023759 0.002390 -0.000764 -0.027689 0.045452 0.017796
# 6 -0.009284 -0.008207 -0.012071 -0.024885 0.017796 0.067643
#
#
# Mechanical properties :
#
#
# Convention : Reuss Voigt Hill
#
# Bulk Modulus (GPa) = 24.70440 70.22623 47.46532
# Shear Modulus (GPa) = 16.26060 30.03975 23.15017
#
# Velocity S-wave (km/s) = 2.78891 3.79066 3.32770
# Velocity P-wave (km/s) = 4.71039 7.26296 6.12121
#
# Compressibility (1/GPa) = 0.04047862
#
# Stress axis : x y z
#
# Youngs Moduli (GPa) = 21.58115 93.22120 42.21556
#
# Poissons Ratio (x) = 0.67855 0.48751
# Poissons Ratio (y) = 0.15709 0.05529
# Poissons Ratio (z) = 0.24922 0.12209
#
# Static dielectric constant tensor:
#      x y z
#    x 1.810200 0.009230 0.009250 
#    y 0.009230 1.795270 0.005570 
#    z 0.009250 0.005570 1.772300 
# 
# From -- ./inp_files/531337.got.cif
#   From: 2010.05.17/outbox.cif.g08.bks.cpg/sg2_266_cif.got.tgz:531337.got - 2010.06.03 11:33:40.
