data_PCOD9020057
_publ_section_title
;
Structure prediction by ZEFSAII (Michael W. Deem and Ramdas Pophale) SiO2 
 PCOD9020057
Probable space group: P -1
;
_chemical_formula_sum "Si O2"
_cell_formula_units_Z 16
_cell_length_a 9.544897
_cell_length_b 4.984469
_cell_length_c 14.380516
_cell_angle_alpha 115.237222
_cell_angle_beta 88.519456
_cell_angle_gamma 94.925391
_cell_volume 616.537696
_symmetry_space_group_name_H-M "P -1"
_symmetry_group_IT_number 2
_symmetry_cell_setting 'triclinic'
loop_
_space_group_symop_operation_xyz
x,y,z
-x,-y,-z
loop_
_atom_site_type_symbol
_atom_site_label
_atom_site_fract_x
_atom_site_fract_y
_atom_site_fract_z
Si Si1 0.291951 0.166588 0.344251
Si Si2 0.536944 0.855343 0.261245
Si Si3 0.930538 0.284081 0.769592
Si Si4 0.610145 0.795318 0.052078
Si Si5 0.311815 0.298661 0.153873
Si Si6 0.841669 0.344290 0.476164
Si Si7 0.058864 0.187375 0.937954
Si Si8 0.199113 0.332546 0.657206
O O1 0.291181 0.141185 0.228708
O O2 0.252597 0.484295 0.425443
O O3 0.446860 0.079153 0.354374
O O4 0.162694 0.924153 0.331931
O O5 0.570879 0.966755 0.171485
O O6 0.428859 0.567490 0.206457
O O7 0.667981 0.733330 0.292777
O O8 0.827685 0.531472 0.839417
O O9 0.990574 0.097146 0.825827
O O10 0.070092 0.417268 0.735166
O O11 0.773717 0.754485 0.065827
O O12 0.500000 0.500000 0.000000
O O13 0.636174 0.904791 0.960649
O O14 0.840450 0.992411 0.435636
O O15 0.000000 0.500000 0.500000
O O16 0.779769 0.423133 0.387410
O O17 0.000000 0.500000 0.000000
O O18 0.000000 0.000000 0.000000
#
# Coordination Sequence:
#
# PCOD9020057 Si02
#       8
#     2   2   2   2   2   2   2   2
#     4  11  25  44  70 100 139 188 237 294 360 425
#     4  10  25  44  66 105 142 188 231 293 354 432
#     4  11  23  42  70 101 141 182 237 296 352 417
#     4  10  21  46  68 104 148 195 237 291 361 431
#     4  10  22  43  70  98 144 186 238 283 355 422
#     4  12  27  47  76 104 139 182 239 298 359 420
#     4  12  25  44  70 108 143 188 247 297 354 423
#     4  12  27  46  73 107 139 182 238 295 356 420
#
# _framework density 25.951374999999999
#
# number of rings (size 3 to 8) (size 9 to 14) (size 15 to 20)
#    0.000    1.000    3.750    1.875    5.250    1.500 
#    4.500    0.000    0.000    0.000    0.000    0.000 
#    0.000    0.000    0.000    0.000    0.000    0.000 
#
# Total GULP energy -89526.104894 kJ/mol
# GULP energy per Si atom -5595.381556 kJ/mol
# Density = 2.589231 g / cm^3
# Si number density = 25.951375 Si / 1000 Ang^3
#
#
#
# Elastic Constant Matrix: (Units=GPa)
#
#
# Indices 1 2 3 4 5 6 
#
# 1 187.2338 19.6161 47.4209 2.7853 -13.0785 -10.8955
# 2 19.6161 94.5761 11.7566 -8.7903 -3.4374 -11.6585
# 3 47.4209 11.7566 89.2384 -14.8556 -5.1622 -13.8766
# 4 2.7853 -8.7903 -14.8556 46.9843 -11.8616 0.9894
# 5 -13.0785 -3.4374 -5.1622 -11.8616 34.4910 6.5873
# 6 -10.8955 -11.6585 -13.8766 0.9894 6.5873 28.5587
#
#
#
# Elastic Compliance Matrix: (Units=1/GPa)
#
#
# Indices 1 2 3 4 5 6 
#
# 1 0.006426 -0.000964 -0.003404 -0.001297 0.001359 0.000135
# 2 -0.000964 0.011519 0.000072 0.002356 0.000820 0.004098
# 3 -0.003404 0.000072 0.014804 0.005213 0.001703 0.005350
# 4 -0.001297 0.002356 0.005213 0.025829 0.009419 -0.000068
# 5 0.001359 0.000820 0.001703 0.009419 0.034338 -0.006566
# 6 0.000135 0.004098 0.005350 -0.000068 -0.006566 0.040857
#
#
# Mechanical properties :
#
#
# Convention : Reuss Voigt Hill
#
# Bulk Modulus (GPa) = 41.39853 58.73726 50.06790
# Shear Modulus (GPa) = 33.24087 41.49046 37.36567
#
# Velocity S-wave (km/s) = 3.58284 4.00281 3.79863
# Velocity P-wave (km/s) = 5.75349 6.63672 6.21082
#
# Compressibility (1/GPa) = 0.02415544
#
# Stress axis : x y z
#
# Youngs Moduli (GPa) = 155.61253 86.81654 67.55048
#
# Poissons Ratio (x) = 0.08371 0.22995
# Poissons Ratio (y) = 0.15004 -0.00485
# Poissons Ratio (z) = 0.52973 -0.00623
#
# Static dielectric constant tensor:
#      x y z
#    x 2.086160 0.022490 0.021740 
#    y 0.022490 2.014660 -0.067260 
#    z 0.021740 -0.067260 2.120740 
# 
# From -- ./inp_files/81098.got.cif
#   From: 2010.05.17/outbox.cif.g08.bks.cpg/sg2_41_cif.got.tgz:81098.got - 2010.06.03 11:33:40.
