data_PCOD9020176
_publ_section_title
;
Structure prediction by ZEFSAII (Michael W. Deem and Ramdas Pophale) SiO2 
 PCOD9020176
Probable space group: P -1
;
_chemical_formula_sum "Si O2"
_cell_formula_units_Z 16
_cell_length_a 14.630482
_cell_length_b 6.757221
_cell_length_c 9.780714
_cell_angle_alpha 122.249759
_cell_angle_beta 127.834818
_cell_angle_gamma 82.609680
_cell_volume 616.623335
_symmetry_space_group_name_H-M "P -1"
_symmetry_group_IT_number 2
_symmetry_cell_setting 'triclinic'
loop_
_space_group_symop_operation_xyz
x,y,z
-x,-y,-z
loop_
_atom_site_type_symbol
_atom_site_label
_atom_site_fract_x
_atom_site_fract_y
_atom_site_fract_z
Si Si1 0.777167 0.414464 0.297869
Si Si2 0.384847 0.429402 0.269210
Si Si3 0.904063 0.017848 0.304280
Si Si4 0.207631 0.058904 0.418700
Si Si5 0.206308 0.515892 0.963504
Si Si6 0.442784 0.479096 0.790911
Si Si7 0.062469 0.563169 0.226783
Si Si8 0.161443 0.124511 0.105803
O O1 0.748120 0.358220 0.090823
O O2 0.651521 0.360848 0.243027
O O3 0.864138 0.261905 0.369735
O O4 0.867641 0.638115 0.770142
O O5 0.500000 0.500000 0.500000
O O6 0.453671 0.429287 0.190130
O O7 0.292733 0.209480 0.188026
O O8 0.295104 0.595999 0.205542
O O9 0.796199 0.770685 0.146834
O O10 0.832593 0.708100 0.473468
O O11 0.922765 0.980868 0.142847
O O12 0.000000 0.000000 0.500000
O O13 0.156515 0.832948 0.390626
O O14 0.352014 0.200212 0.589496
O O15 0.161300 0.977214 0.190937
O O16 0.062396 0.484899 0.820962
O O17 0.500000 0.500000 0.000000
O O18 0.000000 0.500000 0.000000
#
# Coordination Sequence:
#
# PCOD9020176 Si02
#       8
#     2   2   2   2   2   2   2   2
#     4  10  25  47  76 110 155 200 258 316 393 460
#     4  11  19  44  75 109 153 197 253 325 379 462
#     4  11  27  46  72 107 152 201 255 313 389 465
#     4  10  26  46  78 112 150 205 259 310 398 456
#     4  11  26  44  74 109 153 203 257 314 390 456
#     4  10  21  46  79 113 158 197 266 324 383 472
#     4  12  26  47  72 109 156 201 256 323 381 463
#     4  11  26  47  76 111 154 202 257 318 390 463
#
# _framework density 25.947768
#
# number of rings (size 3 to 8) (size 9 to 14) (size 15 to 20)
#    0.750    0.500    5.000    0.000    5.250    2.000 
#    2.250    5.625    0.000    0.000    0.000    0.000 
#    0.000    0.000    0.000    0.000    0.000    0.000 
#
# Total GULP energy -89259.148921 kJ/mol
# GULP energy per Si atom -5578.696808 kJ/mol
# Density = 2.588871 g / cm^3
# Si number density = 25.947768 Si / 1000 Ang^3
#
#
#
# Elastic Constant Matrix: (Units=GPa)
#
#
# Indices 1 2 3 4 5 6 
#
# 1 166.8236 58.3893 42.2631 2.4397 11.1896 20.4883
# 2 58.3893 111.9150 44.7234 -5.5505 8.5334 -5.4486
# 3 42.2631 44.7234 158.9706 -23.1160 5.4647 7.3770
# 4 2.4397 -5.5505 -23.1160 53.6909 11.0385 -6.1919
# 5 11.1896 8.5334 5.4647 11.0385 36.4093 -9.5388
# 6 20.4883 -5.4486 7.3770 -6.1919 -9.5388 44.2110
#
#
#
# Elastic Compliance Matrix: (Units=1/GPa)
#
#
# Indices 1 2 3 4 5 6 
#
# 1 0.008490 -0.004171 -0.000961 -0.001313 -0.002397 -0.004989
# 2 -0.004171 0.012342 -0.002379 0.000999 -0.000542 0.003874
# 3 -0.000961 -0.002379 0.007809 0.003372 -0.001610 -0.001026
# 4 -0.001313 0.000999 0.003372 0.021779 -0.006461 0.001825
# 5 -0.002397 -0.000542 -0.001610 -0.006461 0.032472 0.007414
# 6 -0.004989 0.003874 -0.001026 0.001825 0.007414 0.027435
#
#
# Mechanical properties :
#
#
# Convention : Reuss Voigt Hill
#
# Bulk Modulus (GPa) = 73.42808 80.94008 77.18408
# Shear Modulus (GPa) = 38.49480 46.35113 42.42296
#
# Velocity S-wave (km/s) = 3.85587 4.23108 4.04782
# Velocity P-wave (km/s) = 6.94143 7.42499 7.18728
#
# Compressibility (1/GPa) = 0.01361877
#
# Stress axis : x y z
#
# Youngs Moduli (GPa) = 117.78057 81.02624 128.06453
#
# Poissons Ratio (x) = 0.33796 0.12305
# Poissons Ratio (y) = 0.49126 0.30467
# Poissons Ratio (z) = 0.11317 0.19277
#
# Static dielectric constant tensor:
#      x y z
#    x 2.210940 -0.122550 0.050400 
#    y -0.122550 2.142560 0.055340 
#    z 0.050400 0.055340 2.414800 
# 
# From -- ./inp_files/298945.got.cif
#   From: 2010.05.17/outbox.cif.g08.bks.cpg/sg2_150_cif.got.tgz:298945.got - 2010.06.03 11:33:40.
