data_PCOD9020318
_publ_section_title
;
Structure prediction by ZEFSAII (Michael W. Deem and Ramdas Pophale) SiO2 
 PCOD9020318
Probable space group: P -1
;
_chemical_formula_sum "Si O2"
_cell_formula_units_Z 14
_cell_length_a 13.327648
_cell_length_b 11.643087
_cell_length_c 8.700800
_cell_angle_alpha 88.001712
_cell_angle_beta 132.658663
_cell_angle_gamma 55.512323
_cell_volume 591.957075
_symmetry_space_group_name_H-M "P -1"
_symmetry_group_IT_number 2
_symmetry_cell_setting 'triclinic'
loop_
_space_group_symop_operation_xyz
x,y,z
-x,-y,-z
loop_
_atom_site_type_symbol
_atom_site_label
_atom_site_fract_x
_atom_site_fract_y
_atom_site_fract_z
Si Si1 0.142273 0.742218 0.216475
Si Si2 0.778930 0.728437 0.280721
Si Si3 0.051877 0.340796 0.852321
Si Si4 0.061681 0.927224 0.803609
Si Si5 0.458524 0.338940 0.666304
Si Si6 0.700378 0.004111 0.342595
Si Si7 0.466874 0.155585 0.415046
O O1 0.964518 0.756588 0.047213
O O2 0.376839 0.517296 0.506025
O O3 0.122206 0.815144 0.028224
O O4 0.082073 0.869494 0.286229
O O5 0.786395 0.815041 0.420327
O O6 0.000000 0.500000 0.500000
O O7 0.804938 0.785655 0.146125
O O8 0.531477 0.836129 0.006930
O O9 0.784512 0.542993 0.525317
O O10 0.196685 0.344502 0.079040
O O11 0.907491 0.951340 0.535195
O O12 0.305927 0.799783 0.994566
O O13 0.516716 0.210936 0.597553
O O14 0.611107 0.087578 0.417637
O O15 0.500000 0.000000 0.500000
#
# Coordination Sequence:
#
# PCOD9020318 Si02
#       7
#     2   2   2   2   2   2   2
#     4   9  21  35  58  90 126 153 186 234 292 359
#     4  10  23  45  62  79 111 157 202 248 286 335
#     4   9  21  38  57  88 118 150 202 235 286 342
#     4  11  19  38  58  89 123 156 186 231 305 353
#     4  10  22  34  57  91 126 153 184 237 290 358
#     4  10  24  38  61  86 111 151 201 240 287 350
#     4  11  20  35  61  92 120 151 188 243 303 344
#
# _framework density 23.650362999999999
#
# number of rings (size 3 to 8) (size 9 to 14) (size 15 to 20)
#    0.857    1.143    0.000    4.286    2.000    3.429 
#    2.571    1.429    0.000    0.000    0.000    0.000 
#    0.000    0.000    0.000    0.000    0.000    0.000 
#
# Total GULP energy -78151.369188 kJ/mol
# GULP energy per Si atom -5582.240656 kJ/mol
# Density = 2.359653 g / cm^3
# Si number density = 23.650363 Si / 1000 Ang^3
#
#
#
# Elastic Constant Matrix: (Units=GPa)
#
#
# Indices 1 2 3 4 5 6 
#
# 1 48.8960 0.0791 29.5949 -5.8460 19.0238 -3.8891
# 2 0.0791 111.3642 70.6615 -18.2484 12.4704 9.4984
# 3 29.5949 70.6615 186.6830 2.2704 49.5231 7.3467
# 4 -5.8460 -18.2484 2.2704 34.2482 7.4812 1.3504
# 5 19.0238 12.4704 49.5231 7.4812 41.3009 -6.4584
# 6 -3.8891 9.4984 7.3467 1.3504 -6.4584 24.9508
#
#
#
# Elastic Compliance Matrix: (Units=1/GPa)
#
#
# Indices 1 2 3 4 5 6 
#
# 1 0.028691 0.005287 -0.003210 0.010789 -0.013002 -0.000545
# 2 0.005287 0.014919 -0.005772 0.009952 -0.002500 -0.004342
# 3 -0.003210 -0.005772 0.010928 -0.001970 -0.010158 -0.004043
# 4 0.010789 0.009952 -0.001970 0.039812 -0.013965 -0.007296
# 5 -0.013002 -0.002500 -0.010158 -0.013965 0.048028 0.015104
# 6 -0.000545 -0.004342 -0.004043 -0.007296 0.015104 0.047142
#
#
# Mechanical properties :
#
#
# Convention : Reuss Voigt Hill
#
# Bulk Modulus (GPa) = 21.20985 60.84601 41.02793
# Shear Modulus (GPa) = 23.51541 36.54050 30.02796
#
# Velocity S-wave (km/s) = 3.15666 3.93495 3.56710
# Velocity P-wave (km/s) = 4.71949 6.81383 5.86097
#
# Compressibility (1/GPa) = 0.04714790
#
# Stress axis : x y z
#
# Youngs Moduli (GPa) = 34.85369 67.02737 91.50741
#
# Poissons Ratio (x) = -0.35436 0.29375
# Poissons Ratio (y) = -0.18427 0.52819
# Poissons Ratio (z) = 0.11188 0.38689
#
# Static dielectric constant tensor:
#      x y z
#    x 1.953990 0.038340 -0.020310 
#    y 0.038340 1.839610 -0.063880 
#    z -0.020310 -0.063880 1.984580 
# 
# From -- ./inp_files/464702.got.cif
#   From: 2010.05.17/outbox.cif.g08.bks.cpg/sg2_233_cif.got.tgz:464702.got - 2010.06.03 11:33:40.
