data_PCOD9020954
_publ_section_title
;
Structure prediction by ZEFSAII (Michael W. Deem and Ramdas Pophale) SiO2 
 PCOD9020954
Probable space group: P -1
;
_chemical_formula_sum "Si O2"
_cell_formula_units_Z 14
_cell_length_a 8.857169
_cell_length_b 10.645733
_cell_length_c 11.634234
_cell_angle_alpha 42.328773
_cell_angle_beta 60.028680
_cell_angle_gamma 48.301948
_cell_volume 551.495893
_symmetry_space_group_name_H-M "P -1"
_symmetry_group_IT_number 2
_symmetry_cell_setting 'triclinic'
loop_
_space_group_symop_operation_xyz
x,y,z
-x,-y,-z
loop_
_atom_site_type_symbol
_atom_site_label
_atom_site_fract_x
_atom_site_fract_y
_atom_site_fract_z
Si Si1 0.813201 0.428190 0.173432
Si Si2 0.737665 0.857489 0.026484
Si Si3 0.571204 0.464855 0.814280
Si Si4 0.447216 0.842466 0.793843
Si Si5 0.933218 0.067193 0.223960
Si Si6 0.989281 0.409191 0.690145
Si Si7 0.164521 0.163292 0.387147
O O1 0.802675 0.649747 0.059678
O O2 0.597661 0.453185 0.277186
O O3 0.837392 0.327689 0.103889
O O4 0.016112 0.248111 0.279065
O O5 0.819367 0.763058 0.188318
O O6 0.845799 0.993043 0.858494
O O7 0.500000 0.000000 0.000000
O O8 0.513800 0.670483 0.779401
O O9 0.809114 0.357076 0.780410
O O10 0.529206 0.291309 0.010740
O O11 0.205579 0.983087 0.772660
O O12 0.598064 0.935765 0.666338
O O13 0.896219 0.976992 0.416402
O O14 0.900969 0.621937 0.659833
O O15 0.000000 0.500000 0.500000
#
# Coordination Sequence:
#
# PCOD9020954 Si02
#       7
#     2   2   2   2   2   2   2
#     4  10  23  39  66  94 129 166 211 266 332 381
#     4  11  25  44  64  95 130 174 220 266 317 388
#     4   9  18  35  62  92 116 167 208 260 312 380
#     4   9  18  34  61  91 127 153 208 260 321 372
#     4  11  21  40  64  97 130 164 212 270 326 382
#     4  10  22  44  65  88 131 181 219 256 320 392
#     4  10  22  37  63 100 130 161 211 276 321 380
#
# _framework density 25.385501999999999
#
# number of rings (size 3 to 8) (size 9 to 14) (size 15 to 20)
#    0.000    2.000    1.429    1.286    8.000    2.286 
#    2.571    5.714    0.000    0.000    0.000    0.000 
#    0.000    0.000    0.000    0.000    0.000    0.000 
#
# Total GULP energy -78116.970132 kJ/mol
# GULP energy per Si atom -5579.783581 kJ/mol
# Density = 2.532772 g / cm^3
# Si number density = 25.385502 Si / 1000 Ang^3
#
#
#
# Elastic Constant Matrix: (Units=GPa)
#
#
# Indices 1 2 3 4 5 6 
#
# 1 251.3537 56.9533 90.1352 12.7216 -20.7381 -45.2030
# 2 56.9533 54.2989 26.2375 -4.1369 -8.8146 -13.4194
# 3 90.1352 26.2375 141.7008 12.6616 -18.7191 -30.7413
# 4 12.7216 -4.1369 12.6616 23.3569 2.1267 -7.0470
# 5 -20.7381 -8.8146 -18.7191 2.1267 41.4273 1.2956
# 6 -45.2030 -13.4194 -30.7413 -7.0470 1.2956 65.5366
#
#
#
# Elastic Compliance Matrix: (Units=1/GPa)
#
#
# Indices 1 2 3 4 5 6 
#
# 1 0.006652 -0.005329 -0.002395 -0.002757 0.001191 0.002053
# 2 -0.005329 0.026190 -0.001631 0.008829 0.001657 0.001839
# 3 -0.002395 -0.001631 0.010164 -0.004097 0.003186 0.002278
# 4 -0.002757 0.008829 -0.004097 0.049486 -0.003999 0.003385
# 5 0.001191 0.001657 0.003186 -0.003999 0.026679 0.001698
# 6 0.002053 0.001839 0.002278 0.003385 0.001698 0.018450
#
#
# Mechanical properties :
#
#
# Convention : Reuss Voigt Hill
#
# Bulk Modulus (GPa) = 41.15939 88.22282 64.69110
# Shear Modulus (GPa) = 30.40810 44.33265 37.37038
#
# Velocity S-wave (km/s) = 3.46476 4.18350 3.84098
# Velocity P-wave (km/s) = 5.67935 7.62655 6.72381
#
# Compressibility (1/GPa) = 0.02429580
#
# Stress axis : x y z
#
# Youngs Moduli (GPa) = 150.33039 38.18219 98.38798
#
# Poissons Ratio (x) = 0.20347 0.23568
# Poissons Ratio (y) = 0.80111 0.16044
# Poissons Ratio (z) = 0.36010 0.06226
#
# Static dielectric constant tensor:
#      x y z
#    x 2.095460 -0.087090 0.022630 
#    y -0.087090 2.156580 0.016650 
#    z 0.022630 0.016650 2.067420 
# 
# From -- ./inp_files/391829.got.cif
#   From: 2010.05.17/outbox.cif.g08.bks.cpg/sg2_196_cif.got.tgz:391829.got - 2010.06.03 11:33:40.
