data_PCOD9020143
_publ_section_title
;
Structure prediction by ZEFSAII (Michael W. Deem and Ramdas Pophale) SiO2 
 PCOD9020143
Probable space group: P -1
;
_chemical_formula_sum "Si O2"
_cell_formula_units_Z 12
_cell_length_a 8.061245
_cell_length_b 9.489416
_cell_length_c 14.008244
_cell_angle_alpha 43.352696
_cell_angle_beta 44.093249
_cell_angle_gamma 47.239835
_cell_volume 483.547337
_symmetry_space_group_name_H-M "P -1"
_symmetry_group_IT_number 2
_symmetry_cell_setting 'triclinic'
loop_
_space_group_symop_operation_xyz
x,y,z
-x,-y,-z
loop_
_atom_site_type_symbol
_atom_site_label
_atom_site_fract_x
_atom_site_fract_y
_atom_site_fract_z
Si Si1 0.839320 0.434859 0.701034
Si Si2 0.678870 0.828616 0.438539
Si Si3 0.571634 0.043317 0.725885
Si Si4 0.821067 0.649082 0.118431
Si Si5 0.203816 0.634130 0.570973
Si Si6 0.654882 0.597170 0.000025
O O1 0.707682 0.596755 0.589891
O O2 0.620565 0.418670 0.867483
O O3 0.024719 0.211688 0.688168
O O4 0.019697 0.537760 0.635303
O O5 0.546247 0.891204 0.361439
O O6 0.500000 0.000000 0.500000
O O7 0.364446 0.164687 0.831397
O O8 0.807137 0.134501 0.581489
O O9 0.643283 0.790173 0.838135
O O10 0.826120 0.421405 0.278631
O O11 0.723440 0.665256 0.043507
O O12 0.117027 0.623048 0.008836
O O13 0.500000 0.500000 0.500000
#
# Coordination Sequence:
#
# PCOD9020143 Si02
#       6
#     2   2   2   2   2   2
#     4  11  25  48  72 102 146 184 229 297 347 413
#     4  11  26  46  71 106 135 187 238 289 345 420
#     4  11  24  47  72 104 140 183 237 292 347 413
#     4  10  23  47  67 104 147 186 226 286 357 415
#     4  10  21  46  73  97 141 187 229 287 351 412
#     4  11  26  43  74 106 142 187 230 287 353 419
#
# _framework density 24.816597999999999
#
# number of rings (size 3 to 8) (size 9 to 14) (size 15 to 20)
#    0.000    1.333    3.333    1.500    9.333    3.333 
#    6.000    0.000    0.000    0.000    0.000    0.000 
#    0.000    0.000    0.000    0.000    0.000    0.000 
#
# Total GULP energy -67085.951837 kJ/mol
# GULP energy per Si atom -5590.495986 kJ/mol
# Density = 2.476011 g / cm^3
# Si number density = 24.816598 Si / 1000 Ang^3
#
#
#
# Elastic Constant Matrix: (Units=GPa)
#
#
# Indices 1 2 3 4 5 6 
#
# 1 126.7888 40.5587 38.5242 -1.8856 15.0864 -21.0387
# 2 40.5587 146.2456 29.5832 34.4220 -11.1644 -10.1735
# 3 38.5242 29.5832 75.2434 -7.4066 -4.9945 -18.9642
# 4 -1.8856 34.4220 -7.4066 50.5634 -13.6415 6.9322
# 5 15.0864 -11.1644 -4.9945 -13.6415 55.8403 13.1315
# 6 -21.0387 -10.1735 -18.9642 6.9322 13.1315 22.7040
#
#
#
# Elastic Compliance Matrix: (Units=1/GPa)
#
#
# Indices 1 2 3 4 5 6 
#
# 1 0.012594 -0.001893 -0.003046 -0.002706 -0.007935 0.013694
# 2 -0.001893 0.009972 -0.003053 -0.007758 -0.000300 0.002706
# 3 -0.003046 -0.003053 0.019057 0.003382 0.000264 0.010543
# 4 -0.002706 -0.007758 0.003382 0.031282 0.011705 -0.019480
# 5 -0.007935 -0.000300 0.000264 0.011705 0.029427 -0.027860
# 6 0.013694 0.002706 0.010543 -0.019480 -0.027860 0.088815
#
#
# Mechanical properties :
#
#
# Convention : Reuss Voigt Hill
#
# Bulk Modulus (GPa) = 39.00075 62.84555 50.92315
# Shear Modulus (GPa) = 23.18282 41.79566 32.48924
#
# Velocity S-wave (km/s) = 3.05973 4.10833 3.62218
# Velocity P-wave (km/s) = 5.31341 6.91979 6.16911
#
# Compressibility (1/GPa) = 0.02564053
#
# Stress axis : x y z
#
# Youngs Moduli (GPa) = 79.40110 100.28333 52.47286
#
# Poissons Ratio (x) = 0.18983 0.15981
# Poissons Ratio (y) = 0.15030 0.16019
# Poissons Ratio (z) = 0.24183 0.30615
#
# Static dielectric constant tensor:
#      x y z
#    x 1.993020 0.047950 -0.063330 
#    y 0.047950 2.048450 0.004430 
#    z -0.063330 0.004430 2.023460 
# 
# From -- ./inp_files/496089.got.cif
#   From: 2010.05.17/outbox.cif.g08.bks.cpg/sg2_249_cif.got.tgz:496089.got - 2010.06.03 11:33:40.
