data_PCOD9020762
_publ_section_title
;
Structure prediction by ZEFSAII (Michael W. Deem and Ramdas Pophale) SiO2 
 PCOD9020762
Probable space group: P -1
;
_chemical_formula_sum "Si O2"
_cell_formula_units_Z 16
_cell_length_a 8.996124
_cell_length_b 20.589551
_cell_length_c 11.589616
_cell_angle_alpha 29.260628
_cell_angle_beta 38.245208
_cell_angle_gamma 44.168045
_cell_volume 645.853477
_symmetry_space_group_name_H-M "P -1"
_symmetry_group_IT_number 2
_symmetry_cell_setting 'triclinic'
loop_
_space_group_symop_operation_xyz
x,y,z
-x,-y,-z
loop_
_atom_site_type_symbol
_atom_site_label
_atom_site_fract_x
_atom_site_fract_y
_atom_site_fract_z
Si Si1 0.976184 0.692430 0.113350
Si Si2 0.377185 0.779306 0.594846
Si Si3 0.694384 0.087472 0.799872
Si Si4 0.788061 0.598596 0.598814
Si Si5 0.876357 0.380409 0.418065
Si Si6 0.662512 0.669044 0.112939
Si Si7 0.174478 0.136763 0.472130
Si Si8 0.287874 0.016372 0.817304
O O1 0.141935 0.552706 0.246592
O O2 0.848342 0.702283 0.299550
O O3 0.781226 0.678794 0.152260
O O4 0.150454 0.793879 0.796391
O O5 0.303490 0.801086 0.472866
O O6 0.508829 0.631616 0.743795
O O7 0.584776 0.867315 0.374953
O O8 0.979453 0.037587 0.704775
O O9 0.500000 0.000000 0.000000
O O10 0.632905 0.097920 0.957577
O O11 0.944853 0.618212 0.585181
O O12 0.809276 0.533673 0.178138
O O13 0.617183 0.351468 0.672128
O O14 0.006794 0.264469 0.435680
O O15 0.695917 0.796343 0.815130
O O16 0.339550 0.060059 0.587700
O O17 0.000000 0.000000 0.000000
#
# Coordination Sequence:
#
# PCOD9020762 Si02
#       8
#     2   2   2   2   2   2   2   2
#     4  10  22  37  56  88 123 153 187 231 277 340
#     4  11  19  38  63  84 111 157 192 228 291 346
#     4   9  20  36  60  86 108 145 195 247 291 330
#     4  10  22  37  56  88 123 152 189 230 276 341
#     4  10  22  37  56  88 123 153 187 231 277 340
#     4  10  22  37  56  88 123 152 189 230 276 341
#     4  11  19  38  63  84 111 157 192 228 291 346
#     4   9  20  36  60  86 108 145 195 247 291 330
#
# _framework density 24.773419000000001
#
# number of rings (size 3 to 8) (size 9 to 14) (size 15 to 20)
#    0.000    2.000    2.500    0.750    3.500    0.000 
#    0.000    0.000    0.000   30.000    0.000    0.000 
#    0.000    0.000    0.000    0.000    0.000    0.000 
#
# Total GULP energy -89103.394378 kJ/mol
# GULP energy per Si atom -5568.962149 kJ/mol
# Density = 2.471703 g / cm^3
# Si number density = 24.773419 Si / 1000 Ang^3
#
#
#
# Elastic Constant Matrix: (Units=GPa)
#
#
# Indices 1 2 3 4 5 6 
#
# 1 104.8613 18.2172 28.6338 2.2612 37.3224 0.6888
# 2 18.2172 54.3357 13.1587 15.7045 15.8420 5.8177
# 3 28.6338 13.1587 130.6691 11.4963 44.8658 7.7969
# 4 2.2612 15.7045 11.4963 32.6790 1.2441 4.9768
# 5 37.3224 15.8420 44.8658 1.2441 39.7173 -7.2668
# 6 0.6888 5.8177 7.7969 4.9768 -7.2668 17.5268
#
#
#
# Elastic Compliance Matrix: (Units=1/GPa)
#
#
# Indices 1 2 3 4 5 6 
#
# 1 0.017044 0.002560 0.006197 -0.001287 -0.026741 -0.014998
# 2 0.002560 0.029248 0.007913 -0.012874 -0.026378 -0.020610
# 3 0.006197 0.007913 0.019720 -0.006057 -0.035582 -0.024676
# 4 -0.001287 -0.012874 -0.006057 0.038362 0.012201 0.001184
# 5 -0.026741 -0.026378 -0.035582 0.012201 0.113290 0.069142
# 6 -0.014998 -0.020610 -0.024676 0.001184 0.069142 0.103794
#
#
# Mechanical properties :
#
#
# Convention : Reuss Voigt Hill
#
# Bulk Modulus (GPa) = 10.06526 45.54282 27.80404
# Shear Modulus (GPa) = 15.56490 33.30839 24.43664
#
# Velocity S-wave (km/s) = 2.50929 3.67075 3.14412
# Velocity P-wave (km/s) = 3.53088 6.03237 4.94250
#
# Compressibility (1/GPa) = 0.09935168
#
# Stress axis : x y z
#
# Youngs Moduli (GPa) = 58.67330 34.19059 50.70904
#
# Poissons Ratio (x) = -0.08751 -0.31426
# Poissons Ratio (y) = -0.15017 -0.40127
# Poissons Ratio (z) = -0.36362 -0.27055
#
# Static dielectric constant tensor:
#      x y z
#    x 1.951870 -0.007420 0.004750 
#    y -0.007420 2.141470 -0.026830 
#    z 0.004750 -0.026830 2.055540 
# 
# From -- ./inp_files/406472.got.cif
#   From: 2010.05.17/outbox.cif.g08.bks.cpg/sg2_204_cif.got.tgz:406472.got - 2010.06.03 11:33:40.
