data_PCOD9020667
_publ_section_title
;
Structure prediction by ZEFSAII (Michael W. Deem and Ramdas Pophale) SiO2 
 PCOD9020667
Probable space group: P -1
;
_chemical_formula_sum "Si O2"
_cell_formula_units_Z 16
_cell_length_a 17.931288
_cell_length_b 17.971608
_cell_length_c 11.819592
_cell_angle_alpha 152.025722
_cell_angle_beta 143.948257
_cell_angle_gamma 19.089039
_cell_volume 575.781166
_symmetry_space_group_name_H-M "P -1"
_symmetry_group_IT_number 2
_symmetry_cell_setting 'triclinic'
loop_
_space_group_symop_operation_xyz
x,y,z
-x,-y,-z
loop_
_atom_site_type_symbol
_atom_site_label
_atom_site_fract_x
_atom_site_fract_y
_atom_site_fract_z
Si Si1 0.842075 0.679972 0.180447
Si Si2 0.738322 0.979321 0.264049
Si Si3 0.893828 0.265796 0.386606
Si Si4 0.533052 0.154007 0.762265
Si Si5 0.999302 0.996372 0.358332
Si Si6 0.710595 0.996094 0.002255
Si Si7 0.054833 0.396210 0.558459
Si Si8 0.718517 0.380688 0.092693
O O1 0.660925 0.935091 0.206753
O O2 0.787242 0.702683 0.274317
O O3 0.991370 0.685046 0.386831
O O4 0.007339 0.365585 0.917853
O O5 0.780958 0.114211 0.542232
O O6 0.618493 0.110958 0.170884
O O7 0.814233 0.279736 0.428487
O O8 0.741808 0.438485 0.320354
O O9 0.073480 0.944231 0.132541
O O10 0.336030 0.439748 0.831810
O O11 0.500000 0.000000 0.500000
O O12 0.785573 0.924565 0.705292
O O13 0.545534 0.199658 0.967216
O O14 0.928384 0.887748 0.106302
O O15 0.000000 0.000000 0.500000
O O16 0.809472 0.715259 0.733921
O O17 0.000000 0.500000 0.500000
O O18 0.500000 0.500000 0.000000
#
# Coordination Sequence:
#
# PCOD9020667 Si02
#       8
#     2   2   2   2   2   2   2   2
#     4   9  16  32  55  86 108 142 195 237 287 349
#     4   8  16  29  55  89 107 139 193 246 284 340
#     4  10  22  36  65  84 118 163 193 243 303 356
#     4  11  24  36  55  87 120 154 194 241 295 353
#     4   9  17  33  58  92 110 149 199 242 294 354
#     4   9  18  34  58  82 116 147 191 238 290 350
#     4   9  19  32  55  81 113 148 186 240 288 343
#     4  11  24  40  57  89 125 158 202 244 299 363
#
# _framework density 27.788336000000001
#
# number of rings (size 3 to 8) (size 9 to 14) (size 15 to 20)
#    0.000    2.500    0.000    1.500    7.000    2.000 
#    0.000    0.000    0.000   14.250    0.000    0.000 
#    0.000    0.000    0.000    0.000    0.000    0.000 
#
# Total GULP energy -89096.998314 kJ/mol
# GULP energy per Si atom -5568.562395 kJ/mol
# Density = 2.772509 g / cm^3
# Si number density = 27.788336 Si / 1000 Ang^3
#
#
#
# Elastic Constant Matrix: (Units=GPa)
#
#
# Indices 1 2 3 4 5 6 
#
# 1 114.6594 67.3680 58.6497 -9.7838 2.7129 35.1130
# 2 67.3680 130.9958 51.8060 -29.1380 -6.9194 63.3289
# 3 58.6497 51.8060 117.5987 -18.4837 13.0860 8.2282
# 4 -9.7838 -29.1380 -18.4837 55.2701 11.3830 -12.0759
# 5 2.7129 -6.9194 13.0860 11.3830 58.7216 -8.5402
# 6 35.1130 63.3289 8.2282 -12.0759 -8.5402 63.8806
#
#
#
# Elastic Compliance Matrix: (Units=1/GPa)
#
#
# Indices 1 2 3 4 5 6 
#
# 1 0.015103 -0.004053 -0.005826 -0.002275 -0.000013 -0.003965
# 2 -0.004053 0.021283 -0.005445 0.004828 0.000472 -0.017194
# 3 -0.005826 -0.005445 0.014134 0.002976 -0.003091 0.006929
# 4 -0.002275 0.004828 0.002976 0.022047 -0.004310 -0.000327
# 5 -0.000013 0.000472 -0.003091 -0.004310 0.018849 0.001642
# 6 -0.003965 -0.017194 0.006929 -0.000327 0.001642 0.034144
#
#
# Mechanical properties :
#
#
# Convention : Reuss Voigt Hill
#
# Bulk Modulus (GPa) = 50.31996 79.87793 65.09895
# Shear Modulus (GPa) = 30.70647 47.93646 39.32147
#
# Velocity S-wave (km/s) = 3.32778 4.15789 3.76578
# Velocity P-wave (km/s) = 5.73699 7.20127 6.51043
#
# Compressibility (1/GPa) = 0.01987283
#
# Stress axis : x y z
#
# Youngs Moduli (GPa) = 66.21125 46.98637 70.74926
#
# Poissons Ratio (x) = 0.19045 0.41215
# Poissons Ratio (y) = 0.26838 0.38522
# Poissons Ratio (z) = 0.38571 0.25584
#
# Static dielectric constant tensor:
#      x y z
#    x 3.483450 -0.304090 0.495230 
#    y -0.304090 2.430870 -0.144590 
#    z 0.495230 -0.144590 2.352020 
# 
# From -- ./inp_files/472510.got.cif
#   From: 2010.05.17/outbox.cif.g08.bks.cpg/sg2_237_cif.got.tgz:472510.got - 2010.06.03 11:33:40.
