data_PCOD9020316
_publ_section_title
;
Structure prediction by ZEFSAII (Michael W. Deem and Ramdas Pophale) SiO2 
 PCOD9020316
Probable space group: P -1
;
_chemical_formula_sum "Si O2"
_cell_formula_units_Z 16
_cell_length_a 7.035872
_cell_length_b 12.218601
_cell_length_c 18.082810
_cell_angle_alpha 132.085418
_cell_angle_beta 37.278908
_cell_angle_gamma 125.237561
_cell_volume 695.490019
_symmetry_space_group_name_H-M "P -1"
_symmetry_group_IT_number 2
_symmetry_cell_setting 'triclinic'
loop_
_space_group_symop_operation_xyz
x,y,z
-x,-y,-z
loop_
_atom_site_type_symbol
_atom_site_label
_atom_site_fract_x
_atom_site_fract_y
_atom_site_fract_z
Si Si1 0.062962 0.773210 0.730430
Si Si2 0.145508 0.844267 0.895252
Si Si3 0.198401 0.860335 0.354764
Si Si4 0.614399 0.649549 0.415906
Si Si5 0.796601 0.025803 0.750684
Si Si6 0.769804 0.627546 0.615578
Si Si7 0.850340 0.083879 0.917615
Si Si8 0.287437 0.815991 0.463642
O O1 0.804496 0.708826 0.721302
O O2 0.076627 0.950177 0.792563
O O3 0.015300 0.750557 0.822335
O O4 0.381232 0.706884 0.576234
O O5 0.522928 0.889618 0.788603
O O6 0.085560 0.806902 0.983215
O O7 0.000000 0.000000 0.000000
O O8 0.964179 0.712370 0.353350
O O9 0.399335 0.835391 0.353957
O O10 0.000000 0.000000 0.500000
O O11 0.317292 0.897862 0.252997
O O12 0.552878 0.472402 0.345811
O O13 0.512898 0.739693 0.415161
O O14 0.832532 0.129228 0.858402
O O15 0.139434 0.965703 0.603928
O O16 0.000000 0.500000 0.500000
O O17 0.955688 0.710554 0.527648
O O18 0.500000 0.000000 0.000000
#
# Coordination Sequence:
#
# PCOD9020316 Si02
#       8
#     2   2   2   2   2   2   2   2
#     4   9  14  29  46  68  98 121 153 205 248 276
#     4   9  18  28  46  71  93 122 164 206 248 289
#     4  10  21  30  45  73 102 138 165 187 234 312
#     4  10  19  33  49  73 104 135 166 190 243 297
#     4  10  17  31  44  69 105 128 156 197 248 298
#     4   8  16  29  51  69  99 132 163 201 237 284
#     4   9  16  27  45  66  95 121 157 202 245 286
#     4   9  17  32  48  71 102 131 163 195 239 287
#
# _framework density 23.005362999999999
#
# number of rings (size 3 to 8) (size 9 to 14) (size 15 to 20)
#    0.000    3.000    2.500    1.500    0.000    2.500 
#    4.500    1.250    0.000    0.000    0.000    8.750 
#    0.000    0.625    0.000    0.000    0.000    0.000 
#
# Total GULP energy -89134.652345 kJ/mol
# GULP energy per Si atom -5570.915772 kJ/mol
# Density = 2.295300 g / cm^3
# Si number density = 23.005363 Si / 1000 Ang^3
#
#
#
# Elastic Constant Matrix: (Units=GPa)
#
#
# Indices 1 2 3 4 5 6 
#
# 1 113.6459 16.3268 50.6054 -3.4372 43.3428 -2.7437
# 2 16.3268 66.9144 14.0839 -3.5890 33.8529 17.7678
# 3 50.6054 14.0839 96.2328 -3.8481 56.1586 -6.9737
# 4 -3.4372 -3.5890 -3.8481 14.3776 -5.6057 4.9015
# 5 43.3428 33.8529 56.1586 -5.6057 67.9033 -6.1149
# 6 -2.7437 17.7678 -6.9737 4.9015 -6.1149 35.2320
#
#
#
# Elastic Compliance Matrix: (Units=1/GPa)
#
#
# Indices 1 2 3 4 5 6 
#
# 1 0.012291 0.000823 -0.003466 0.000485 -0.005453 -0.001158
# 2 0.000823 0.029896 0.007287 0.007122 -0.022532 -0.018472
# 3 -0.003466 0.007287 0.023032 0.000094 -0.020732 -0.002997
# 4 0.000485 0.007122 0.000094 0.076688 0.001132 -0.014008
# 5 -0.005453 -0.022532 -0.020732 0.001132 0.048032 0.015014
# 6 -0.001158 -0.018472 -0.002997 -0.014008 0.015014 0.041570
#
#
# Mechanical properties :
#
#
# Convention : Reuss Voigt Hill
#
# Bulk Modulus (GPa) = 13.42144 48.75834 31.08989
# Shear Modulus (GPa) = 20.23822 36.55439 28.39630
#
# Velocity S-wave (km/s) = 2.96922 3.99049 3.51712
# Velocity P-wave (km/s) = 4.19544 6.51708 5.48061
#
# Compressibility (1/GPa) = 0.07450765
#
# Stress axis : x y z
#
# Youngs Moduli (GPa) = 81.36097 33.44938 43.41714
#
# Poissons Ratio (x) = -0.02753 0.15048
# Poissons Ratio (y) = -0.06696 -0.31638
# Poissons Ratio (z) = 0.28198 -0.24375
#
# Static dielectric constant tensor:
#      x y z
#    x 1.979180 0.007180 -0.049980 
#    y 0.007180 2.043840 0.045000 
#    z -0.049980 0.045000 1.952460 
# 
# From -- ./inp_files/560874.got.cif
#   From: 2010.05.17/outbox.cif.g08.bks.cpg/sg2_281_cif.got.tgz:560874.got - 2010.06.03 11:33:40.
