data_PCOD9020138
_publ_section_title
;
Structure prediction by ZEFSAII (Michael W. Deem and Ramdas Pophale) SiO2 
 PCOD9020138
Probable space group: P -1
;
_chemical_formula_sum "Si O2"
_cell_formula_units_Z 16
_cell_length_a 18.321392
_cell_length_b 9.535586
_cell_length_c 5.184766
_cell_angle_alpha 129.365649
_cell_angle_beta 111.822773
_cell_angle_gamma 69.901313
_cell_volume 642.723879
_symmetry_space_group_name_H-M "P -1"
_symmetry_group_IT_number 2
_symmetry_cell_setting 'triclinic'
loop_
_space_group_symop_operation_xyz
x,y,z
-x,-y,-z
loop_
_atom_site_type_symbol
_atom_site_label
_atom_site_fract_x
_atom_site_fract_y
_atom_site_fract_z
Si Si1 0.822166 0.642550 0.154270
Si Si2 0.710381 0.441220 0.507370
Si Si3 0.867310 0.836096 0.965515
Si Si4 0.832905 0.204756 0.075836
Si Si5 0.447619 0.072753 0.769439
Si Si6 0.415442 0.460337 0.936635
Si Si7 0.679689 0.168082 0.522595
Si Si8 0.963630 0.356302 0.105721
O O1 0.839412 0.734219 0.554720
O O2 0.897908 0.486074 0.007098
O O3 0.745262 0.541301 0.910794
O O4 0.817831 0.787305 0.087257
O O5 0.785716 0.387295 0.355798
O O6 0.640688 0.567272 0.412942
O O7 0.685394 0.243539 0.324890
O O8 0.960637 0.766319 0.061035
O O9 0.855562 0.049340 0.135402
O O10 0.911378 0.238403 0.070292
O O11 0.767553 0.145088 0.727654
O O12 0.428772 0.289701 0.947980
O O13 0.500000 0.000000 0.500000
O O14 0.365734 0.994369 0.631517
O O15 0.500000 0.000000 0.000000
O O16 0.500000 0.500000 0.000000
O O17 0.373150 0.649815 0.220464
O O18 0.000000 0.500000 0.500000
#
# Coordination Sequence:
#
# PCOD9020138 Si02
#       8
#     2   2   2   2   2   2   2   2
#     4  11  24  45  70 106 141 192 244 297 367 441
#     4  11  25  45  74 100 150 196 237 299 369 439
#     4  11  26  43  72 105 143 187 250 305 363 426
#     4  11  25  46  66 108 146 185 243 304 365 427
#     4  12  28  49  77 111 147 185 242 303 359 435
#     4  11  25  48  76 107 144 193 242 297 365 438
#     4  11  26  46  73 105 148 192 239 302 365 434
#     4  10  21  46  72  99 140 193 245 299 361 440
#
# _framework density 24.894051999999999
#
# number of rings (size 3 to 8) (size 9 to 14) (size 15 to 20)
#    0.000    1.000    2.500    3.000    8.750    2.000 
#    0.000    3.750    0.000    0.000    0.000    0.000 
#    0.000    0.000    0.000    0.000    0.000    0.000 
#
# Total GULP energy -89607.341628 kJ/mol
# GULP energy per Si atom -5600.458852 kJ/mol
# Density = 2.483739 g / cm^3
# Si number density = 24.894052 Si / 1000 Ang^3
#
#
#
# Elastic Constant Matrix: (Units=GPa)
#
#
# Indices 1 2 3 4 5 6 
#
# 1 112.4400 34.1555 36.1363 8.6659 17.2480 20.0119
# 2 34.1555 177.8607 27.0741 -0.4410 14.7656 25.6822
# 3 36.1363 27.0741 85.4034 -17.3407 14.1506 1.3826
# 4 8.6659 -0.4410 -17.3407 39.2144 4.1105 3.3293
# 5 17.2480 14.7656 14.1506 4.1105 45.3374 3.9406
# 6 20.0119 25.6822 1.3826 3.3293 3.9406 59.7896
#
#
#
# Elastic Compliance Matrix: (Units=1/GPa)
#
#
# Indices 1 2 3 4 5 6 
#
# 1 0.012119 -0.000898 -0.005406 -0.004607 -0.001938 -0.003161
# 2 -0.000898 0.006448 -0.001456 -0.000058 -0.001093 -0.002360
# 3 -0.005406 -0.001456 0.016838 0.008858 -0.003684 0.001795
# 4 -0.004607 -0.000058 0.008858 0.030841 -0.003780 -0.000106
# 5 -0.001938 -0.001093 -0.003684 -0.003780 0.024661 -0.000211
# 6 -0.003161 -0.002360 0.001795 -0.000106 -0.000211 0.018775
#
#
# Mechanical properties :
#
#
# Convention : Reuss Voigt Hill
#
# Bulk Modulus (GPa) = 50.29412 63.38179 56.83796
# Shear Modulus (GPa) = 37.92707 47.42417 42.67562
#
# Velocity S-wave (km/s) = 3.90749 4.36941 4.14489
# Velocity P-wave (km/s) = 6.37221 7.13944 6.76671
#
# Compressibility (1/GPa) = 0.01988304
#
# Stress axis : x y z
#
# Youngs Moduli (GPa) = 82.51490 155.08710 59.38885
#
# Poissons Ratio (x) = 0.13933 0.32107
# Poissons Ratio (y) = 0.07413 0.08649
# Poissons Ratio (z) = 0.44610 0.22587
#
# Static dielectric constant tensor:
#      x y z
#    x 1.992900 0.036820 -0.037220 
#    y 0.036820 1.977620 -0.005130 
#    z -0.037220 -0.005130 2.013320 
# 
# From -- ./inp_files/107714.got.cif
#   From: 2010.05.17/outbox.cif.g08.bks.cpg/sg2_54_cif.got.tgz:107714.got - 2010.06.03 11:33:40.
