data_PCOD9020679
_publ_section_title
;
Structure prediction by ZEFSAII (Michael W. Deem and Ramdas Pophale) SiO2 
 PCOD9020679
Probable space group: P -1
;
_chemical_formula_sum "Si O2"
_cell_formula_units_Z 14
_cell_length_a 14.536276
_cell_length_b 9.238236
_cell_length_c 5.168630
_cell_angle_alpha 75.512696
_cell_angle_beta 80.512355
_cell_angle_gamma 104.798245
_cell_volume 630.037880
_symmetry_space_group_name_H-M "P -1"
_symmetry_group_IT_number 2
_symmetry_cell_setting 'triclinic'
loop_
_space_group_symop_operation_xyz
x,y,z
-x,-y,-z
loop_
_atom_site_type_symbol
_atom_site_label
_atom_site_fract_x
_atom_site_fract_y
_atom_site_fract_z
Si Si1 0.654996 0.403930 0.684161
Si Si2 0.128914 0.135749 0.994297
Si Si3 0.012935 0.370685 0.856685
Si Si4 0.530403 0.371389 0.225409
Si Si5 0.851726 0.332051 0.569333
Si Si6 0.852057 0.031845 0.434539
Si Si7 0.311855 0.247529 0.533833
O O1 0.601267 0.412655 0.428176
O O2 0.740019 0.324730 0.651784
O O3 0.699923 0.590739 0.651911
O O4 0.586312 0.313681 0.993463
O O5 0.099305 0.025959 0.804960
O O6 0.246087 0.221936 0.839295
O O7 0.070459 0.259587 0.991524
O O8 0.112014 0.030700 0.298761
O O9 0.910693 0.288525 0.798656
O O10 0.090408 0.483290 0.571419
O O11 0.000000 0.500000 0.000000
O O12 0.427483 0.274736 0.449150
O O13 0.500000 0.500000 0.000000
O O14 0.860098 0.211915 0.394330
O O15 0.740276 0.916586 0.511861
#
# Coordination Sequence:
#
# PCOD9020679 Si02
#       7
#     2   2   2   2   2   2   2
#     4  11  23  38  68  96 133 171 222 274 326 378
#     4  10  24  43  67  97 129 180 213 278 323 395
#     4  11  27  43  74  93 133 173 229 275 334 395
#     4  10  22  36  66 102 127 171 223 274 316 391
#     4  11  26  46  62 103 132 176 220 280 330 400
#     4  10  25  41  70  93 140 174 219 267 337 392
#     4   9  21  39  66  93 131 167 222 262 325 385
#
# _framework density 22.220886
#
# number of rings (size 3 to 8) (size 9 to 14) (size 15 to 20)
#    0.857    0.857    1.429    1.714   16.000    1.143 
#    0.000    1.429    0.000    0.000    0.000    0.000 
#    0.000    0.000    0.000    0.000    0.000    0.000 
#
# Total GULP energy -77946.938657 kJ/mol
# GULP energy per Si atom -5567.638475 kJ/mol
# Density = 2.217031 g / cm^3
# Si number density = 22.220886 Si / 1000 Ang^3
#
#
#
# Elastic Constant Matrix: (Units=GPa)
#
#
# Indices 1 2 3 4 5 6 
#
# 1 141.3508 46.9250 51.5789 11.8208 -8.8751 -3.3936
# 2 46.9250 105.5175 28.6645 8.6308 4.1670 -5.8836
# 3 51.5789 28.6645 109.4951 16.4987 -4.4879 -2.8265
# 4 11.8208 8.6308 16.4987 40.2369 -0.4174 -1.4508
# 5 -8.8751 4.1670 -4.4879 -0.4174 21.4015 6.3133
# 6 -3.3936 -5.8836 -2.8265 -1.4508 6.3133 33.3484
#
#
#
# Elastic Compliance Matrix: (Units=1/GPa)
#
#
# Indices 1 2 3 4 5 6 
#
# 1 0.009826 -0.003593 -0.003428 -0.000693 0.004267 -0.000762
# 2 -0.003593 0.011861 -0.001416 -0.000869 -0.004847 0.002487
# 3 -0.003428 -0.001416 0.011692 -0.003470 0.001236 0.000007
# 4 -0.000693 -0.000869 -0.003470 0.026687 -0.000546 0.000746
# 5 0.004267 -0.004847 0.001236 -0.000546 0.052732 -0.010323
# 6 -0.000762 0.002487 0.000007 0.000746 -0.010323 0.032335
#
#
# Mechanical properties :
#
#
# Convention : Reuss Voigt Hill
#
# Bulk Modulus (GPa) = 60.59011 67.85556 64.22283
# Shear Modulus (GPa) = 29.84914 34.27704 32.06309
#
# Velocity S-wave (km/s) = 3.66907 3.93180 3.80271
# Velocity P-wave (km/s) = 6.72873 7.15648 6.94590
#
# Compressibility (1/GPa) = 0.01650434
#
# Stress axis : x y z
#
# Youngs Moduli (GPa) = 101.77222 84.31270 85.52642
#
# Poissons Ratio (x) = 0.30290 0.29322
# Poissons Ratio (y) = 0.36563 0.12112
# Poissons Ratio (z) = 0.34891 0.11940
#
# Static dielectric constant tensor:
#      x y z
#    x 1.882820 0.052790 -0.052480 
#    y 0.052790 1.840260 -0.009780 
#    z -0.052480 -0.009780 1.919830 
# 
# From -- ./inp_files/89824.got.cif
#   From: 2010.05.17/outbox.cif.g08.bks.cpg/sg2_45_cif.got.tgz:89824.got - 2010.06.03 11:33:40.
