data_PCOD9020799
_publ_section_title
;
Structure prediction by ZEFSAII (Michael W. Deem and Ramdas Pophale) SiO2 
 PCOD9020799
Probable space group: P -1
;
_chemical_formula_sum "Si O2"
_cell_formula_units_Z 16
_cell_length_a 24.882024
_cell_length_b 14.035074
_cell_length_c 14.716847
_cell_angle_alpha 19.697560
_cell_angle_beta 152.253508
_cell_angle_gamma 149.290515
_cell_volume 794.860208
_symmetry_space_group_name_H-M "P -1"
_symmetry_group_IT_number 2
_symmetry_cell_setting 'triclinic'
loop_
_space_group_symop_operation_xyz
x,y,z
-x,-y,-z
loop_
_atom_site_type_symbol
_atom_site_label
_atom_site_fract_x
_atom_site_fract_y
_atom_site_fract_z
Si Si1 0.467041 0.390017 0.447283
Si Si2 0.847844 0.413446 0.110342
Si Si3 0.881334 0.543378 0.335822
Si Si4 0.314853 0.796507 0.779507
Si Si5 0.167554 0.275996 0.484354
Si Si6 0.288351 0.736380 0.132714
Si Si7 0.063340 0.816308 0.100002
Si Si8 0.032020 0.014336 0.682060
O O1 0.500000 0.500000 0.500000
O O2 0.576728 0.278013 0.666617
O O3 0.358829 0.127534 0.526285
O O4 0.427484 0.646088 0.101471
O O5 0.758253 0.251160 0.193884
O O6 0.922585 0.707719 0.995519
O O7 0.944596 0.217242 0.407703
O O8 0.779346 0.453027 0.880339
O O9 0.770137 0.376090 0.266945
O O10 0.881603 0.414528 0.553248
O O11 0.000000 0.500000 0.500000
O O12 0.891055 0.882437 0.054843
O O13 0.234411 0.587151 0.278114
O O14 0.127451 0.205177 0.590539
O O15 0.049224 0.204763 0.310309
O O16 0.251562 0.046965 0.789775
O O17 0.080111 0.858968 0.978814
#
# Coordination Sequence:
#
# PCOD9020799 Si02
#       8
#     2   2   2   2   2   2   2   2
#     4  12  26  41  64  88 121 164 215 239 300 354
#     4  11  23  35  63  87 134 155 202 237 304 363
#     4  12  25  37  60  85 125 163 208 239 298 361
#     4  12  26  41  59  91 124 167 198 255 289 353
#     4  10  23  36  61  87 127 155 199 245 313 352
#     4  11  23  39  59  89 119 166 198 248 291 366
#     4  12  22  38  57  89 123 165 195 239 295 373
#     4  10  22  37  58  92 125 161 192 247 303 380
#
# _framework density 20.129325000000001
#
# number of rings (size 3 to 8) (size 9 to 14) (size 15 to 20)
#    0.000    0.750    5.000    2.250    8.750    1.500 
#    0.000    0.000    0.000    0.000    0.000   17.500 
#    0.000    0.000    0.000    0.000    0.000    0.000 
#
# Total GULP energy -89500.515591 kJ/mol
# GULP energy per Si atom -5593.782224 kJ/mol
# Density = 2.008351 g / cm^3
# Si number density = 20.129325 Si / 1000 Ang^3
#
#
#
# Elastic Constant Matrix: (Units=GPa)
#
#
# Indices 1 2 3 4 5 6 
#
# 1 75.1317 5.8151 12.1605 10.6443 -12.6786 15.2677
# 2 5.8151 69.5683 6.0026 -5.5569 1.6810 0.6501
# 3 12.1605 6.0026 49.9045 -0.2386 -5.2740 -3.7836
# 4 10.6443 -5.5569 -0.2386 39.0396 0.3598 -5.3199
# 5 -12.6786 1.6810 -5.2740 0.3598 34.9013 -3.8589
# 6 15.2677 0.6501 -3.7836 -5.3199 -3.8589 22.7481
#
#
#
# Elastic Compliance Matrix: (Units=1/GPa)
#
#
# Indices 1 2 3 4 5 6 
#
# 1 0.019086 -0.001734 -0.005084 -0.007510 0.004716 -0.014562
# 2 -0.001734 0.014889 -0.001447 0.002717 -0.001497 0.000880
# 3 -0.005084 -0.001447 0.022342 0.002405 0.002476 0.008152
# 4 -0.007510 0.002717 0.002405 0.029721 -0.001468 0.012064
# 5 0.004716 -0.001497 0.002476 -0.001468 0.031072 0.002217
# 6 -0.014562 0.000880 0.008152 0.012064 0.002217 0.058261
#
#
# Mechanical properties :
#
#
# Convention : Reuss Voigt Hill
#
# Bulk Modulus (GPa) = 25.13350 26.95124 26.04237
# Shear Modulus (GPa) = 24.37066 30.71287 27.54177
#
# Velocity S-wave (km/s) = 3.48329 3.91036 3.70299
# Velocity P-wave (km/s) = 5.35639 5.81429 5.59003
#
# Compressibility (1/GPa) = 0.03978753
#
# Stress axis : x y z
#
# Youngs Moduli (GPa) = 52.39439 67.16301 44.75825
#
# Poissons Ratio (x) = 0.11649 0.22754
# Poissons Ratio (y) = 0.09088 0.06475
# Poissons Ratio (z) = 0.26636 0.09717
#
# Static dielectric constant tensor:
#      x y z
#    x 1.738750 -0.013300 0.003270 
#    y -0.013300 1.709550 -0.010580 
#    z 0.003270 -0.010580 1.745800 
# 
# From -- ./inp_files/367683.got.cif
#   From: 2010.05.17/outbox.cif.g08.bks.cpg/sg2_184_cif.got.tgz:367683.got - 2010.06.03 11:33:40.
