data_PCOD9020934
_publ_section_title
;
Structure prediction by ZEFSAII (Michael W. Deem and Ramdas Pophale) SiO2 
 PCOD9020934
Probable space group: P -1
;
_chemical_formula_sum "Si O2"
_cell_formula_units_Z 16
_cell_length_a 11.431560
_cell_length_b 14.667252
_cell_length_c 13.791364
_cell_angle_alpha 39.193333
_cell_angle_beta 141.995962
_cell_angle_gamma 150.371462
_cell_volume 672.354488
_symmetry_space_group_name_H-M "P -1"
_symmetry_group_IT_number 2
_symmetry_cell_setting 'triclinic'
loop_
_space_group_symop_operation_xyz
x,y,z
-x,-y,-z
loop_
_atom_site_type_symbol
_atom_site_label
_atom_site_fract_x
_atom_site_fract_y
_atom_site_fract_z
Si Si1 0.243112 0.556029 0.666233
Si Si2 0.659429 0.955423 0.530790
Si Si3 0.336291 0.063270 0.952382
Si Si4 0.083278 0.666669 0.844036
Si Si5 0.107673 0.226136 0.228903
Si Si6 0.879697 0.760312 0.276593
Si Si7 0.750035 0.456822 0.096387
Si Si8 0.283723 0.013009 0.165538
O O1 0.477053 0.785065 0.630677
O O2 0.283672 0.446756 0.707729
O O3 0.191053 0.484321 0.801263
O O4 0.000000 0.500000 0.500000
O O5 0.767733 0.870117 0.614666
O O6 0.471569 0.973188 0.343176
O O7 0.897615 0.158064 0.566879
O O8 0.303874 0.219267 0.807935
O O9 0.184267 0.937129 0.864215
O O10 0.621101 0.158963 0.079864
O O11 0.185829 0.940342 0.052377
O O12 0.911404 0.714021 0.725839
O O13 0.083349 0.591183 0.801216
O O14 0.000000 0.500000 0.000000
O O15 0.213265 0.392327 0.078996
O O16 0.059443 0.905740 0.185185
O O17 0.463704 0.245638 0.086466
#
# Coordination Sequence:
#
# PCOD9020934 Si02
#       8
#     2   2   2   2   2   2   2   2
#     4  12  23  37  64  91 130 170 203 248 319 380
#     4  11  24  40  59  94 131 165 203 255 314 372
#     4  10  22  37  62  93 119 162 212 259 305 372
#     4   9  20  40  63  89 122 159 209 271 306 348
#     4  10  22  41  65  91 121 165 216 257 306 365
#     4  11  22  38  58  92 129 166 200 254 307 374
#     4  10  22  38  63  91 122 165 211 251 310 362
#     4  11  20  39  57  89 136 162 196 256 309 372
#
# _framework density 23.796970000000002
#
# number of rings (size 3 to 8) (size 9 to 14) (size 15 to 20)
#    0.000    1.500    2.500    2.625    5.250    1.500 
#    0.000    2.500    0.000    2.250    0.000    0.000 
#    0.000    0.000    0.000    0.000    0.000    0.000 
#
# Total GULP energy -89277.327007 kJ/mol
# GULP energy per Si atom -5579.832938 kJ/mol
# Density = 2.374281 g / cm^3
# Si number density = 23.796970 Si / 1000 Ang^3
#
#
#
# Elastic Constant Matrix: (Units=GPa)
#
#
# Indices 1 2 3 4 5 6 
#
# 1 102.3612 12.9972 32.7795 6.1422 27.5538 -19.2233
# 2 12.9972 85.2937 14.4814 -5.3478 -2.0258 -7.1511
# 3 32.7795 14.4814 62.8203 -0.6887 22.6150 -9.0392
# 4 6.1422 -5.3478 -0.6887 27.2745 2.5393 -3.2052
# 5 27.5538 -2.0258 22.6150 2.5393 28.6519 -3.4907
# 6 -19.2233 -7.1511 -9.0392 -3.2052 -3.4907 37.6084
#
#
#
# Elastic Compliance Matrix: (Units=1/GPa)
#
#
# Indices 1 2 3 4 5 6 
#
# 1 0.015154 -0.001851 -0.002407 -0.002074 -0.011947 0.005530
# 2 -0.001851 0.013071 -0.003881 0.002509 0.005710 0.001350
# 3 -0.002407 -0.003881 0.024712 0.002322 -0.017359 0.002558
# 4 -0.002074 0.002509 0.002322 0.038283 -0.002689 0.002988
# 5 -0.011947 0.005710 -0.017359 -0.002689 0.060268 -0.003828
# 6 0.005530 0.001350 0.002558 0.002988 -0.003828 0.030187
#
#
# Mechanical properties :
#
#
# Convention : Reuss Voigt Hill
#
# Bulk Modulus (GPa) = 27.27818 41.22128 34.24973
# Shear Modulus (GPa) = 23.79000 31.38809 27.58905
#
# Velocity S-wave (km/s) = 3.16524 3.63574 3.40862
# Velocity P-wave (km/s) = 4.98459 5.91477 5.46949
#
# Compressibility (1/GPa) = 0.03665934
#
# Stress axis : x y z
#
# Youngs Moduli (GPa) = 65.98974 76.50361 40.46673
#
# Poissons Ratio (x) = 0.14158 0.09740
# Poissons Ratio (y) = 0.12213 0.15706
# Poissons Ratio (z) = 0.15883 0.29692
#
# Static dielectric constant tensor:
#      x y z
#    x 2.021710 -0.049560 0.047900 
#    y -0.049560 1.959400 -0.035790 
#    z 0.047900 -0.035790 1.962510 
# 
# From -- ./inp_files/382687.got.cif
#   From: 2010.05.17/outbox.cif.g08.bks.cpg/sg2_192_cif.got.tgz:382687.got - 2010.06.03 11:33:40.
