data_PCOD9020612
_publ_section_title
;
Structure prediction by ZEFSAII (Michael W. Deem and Ramdas Pophale) SiO2 
 PCOD9020612
Probable space group: P -1
;
_chemical_formula_sum "Si O2"
_cell_formula_units_Z 16
_cell_length_a 10.436392
_cell_length_b 11.184215
_cell_length_c 11.940355
_cell_angle_alpha 49.692035
_cell_angle_beta 63.229530
_cell_angle_gamma 48.247070
_cell_volume 792.412233
_symmetry_space_group_name_H-M "P -1"
_symmetry_group_IT_number 2
_symmetry_cell_setting 'triclinic'
loop_
_space_group_symop_operation_xyz
x,y,z
-x,-y,-z
loop_
_atom_site_type_symbol
_atom_site_label
_atom_site_fract_x
_atom_site_fract_y
_atom_site_fract_z
Si Si1 0.429961 0.533414 0.675623
Si Si2 0.681139 0.730996 0.695901
Si Si3 0.753122 0.461436 0.467202
Si Si4 0.999655 0.118834 0.686609
Si Si5 0.042717 0.354952 0.717658
Si Si6 0.346709 0.892318 0.578400
Si Si7 0.151459 0.994674 0.011606
Si Si8 0.489310 0.363363 0.997348
O O1 0.623888 0.459372 0.607788
O O2 0.344116 0.477560 0.649388
O O3 0.340875 0.756945 0.574119
O O4 0.419520 0.470557 0.842048
O O5 0.529841 0.775203 0.640948
O O6 0.862935 0.544646 0.705187
O O7 0.681514 0.918605 0.575011
O O8 0.624545 0.697918 0.858168
O O9 0.915279 0.247080 0.533073
O O10 0.819661 0.592816 0.394773
O O11 0.885076 0.047587 0.824372
O O12 0.008871 0.258091 0.686524
O O13 0.194390 0.952983 0.689370
O O14 0.119920 0.196694 0.880115
O O15 0.328149 0.824148 0.993820
O O16 0.000000 0.000000 0.000000
O O17 0.500000 0.500000 0.000000
#
# Coordination Sequence:
#
# PCOD9020612 Si02
#       8
#     2   2   2   2   2   2   2   2
#     4  11  26  43  66  90 130 172 212 257 317 386
#     4  11  23  37  62 101 127 156 209 268 324 366
#     4  11  24  46  64  89 128 176 214 255 314 380
#     4  11  21  40  66  95 124 165 216 264 311 370
#     4  11  23  39  66  95 128 166 214 266 311 376
#     4  11  24  38  65  98 125 163 209 270 319 371
#     4  10  22  36  62  98 125 162 206 265 319 368
#     4  12  22  40  64  96 128 164 206 267 319 373
#
# _framework density 20.191510999999998
#
# number of rings (size 3 to 8) (size 9 to 14) (size 15 to 20)
#    0.000    1.000    3.750    4.125    7.000    0.500 
#    0.000    2.500    0.000    0.000    0.000    0.000 
#    0.000    0.000    0.000    0.000    0.000    0.000 
#
# Total GULP energy -89351.811490 kJ/mol
# GULP energy per Si atom -5584.488218 kJ/mol
# Density = 2.014555 g / cm^3
# Si number density = 20.191511 Si / 1000 Ang^3
#
#
#
# Elastic Constant Matrix: (Units=GPa)
#
#
# Indices 1 2 3 4 5 6 
#
# 1 51.9264 25.7173 32.1445 3.0515 -6.9368 -12.8734
# 2 25.7173 96.6627 21.3719 -10.3818 -6.8963 -16.2762
# 3 32.1445 21.3719 116.6603 -2.4516 -5.7501 -2.8376
# 4 3.0515 -10.3818 -2.4516 34.7264 -1.5342 -2.5226
# 5 -6.9368 -6.8963 -5.7501 -1.5342 20.4286 2.5530
# 6 -12.8734 -16.2762 -2.8376 -2.5226 2.5530 20.0208
#
#
#
# Elastic Compliance Matrix: (Units=1/GPa)
#
#
# Indices 1 2 3 4 5 6 
#
# 1 0.029857 -0.004047 -0.006974 -0.003102 0.004838 0.013912
# 2 -0.004047 0.013855 -0.000985 0.005175 0.002305 0.008880
# 3 -0.006974 -0.000985 0.010640 0.000832 0.000829 -0.003777
# 4 -0.003102 0.005175 0.000832 0.031218 0.002530 0.005942
# 5 0.004838 0.002305 0.000829 0.002530 0.051946 -0.001203
# 6 0.013912 0.008880 -0.003777 0.005942 -0.001203 0.066479
#
#
# Mechanical properties :
#
#
# Convention : Reuss Voigt Hill
#
# Bulk Modulus (GPa) = 32.95842 47.07967 40.01904
# Shear Modulus (GPa) = 20.99779 27.43618 24.21699
#
# Velocity S-wave (km/s) = 3.22830 3.69019 3.46694
# Velocity P-wave (km/s) = 5.50038 6.44390 5.99074
#
# Compressibility (1/GPa) = 0.03034126
#
# Stress axis : x y z
#
# Youngs Moduli (GPa) = 33.49320 72.17501 93.98251
#
# Poissons Ratio (x) = 0.29210 0.65540
# Poissons Ratio (y) = 0.13555 0.09255
# Poissons Ratio (z) = 0.23357 0.07107
#
# Static dielectric constant tensor:
#      x y z
#    x 1.710550 -0.023610 0.011260 
#    y -0.023610 1.740920 -0.017800 
#    z 0.011260 -0.017800 1.795860 
# 
# From -- ./inp_files/389058.got.cif
#   From: 2010.05.17/outbox.cif.g08.bks.cpg/sg2_195_cif.got.tgz:389058.got - 2010.06.03 11:33:40.
