data_PCOD9020837
_publ_section_title
;
Structure prediction by ZEFSAII (Michael W. Deem and Ramdas Pophale) SiO2 
 PCOD9020837
Probable space group: P -1
;
_chemical_formula_sum "Si O2"
_cell_formula_units_Z 14
_cell_length_a 12.750245
_cell_length_b 12.010154
_cell_length_c 11.400659
_cell_angle_alpha 61.378812
_cell_angle_beta 119.423683
_cell_angle_gamma 156.214971
_cell_volume 611.112277
_symmetry_space_group_name_H-M "P -1"
_symmetry_group_IT_number 2
_symmetry_cell_setting 'triclinic'
loop_
_space_group_symop_operation_xyz
x,y,z
-x,-y,-z
loop_
_atom_site_type_symbol
_atom_site_label
_atom_site_fract_x
_atom_site_fract_y
_atom_site_fract_z
Si Si1 0.075419 0.922311 0.080683
Si Si2 0.290737 0.788149 0.163523
Si Si3 0.639105 0.761489 0.152823
Si Si4 0.660150 0.385743 0.551618
Si Si5 0.623346 0.446639 0.246504
Si Si6 0.149725 0.006528 0.589577
Si Si7 0.250561 0.606287 0.989771
O O1 0.841518 0.637797 0.168697
O O2 0.339983 0.152077 0.185965
O O3 0.171251 0.001020 0.959776
O O4 0.000000 0.000000 0.000000
O O5 0.359649 0.772019 0.324007
O O6 0.022053 0.615217 0.110552
O O7 0.528666 0.100781 0.098913
O O8 0.241507 0.645372 0.100021
O O9 0.626991 0.598563 0.213046
O O10 0.740514 0.896537 0.267538
O O11 0.359220 0.565330 0.075688
O O12 0.676327 0.412952 0.407217
O O13 0.927214 0.695542 0.594796
O O14 0.402329 0.223121 0.535126
O O15 0.000000 0.000000 0.500000
#
# Coordination Sequence:
#
# PCOD9020837 Si02
#       7
#     2   2   2   2   2   2   2
#     4  10  23  41  60  89 122 163 207 247 297 360
#     4  10  22  40  56  87 123 161 204 238 303 364
#     4  11  23  40  65  92 127 157 204 255 307 360
#     4  12  24  41  62  88 130 165 197 245 312 375
#     4  11  24  41  63  89 124 163 203 249 303 363
#     4  12  25  37  58  98 130 158 193 247 319 377
#     4  10  22  37  60  86 122 159 200 251 295 362
#
# _framework density 22.909047000000001
#
# number of rings (size 3 to 8) (size 9 to 14) (size 15 to 20)
#    0.000    1.143    2.857    3.857    6.000    4.571 
#    0.000    0.000    0.000    5.143    0.000    0.000 
#    0.000    0.000    0.000    0.000    0.000    0.000 
#
# Total GULP energy -78388.882785 kJ/mol
# GULP energy per Si atom -5599.205913 kJ/mol
# Density = 2.285690 g / cm^3
# Si number density = 22.909047 Si / 1000 Ang^3
#
#
#
# Elastic Constant Matrix: (Units=GPa)
#
#
# Indices 1 2 3 4 5 6 
#
# 1 51.2595 9.2436 27.5885 -7.5546 -0.1026 30.1190
# 2 9.2436 120.8578 32.3470 17.5378 -7.7071 29.9781
# 3 27.5885 32.3470 183.6415 6.0904 -4.2472 16.2187
# 4 -7.5546 17.5378 6.0904 24.1884 1.2029 3.0387
# 5 -0.1026 -7.7071 -4.2472 1.2029 35.4743 4.2388
# 6 30.1190 29.9781 16.2187 3.0387 4.2388 37.4125
#
#
#
# Elastic Compliance Matrix: (Units=1/GPa)
#
#
# Indices 1 2 3 4 5 6 
#
# 1 0.050926 0.006770 -0.005210 0.017829 0.005920 -0.046283
# 2 0.006770 0.013056 -0.001685 -0.005239 0.004658 -0.015283
# 3 -0.005210 -0.001685 0.006343 -0.002381 0.000103 0.002977
# 4 0.017829 -0.005239 -0.002381 0.053052 -0.001587 -0.013252
# 5 0.005920 0.004658 0.000103 -0.001587 0.030706 -0.011893
# 6 -0.046283 -0.015283 0.002977 -0.013252 -0.011893 0.077369
#
#
# Mechanical properties :
#
#
# Convention : Reuss Voigt Hill
#
# Bulk Modulus (GPa) = 14.27048 54.90192 34.58620
# Shear Modulus (GPa) = 19.60312 38.52035 29.06173
#
# Velocity S-wave (km/s) = 2.92840 4.10499 3.56556
# Velocity P-wave (km/s) = 4.20437 6.81800 5.66400
#
# Compressibility (1/GPa) = 0.07007474
#
# Stress axis : x y z
#
# Youngs Moduli (GPa) = 19.63621 76.59523 157.64285
#
# Poissons Ratio (x) = -0.51856 0.82131
# Poissons Ratio (y) = -0.13294 0.26571
# Poissons Ratio (z) = 0.10230 0.12910
#
# Static dielectric constant tensor:
#      x y z
#    x 1.962770 -0.086010 -0.002640 
#    y -0.086010 1.917250 0.017810 
#    z -0.002640 0.017810 1.808400 
# 
# From -- ./inp_files/68634.got.cif
#   From: 2010.05.17/outbox.cif.g08.bks.cpg/sg2_35_cif.got.tgz:68634.got - 2010.06.03 11:33:40.
