data_PCOD9020561
_publ_section_title
;
Structure prediction by ZEFSAII (Michael W. Deem and Ramdas Pophale) SiO2 
 PCOD9020561
Probable space group: P -1
;
_chemical_formula_sum "Si O2"
_cell_formula_units_Z 16
_cell_length_a 15.515561
_cell_length_b 8.155926
_cell_length_c 11.379296
_cell_angle_alpha 39.011450
_cell_angle_beta 98.113320
_cell_angle_gamma 122.158111
_cell_volume 659.504580
_symmetry_space_group_name_H-M "P -1"
_symmetry_group_IT_number 2
_symmetry_cell_setting 'triclinic'
loop_
_space_group_symop_operation_xyz
x,y,z
-x,-y,-z
loop_
_atom_site_type_symbol
_atom_site_label
_atom_site_fract_x
_atom_site_fract_y
_atom_site_fract_z
Si Si1 0.295113 0.618749 0.181599
Si Si2 0.384571 0.489481 0.913040
Si Si3 0.839616 0.109943 0.669926
Si Si4 0.128330 0.412168 0.059795
Si Si5 0.177088 0.198629 0.860581
Si Si6 0.071504 0.525409 0.751884
Si Si7 0.125133 0.266418 0.565493
Si Si8 0.470580 0.660860 0.065667
O O1 0.231456 0.630737 0.053056
O O2 0.200990 0.412131 0.382090
O O3 0.409765 0.001549 0.037752
O O4 0.357346 0.479910 0.225625
O O5 0.492775 0.555925 0.839768
O O6 0.294640 0.127134 0.176224
O O7 0.298554 0.412580 0.836192
O O8 0.442408 0.761833 0.882135
O O9 0.875548 0.177055 0.501776
O O10 0.898713 0.482985 0.533328
O O11 0.861112 0.852796 0.853303
O O12 0.124210 0.617309 0.842199
O O13 0.000438 0.131075 0.252126
O O14 0.115711 0.343087 0.806030
O O15 0.191985 0.260361 0.689536
O O16 0.071911 0.773319 0.098988
#
# Coordination Sequence:
#
# PCOD9020561 Si02
#       8
#     2   2   2   2   2   2   2   2
#     4  11  21  40  59  83 119 166 196 236 301 355
#     4  11  20  39  62  87 109 157 207 251 290 333
#     4  11  20  33  63  90 119 152 198 241 289 355
#     4  11  21  38  62  91 125 155 188 243 300 359
#     4   9  18  34  56  88 126 145 187 251 297 350
#     4   9  19  32  56  95 123 149 185 243 304 351
#     4  10  22  36  60  94 121 150 193 240 302 366
#     4  10  23  37  63  81 113 159 214 245 282 346
#
# _framework density 24.260636000000002
#
# number of rings (size 3 to 8) (size 9 to 14) (size 15 to 20)
#    0.000    1.750    3.750    1.500    1.750    0.000 
#    0.000    2.500   11.000    3.750    0.000    0.000 
#    0.000    0.000    0.000    0.000    0.000    0.000 
#
# Total GULP energy -89283.201829 kJ/mol
# GULP energy per Si atom -5580.200114 kJ/mol
# Density = 2.420542 g / cm^3
# Si number density = 24.260636 Si / 1000 Ang^3
#
#
#
# Elastic Constant Matrix: (Units=GPa)
#
#
# Indices 1 2 3 4 5 6 
#
# 1 126.2781 48.7878 24.9391 22.2504 -13.0550 8.6560
# 2 48.7878 154.7479 27.8310 25.6058 -1.7493 35.8606
# 3 24.9391 27.8310 73.6757 34.3105 2.0817 2.1043
# 4 22.2504 25.6058 34.3105 39.5029 -0.9567 1.8305
# 5 -13.0550 -1.7493 2.0817 -0.9567 29.2887 9.1966
# 6 8.6560 35.8606 2.1043 1.8305 9.1966 53.4488
#
#
#
# Elastic Compliance Matrix: (Units=1/GPa)
#
#
# Indices 1 2 3 4 5 6 
#
# 1 0.010086 -0.002222 -0.001304 -0.002961 0.004605 -0.000782
# 2 -0.002222 0.009342 -0.000928 -0.003687 0.001392 -0.005985
# 3 -0.001304 -0.000928 0.023281 -0.019016 -0.003268 0.001131
# 4 -0.002961 -0.003687 -0.019016 0.045811 0.000675 0.002017
# 5 0.004605 0.001392 -0.003268 0.000675 0.039142 -0.008309
# 6 -0.000782 -0.005985 0.001131 0.002017 -0.008309 0.024168
#
#
# Mechanical properties :
#
#
# Convention : Reuss Voigt Hill
#
# Bulk Modulus (GPa) = 29.58530 61.97972 45.78251
# Shear Modulus (GPa) = 29.06869 41.32434 35.19651
#
# Velocity S-wave (km/s) = 3.46523 4.13164 3.81302
# Velocity P-wave (km/s) = 5.31335 6.95439 6.18851
#
# Compressibility (1/GPa) = 0.03380056
#
# Stress axis : x y z
#
# Youngs Moduli (GPa) = 99.14305 107.03860 42.95391
#
# Poissons Ratio (x) = 0.23788 0.05600
# Poissons Ratio (y) = 0.22033 0.03988
# Poissons Ratio (z) = 0.12926 0.09938
#
# Static dielectric constant tensor:
#      x y z
#    x 1.967970 -0.040490 0.035770 
#    y -0.040490 2.111710 0.005060 
#    z 0.035770 0.005060 1.947180 
# 
# From -- ./inp_files/446654.got.cif
#   From: 2010.05.17/outbox.cif.g08.bks.cpg/sg2_224_cif.got.tgz:446654.got - 2010.06.03 11:33:40.
