data_PCOD9020371
_publ_section_title
;
Structure prediction by ZEFSAII (Michael W. Deem and Ramdas Pophale) SiO2 
 PCOD9020371
Probable space group: P -1
;
_chemical_formula_sum "Si O2"
_cell_formula_units_Z 16
_cell_length_a 9.076314
_cell_length_b 11.795973
_cell_length_c 12.742649
_cell_angle_alpha 65.427941
_cell_angle_beta 132.702839
_cell_angle_gamma 133.688403
_cell_volume 721.411543
_symmetry_space_group_name_H-M "P -1"
_symmetry_group_IT_number 2
_symmetry_cell_setting 'triclinic'
loop_
_space_group_symop_operation_xyz
x,y,z
-x,-y,-z
loop_
_atom_site_type_symbol
_atom_site_label
_atom_site_fract_x
_atom_site_fract_y
_atom_site_fract_z
Si Si1 0.202453 0.929611 0.146112
Si Si2 0.655180 0.249769 0.614845
Si Si3 0.610414 0.143360 0.411342
Si Si4 0.798087 0.458053 0.279961
Si Si5 0.405807 0.386107 0.749082
Si Si6 0.993193 0.853355 0.524361
Si Si7 0.642370 0.777818 0.004107
Si Si8 0.321925 0.363539 0.382882
O O1 0.311546 0.830478 0.239331
O O2 0.903755 0.813814 0.072572
O O3 0.337355 0.055902 0.259277
O O4 0.288964 0.049537 0.045377
O O5 0.635386 0.147697 0.545938
O O6 0.437551 0.267306 0.478623
O O7 0.918744 0.424371 0.671025
O O8 0.766469 0.328315 0.389561
O O9 0.760481 0.095998 0.437852
O O10 0.734814 0.556709 0.278132
O O11 0.589712 0.356958 0.128007
O O12 0.233489 0.263439 0.620919
O O13 0.430237 0.290876 0.887114
O O14 0.638891 0.545515 0.740893
O O15 0.948675 0.755166 0.646212
O O16 0.000000 0.000000 0.500000
O O17 0.500000 0.500000 0.500000
#
# Coordination Sequence:
#
# PCOD9020371 Si02
#       8
#     2   2   2   2   2   2   2   2
#     4  10  22  35  56  90 132 161 200 260 304 375
#     4  12  20  36  63  98 124 156 210 264 319 362
#     4  11  21  37  64  93 128 157 210 260 326 358
#     4  11  20  35  64  94 125 161 200 270 305 364
#     4  11  20  40  61  88 128 163 205 252 309 379
#     4  11  23  41  61  92 128 170 199 259 323 377
#     4  10  22  39  56  94 133 165 206 253 319 358
#     4  10  23  38  62  92 129 159 201 257 324 376
#
# _framework density 22.178743000000001
#
# number of rings (size 3 to 8) (size 9 to 14) (size 15 to 20)
#    0.000    1.250    3.750    3.375    0.000    1.000 
#    2.250    0.000    0.000   24.000    0.000    0.000 
#    0.000    0.000    0.000    0.000    0.000    0.000 
#
# Total GULP energy -89276.863005 kJ/mol
# GULP energy per Si atom -5579.803938 kJ/mol
# Density = 2.212826 g / cm^3
# Si number density = 22.178743 Si / 1000 Ang^3
#
#
#
# Elastic Constant Matrix: (Units=GPa)
#
#
# Indices 1 2 3 4 5 6 
#
# 1 70.0101 34.2585 27.8284 -9.2703 -11.3287 14.2601
# 2 34.2585 71.0355 36.7006 -12.2876 -8.6745 24.3039
# 3 27.8284 36.7006 100.7173 -28.2206 -16.5505 24.0952
# 4 -9.2703 -12.2876 -28.2206 56.0243 13.9108 -4.9183
# 5 -11.3287 -8.6745 -16.5505 13.9108 21.3690 -7.1201
# 6 14.2601 24.3039 24.0952 -4.9183 -7.1201 43.2443
#
#
#
# Elastic Compliance Matrix: (Units=1/GPa)
#
#
# Indices 1 2 3 4 5 6 
#
# 1 0.019841 -0.008004 -0.001741 -0.000978 0.006520 -0.000112
# 2 -0.008004 0.022823 -0.004085 0.001338 -0.001691 -0.008038
# 3 -0.001741 -0.004085 0.015009 0.004902 0.004452 -0.004202
# 4 -0.000978 0.001338 0.004902 0.023246 -0.012151 -0.002517
# 5 0.006520 -0.001691 0.004452 -0.012151 0.062676 0.005258
# 6 -0.000112 -0.008038 -0.004202 -0.002517 0.005258 0.030599
#
#
# Mechanical properties :
#
#
# Convention : Reuss Voigt Hill
#
# Bulk Modulus (GPa) = 33.32036 48.81532 41.06784
# Shear Modulus (GPa) = 23.60064 33.65923 28.62994
#
# Velocity S-wave (km/s) = 3.26561 3.89991 3.59677
# Velocity P-wave (km/s) = 5.41065 6.50667 5.98381
#
# Compressibility (1/GPa) = 0.03001168
#
# Stress axis : x y z
#
# Youngs Moduli (GPa) = 50.40159 43.81574 66.62703
#
# Poissons Ratio (x) = 0.35068 0.11603
# Poissons Ratio (y) = 0.40339 0.27219
# Poissons Ratio (z) = 0.08777 0.17900
#
# Static dielectric constant tensor:
#      x y z
#    x 1.906460 0.093000 -0.000510 
#    y 0.093000 2.074440 -0.120820 
#    z -0.000510 -0.120820 1.859960 
# 
# From -- ./inp_files/392468.got.cif
#   From: 2010.05.17/outbox.cif.g08.bks.cpg/sg2_197_cif.got.tgz:392468.got - 2010.06.03 11:33:40.
