data_PCOD9020035
_publ_section_title
;
Structure prediction by ZEFSAII (Michael W. Deem and Ramdas Pophale) SiO2 
 PCOD9020035
Probable space group: P -1
;
_chemical_formula_sum "Si O2"
_cell_formula_units_Z 12
_cell_length_a 13.532247
_cell_length_b 8.297358
_cell_length_c 8.829353
_cell_angle_alpha 127.496495
_cell_angle_beta 138.994210
_cell_angle_gamma 55.986136
_cell_volume 506.464627
_symmetry_space_group_name_H-M "P -1"
_symmetry_group_IT_number 2
_symmetry_cell_setting 'triclinic'
loop_
_space_group_symop_operation_xyz
x,y,z
-x,-y,-z
loop_
_atom_site_type_symbol
_atom_site_label
_atom_site_fract_x
_atom_site_fract_y
_atom_site_fract_z
Si Si1 0.127901 0.714036 0.766543
Si Si2 0.337011 0.317641 0.657585
Si Si3 0.805424 0.083245 0.764168
Si Si4 0.123754 0.049726 0.553136
Si Si5 0.473071 0.350211 0.519449
Si Si6 0.640701 0.032443 0.972447
O O1 0.237356 0.495975 0.743672
O O2 0.087478 0.813248 0.941531
O O3 0.228107 0.875283 0.908361
O O4 0.971594 0.734210 0.500334
O O5 0.389769 0.419400 0.622323
O O6 0.483188 0.195792 0.851822
O O7 0.241234 0.141657 0.399677
O O8 0.852221 0.095093 0.649726
O O9 0.642155 0.232920 0.691007
O O10 0.288229 0.021481 0.808863
O O11 0.000000 0.000000 0.500000
O O12 0.500000 0.500000 0.500000
O O13 0.384937 0.180237 0.251220
#
# Coordination Sequence:
#
# PCOD9020035 Si02
#       6
#     2   2   2   2   2   2
#     4  11  22  43  73  97 137 185 224 273 339 407
#     4  11  23  43  74 101 136 178 231 282 339 403
#     4  11  23  44  70  99 139 181 229 280 335 405
#     4  10  25  42  68 101 139 183 224 275 343 402
#     4  11  24  40  71 108 136 175 230 287 343 397
#     4  10  21  46  67 100 141 177 220 286 335 400
#
# _framework density 23.693656000000001
#
# number of rings (size 3 to 8) (size 9 to 14) (size 15 to 20)
#    0.000    1.333    3.333    2.000    4.667    4.667 
#    0.000    2.500    0.000    0.000    0.000    0.000 
#    0.000    0.000    0.000    0.000    0.000    0.000 
#
# Total GULP energy -67004.215902 kJ/mol
# GULP energy per Si atom -5583.684658 kJ/mol
# Density = 2.363973 g / cm^3
# Si number density = 23.693656 Si / 1000 Ang^3
#
#
#
# Elastic Constant Matrix: (Units=GPa)
#
#
# Indices 1 2 3 4 5 6 
#
# 1 155.2001 44.4750 49.4419 8.1850 -13.5092 5.6094
# 2 44.4750 86.9590 79.0117 5.3689 -2.9187 -17.9701
# 3 49.4419 79.0117 161.4212 -30.7425 -16.6375 -1.2742
# 4 8.1850 5.3689 -30.7425 43.4305 -3.7718 6.4518
# 5 -13.5092 -2.9187 -16.6375 -3.7718 44.9687 14.9914
# 6 5.6094 -17.9701 -1.2742 6.4518 14.9914 34.8690
#
#
#
# Elastic Compliance Matrix: (Units=1/GPa)
#
#
# Indices 1 2 3 4 5 6 
#
# 1 0.008948 -0.010204 0.003768 0.004439 0.007300 -0.010520
# 2 -0.010204 0.081918 -0.052725 -0.060460 -0.046733 0.073211
# 3 0.003768 -0.052725 0.042781 0.046366 0.033883 -0.049362
# 4 0.004439 -0.060460 0.046366 0.075296 0.041539 -0.061969
# 5 0.007300 -0.046733 0.033883 0.041539 0.056017 -0.055790
# 6 -0.010520 0.073211 -0.049362 -0.061969 -0.055790 0.101750
#
#
# Mechanical properties :
#
#
# Convention : Reuss Voigt Hill
#
# Bulk Modulus (GPa) = 65.24304 83.27082 74.25693
# Shear Modulus (GPa) = 10.20118 40.03042 25.11580
#
# Velocity S-wave (km/s) = 2.07721 4.11481 3.25933
# Velocity P-wave (km/s) = 5.77485 7.60241 6.75076
#
# Compressibility (1/GPa) = 0.01532730
#
# Stress axis : x y z
#
# Youngs Moduli (GPa) = 111.75274 12.20734 23.37472
#
# Poissons Ratio (x) = 0.12456 -0.08809
# Poissons Ratio (y) = 1.14030 1.23243
# Poissons Ratio (z) = -0.42114 0.64363
#
# Static dielectric constant tensor:
#      x y z
#    x 1.936700 0.013840 -0.010850 
#    y 0.013840 1.938810 -0.083770 
#    z -0.010850 -0.083770 1.988020 
# 
# From -- ./inp_files/163682.got.cif
#   From: 2010.05.17/outbox.cif.g08.bks.cpg/sg2_82_cif.got.tgz:163682.got - 2010.06.03 11:33:40.
