data_PCOD9020447
_publ_section_title
;
Structure prediction by ZEFSAII (Michael W. Deem and Ramdas Pophale) SiO2 
 PCOD9020447
Probable space group: P -1
;
_chemical_formula_sum "Si O2"
_cell_formula_units_Z 16
_cell_length_a 15.854965
_cell_length_b 12.037248
_cell_length_c 11.668461
_cell_angle_alpha 143.382659
_cell_angle_beta 43.437167
_cell_angle_gamma 124.550805
_cell_volume 912.609870
_symmetry_space_group_name_H-M "P -1"
_symmetry_group_IT_number 2
_symmetry_cell_setting 'triclinic'
loop_
_space_group_symop_operation_xyz
x,y,z
-x,-y,-z
loop_
_atom_site_type_symbol
_atom_site_label
_atom_site_fract_x
_atom_site_fract_y
_atom_site_fract_z
Si Si1 0.892860 0.857966 0.994745
Si Si2 0.427917 0.435379 0.777939
Si Si3 0.585988 0.779988 0.840610
Si Si4 0.478812 0.795893 0.301799
Si Si5 0.759625 0.093472 0.510726
Si Si6 0.596730 0.879977 0.652008
Si Si7 0.178357 0.524731 0.242089
Si Si8 0.270731 0.295391 0.152519
O O1 0.816051 0.851237 0.946310
O O2 0.918585 0.637801 0.813777
O O3 0.807460 0.936727 0.246327
O O4 0.000000 0.000000 0.000000
O O5 0.487037 0.620972 0.826009
O O6 0.516651 0.346548 0.715220
O O7 0.418304 0.282176 0.560723
O O8 0.295773 0.474061 0.001913
O O9 0.614255 0.799956 0.695373
O O10 0.705134 0.726397 0.755683
O O11 0.521649 0.976361 0.107669
O O12 0.358595 0.808384 0.353653
O O13 0.500000 0.000000 0.500000
O O14 0.594486 0.740397 0.063502
O O15 0.853774 0.259537 0.568435
O O16 0.710010 0.000422 0.596824
O O17 0.218840 0.485878 0.302464
#
# Coordination Sequence:
#
# PCOD9020447 Si02
#       8
#     2   2   2   2   2   2   2   2
#     4  10  22  36  52  76  98 126 167 218 258 295
#     4  11  18  32  49  75 108 137 164 200 248 302
#     4  11  21  31  46  75 111 139 171 195 233 305
#     4  11  15  27  52  77  98 131 161 196 258 306
#     4  12  18  33  53  74 105 130 162 207 252 305
#     4  11  21  30  47  74 110 143 167 194 237 300
#     4   9  19  31  54  75  94 131 164 208 260 296
#     4   9  17  34  47  73 107 127 162 205 250 298
#
# _framework density 17.532136999999999
#
# number of rings (size 3 to 8) (size 9 to 14) (size 15 to 20)
#    0.750    0.750    6.250    1.125    0.000    2.500 
#    0.000    0.000    0.000    0.750    0.000    0.875 
#    0.000    0.000    0.000    0.000    0.000    0.000 
#
# Total GULP energy -89139.308909 kJ/mol
# GULP energy per Si atom -5571.206807 kJ/mol
# Density = 1.749223 g / cm^3
# Si number density = 17.532137 Si / 1000 Ang^3
#
#
#
# Elastic Constant Matrix: (Units=GPa)
#
#
# Indices 1 2 3 4 5 6 
#
# 1 65.9292 59.2194 17.8709 -4.1822 21.5033 -9.3719
# 2 59.2194 125.1709 10.1760 9.0185 12.6147 -4.4608
# 3 17.8709 10.1760 28.4663 8.6810 13.7751 -1.0900
# 4 -4.1822 9.0185 8.6810 25.3046 6.2584 9.6660
# 5 21.5033 12.6147 13.7751 6.2584 18.6291 0.5029
# 6 -9.3719 -4.4608 -1.0900 9.6660 0.5029 36.9211
#
#
#
# Elastic Compliance Matrix: (Units=1/GPa)
#
#
# Indices 1 2 3 4 5 6 
#
# 1 0.064951 -0.026184 -0.013969 0.038245 -0.059861 0.003714
# 2 -0.026184 0.019309 0.005948 -0.018022 0.018796 0.000324
# 3 -0.013969 0.005948 0.060895 -0.020670 -0.026116 0.004738
# 4 0.038245 -0.018022 -0.020670 0.074103 -0.041230 -0.011918
# 5 -0.059861 0.018796 -0.026116 -0.041230 0.143342 -0.004853
# 6 0.003714 0.000324 0.004738 -0.011918 -0.004853 0.031393
#
#
# Mechanical properties :
#
#
# Convention : Reuss Voigt Hill
#
# Bulk Modulus (GPa) = 13.02992 43.78877 28.40935
# Shear Modulus (GPa) = 10.24621 24.99097 17.61859
#
# Velocity S-wave (km/s) = 2.42011 3.77959 3.17350
# Velocity P-wave (km/s) = 3.90607 6.63910 5.44679
#
# Compressibility (1/GPa) = 0.07674644
#
# Stress axis : x y z
#
# Youngs Moduli (GPa) = 15.39615 51.78911 16.42162
#
# Poissons Ratio (x) = 1.35603 0.22940
# Poissons Ratio (y) = 0.40313 -0.09768
# Poissons Ratio (z) = 0.21507 -0.30807
#
# Static dielectric constant tensor:
#      x y z
#    x 1.616250 0.032030 0.006390 
#    y 0.032030 1.646910 0.018190 
#    z 0.006390 0.018190 1.626750 
# 
# From -- ./inp_files/416571.got.cif
#   From: 2010.05.17/outbox.cif.g08.bks.cpg/sg2_209_cif.got.tgz:416571.got - 2010.06.03 11:33:40.
