data_PCOD9020384
_publ_section_title
;
Structure prediction by ZEFSAII (Michael W. Deem and Ramdas Pophale) SiO2 
 PCOD9020384
Probable space group: P -1
;
_chemical_formula_sum "Si O2"
_cell_formula_units_Z 16
_cell_length_a 5.572863
_cell_length_b 11.832838
_cell_length_c 18.751007
_cell_angle_alpha 131.493522
_cell_angle_beta 47.815962
_cell_angle_gamma 108.439980
_cell_volume 667.612311
_symmetry_space_group_name_H-M "P -1"
_symmetry_group_IT_number 2
_symmetry_cell_setting 'triclinic'
loop_
_space_group_symop_operation_xyz
x,y,z
-x,-y,-z
loop_
_atom_site_type_symbol
_atom_site_label
_atom_site_fract_x
_atom_site_fract_y
_atom_site_fract_z
Si Si1 0.402803 0.158689 0.995418
Si Si2 0.222611 0.903354 0.502310
Si Si3 0.370736 0.408331 0.369464
Si Si4 0.262871 0.200083 0.198483
Si Si5 0.413623 0.840814 0.661730
Si Si6 0.878329 0.803161 0.090442
Si Si7 0.678382 0.677449 0.407352
Si Si8 0.737401 0.205031 0.713390
O O1 0.203332 0.208279 0.982474
O O2 0.738442 0.224540 0.970625
O O3 0.515448 0.969903 0.896806
O O4 0.201052 0.200326 0.126369
O O5 0.343787 0.750512 0.460687
O O6 0.277187 0.851337 0.388145
O O7 0.500000 0.000000 0.500000
O O8 0.906431 0.037748 0.646318
O O9 0.408478 0.342965 0.254243
O O10 0.435803 0.256411 0.341336
O O11 0.633883 0.513409 0.374595
O O12 0.000000 0.500000 0.500000
O O13 0.914760 0.219935 0.316623
O O14 0.663872 0.793026 0.526000
O O15 0.261228 0.017558 0.784265
O O16 0.620047 0.723379 0.151354
O O17 0.997790 0.686458 0.299605
#
# Coordination Sequence:
#
# PCOD9020384 Si02
#       8
#     2   2   2   2   2   2   2   2
#     4  10  24  41  67  97 124 168 217 274 326 370
#     4   9  19  35  54  83 121 164 207 250 321 368
#     4  12  25  39  61  91 131 172 212 258 320 396
#     4  10  23  41  63  90 128 167 212 268 321 383
#     4  11  23  38  60  92 132 169 208 264 321 393
#     4  11  23  39  68  96 127 164 217 273 324 374
#     4  11  24  36  58  88 130 172 207 253 321 395
#     4  10  22  35  58  86 126 164 208 268 311 389
#
# _framework density 23.966004999999999
#
# number of rings (size 3 to 8) (size 9 to 14) (size 15 to 20)
#    0.000    1.500    2.500    2.625   12.250    1.500 
#    0.000    0.000    0.000    1.500    0.000    0.000 
#    0.000    0.000    0.000    0.000    0.000    0.000 
#
# Total GULP energy -89330.054973 kJ/mol
# GULP energy per Si atom -5583.128436 kJ/mol
# Density = 2.391146 g / cm^3
# Si number density = 23.966005 Si / 1000 Ang^3
#
#
#
# Elastic Constant Matrix: (Units=GPa)
#
#
# Indices 1 2 3 4 5 6 
#
# 1 75.9598 5.9021 18.7273 -5.4966 6.0706 12.7418
# 2 5.9021 55.1425 17.2153 -21.0304 -2.6917 18.2268
# 3 18.7273 17.2153 68.7013 -16.5483 7.2651 6.1289
# 4 -5.4966 -21.0304 -16.5483 25.0552 4.8096 -4.1505
# 5 6.0706 -2.6917 7.2651 4.8096 38.6095 -6.1052
# 6 12.7418 18.2268 6.1289 -4.1505 -6.1052 26.8293
#
#
#
# Elastic Compliance Matrix: (Units=1/GPa)
#
#
# Indices 1 2 3 4 5 6 
#
# 1 0.015792 0.003599 -0.003129 0.003534 -0.003586 -0.009500
# 2 0.003599 0.035711 -0.000775 0.027444 -0.004934 -0.022670
# 3 -0.003129 -0.000775 0.019156 0.011989 -0.004918 -0.001628
# 4 0.003534 0.027444 0.011989 0.071527 -0.012142 -0.014759
# 5 -0.003586 -0.004934 -0.004918 -0.012142 0.030329 0.011202
# 6 -0.009500 -0.022670 -0.001628 -0.014759 0.011202 0.057823
#
#
# Mechanical properties :
#
#
# Convention : Reuss Voigt Hill
#
# Bulk Modulus (GPa) = 14.27550 31.49920 22.88735
# Shear Modulus (GPa) = 19.66199 28.62940 24.14570
#
# Velocity S-wave (km/s) = 2.86739 3.46002 3.17755
# Velocity P-wave (km/s) = 4.11486 5.39761 4.79928
#
# Compressibility (1/GPa) = 0.07005009
#
# Stress axis : x y z
#
# Youngs Moduli (GPa) = 63.32142 28.00286 52.20284
#
# Poissons Ratio (x) = -0.10079 0.16334
# Poissons Ratio (y) = -0.22791 0.04045
# Poissons Ratio (z) = 0.19813 0.02170
#
# Static dielectric constant tensor:
#      x y z
#    x 2.058250 0.022670 -0.031750 
#    y 0.022670 1.978380 -0.006980 
#    z -0.031750 -0.006980 1.886320 
# 
# From -- ./inp_files/77022.got.cif
#   From: 2010.05.17/outbox.cif.g08.bks.cpg/sg2_39_cif.got.tgz:77022.got - 2010.06.03 11:33:40.
