data_PCOD9020486
_publ_section_title
;
Structure prediction by ZEFSAII (Michael W. Deem and Ramdas Pophale) SiO2 
 PCOD9020486
Probable space group: P -1
;
_chemical_formula_sum "Si O2"
_cell_formula_units_Z 16
_cell_length_a 8.211503
_cell_length_b 15.719703
_cell_length_c 14.390421
_cell_angle_alpha 47.825988
_cell_angle_beta 42.480409
_cell_angle_gamma 78.464904
_cell_volume 750.795397
_symmetry_space_group_name_H-M "P -1"
_symmetry_group_IT_number 2
_symmetry_cell_setting 'triclinic'
loop_
_space_group_symop_operation_xyz
x,y,z
-x,-y,-z
loop_
_atom_site_type_symbol
_atom_site_label
_atom_site_fract_x
_atom_site_fract_y
_atom_site_fract_z
Si Si1 0.944784 0.290463 0.511987
Si Si2 0.102227 0.662549 0.824637
Si Si3 0.720956 0.908646 0.065837
Si Si4 0.148579 0.299574 0.920308
Si Si5 0.090038 0.584398 0.207618
Si Si6 0.761508 0.573802 0.518634
Si Si7 0.693989 0.659928 0.840407
Si Si8 0.698376 0.809640 0.352758
O O1 0.613892 0.163399 0.775214
O O2 0.936886 0.417001 0.377447
O O3 0.160603 0.372297 0.448455
O O4 0.089932 0.249209 0.403409
O O5 0.431771 0.758454 0.573144
O O6 0.885395 0.664744 0.841141
O O7 0.000000 0.500000 0.000000
O O8 0.074910 0.724280 0.886613
O O9 0.851482 0.829143 0.023613
O O10 0.676051 0.876986 0.218901
O O11 0.976337 0.074949 0.825377
O O12 0.476426 0.414367 0.740612
O O13 0.076509 0.367696 0.818115
O O14 0.035305 0.597691 0.328828
O O15 0.439160 0.676573 0.967405
O O16 0.678496 0.671547 0.435763
O O17 0.500000 0.500000 0.000000
#
# Coordination Sequence:
#
# PCOD9020486 Si02
#       8
#     2   2   2   2   2   2   2   2
#     4  11  22  38  64  92 130 165 207 266 321 370
#     4  12  23  39  67  98 127 163 213 267 316 375
#     4  11  24  45  66  89 129 175 214 258 319 379
#     4  12  23  38  68  96 125 165 213 269 315 371
#     4  11  22  36  60  98 128 158 206 270 315 364
#     4  12  23  38  67  98 123 162 220 266 312 372
#     4  10  22  36  56  96 130 162 196 266 325 368
#     4  11  25  44  66  92 126 174 216 259 314 385
#
# _framework density 21.310734
#
# number of rings (size 3 to 8) (size 9 to 14) (size 15 to 20)
#    0.000    0.750    5.000    4.500    3.500    1.000 
#    0.000    0.000    0.000    1.500    0.000    0.000 
#    0.000    0.000    0.000    0.000    0.000    0.000 
#
# Total GULP energy -89446.311695 kJ/mol
# GULP energy per Si atom -5590.394481 kJ/mol
# Density = 2.126223 g / cm^3
# Si number density = 21.310734 Si / 1000 Ang^3
#
#
#
# Elastic Constant Matrix: (Units=GPa)
#
#
# Indices 1 2 3 4 5 6 
#
# 1 78.5137 3.5842 6.7733 14.6541 -5.8292 11.3057
# 2 3.5842 87.3244 47.4771 42.2474 3.6475 6.8366
# 3 6.7733 47.4771 98.3228 31.4738 -8.6777 4.1130
# 4 14.6541 42.2474 31.4738 44.6423 2.0077 -0.8043
# 5 -5.8292 3.6475 -8.6777 2.0077 24.4783 8.3158
# 6 11.3057 6.8366 4.1130 -0.8043 8.3158 24.5841
#
#
#
# Elastic Compliance Matrix: (Units=1/GPa)
#
#
# Indices 1 2 3 4 5 6 
#
# 1 0.017229 0.004855 0.001741 -0.012140 0.009464 -0.013163
# 2 0.004855 0.025556 -0.005053 -0.022413 0.000599 -0.009430
# 3 0.001741 -0.005053 0.015959 -0.007557 0.009299 -0.005458
# 4 -0.012140 -0.022413 -0.007557 0.053866 -0.013209 0.019311
# 5 0.009464 0.000599 0.009299 -0.013209 0.056048 -0.025465
# 6 -0.013163 -0.009430 -0.005458 0.019311 -0.025465 0.059511
#
#
# Mechanical properties :
#
#
# Convention : Reuss Voigt Hill
#
# Bulk Modulus (GPa) = 16.17347 42.20333 29.18840
# Shear Modulus (GPa) = 20.35055 32.49603 26.42329
#
# Velocity S-wave (km/s) = 3.09357 3.90919 3.52505
# Velocity P-wave (km/s) = 4.51288 6.34212 5.50402
#
# Compressibility (1/GPa) = 0.06182966
#
# Stress axis : x y z
#
# Youngs Moduli (GPa) = 58.04263 39.12924 62.66167
#
# Poissons Ratio (x) = -0.18997 -0.10908
# Poissons Ratio (y) = -0.28179 0.31662
# Poissons Ratio (z) = -0.10104 0.19771
#
# Static dielectric constant tensor:
#      x y z
#    x 1.839740 -0.009490 0.022490 
#    y -0.009490 1.777690 0.049180 
#    z 0.022490 0.049180 1.799940 
# 
# From -- ./inp_files/207305.got.cif
#   From: 2010.05.17/outbox.cif.g08.bks.cpg/sg2_104_cif.got.tgz:207305.got - 2010.06.03 11:33:40.
