data_PCOD9020649
_publ_section_title
;
Structure prediction by ZEFSAII (Michael W. Deem and Ramdas Pophale) SiO2 
 PCOD9020649
Probable space group: P -1
;
_chemical_formula_sum "Si O2"
_cell_formula_units_Z 16
_cell_length_a 16.950202
_cell_length_b 15.943591
_cell_length_c 12.590667
_cell_angle_alpha 140.337918
_cell_angle_beta 20.904150
_cell_angle_gamma 145.919686
_cell_volume 680.175670
_symmetry_space_group_name_H-M "P -1"
_symmetry_group_IT_number 2
_symmetry_cell_setting 'triclinic'
loop_
_space_group_symop_operation_xyz
x,y,z
-x,-y,-z
loop_
_atom_site_type_symbol
_atom_site_label
_atom_site_fract_x
_atom_site_fract_y
_atom_site_fract_z
Si Si1 0.468993 0.179690 0.723014
Si Si2 0.592797 0.177542 0.079170
Si Si3 0.784185 0.513732 0.719467
Si Si4 0.161988 0.398175 0.509113
Si Si5 0.410440 0.301732 0.709471
Si Si6 0.714700 0.802294 0.697988
Si Si7 0.761135 0.099408 0.976667
Si Si8 0.906518 0.128620 0.054085
O O1 0.569561 0.344289 0.802279
O O2 0.414595 0.181589 0.668140
O O3 0.710379 0.151195 0.398369
O O4 0.211978 0.051169 0.969736
O O5 0.600880 0.167091 0.186978
O O6 0.873050 0.294685 0.804429
O O7 0.422532 0.227643 0.273328
O O8 0.500000 0.000000 0.000000
O O9 0.850752 0.584590 0.586062
O O10 0.000000 0.500000 0.500000
O O11 0.693625 0.607320 0.996934
O O12 0.306216 0.566630 0.539305
O O13 0.314199 0.322497 0.302724
O O14 0.191750 0.222704 0.821964
O O15 0.006388 0.867949 0.362096
O O16 0.634515 0.918819 0.965191
O O17 0.870245 0.168066 0.019120
#
# Coordination Sequence:
#
# PCOD9020649 Si02
#       8
#     2   2   2   2   2   2   2   2
#     4  10  23  42  59  94 129 169 215 250 306 388
#     4   9  19  38  57  90 122 154 206 261 312 365
#     4  11  23  41  65  94 129 165 214 260 309 370
#     4  10  22  36  64  90 119 165 205 261 310 362
#     4  11  24  42  61  92 130 168 213 252 312 381
#     4   9  19  38  61  92 122 154 216 259 308 372
#     4   9  20  36  61  91 123 162 206 260 311 370
#     4  11  23  40  63  89 136 169 202 260 318 368
#
# _framework density 23.523334999999999
#
# number of rings (size 3 to 8) (size 9 to 14) (size 15 to 20)
#    0.000    2.000    1.250    2.625    5.250    2.000 
#    0.000    2.500    0.000   13.500    0.000    0.000 
#    0.000    0.000    0.000    0.000    0.000    0.000 
#
# Total GULP energy -89203.182962 kJ/mol
# GULP energy per Si atom -5575.198935 kJ/mol
# Density = 2.346979 g / cm^3
# Si number density = 23.523335 Si / 1000 Ang^3
#
#
#
# Elastic Constant Matrix: (Units=GPa)
#
#
# Indices 1 2 3 4 5 6 
#
# 1 189.0993 55.3555 11.4644 -9.4389 -34.9772 -8.2163
# 2 55.3555 94.7708 22.2473 -18.8367 -5.4782 -7.3744
# 3 11.4644 22.2473 45.0064 -1.7387 -22.3536 5.6004
# 4 -9.4389 -18.8367 -1.7387 29.1042 -2.7304 -9.3051
# 5 -34.9772 -5.4782 -22.3536 -2.7304 41.8456 0.0192
# 6 -8.2163 -7.3744 5.6004 -9.3051 0.0192 42.9706
#
#
#
# Elastic Compliance Matrix: (Units=1/GPa)
#
#
# Indices 1 2 3 4 5 6 
#
# 1 0.008216 -0.005382 0.004959 0.000328 0.008834 0.000068
# 2 -0.005382 0.018723 -0.012102 0.010873 -0.007806 0.006119
# 3 0.004959 -0.012102 0.039220 -0.003973 0.023256 -0.007111
# 4 0.000328 0.010873 -0.003973 0.045431 0.002534 0.012283
# 5 0.008834 -0.007806 0.023256 0.002534 0.042849 -0.002152
# 6 0.000068 0.006119 -0.007111 0.012283 -0.002152 0.027923
#
#
# Mechanical properties :
#
#
# Convention : Reuss Voigt Hill
#
# Bulk Modulus (GPa) = 24.32567 56.33455 40.33011
# Shear Modulus (GPa) = 22.61266 38.77135 30.69201
#
# Velocity S-wave (km/s) = 3.10383 4.06422 3.61605
# Velocity P-wave (km/s) = 4.81752 6.78411 5.88357
#
# Compressibility (1/GPa) = 0.04110884
#
# Stress axis : x y z
#
# Youngs Moduli (GPa) = 121.70746 53.41125 25.49695
#
# Poissons Ratio (x) = 0.28747 -0.12645
# Poissons Ratio (y) = 0.65506 0.30857
# Poissons Ratio (z) = -0.60359 0.64640
#
# Static dielectric constant tensor:
#      x y z
#    x 1.946580 -0.008470 0.023000 
#    y -0.008470 1.961750 0.060830 
#    z 0.023000 0.060830 1.960120 
# 
# From -- ./inp_files/454916.got.cif
#   From: 2010.05.17/outbox.cif.g08.bks.cpg/sg2_228_cif.got.tgz:454916.got - 2010.06.03 11:33:40.
