data_PCOD9020714
_publ_section_title
;
Structure prediction by ZEFSAII (Michael W. Deem and Ramdas Pophale) SiO2 
 PCOD9020714
Probable space group: P -1
;
_chemical_formula_sum "Si O2"
_cell_formula_units_Z 15
_cell_length_a 19.481850
_cell_length_b 14.625239
_cell_length_c 8.600135
_cell_angle_alpha 128.737614
_cell_angle_beta 126.881520
_cell_angle_gamma 19.428688
_cell_volume 635.308181
_symmetry_space_group_name_H-M "P -1"
_symmetry_group_IT_number 2
_symmetry_cell_setting 'triclinic'
loop_
_space_group_symop_operation_xyz
x,y,z
-x,-y,-z
loop_
_atom_site_type_symbol
_atom_site_label
_atom_site_fract_x
_atom_site_fract_y
_atom_site_fract_z
Si Si1 0.500000 0.500000 0.000000
Si Si2 0.151844 0.850574 0.182069
Si Si3 0.904278 0.856051 0.350332
Si Si4 0.959020 0.667715 0.522278
Si Si5 0.626998 0.725942 0.342818
Si Si6 0.581859 0.236315 0.048920
Si Si7 0.146528 0.716314 0.324472
Si Si8 0.473822 0.313775 0.573583
O O1 0.313064 0.831446 0.026670
O O2 0.401416 0.517647 0.782189
O O3 0.380238 0.576733 0.124046
O O4 0.157892 0.732564 0.178617
O O5 0.118771 0.007491 0.409580
O O6 0.000000 0.000000 0.000000
O O7 0.971719 0.662250 0.342877
O O8 0.060171 0.704066 0.265254
O O9 0.698269 0.097641 0.221930
O O10 0.000000 0.500000 0.500000
O O11 0.145337 0.523390 0.671707
O O12 0.717181 0.994209 0.560770
O O13 0.637251 0.649894 0.442192
O O14 0.500000 0.000000 0.500000
O O15 0.500347 0.790308 0.134188
O O16 0.377085 0.442889 0.410839
O O17 0.000000 0.000000 0.500000
#
# Coordination Sequence:
#
# PCOD9020714 Si02
#       8
#     1   2   2   2   2   2   2   2
#     4  10  22  36  68 106 144 182 230 284 378 430
#     4  11  23  38  67 105 143 187 233 295 363 443
#     4  11  23  43  67 102 149 185 237 292 369 435
#     4  12  24  44  77 102 132 197 253 300 360 421
#     4  11  24  48  71 104 143 187 250 311 354 424
#     4  11  24  41  68 103 145 187 238 294 370 437
#     4  10  22  40  68 102 151 189 227 285 368 439
#     4  11  22  43  73 103 151 187 234 302 365 434
#
# _framework density 23.610589999999998
#
# number of rings (size 3 to 8) (size 9 to 14) (size 15 to 20)
#    0.000    1.067    2.667    4.400    7.467    0.000 
#    2.400    2.000    2.933    0.000    0.000    0.000 
#    0.000    0.000    0.000    0.000    0.000    0.000 
#
# Total GULP energy -83532.791864 kJ/mol
# GULP energy per Si atom -5568.852791 kJ/mol
# Density = 2.355685 g / cm^3
# Si number density = 23.610590 Si / 1000 Ang^3
#
#
#
# Elastic Constant Matrix: (Units=GPa)
#
#
# Indices 1 2 3 4 5 6 
#
# 1 170.3190 56.3752 46.1466 -19.9851 3.8107 26.4520
# 2 56.3752 139.7987 69.3303 -35.4367 7.3156 5.4040
# 3 46.1466 69.3303 116.4162 -42.4888 2.4879 25.9983
# 4 -19.9851 -35.4367 -42.4888 44.9152 8.8789 -16.5649
# 5 3.8107 7.3156 2.4879 8.8789 38.9056 -4.5714
# 6 26.4520 5.4040 25.9983 -16.5649 -4.5714 45.2922
#
#
#
# Elastic Compliance Matrix: (Units=1/GPa)
#
#
# Indices 1 2 3 4 5 6 
#
# 1 0.007497 -0.002676 -0.000822 -0.000932 -0.000432 -0.003972
# 2 -0.002676 0.012200 -0.005092 0.005934 -0.002479 0.004950
# 3 -0.000822 -0.005092 0.016934 0.010328 -0.003008 -0.005159
# 4 -0.000932 0.005934 0.010328 0.041249 -0.010162 0.007968
# 5 -0.000432 -0.002479 -0.003008 -0.010162 0.028897 0.001475
# 6 -0.003972 0.004950 -0.005159 0.007968 0.001475 0.029832
#
#
# Mechanical properties :
#
#
# Convention : Reuss Voigt Hill
#
# Bulk Modulus (GPa) = 51.41010 85.58199 68.49605
# Shear Modulus (GPa) = 31.19725 42.80140 36.99932
#
# Velocity S-wave (km/s) = 3.63895 4.26232 3.96291
# Velocity P-wave (km/s) = 6.28310 7.78134 7.07201
#
# Compressibility (1/GPa) = 0.01945143
#
# Stress axis : x y z
#
# Youngs Moduli (GPa) = 133.38911 81.97024 59.05307
#
# Poissons Ratio (x) = 0.21931 0.04857
# Poissons Ratio (y) = 0.35688 0.30067
# Poissons Ratio (z) = 0.10970 0.41735
#
# Static dielectric constant tensor:
#      x y z
#    x 1.408660 0.165320 0.214020 
#    y 0.165320 1.958530 -0.088590 
#    z 0.214020 -0.088590 1.871560 
# 
# From -- ./inp_files/347688.got.cif
#   From: 2010.05.17/outbox.cif.g08.bks.cpg/sg2_174_cif.got.tgz:347688.got - 2010.06.03 11:33:40.
