data_PCOD9020214
_publ_section_title
;
Structure prediction by ZEFSAII (Michael W. Deem and Ramdas Pophale) SiO2 
 PCOD9020214
Probable space group: P -1
;
_chemical_formula_sum "Si O2"
_cell_formula_units_Z 16
_cell_length_a 17.788991
_cell_length_b 9.463506
_cell_length_c 9.749322
_cell_angle_alpha 92.775025
_cell_angle_beta 87.657710
_cell_angle_gamma 151.600463
_cell_volume 779.691556
_symmetry_space_group_name_H-M "P -1"
_symmetry_group_IT_number 2
_symmetry_cell_setting 'triclinic'
loop_
_space_group_symop_operation_xyz
x,y,z
-x,-y,-z
loop_
_atom_site_type_symbol
_atom_site_label
_atom_site_fract_x
_atom_site_fract_y
_atom_site_fract_z
Si Si1 0.935437 0.541990 0.171011
Si Si2 0.520811 0.701773 0.517446
Si Si3 0.898741 0.809669 0.135587
Si Si4 0.798973 0.234877 0.874273
Si Si5 0.449220 0.832910 0.354243
Si Si6 0.100576 0.346887 0.314214
Si Si7 0.858708 0.366247 0.466416
Si Si8 0.553290 0.265709 0.204621
O O1 0.111135 0.762351 0.172211
O O2 0.931736 0.704335 0.173232
O O3 0.842222 0.341621 0.304307
O O4 0.848314 0.343687 0.032232
O O5 0.500000 0.500000 0.500000
O O6 0.479120 0.719745 0.383675
O O7 0.427853 0.612676 0.650199
O O8 0.702942 0.051633 0.538718
O O9 0.712447 0.531982 0.117085
O O10 0.962205 0.019980 0.257242
O O11 0.000000 0.000000 0.000000
O O12 0.879223 0.489408 0.786039
O O13 0.610285 0.944605 0.856639
O O14 0.266557 0.541708 0.315893
O O15 0.500000 0.000000 0.500000
O O16 0.532144 0.066226 0.243315
O O17 0.091410 0.399442 0.467643
O O18 0.000000 0.500000 0.500000
#
# Coordination Sequence:
#
# PCOD9020214 Si02
#       8
#     2   2   2   2   2   2   2   2
#     4  11  24  42  75 101 136 181 231 278 342 409
#     4  11  23  39  65 102 137 166 221 290 335 399
#     4  12  27  44  64 102 140 178 234 288 333 400
#     4  10  21  47  71  93 135 190 226 272 344 416
#     4   9  18  41  63  92 126 173 214 264 341 407
#     4  11  22  43  69  90 138 176 222 283 334 402
#     4  12  23  41  69 100 132 177 222 269 349 411
#     4  10  22  44  69  92 138 184 224 278 339 408
#
# _framework density 20.520935000000001
#
# number of rings (size 3 to 8) (size 9 to 14) (size 15 to 20)
#    0.000    1.250    6.250    0.750    3.500    3.000 
#    2.250    0.625    0.000    0.000    0.000    0.000 
#    0.000    0.000    0.000    0.000    0.000    0.000 
#
# Total GULP energy -89281.826607 kJ/mol
# GULP energy per Si atom -5580.114163 kJ/mol
# Density = 2.047423 g / cm^3
# Si number density = 20.520935 Si / 1000 Ang^3
#
#
#
# Elastic Constant Matrix: (Units=GPa)
#
#
# Indices 1 2 3 4 5 6 
#
# 1 139.7379 59.0484 24.6202 -6.7167 5.4759 2.6694
# 2 59.0484 82.6372 22.4171 -2.9328 -5.2550 13.8132
# 3 24.6202 22.4171 85.3461 -7.1422 1.1165 9.6216
# 4 -6.7167 -2.9328 -7.1422 27.5568 3.5992 -6.7275
# 5 5.4759 -5.2550 1.1165 3.5992 28.7267 3.3430
# 6 2.6694 13.8132 9.6216 -6.7275 3.3430 39.2564
#
#
#
# Elastic Compliance Matrix: (Units=1/GPa)
#
#
# Indices 1 2 3 4 5 6 
#
# 1 0.011146 -0.008403 -0.001082 0.002929 -0.004375 0.003339
# 2 -0.008403 0.020259 -0.002449 -0.003113 0.006614 -0.007054
# 3 -0.001082 -0.002449 0.013096 0.002552 -0.000865 -0.001763
# 4 0.002929 -0.003113 0.002552 0.040163 -0.007162 0.007763
# 5 -0.004375 0.006614 -0.000865 -0.007162 0.038522 -0.006326
# 6 0.003339 -0.007054 -0.001763 0.007763 -0.006326 0.030030
#
#
# Mechanical properties :
#
#
# Convention : Reuss Voigt Hill
#
# Bulk Modulus (GPa) = 48.46726 57.76585 53.11656
# Shear Modulus (GPa) = 27.17923 32.55033 29.86478
#
# Velocity S-wave (km/s) = 3.64327 3.98703 3.81902
# Velocity P-wave (km/s) = 6.43176 7.02895 6.73697
#
# Compressibility (1/GPa) = 0.02063248
#
# Stress axis : x y z
#
# Youngs Moduli (GPa) = 89.71512 49.36008 76.35828
#
# Poissons Ratio (x) = 0.41480 0.08264
# Poissons Ratio (y) = 0.75392 0.18700
# Poissons Ratio (z) = 0.09710 0.12088
#
# Static dielectric constant tensor:
#      x y z
#    x 1.752480 0.021940 -0.008680 
#    y 0.021940 1.729930 -0.000060 
#    z -0.008680 -0.000060 1.774030 
# 
# From -- ./inp_files/329043.got.cif
#   From: 2010.05.17/outbox.cif.g08.bks.cpg/sg2_165_cif.got.tgz:329043.got - 2010.06.03 11:33:40.
