data_PCOD9020401
_publ_section_title
;
Structure prediction by ZEFSAII (Michael W. Deem and Ramdas Pophale) SiO2 
 PCOD9020401
Probable space group: P -1
;
_chemical_formula_sum "Si O2"
_cell_formula_units_Z 16
_cell_length_a 7.160656
_cell_length_b 10.112208
_cell_length_c 15.339069
_cell_angle_alpha 126.886123
_cell_angle_beta 81.554989
_cell_angle_gamma 128.350842
_cell_volume 650.078759
_symmetry_space_group_name_H-M "P -1"
_symmetry_group_IT_number 2
_symmetry_cell_setting 'triclinic'
loop_
_space_group_symop_operation_xyz
x,y,z
-x,-y,-z
loop_
_atom_site_type_symbol
_atom_site_label
_atom_site_fract_x
_atom_site_fract_y
_atom_site_fract_z
Si Si1 0.127275 0.212292 0.513898
Si Si2 0.362258 0.698806 0.650573
Si Si3 0.679976 0.383592 0.572598
Si Si4 0.431473 0.266731 0.901760
Si Si5 0.083140 0.138849 0.299540
Si Si6 0.704679 0.775131 0.922547
Si Si7 0.646198 0.212526 0.136190
Si Si8 0.758518 0.415235 0.775609
O O1 0.174955 0.440252 0.596373
O O2 0.414623 0.318668 0.547318
O O3 0.982438 0.100906 0.389217
O O4 0.000000 0.000000 0.500000
O O5 0.294834 0.699228 0.554549
O O6 0.652036 0.800954 0.675752
O O7 0.343302 0.824796 0.776771
O O8 0.869064 0.652529 0.661873
O O9 0.686524 0.309424 0.640387
O O10 0.600902 0.275411 0.819146
O O11 0.500000 0.500000 0.000000
O O12 0.444409 0.231036 0.988384
O O13 0.133307 0.082665 0.825093
O O14 0.544764 0.743713 0.839224
O O15 0.701090 0.576710 0.840412
O O16 0.000000 0.000000 0.000000
O O17 0.935512 0.421628 0.169387
O O18 0.500000 0.000000 0.000000
#
# Coordination Sequence:
#
# PCOD9020401 Si02
#       8
#     2   2   2   2   2   2   2   2
#     4   9  16  31  61  93 123 160 209 263 325 383
#     4   9  20  36  59  95 126 164 217 267 313 385
#     4   9  18  35  61  89 121 164 209 264 317 380
#     4  10  22  35  59  94 129 172 209 260 321 383
#     4   9  17  32  59  88 122 164 213 259 316 377
#     4  11  21  41  64  88 125 166 216 264 310 376
#     4  12  25  39  65  95 127 172 222 262 314 384
#     4  11  23  39  63  94 128 164 218 262 327 380
#
# _framework density 24.612403
#
# number of rings (size 3 to 8) (size 9 to 14) (size 15 to 20)
#    0.000    2.000    1.250    5.250    1.750    2.000 
#    0.000    0.000    5.500    3.750    0.000    0.000 
#    0.000    0.000    0.000    0.000    0.000    0.000 
#
# Total GULP energy -89142.262617 kJ/mol
# GULP energy per Si atom -5571.391414 kJ/mol
# Density = 2.455638 g / cm^3
# Si number density = 24.612403 Si / 1000 Ang^3
#
#
#
# Elastic Constant Matrix: (Units=GPa)
#
#
# Indices 1 2 3 4 5 6 
#
# 1 74.1375 6.6353 11.1298 -7.7598 22.7192 19.3624
# 2 6.6353 109.9673 57.4759 -33.6732 5.5104 6.5919
# 3 11.1298 57.4759 163.3451 -25.9844 17.1416 7.5751
# 4 -7.7598 -33.6732 -25.9844 51.0463 -1.1853 0.1233
# 5 22.7192 5.5104 17.1416 -1.1853 38.6855 3.2625
# 6 19.3624 6.5919 7.5751 0.1233 3.2625 35.2761
#
#
#
# Elastic Compliance Matrix: (Units=1/GPa)
#
#
# Indices 1 2 3 4 5 6 
#
# 1 0.019701 0.000752 0.000577 0.003554 -0.010974 -0.010075
# 2 0.000752 0.013134 -0.003412 0.007037 -0.000406 -0.002121
# 3 0.000577 -0.003412 0.007963 0.001818 -0.003233 -0.001097
# 4 0.003554 0.007037 0.001818 0.025641 -0.002815 -0.003485
# 5 -0.010974 -0.000406 -0.003233 -0.002815 0.033385 0.003716
# 6 -0.010075 -0.002121 -0.001097 -0.003485 0.003716 0.034178
#
#
# Mechanical properties :
#
#
# Convention : Reuss Voigt Hill
#
# Bulk Modulus (GPa) = 27.29923 55.32577 41.31250
# Shear Modulus (GPa) = 33.24945 43.14884 38.19914
#
# Velocity S-wave (km/s) = 3.67948 4.19159 3.94385
# Velocity P-wave (km/s) = 5.40066 6.77890 6.12865
#
# Compressibility (1/GPa) = 0.03663107
#
# Stress axis : x y z
#
# Youngs Moduli (GPa) = 50.75922 76.13804 125.58664
#
# Poissons Ratio (x) = -0.05723 -0.07252
# Poissons Ratio (y) = -0.03815 0.42854
# Poissons Ratio (z) = -0.02931 0.25981
#
# Static dielectric constant tensor:
#      x y z
#    x 1.949010 0.000830 -0.045090 
#    y 0.000830 2.256150 -0.056620 
#    z -0.045090 -0.056620 1.967810 
# 
# From -- ./inp_files/499303.got.cif
#   From: 2010.05.17/outbox.cif.g08.bks.cpg/sg2_250_cif.got.tgz:499303.got - 2010.06.03 11:33:40.
