data_PCOD9020091
_publ_section_title
;
Structure prediction by ZEFSAII (Michael W. Deem and Ramdas Pophale) SiO2 
 PCOD9020091
Probable space group: P -1
;
_chemical_formula_sum "Si O2"
_cell_formula_units_Z 16
_cell_length_a 6.350241
_cell_length_b 15.020417
_cell_length_c 18.637733
_cell_angle_alpha 29.081435
_cell_angle_beta 58.190094
_cell_angle_gamma 67.012139
_cell_volume 723.630343
_symmetry_space_group_name_H-M "P -1"
_symmetry_group_IT_number 2
_symmetry_cell_setting 'triclinic'
loop_
_space_group_symop_operation_xyz
x,y,z
-x,-y,-z
loop_
_atom_site_type_symbol
_atom_site_label
_atom_site_fract_x
_atom_site_fract_y
_atom_site_fract_z
Si Si1 0.400836 0.275170 0.428442
Si Si2 0.814077 0.720094 0.686216
Si Si3 0.061554 0.807953 0.091331
Si Si4 0.017781 0.779242 0.353606
Si Si5 0.851144 0.590456 0.145833
Si Si6 0.771951 0.572246 0.430428
Si Si7 0.309122 0.024727 0.350511
Si Si8 0.360230 0.135632 0.097587
O O1 0.386313 0.296876 0.330328
O O2 0.597566 0.442294 0.309224
O O3 0.122917 0.271906 0.510633
O O4 0.486896 0.085128 0.572655
O O5 0.711304 0.796430 0.723512
O O6 0.927090 0.531982 0.810305
O O7 0.046363 0.880544 0.506959
O O8 0.915217 0.739898 0.092432
O O9 0.960147 0.650030 0.278421
O O10 0.356453 0.820918 0.013492
O O11 0.000000 0.000000 0.000000
O O12 0.167642 0.620239 0.413159
O O13 0.792977 0.746112 0.359061
O O14 0.206134 0.965682 0.199841
O O15 0.790702 0.696749 0.010134
O O16 0.500000 0.500000 0.500000
O O17 0.361908 0.079999 0.219776
#
# Coordination Sequence:
#
# PCOD9020091 Si02
#       8
#     2   2   2   2   2   2   2   2
#     4  11  22  43  72  99 135 179 232 282 340 403
#     4  10  21  46  70 105 134 179 231 284 339 411
#     4  12  27  44  67  96 143 183 228 284 345 409
#     4  11  24  39  67  98 130 175 235 284 331 411
#     4  11  25  43  69  98 141 184 222 284 349 408
#     4  11  24  42  66  96 131 179 234 284 337 400
#     4  10  24  40  74 103 137 178 231 283 341 411
#     4  12  26  43  66 104 141 183 222 284 350 406
#
# _framework density 22.110737
#
# number of rings (size 3 to 8) (size 9 to 14) (size 15 to 20)
#    0.000    1.000    1.250    4.875    7.000    4.500 
#    0.000    2.500    0.000    0.000    0.000    0.000 
#    0.000    0.000    0.000    0.000    0.000    0.000 
#
# Total GULP energy -89408.342864 kJ/mol
# GULP energy per Si atom -5588.021429 kJ/mol
# Density = 2.206041 g / cm^3
# Si number density = 22.110737 Si / 1000 Ang^3
#
#
#
# Elastic Constant Matrix: (Units=GPa)
#
#
# Indices 1 2 3 4 5 6 
#
# 1 101.4304 64.3327 58.3600 -11.3984 10.7039 19.0775
# 2 64.3327 120.0101 50.1083 -9.5017 2.7545 15.8497
# 3 58.3600 50.1083 107.0159 -1.0387 7.1745 1.8608
# 4 -11.3984 -9.5017 -1.0387 29.0876 0.8092 1.8529
# 5 10.7039 2.7545 7.1745 0.8092 50.8273 -8.1330
# 6 19.0775 15.8497 1.8608 1.8529 -8.1330 29.0038
#
#
#
# Elastic Compliance Matrix: (Units=1/GPa)
#
#
# Indices 1 2 3 4 5 6 
#
# 1 0.022640 -0.005978 -0.008884 0.007583 -0.005399 -0.013053
# 2 -0.005978 0.013343 -0.002939 0.002103 0.000407 -0.003191
# 3 -0.008884 -0.002939 0.015329 -0.004372 0.001063 0.007044
# 4 0.007583 0.002103 -0.004372 0.038557 -0.003182 -0.009212
# 5 -0.005399 0.000407 0.001063 -0.003182 0.022242 0.009701
# 6 -0.013053 -0.003191 0.007044 -0.009212 0.009701 0.047664
#
#
# Mechanical properties :
#
#
# Convention : Reuss Voigt Hill
#
# Bulk Modulus (GPa) = 63.65911 74.89535 69.27723
# Shear Modulus (GPa) = 24.92339 32.16077 28.54208
#
# Velocity S-wave (km/s) = 3.36103 3.81797 3.59677
# Velocity P-wave (km/s) = 6.62688 7.30631 6.97488
#
# Compressibility (1/GPa) = 0.01570867
#
# Stress axis : x y z
#
# Youngs Moduli (GPa) = 44.17027 74.94528 65.23474
#
# Poissons Ratio (x) = 0.44806 0.57957
# Poissons Ratio (y) = 0.26407 0.19171
# Poissons Ratio (z) = 0.39243 0.22024
#
# Static dielectric constant tensor:
#      x y z
#    x 2.124150 0.107890 0.012870 
#    y 0.107890 1.843510 -0.014630 
#    z 0.012870 -0.014630 1.817600 
# 
# From -- ./inp_files/117293.got.cif
#   From: 2010.05.17/outbox.cif.g08.bks.cpg/sg2_59_cif.got.tgz:117293.got - 2010.06.03 11:33:40.
