data_PCOD9020579
_publ_section_title
;
Structure prediction by ZEFSAII (Michael W. Deem and Ramdas Pophale) SiO2 
 PCOD9020579
Probable space group: P -1
;
_chemical_formula_sum "Si O2"
_cell_formula_units_Z 16
_cell_length_a 10.566624
_cell_length_b 6.292003
_cell_length_c 11.957010
_cell_angle_alpha 118.580949
_cell_angle_beta 98.493265
_cell_angle_gamma 82.653212
_cell_volume 688.936062
_symmetry_space_group_name_H-M "P -1"
_symmetry_group_IT_number 2
_symmetry_cell_setting 'triclinic'
loop_
_space_group_symop_operation_xyz
x,y,z
-x,-y,-z
loop_
_atom_site_type_symbol
_atom_site_label
_atom_site_fract_x
_atom_site_fract_y
_atom_site_fract_z
Si Si1 0.731848 0.398865 0.840687
Si Si2 0.183107 0.291872 0.766048
Si Si3 0.425640 0.767244 0.401186
Si Si4 0.202073 0.762071 0.550056
Si Si5 0.927037 0.547667 0.712885
Si Si6 0.637297 0.384698 0.255962
Si Si7 0.690901 0.884693 0.041558
Si Si8 0.877022 0.033253 0.912906
O O1 0.646595 0.205405 0.721136
O O2 0.817930 0.491881 0.774840
O O3 0.832123 0.284966 0.914266
O O4 0.643417 0.623070 0.935989
O O5 0.306976 0.435153 0.783019
O O6 0.203699 0.192987 0.869133
O O7 0.060372 0.469644 0.769882
O O8 0.169212 0.048780 0.630301
O O9 0.324580 0.734158 0.477443
O O10 0.519897 0.528558 0.337897
O O11 0.500000 0.000000 0.500000
O O12 0.095763 0.609621 0.439175
O O13 0.247854 0.660084 0.650224
O O14 0.906569 0.836206 0.768889
O O15 0.609818 0.116999 0.139571
O O16 0.759376 0.978280 0.964234
O O17 0.000000 0.000000 0.000000
#
# Coordination Sequence:
#
# PCOD9020579 Si02
#       8
#     2   2   2   2   2   2   2   2
#     4  10  23  41  63  91 126 160 205 253 300 363
#     4  11  21  39  61  91 129 162 198 249 308 364
#     4  11  23  44  66  87 119 165 206 257 306 353
#     4  10  23  40  61  91 122 159 209 252 304 363
#     4  10  22  36  61  93 125 160 200 253 304 364
#     4  11  23  39  66  87 121 167 202 252 302 366
#     4  10  22  40  59  92 123 158 206 247 304 363
#     4  11  21  38  64  91 125 163 202 250 302 367
#
# _framework density 23.224218
#
# number of rings (size 3 to 8) (size 9 to 14) (size 15 to 20)
#    0.000    1.500    1.250    3.750    1.750    4.000 
#    2.250    2.500    0.000    0.000    0.000    0.000 
#    0.000    0.000    0.000    0.000    0.000    0.000 
#
# Total GULP energy -89410.077087 kJ/mol
# GULP energy per Si atom -5588.129818 kJ/mol
# Density = 2.317136 g / cm^3
# Si number density = 23.224218 Si / 1000 Ang^3
#
#
#
# Elastic Constant Matrix: (Units=GPa)
#
#
# Indices 1 2 3 4 5 6 
#
# 1 31.9526 0.8165 12.4346 14.7884 -1.2285 -14.2942
# 2 0.8165 77.2131 35.6219 21.0600 -7.6721 -21.4821
# 3 12.4346 35.6219 119.0088 33.0413 1.7317 -6.8224
# 4 14.7884 21.0600 33.0413 46.9457 -7.7653 -8.1553
# 5 -1.2285 -7.6721 1.7317 -7.7653 29.7394 4.4945
# 6 -14.2942 -21.4821 -6.8224 -8.1553 4.4945 34.9474
#
#
#
# Elastic Compliance Matrix: (Units=1/GPa)
#
#
# Indices 1 2 3 4 5 6 
#
# 1 0.049354 0.011157 -0.003033 -0.014746 -0.002279 0.023305
# 2 0.011157 0.021241 -0.004851 -0.006684 0.002237 0.014826
# 3 -0.003033 -0.004851 0.011771 -0.006202 -0.003235 -0.002956
# 4 -0.014746 -0.006684 -0.006202 0.033783 0.007519 -0.004434
# 5 -0.002279 0.002237 -0.003235 0.007519 0.036737 -0.003158
# 6 0.023305 0.014826 -0.002956 -0.004434 -0.003158 0.046055
#
#
# Mechanical properties :
#
#
# Convention : Reuss Voigt Hill
#
# Bulk Modulus (GPa) = 11.24699 36.21340 23.73019
# Shear Modulus (GPa) = 22.51920 34.27994 28.39957
#
# Velocity S-wave (km/s) = 3.11729 3.84610 3.50071
# Velocity P-wave (km/s) = 4.22018 5.94559 5.15558
#
# Compressibility (1/GPa) = 0.08891265
#
# Stress axis : x y z
#
# Youngs Moduli (GPa) = 20.26166 47.07844 84.95457
#
# Poissons Ratio (x) = -0.52524 0.25767
# Poissons Ratio (y) = -0.22605 0.41208
# Poissons Ratio (z) = 0.06145 0.22836
#
# Static dielectric constant tensor:
#      x y z
#    x 1.881460 0.032460 0.047570 
#    y 0.032460 1.856920 0.042450 
#    z 0.047570 0.042450 1.923860 
# 
# From -- ./inp_files/68440.got.cif
#   From: 2010.05.17/outbox.cif.g08.bks.cpg/sg2_35_cif.got.tgz:68440.got - 2010.06.03 11:33:40.
