data_PCOD9020216
_publ_section_title
;
Structure prediction by ZEFSAII (Michael W. Deem and Ramdas Pophale) SiO2 
 PCOD9020216
Probable space group: P -1
;
_chemical_formula_sum "Si O2"
_cell_formula_units_Z 14
_cell_length_a 12.928404
_cell_length_b 19.913822
_cell_length_c 12.767592
_cell_angle_alpha 27.097225
_cell_angle_beta 140.195766
_cell_angle_gamma 157.193123
_cell_volume 554.234436
_symmetry_space_group_name_H-M "P -1"
_symmetry_group_IT_number 2
_symmetry_cell_setting 'triclinic'
loop_
_space_group_symop_operation_xyz
x,y,z
-x,-y,-z
loop_
_atom_site_type_symbol
_atom_site_label
_atom_site_fract_x
_atom_site_fract_y
_atom_site_fract_z
Si Si1 0.762238 0.688102 0.363905
Si Si2 0.908641 0.102655 0.300206
Si Si3 0.757838 0.987498 0.021307
Si Si4 0.636578 0.329084 0.660843
Si Si5 0.754996 0.589674 0.047956
Si Si6 0.245701 0.733311 0.499948
Si Si7 0.127944 0.756237 0.705738
O O1 0.500000 0.500000 0.500000
O O2 0.670772 0.532545 0.405334
O O3 0.986989 0.751171 0.510716
O O4 0.809354 0.898032 0.100575
O O5 0.897541 0.159229 0.328681
O O6 0.606759 0.902073 0.286574
O O7 0.000000 0.000000 0.500000
O O8 0.158895 0.369413 0.061663
O O9 0.472815 0.782888 0.150481
O O10 0.809572 0.185150 0.742088
O O11 0.985641 0.131942 0.086815
O O12 0.946121 0.497998 0.651383
O O13 0.700913 0.389565 0.330272
O O14 0.500000 0.500000 0.000000
O O15 0.542844 0.010542 0.392101
O O16 0.000000 0.500000 0.000000
#
# Coordination Sequence:
#
# PCOD9020216 Si02
#       7
#     2   2   2   2   2   2   2
#     4  10  21  47  71  98 149 192 239 298 371 435
#     4  11  25  46  78 107 149 199 247 306 370 442
#     4  10  23  44  71 101 152 188 236 311 364 434
#     4  10  25  45  75 109 140 197 251 296 370 440
#     4  11  25  44  68 109 146 193 246 307 364 449
#     4  12  27  43  74 106 146 192 250 303 366 444
#     4  12  27  47  74 109 153 193 246 311 379 434
#
# _framework density 25.260066999999999
#
# number of rings (size 3 to 8) (size 9 to 14) (size 15 to 20)
#    0.000    1.143    0.000    6.429   10.000    2.286 
#    2.571    0.000    0.000    0.000    0.000    0.000 
#    0.000    0.000    0.000    0.000    0.000    0.000 
#
# Total GULP energy -78208.531713 kJ/mol
# GULP energy per Si atom -5586.323694 kJ/mol
# Density = 2.520257 g / cm^3
# Si number density = 25.260067 Si / 1000 Ang^3
#
#
#
# Elastic Constant Matrix: (Units=GPa)
#
#
# Indices 1 2 3 4 5 6 
#
# 1 109.3309 34.6189 36.7137 -2.9371 17.5313 17.2928
# 2 34.6189 134.9430 25.1638 -5.7733 -5.1519 39.8961
# 3 36.7137 25.1638 136.6731 0.0020 29.2928 18.2020
# 4 -2.9371 -5.7733 0.0020 35.3684 5.2170 -0.5229
# 5 17.5313 -5.1519 29.2928 5.2170 41.4455 -6.4393
# 6 17.2928 39.8961 18.2020 -0.5229 -6.4393 51.1967
#
#
#
# Elastic Compliance Matrix: (Units=1/GPa)
#
#
# Indices 1 2 3 4 5 6 
#
# 1 0.011419 -0.002120 -0.001381 0.001251 -0.004630 -0.002284
# 2 -0.002120 0.010199 -0.000722 0.001171 0.001474 -0.006778
# 3 -0.001381 -0.000722 0.009767 0.000753 -0.007019 -0.003319
# 4 0.001251 0.001171 0.000753 0.029263 -0.004898 -0.001920
# 5 -0.004630 0.001474 -0.007019 -0.004898 0.032936 0.007003
# 6 -0.002284 -0.006778 -0.003319 -0.001920 0.007003 0.027627
#
#
# Mechanical properties :
#
#
# Convention : Reuss Voigt Hill
#
# Bulk Modulus (GPa) = 43.59111 63.77108 53.68109
# Shear Modulus (GPa) = 36.41618 44.56550 40.49084
#
# Velocity S-wave (km/s) = 3.80103 4.20487 4.00804
# Velocity P-wave (km/s) = 6.04633 6.99108 6.53580
#
# Compressibility (1/GPa) = 0.02294046
#
# Stress axis : x y z
#
# Youngs Moduli (GPa) = 87.57567 98.04579 102.38720
#
# Poissons Ratio (x) = 0.20786 0.14135
# Poissons Ratio (y) = 0.18566 0.07389
# Poissons Ratio (z) = 0.12090 0.07075
#
# Static dielectric constant tensor:
#      x y z
#    x 2.027900 0.053280 -0.089590 
#    y 0.053280 1.542560 0.373050 
#    z -0.089590 0.373050 1.763280 
# 
# From -- ./inp_files/337855.got.cif
#   From: 2010.05.17/outbox.cif.g08.bks.cpg/sg2_169_cif.got.tgz:337855.got - 2010.06.03 11:33:40.
