data_PCOD9020168
_publ_section_title
;
Structure prediction by ZEFSAII (Michael W. Deem and Ramdas Pophale) SiO2 
 PCOD9020168
Probable space group: P -1
;
_chemical_formula_sum "Si O2"
_cell_formula_units_Z 16
_cell_length_a 11.908116
_cell_length_b 17.667261
_cell_length_c 9.303139
_cell_angle_alpha 139.047883
_cell_angle_beta 53.657793
_cell_angle_gamma 149.029048
_cell_volume 651.318155
_symmetry_space_group_name_H-M "P -1"
_symmetry_group_IT_number 2
_symmetry_cell_setting 'triclinic'
loop_
_space_group_symop_operation_xyz
x,y,z
-x,-y,-z
loop_
_atom_site_type_symbol
_atom_site_label
_atom_site_fract_x
_atom_site_fract_y
_atom_site_fract_z
Si Si1 0.383165 0.166464 0.080476
Si Si2 0.938912 0.166249 0.485717
Si Si3 0.180362 0.222861 0.118307
Si Si4 0.827022 0.452474 0.665578
Si Si5 0.641814 0.646743 0.397482
Si Si6 0.785124 0.320684 0.822166
Si Si7 0.922102 0.146229 0.946813
Si Si8 0.685421 0.865323 0.466472
O O1 0.219823 0.130837 0.046000
O O2 0.420560 0.289842 0.351320
O O3 0.583782 0.252233 0.956813
O O4 0.289718 0.993395 0.984765
O O5 0.795354 0.189174 0.634170
O O6 0.041068 0.216852 0.322183
O O7 0.162764 0.302596 0.607998
O O8 0.780912 0.965909 0.385056
O O9 0.427255 0.434386 0.222990
O O10 0.071793 0.159039 0.952347
O O11 0.802726 0.372669 0.720260
O O12 0.580484 0.298205 0.566030
O O13 0.000000 0.500000 0.500000
O O14 0.935028 0.647916 0.886852
O O15 0.728949 0.767759 0.363473
O O16 0.000000 0.500000 0.000000
O O17 0.811590 0.031161 0.719504
#
# Coordination Sequence:
#
# PCOD9020168 Si02
#       8
#     2   2   2   2   2   2   2   2
#     4  10  24  42  74 108 146 189 242 305 360 432
#     4  11  24  43  75 106 144 192 245 301 360 431
#     4  11  21  45  76 105 143 195 247 295 363 434
#     4  12  29  49  73 106 152 198 237 299 373 439
#     4  10  21  46  77 105 146 194 240 299 368 433
#     4  12  26  45  73 110 146 187 247 303 360 433
#     4  11  25  46  74 103 144 195 244 299 360 438
#     4  11  26  48  73 108 146 191 244 302 366 432
#
# _framework density 24.565566
#
# number of rings (size 3 to 8) (size 9 to 14) (size 15 to 20)
#    0.000    1.000    1.250    5.250    7.000    1.000 
#    2.250    1.250    0.000    0.000    0.000    0.000 
#    0.000    0.000    0.000    0.000    0.000    0.000 
#
# Total GULP energy -89576.663145 kJ/mol
# GULP energy per Si atom -5598.541447 kJ/mol
# Density = 2.450965 g / cm^3
# Si number density = 24.565566 Si / 1000 Ang^3
#
#
#
# Elastic Constant Matrix: (Units=GPa)
#
#
# Indices 1 2 3 4 5 6 
#
# 1 119.7567 23.4986 47.2182 -12.0796 2.1460 -9.7832
# 2 23.4986 117.4947 39.4355 -11.6170 2.3799 -5.0295
# 3 47.2182 39.4355 67.4206 -4.4035 12.0671 -1.7084
# 4 -12.0796 -11.6170 -4.4035 59.0997 -0.0679 0.2012
# 5 2.1460 2.3799 12.0671 -0.0679 51.6100 2.8957
# 6 -9.7832 -5.0295 -1.7084 0.2012 2.8957 57.0932
#
#
#
# Elastic Compliance Matrix: (Units=1/GPa)
#
#
# Indices 1 2 3 4 5 6 
#
# 1 0.012065 0.000863 -0.009045 0.001957 0.001476 0.001791
# 2 0.000863 0.010887 -0.007024 0.001792 0.001060 0.000837
# 3 -0.009045 -0.007024 0.026121 -0.001286 -0.005347 -0.001111
# 4 0.001957 0.001792 -0.001286 0.017576 0.000138 0.000386
# 5 0.001476 0.001060 -0.005347 0.000138 0.020564 -0.000857
# 6 0.001791 0.000837 -0.001111 0.000386 -0.000857 0.017905
#
#
# Mechanical properties :
#
#
# Convention : Reuss Voigt Hill
#
# Bulk Modulus (GPa) = 53.59056 58.33072 55.96064
# Shear Modulus (GPa) = 35.27331 46.52858 40.90094
#
# Velocity S-wave (km/s) = 3.79342 4.35680 4.08483
# Velocity P-wave (km/s) = 6.40698 7.00752 6.71397
#
# Compressibility (1/GPa) = 0.01866000
#
# Stress axis : x y z
#
# Youngs Moduli (GPa) = 82.88732 91.84857 38.28383
#
# Poissons Ratio (x) = -0.07930 0.34629
# Poissons Ratio (y) = -0.07156 0.26892
# Poissons Ratio (z) = 0.74974 0.64518
#
# Static dielectric constant tensor:
#      x y z
#    x 2.006440 -0.093980 0.003330 
#    y -0.093980 2.270550 -0.121290 
#    z 0.003330 -0.121290 2.100530 
# 
# From -- ./inp_files/280077.got.cif
#   From: 2010.05.17/outbox.cif.g08.bks.cpg/sg2_141_cif.got.tgz:280077.got - 2010.06.03 11:33:40.
