data_PCOD9020961
_publ_section_title
;
Structure prediction by ZEFSAII (Michael W. Deem and Ramdas Pophale) SiO2 
 PCOD9020961
Probable space group: P -1
;
_chemical_formula_sum "Si O2"
_cell_formula_units_Z 16
_cell_length_a 11.388329
_cell_length_b 15.388658
_cell_length_c 8.732600
_cell_angle_alpha 140.601387
_cell_angle_beta 120.378693
_cell_angle_gamma 43.356507
_cell_volume 661.314835
_symmetry_space_group_name_H-M "P -1"
_symmetry_group_IT_number 2
_symmetry_cell_setting 'triclinic'
loop_
_space_group_symop_operation_xyz
x,y,z
-x,-y,-z
loop_
_atom_site_type_symbol
_atom_site_label
_atom_site_fract_x
_atom_site_fract_y
_atom_site_fract_z
Si Si1 0.350287 0.244539 0.324037
Si Si2 0.085783 0.686531 0.468766
Si Si3 0.204183 0.849544 0.581661
Si Si4 0.593975 0.508742 0.361627
Si Si5 0.808698 0.920925 0.861543
Si Si6 0.473160 0.763214 0.101512
Si Si7 0.788575 0.663861 0.988963
Si Si8 0.306013 0.978782 0.587880
O O1 0.330606 0.416799 0.596146
O O2 0.234091 0.203959 0.275429
O O3 0.304663 0.277952 0.160777
O O4 0.547705 0.083462 0.271172
O O5 0.100899 0.778562 0.461407
O O6 0.272650 0.583664 0.536449
O O7 0.062377 0.540527 0.217651
O O8 0.950846 0.823001 0.690014
O O9 0.405412 0.683865 0.517094
O O10 0.202251 0.914035 0.498484
O O11 0.144123 0.007694 0.871056
O O12 0.566714 0.373233 0.096997
O O13 0.643655 0.093421 0.909954
O O14 0.416153 0.871241 0.366296
O O15 0.666148 0.673852 0.051772
O O16 0.799051 0.818857 0.237213
#
# Coordination Sequence:
#
# PCOD9020961 Si02
#       8
#     2   2   2   2   2   2   2   2
#     4  10  22  37  63  91 120 148 200 254 291 344
#     4  11  23  38  64  92 118 157 200 248 297 348
#     4  11  21  40  63  90 120 152 203 246 294 349
#     4  10  22  37  63  91 120 148 200 254 291 344
#     4  12  23  39  62  90 123 158 199 242 300 357
#     4  12  23  39  62  90 123 158 199 242 300 357
#     4  11  21  40  63  90 120 152 203 246 294 349
#     4  11  23  38  64  92 118 157 200 248 297 348
#
# _framework density 24.194227000000001
#
# number of rings (size 3 to 8) (size 9 to 14) (size 15 to 20)
#    0.000    1.000    5.000    3.750    0.000    4.000 
#    0.000    1.250    0.000    0.000    0.000    0.000 
#    0.000    0.000    0.000    0.000    0.000    0.000 
#
# Total GULP energy -89503.395057 kJ/mol
# GULP energy per Si atom -5593.962191 kJ/mol
# Density = 2.413916 g / cm^3
# Si number density = 24.194227 Si / 1000 Ang^3
#
#
#
# Elastic Constant Matrix: (Units=GPa)
#
#
# Indices 1 2 3 4 5 6 
#
# 1 93.5862 11.2300 25.6256 17.2262 11.7203 15.9718
# 2 11.2300 66.0633 -0.6169 26.3915 -0.8148 6.5257
# 3 25.6256 -0.6169 80.9866 21.4119 -2.6848 -1.5032
# 4 17.2262 26.3915 21.4119 33.3208 9.3056 9.5932
# 5 11.7203 -0.8148 -2.6848 9.3056 46.8016 1.9118
# 6 15.9718 6.5257 -1.5032 9.5932 1.9118 26.9608
#
#
#
# Elastic Compliance Matrix: (Units=1/GPa)
#
#
# Indices 1 2 3 4 5 6 
#
# 1 0.013960 -0.002042 -0.004957 0.000953 -0.003673 -0.008131
# 2 -0.002042 0.026964 0.009009 -0.029591 0.007169 0.005206
# 3 -0.004957 0.009009 0.020207 -0.022059 0.006565 0.009266
# 4 0.000953 -0.029591 -0.022059 0.077869 -0.016638 -0.021160
# 5 -0.003673 0.007169 0.006565 -0.016638 0.025896 0.004891
# 6 -0.008131 0.005206 0.009266 -0.021160 0.004891 0.048346
#
#
# Mechanical properties :
#
#
# Convention : Reuss Voigt Hill
#
# Bulk Modulus (GPa) = 15.34914 34.79039 25.06977
# Shear Modulus (GPa) = 21.65073 35.04313 28.34693
#
# Velocity S-wave (km/s) = 2.99469 3.80993 3.42664
# Velocity P-wave (km/s) = 4.27965 5.81076 5.10296
#
# Compressibility (1/GPa) = 0.06515022
#
# Stress axis : x y z
#
# Youngs Moduli (GPa) = 71.63287 37.08709 49.48862
#
# Poissons Ratio (x) = 0.07573 0.24533
# Poissons Ratio (y) = 0.14628 -0.44586
# Poissons Ratio (z) = 0.35511 -0.33413
#
# Static dielectric constant tensor:
#      x y z
#    x 1.935600 -0.035490 0.064870 
#    y -0.035490 1.976710 -0.029050 
#    z 0.064870 -0.029050 1.927800 
# 
# From -- ./inp_files/274700.got.cif
#   From: 2010.05.17/outbox.cif.g08.bks.cpg/sg2_138_cif.got.tgz:274700.got - 2010.06.03 11:33:40.
