data_PCOD9020634
_publ_section_title
;
Structure prediction by ZEFSAII (Michael W. Deem and Ramdas Pophale) SiO2 
 PCOD9020634
Probable space group: P -1
;
_chemical_formula_sum "Si O2"
_cell_formula_units_Z 12
_cell_length_a 10.788373
_cell_length_b 9.324037
_cell_length_c 13.802022
_cell_angle_alpha 73.047014
_cell_angle_beta 20.085133
_cell_angle_gamma 72.545111
_cell_volume 454.624664
_symmetry_space_group_name_H-M "P -1"
_symmetry_group_IT_number 2
_symmetry_cell_setting 'triclinic'
loop_
_space_group_symop_operation_xyz
x,y,z
-x,-y,-z
loop_
_atom_site_type_symbol
_atom_site_label
_atom_site_fract_x
_atom_site_fract_y
_atom_site_fract_z
Si Si1 0.587109 0.567547 0.783005
Si Si2 0.293853 0.925867 0.374426
Si Si3 0.120891 0.912769 0.189693
Si Si4 0.352310 0.168427 0.608512
Si Si5 0.259126 0.288438 0.172512
Si Si6 0.871036 0.345450 0.083242
O O1 0.637654 0.703359 0.791950
O O2 0.431636 0.612253 0.784892
O O3 0.000000 0.500000 0.500000
O O4 0.333991 0.444214 0.037048
O O5 0.143646 0.761906 0.531912
O O6 0.000000 0.000000 0.500000
O O7 0.208673 0.009761 0.521335
O O8 0.675423 0.962006 0.043816
O O9 0.952175 0.803586 0.257554
O O10 0.409077 0.834607 0.071523
O O11 0.679758 0.268258 0.327085
O O12 0.500000 0.000000 0.500000
O O13 0.159310 0.226327 0.839112
O O14 0.000000 0.500000 0.000000
#
# Coordination Sequence:
#
# PCOD9020634 Si02
#       6
#     2   2   2   2   2   2
#     4  11  25  42  73 105 146 200 242 309 380 458
#     4  10  22  36  64 101 138 181 230 293 374 440
#     4  11  22  42  69  98 144 188 234 312 375 442
#     4  12  27  52  79 108 148 209 266 316 384 461
#     4  10  22  40  64 105 147 184 241 295 385 448
#     4  12  28  54  81 111 158 204 261 323 384 458
#
# _framework density 26.395399000000001
#
# number of rings (size 3 to 8) (size 9 to 14) (size 15 to 20)
#    0.000    1.000    1.667    5.000   11.667    1.333 
#    3.000    0.000    0.000    0.000    0.000    0.000 
#    0.000    0.000    0.000    0.000    0.000    0.000 
#
# Total GULP energy -67109.405731 kJ/mol
# GULP energy per Si atom -5592.450478 kJ/mol
# Density = 2.633532 g / cm^3
# Si number density = 26.395399 Si / 1000 Ang^3
#
#
#
# Elastic Constant Matrix: (Units=GPa)
#
#
# Indices 1 2 3 4 5 6 
#
# 1 84.1790 1.6426 14.2584 10.0647 5.9414 15.7534
# 2 1.6426 87.9549 39.7416 -15.7790 -6.1918 14.9874
# 3 14.2584 39.7416 135.0438 -12.9143 15.2544 0.2356
# 4 10.0647 -15.7790 -12.9143 69.8997 0.2591 -2.7104
# 5 5.9414 -6.1918 15.2544 0.2591 35.8430 6.0440
# 6 15.7534 14.9874 0.2356 -2.7104 6.0440 41.8182
#
#
#
# Elastic Compliance Matrix: (Units=1/GPa)
#
#
# Indices 1 2 3 4 5 6 
#
# 1 0.013525 0.001160 -0.001948 -0.002262 -0.000250 -0.005610
# 2 0.001160 0.015612 -0.005159 0.002122 0.005816 -0.006706
# 3 -0.001948 -0.005159 0.009828 0.001082 -0.005327 0.003367
# 4 -0.002262 0.002122 0.001082 0.015353 -0.000012 0.001082
# 5 -0.000250 0.005816 -0.005327 -0.000012 0.032331 -0.006634
# 6 -0.005610 -0.006706 0.003367 0.001082 -0.006634 0.029440
#
#
# Mechanical properties :
#
#
# Convention : Reuss Voigt Hill
#
# Bulk Modulus (GPa) = 36.93962 46.49589 41.71775
# Shear Modulus (GPa) = 36.49478 46.28119 41.38799
#
# Velocity S-wave (km/s) = 3.72239 4.19188 3.96409
# Velocity P-wave (km/s) = 5.70088 6.40957 6.06558
#
# Compressibility (1/GPa) = 0.02707120
#
# Stress axis : x y z
#
# Youngs Moduli (GPa) = 73.93885 64.05422 101.74803
#
# Poissons Ratio (x) = -0.07430 0.19816
# Poissons Ratio (y) = -0.08577 0.52493
# Poissons Ratio (z) = 0.14400 0.33046
#
# Static dielectric constant tensor:
#      x y z
#    x 2.068320 -0.014710 0.028940 
#    y -0.014710 2.449030 0.303580 
#    z 0.028940 0.303580 2.307880 
# 
# From -- ./inp_files/515269.got.cif
#   From: 2010.05.17/outbox.cif.g08.bks.cpg/sg2_258_cif.got.tgz:515269.got - 2010.06.03 11:33:40.
