data_PCOD9020375
_publ_section_title
;
Structure prediction by ZEFSAII (Michael W. Deem and Ramdas Pophale) SiO2 
 PCOD9020375
Probable space group: P -1
;
_chemical_formula_sum "Si O2"
_cell_formula_units_Z 14
_cell_length_a 6.949729
_cell_length_b 5.541095
_cell_length_c 16.406338
_cell_angle_alpha 87.101622
_cell_angle_beta 101.949866
_cell_angle_gamma 111.397265
_cell_volume 575.281808
_symmetry_space_group_name_H-M "P -1"
_symmetry_group_IT_number 2
_symmetry_cell_setting 'triclinic'
loop_
_space_group_symop_operation_xyz
x,y,z
-x,-y,-z
loop_
_atom_site_type_symbol
_atom_site_label
_atom_site_fract_x
_atom_site_fract_y
_atom_site_fract_z
Si Si1 0.441804 0.397583 0.867028
Si Si2 0.581049 0.782421 0.545819
Si Si3 0.893306 0.342596 0.911897
Si Si4 0.546652 0.571142 0.318448
Si Si5 0.068917 0.545223 0.268701
Si Si6 0.331464 0.120331 0.010870
Si Si7 0.030675 0.005452 0.648742
O O1 0.653495 0.331425 0.880167
O O2 0.391795 0.444608 0.770110
O O3 0.270607 0.201102 0.915671
O O4 0.525788 0.648189 0.925134
O O5 0.500000 0.500000 0.500000
O O6 0.489823 0.691167 0.630526
O O7 0.500000 0.000000 0.500000
O O8 0.835066 0.895538 0.571550
O O9 0.991604 0.453736 0.831958
O O10 0.000000 0.500000 0.000000
O O11 0.846074 0.050754 0.941018
O O12 0.320140 0.602201 0.299460
O O13 0.737752 0.818192 0.365914
O O14 0.031981 0.785446 0.306015
O O15 0.963242 0.252289 0.300400
O O16 0.500000 0.000000 0.000000
#
# Coordination Sequence:
#
# PCOD9020375 Si02
#       7
#     2   2   2   2   2   2   2
#     4   9  20  40  58  90 126 175 229 279 334 401
#     4  11  25  47  73 106 143 171 225 290 346 428
#     4  10  22  35  57  87 129 188 221 289 341 383
#     4  10  24  45  74 100 138 190 222 290 350 414
#     4  10  25  44  66 105 146 179 244 290 332 412
#     4   9  19  35  57  84 124 167 224 273 326 386
#     4  11  25  46  73 106 135 186 230 279 353 423
#
# _framework density 24.335899000000001
#
# number of rings (size 3 to 8) (size 9 to 14) (size 15 to 20)
#    0.000    2.000    0.000    1.714    8.000    8.571 
#    5.143    0.000    0.000    0.000    0.000    0.000 
#    0.000    0.000    0.000    0.000    0.000    0.000 
#
# Total GULP energy -78129.591033 kJ/mol
# GULP energy per Si atom -5580.685074 kJ/mol
# Density = 2.428051 g / cm^3
# Si number density = 24.335899 Si / 1000 Ang^3
#
#
#
# Elastic Constant Matrix: (Units=GPa)
#
#
# Indices 1 2 3 4 5 6 
#
# 1 82.2720 44.0576 31.9846 -19.0210 9.5930 13.1159
# 2 44.0576 133.1205 55.2206 -28.0111 6.6362 2.9273
# 3 31.9846 55.2206 142.8844 -25.9905 21.5258 -1.0006
# 4 -19.0210 -28.0111 -25.9905 31.6496 -5.3824 -1.2360
# 5 9.5930 6.6362 21.5258 -5.3824 38.6982 2.1968
# 6 13.1159 2.9273 -1.0006 -1.2360 2.1968 51.4457
#
#
#
# Elastic Compliance Matrix: (Units=1/GPa)
#
#
# Indices 1 2 3 4 5 6 
#
# 1 0.016652 -0.003780 -0.001030 0.005336 -0.001947 -0.003839
# 2 -0.003780 0.010912 -0.002551 0.005515 0.001230 0.000373
# 3 -0.001030 -0.002551 0.009635 0.004372 -0.004109 0.000876
# 4 0.005336 0.005515 0.004372 0.043485 0.001382 -0.000603
# 5 -0.001947 0.001230 -0.004109 0.001382 0.028638 -0.000843
# 6 -0.003839 0.000373 0.000876 -0.000603 -0.000843 0.020434
#
#
# Mechanical properties :
#
#
# Convention : Reuss Voigt Hill
#
# Bulk Modulus (GPa) = 44.48651 68.97806 56.73228
# Shear Modulus (GPa) = 32.90137 39.49298 36.19717
#
# Velocity S-wave (km/s) = 3.68090 4.03280 3.86086
# Velocity P-wave (km/s) = 6.03202 7.07745 6.57555
#
# Compressibility (1/GPa) = 0.02247873
#
# Stress axis : x y z
#
# Youngs Moduli (GPa) = 60.05350 91.64298 103.78620
#
# Poissons Ratio (x) = 0.34638 0.10688
# Poissons Ratio (y) = 0.22699 0.26472
# Poissons Ratio (z) = 0.06184 0.23374
#
# Static dielectric constant tensor:
#      x y z
#    x 2.011630 0.072550 0.037120 
#    y 0.072550 2.074210 -0.002260 
#    z 0.037120 -0.002260 2.033070 
# 
# From -- ./inp_files/552012.got.cif
#   From: 2010.05.17/outbox.cif.g08.bks.cpg/sg2_277_cif.got.tgz:552012.got - 2010.06.03 11:33:40.
