data_PCOD9020924
_publ_section_title
;
Structure prediction by ZEFSAII (Michael W. Deem and Ramdas Pophale) SiO2 
 PCOD9020924
Probable space group: P -1
;
_chemical_formula_sum "Si O2"
_cell_formula_units_Z 14
_cell_length_a 10.305834
_cell_length_b 7.264929
_cell_length_c 22.854485
_cell_angle_alpha 48.645687
_cell_angle_beta 27.012769
_cell_angle_gamma 44.407010
_cell_volume 542.246564
_symmetry_space_group_name_H-M "P -1"
_symmetry_group_IT_number 2
_symmetry_cell_setting 'triclinic'
loop_
_space_group_symop_operation_xyz
x,y,z
-x,-y,-z
loop_
_atom_site_type_symbol
_atom_site_label
_atom_site_fract_x
_atom_site_fract_y
_atom_site_fract_z
Si Si1 0.193970 0.576044 0.455700
Si Si2 0.469106 0.856725 0.361498
Si Si3 0.077789 0.406494 0.212862
Si Si4 0.506120 0.093133 0.911723
Si Si5 0.826115 0.443404 0.736326
Si Si6 0.988171 0.055025 0.925231
Si Si7 0.415552 0.954823 0.609918
O O1 0.262887 0.828723 0.396445
O O2 0.000000 0.500000 0.500000
O O3 0.019325 0.533173 0.592898
O O4 0.522830 0.353444 0.351556
O O5 0.670861 0.019310 0.222630
O O6 0.374518 0.974616 0.439692
O O7 0.710491 0.554977 0.338653
O O8 0.203550 0.125306 0.191471
O O9 0.237113 0.385502 0.216137
O O10 0.148743 0.628655 0.099654
O O11 0.211489 0.083002 0.998731
O O12 0.500000 0.000000 0.000000
O O13 0.552510 0.369601 0.835782
O O14 0.075251 0.156413 0.717663
O O15 0.000000 0.000000 0.000000
O O16 0.500000 0.000000 0.500000
#
# Coordination Sequence:
#
# PCOD9020924 Si02
#       7
#     2   2   2   2   2   2   2
#     4  11  24  39  58  90 124 158 206 250 312 365
#     4   9  21  40  62  83 125 156 201 249 308 357
#     4   9  21  41  63  92 118 159 208 251 306 362
#     4  12  21  39  67  90 123 158 213 252 294 370
#     4  10  22  37  62  91 117 160 205 250 300 363
#     4  10  23  41  62  90 125 160 198 251 317 356
#     4   9  19  39  61  88 116 157 201 248 303 365
#
# _framework density 25.818512999999999
#
# number of rings (size 3 to 8) (size 9 to 14) (size 15 to 20)
#    0.857    1.143    1.429    1.286    2.000    8.000 
#    2.571    0.714    0.000    0.000    0.000    0.000 
#    0.000    0.000    0.000    0.000    0.000    0.000 
#
# Total GULP energy -78197.815292 kJ/mol
# GULP energy per Si atom -5585.558235 kJ/mol
# Density = 2.575975 g / cm^3
# Si number density = 25.818513 Si / 1000 Ang^3
#
#
#
# Elastic Constant Matrix: (Units=GPa)
#
#
# Indices 1 2 3 4 5 6 
#
# 1 152.0325 46.2103 35.4069 -14.4341 0.4369 56.5628
# 2 46.2103 131.2361 13.5558 1.6721 -8.5635 45.2496
# 3 35.4069 13.5558 62.0254 -14.3335 -5.9196 13.0645
# 4 -14.4341 1.6721 -14.3335 45.1078 14.3207 -1.2231
# 5 0.4369 -8.5635 -5.9196 14.3207 48.1702 -7.6624
# 6 56.5628 45.2496 13.0645 -1.2231 -7.6624 51.2413
#
#
#
# Elastic Compliance Matrix: (Units=1/GPa)
#
#
# Indices 1 2 3 4 5 6 
#
# 1 0.013064 0.000435 -0.004059 0.003732 -0.003919 -0.014267
# 2 0.000435 0.011029 -0.000724 -0.000949 0.000563 -0.009974
# 3 -0.004059 -0.000724 0.019699 0.004682 0.000994 0.000358
# 4 0.003732 -0.000949 0.004682 0.027481 -0.008609 -0.005106
# 5 -0.003919 0.000563 0.000994 -0.008609 0.024701 0.007063
# 6 -0.014267 -0.009974 0.000358 -0.005106 0.007063 0.044915
#
#
# Mechanical properties :
#
#
# Convention : Reuss Voigt Hill
#
# Bulk Modulus (GPa) = 28.49223 59.51554 44.00388
# Shear Modulus (GPa) = 31.00130 45.57860 38.28995
#
# Velocity S-wave (km/s) = 3.46893 4.20616 3.85521
# Velocity P-wave (km/s) = 5.20616 6.83305 6.07432
#
# Compressibility (1/GPa) = 0.03509729
#
# Stress axis : x y z
#
# Youngs Moduli (GPa) = 76.54476 90.66899 50.76349
#
# Poissons Ratio (x) = -0.03946 0.20606
# Poissons Ratio (y) = -0.03331 0.03673
# Poissons Ratio (z) = 0.31072 0.06561
#
# Static dielectric constant tensor:
#      x y z
#    x 2.164860 -0.153980 -0.155790 
#    y -0.153980 1.945340 0.046480 
#    z -0.155790 0.046480 2.072260 
# 
# From -- ./inp_files/605853.got.cif
#   From: 2010.05.17/outbox.cif.g08.bks.cpg/sg2_303_cif.got.tgz:605853.got - 2010.06.03 11:33:40.
