data_PCOD9020414
_publ_section_title
;
Structure prediction by ZEFSAII (Michael W. Deem and Ramdas Pophale) SiO2 
 PCOD9020414
Probable space group: P -1
;
_chemical_formula_sum "Si O2"
_cell_formula_units_Z 16
_cell_length_a 15.108869
_cell_length_b 18.652346
_cell_length_c 8.296662
_cell_angle_alpha 141.923498
_cell_angle_beta 130.484996
_cell_angle_gamma 36.260090
_cell_volume 852.172397
_symmetry_space_group_name_H-M "P -1"
_symmetry_group_IT_number 2
_symmetry_cell_setting 'triclinic'
loop_
_space_group_symop_operation_xyz
x,y,z
-x,-y,-z
loop_
_atom_site_type_symbol
_atom_site_label
_atom_site_fract_x
_atom_site_fract_y
_atom_site_fract_z
Si Si1 0.001771 0.638349 0.219776
Si Si2 0.542250 0.787283 0.695776
Si Si3 0.209947 0.462527 0.708347
Si Si4 0.359116 0.002565 0.311349
Si Si5 0.569335 0.285362 0.278224
Si Si6 0.301287 0.087967 0.757250
Si Si7 0.090188 0.306834 0.433826
Si Si8 0.712984 0.428719 0.727286
O O1 0.871362 0.764036 0.166355
O O2 0.967712 0.694981 0.463058
O O3 0.152513 0.599904 0.266049
O O4 0.000000 0.500000 0.000000
O O5 0.668562 0.668535 0.504668
O O6 0.493466 0.711995 0.617070
O O7 0.394249 0.938639 0.710311
O O8 0.611937 0.844486 0.993469
O O9 0.159702 0.392587 0.650009
O O10 0.055679 0.599800 0.684892
O O11 0.275246 0.527895 0.002229
O O12 0.500000 0.000000 0.500000
O O13 0.303944 0.033794 0.485421
O O14 0.236544 0.135248 0.280163
O O15 0.392837 0.855930 0.021729
O O16 0.700980 0.297077 0.471673
O O17 0.437183 0.426880 0.272026
#
# Coordination Sequence:
#
# PCOD9020414 Si02
#       8
#     2   2   2   2   2   2   2   2
#     4  11  20  39  62  88 119 158 206 254 298 354
#     4  11  22  37  58  93 125 155 198 255 300 359
#     4  11  22  37  58  93 125 155 198 255 300 359
#     4  11  20  39  62  88 119 158 206 254 298 354
#     4  11  24  41  62  88 123 165 203 245 304 368
#     4  10  22  35  61  92 119 153 204 255 306 348
#     4  10  22  35  61  92 119 153 204 255 306 348
#     4  11  24  41  62  88 123 165 203 245 304 368
#
# _framework density 18.775544
#
# number of rings (size 3 to 8) (size 9 to 14) (size 15 to 20)
#    0.000    1.250    2.500    4.500    3.500    0.500 
#    0.000    6.250    0.000    0.000    0.000    0.000 
#    0.000    0.000    0.000    0.000    0.000    0.000 
#
# Total GULP energy -89171.822257 kJ/mol
# GULP energy per Si atom -5573.238891 kJ/mol
# Density = 1.873281 g / cm^3
# Si number density = 18.775544 Si / 1000 Ang^3
#
#
#
# Elastic Constant Matrix: (Units=GPa)
#
#
# Indices 1 2 3 4 5 6 
#
# 1 60.2619 8.9851 68.3515 -4.6544 2.8582 -10.1204
# 2 8.9851 120.7004 51.9662 3.8461 10.9012 -9.5516
# 3 68.3515 51.9662 120.1763 6.7506 15.2210 -5.9248
# 4 -4.6544 3.8461 6.7506 20.9470 -0.5903 -2.2179
# 5 2.8582 10.9012 15.2210 -0.5903 24.5053 -2.0544
# 6 -10.1204 -9.5516 -5.9248 -2.2179 -2.0544 20.9722
#
#
#
# Elastic Compliance Matrix: (Units=1/GPa)
#
#
# Indices 1 2 3 4 5 6 
#
# 1 0.123331 0.027879 -0.086824 0.057240 0.033300 0.056999
# 2 0.027879 0.016808 -0.023754 0.012650 0.005696 0.016294
# 3 -0.086824 -0.023754 0.072041 -0.043153 -0.028422 -0.039712
# 4 0.057240 0.012650 -0.043153 0.075866 0.018933 0.031070
# 5 0.033300 0.005696 -0.028422 0.018933 0.054002 0.017926
# 6 0.056999 0.016294 -0.039712 0.031070 0.017926 0.076432
#
#
# Mechanical properties :
#
#
# Convention : Reuss Voigt Hill
#
# Bulk Modulus (GPa) = 21.37506 62.19380 41.78443
# Shear Modulus (GPa) = 8.34069 24.74061 16.54065
#
# Velocity S-wave (km/s) = 2.10997 3.63396 2.97133
# Velocity P-wave (km/s) = 4.16475 7.12772 5.83736
#
# Compressibility (1/GPa) = 0.04678350
#
# Stress axis : x y z
#
# Youngs Moduli (GPa) = 8.10827 59.49416 13.88107
#
# Poissons Ratio (x) = -1.65866 1.20521
# Poissons Ratio (y) = -0.22605 0.32973
# Poissons Ratio (z) = 0.70399 1.41320
#
# Static dielectric constant tensor:
#      x y z
#    x 1.687590 -0.015950 -0.044860 
#    y -0.015950 1.733280 0.022880 
#    z -0.044860 0.022880 1.679360 
# 
# From -- ./inp_files/338238.got.cif
#   From: 2010.05.17/outbox.cif.g08.bks.cpg/sg2_170_cif.got.tgz:338238.got - 2010.06.03 11:33:40.
