data_PCOD9020862
_publ_section_title
;
Structure prediction by ZEFSAII (Michael W. Deem and Ramdas Pophale) SiO2 
 PCOD9020862
Probable space group: P -1
;
_chemical_formula_sum "Si O2"
_cell_formula_units_Z 16
_cell_length_a 15.385907
_cell_length_b 9.088021
_cell_length_c 13.020251
_cell_angle_alpha 41.821510
_cell_angle_beta 41.649269
_cell_angle_gamma 40.379822
_cell_volume 715.344980
_symmetry_space_group_name_H-M "P -1"
_symmetry_group_IT_number 2
_symmetry_cell_setting 'triclinic'
loop_
_space_group_symop_operation_xyz
x,y,z
-x,-y,-z
loop_
_atom_site_type_symbol
_atom_site_label
_atom_site_fract_x
_atom_site_fract_y
_atom_site_fract_z
Si Si1 0.178349 0.286763 0.704331
Si Si2 0.940944 0.764074 0.762516
Si Si3 0.795333 0.092217 0.531752
Si Si4 0.347369 0.477797 0.146434
Si Si5 0.431042 0.450511 0.411661
Si Si6 0.710427 0.928481 0.489317
Si Si7 0.513452 0.789433 0.018309
Si Si8 0.758503 0.989219 0.997358
O O1 0.022730 0.502361 0.768262
O O2 0.295401 0.395454 0.532402
O O3 0.184096 0.160230 0.656761
O O4 0.234953 0.098904 0.847186
O O5 0.819240 0.950890 0.693168
O O6 0.872013 0.786834 0.923819
O O7 0.068030 0.847093 0.623819
O O8 0.792177 0.946780 0.509673
O O9 0.641245 0.344193 0.541763
O O10 0.346590 0.272636 0.329836
O O11 0.229199 0.753923 0.141613
O O12 0.500000 0.500000 0.000000
O O13 0.339879 0.381428 0.088058
O O14 0.471130 0.594678 0.213172
O O15 0.571902 0.194160 0.448437
O O16 0.396878 0.945154 0.952174
O O17 0.500000 0.000000 0.000000
#
# Coordination Sequence:
#
# PCOD9020862 Si02
#       8
#     2   2   2   2   2   2   2   2
#     4  11  24  41  67  95 126 171 214 263 317 387
#     4  10  23  44  67  89 127 172 218 258 325 377
#     4  10  23  41  67  95 124 169 215 268 315 381
#     4  10  22  37  60  93 130 168 203 258 323 379
#     4  11  21  41  66  95 132 166 208 263 327 381
#     4  12  24  40  66 101 128 165 216 269 320 375
#     4  11  22  38  64  96 130 167 211 263 318 385
#     4  11  22  44  63  89 129 172 213 257 327 378
#
# _framework density 22.366831000000001
#
# number of rings (size 3 to 8) (size 9 to 14) (size 15 to 20)
#    0.000    1.250    1.250    5.625    3.500    2.500 
#    0.000    0.625    0.000    0.000    0.000    0.000 
#    0.000    0.000    0.000    0.000    0.000    0.000 
#
# Total GULP energy -89366.535149 kJ/mol
# GULP energy per Si atom -5585.408447 kJ/mol
# Density = 2.231592 g / cm^3
# Si number density = 22.366831 Si / 1000 Ang^3
#
#
#
# Elastic Constant Matrix: (Units=GPa)
#
#
# Indices 1 2 3 4 5 6 
#
# 1 70.0940 48.9919 31.1868 6.9196 21.8251 25.3450
# 2 48.9919 145.1216 47.7034 5.8056 18.3762 21.6993
# 3 31.1868 47.7034 106.8461 0.6481 29.6641 12.4267
# 4 6.9196 5.8056 0.6481 41.7782 7.5831 12.3408
# 5 21.8251 18.3762 29.6641 7.5831 23.2576 15.0058
# 6 25.3450 21.6993 12.4267 12.3408 15.0058 33.4302
#
#
#
# Elastic Compliance Matrix: (Units=1/GPa)
#
#
# Indices 1 2 3 4 5 6 
#
# 1 0.026160 -0.005522 -0.000102 0.002131 -0.013773 -0.010816
# 2 -0.005522 0.009815 -0.003452 -0.000334 0.003436 -0.002320
# 3 -0.000102 -0.003452 0.016589 0.002789 -0.022660 0.005293
# 4 0.002131 -0.000334 0.002789 0.027756 -0.008671 -0.008789
# 5 -0.013773 0.003436 -0.022660 -0.008671 0.101546 -0.025745
# 6 -0.010816 -0.002320 0.005293 -0.008789 -0.025745 0.052452
#
#
# Mechanical properties :
#
#
# Convention : Reuss Voigt Hill
#
# Bulk Modulus (GPa) = 29.05979 64.20287 46.63133
# Shear Modulus (GPa) = 18.94362 32.63852 25.79107
#
# Velocity S-wave (km/s) = 2.91340 3.82414 3.39941
# Velocity P-wave (km/s) = 4.93333 6.94734 6.02509
#
# Compressibility (1/GPa) = 0.03441181
#
# Stress axis : x y z
#
# Youngs Moduli (GPa) = 38.22600 101.88488 60.28145
#
# Poissons Ratio (x) = 0.56262 0.00612
# Poissons Ratio (y) = 0.21109 0.20812
# Poissons Ratio (z) = 0.00388 0.35175
#
# Static dielectric constant tensor:
#      x y z
#    x 1.833530 0.028890 -0.009810 
#    y 0.028890 1.919380 0.017530 
#    z -0.009810 0.017530 1.821670 
# 
# From -- ./inp_files/446772.got.cif
#   From: 2010.05.17/outbox.cif.g08.bks.cpg/sg2_224_cif.got.tgz:446772.got - 2010.06.03 11:33:40.
