data_PCOD9020118
_publ_section_title
;
Structure prediction by ZEFSAII (Michael W. Deem and Ramdas Pophale) SiO2 
 PCOD9020118
Probable space group: P -1
;
_chemical_formula_sum "Si O2"
_cell_formula_units_Z 16
_cell_length_a 19.917995
_cell_length_b 7.574518
_cell_length_c 6.276567
_cell_angle_alpha 122.434246
_cell_angle_beta 124.489450
_cell_angle_gamma 57.227355
_cell_volume 619.129261
_symmetry_space_group_name_H-M "P -1"
_symmetry_group_IT_number 2
_symmetry_cell_setting 'triclinic'
loop_
_space_group_symop_operation_xyz
x,y,z
-x,-y,-z
loop_
_atom_site_type_symbol
_atom_site_label
_atom_site_fract_x
_atom_site_fract_y
_atom_site_fract_z
Si Si1 0.348115 0.791081 0.231491
Si Si2 0.775717 0.485777 0.614155
Si Si3 0.949651 0.824891 0.839761
Si Si4 0.624263 0.592251 0.695195
Si Si5 0.844000 0.194960 0.189557
Si Si6 0.644153 0.817611 0.262548
Si Si7 0.506441 0.248855 0.803819
Si Si8 0.112857 0.430906 0.780732
O O1 0.402773 0.552074 0.270917
O O2 0.394820 0.861799 0.163671
O O3 0.345008 0.952743 0.522543
O O4 0.255446 0.783701 0.003705
O O5 0.703764 0.434394 0.596450
O O6 0.845906 0.274913 0.489088
O O7 0.715980 0.644699 0.429420
O O8 0.821223 0.612825 0.932177
O O9 0.892371 0.773557 0.508089
O O10 0.020406 0.576322 0.815502
O O11 0.897034 0.949463 0.034261
O O12 0.000000 0.000000 0.000000
O O13 0.549357 0.733977 0.499796
O O14 0.659161 0.747240 0.002865
O O15 0.865709 0.384583 0.211928
O O16 0.547670 0.830001 0.170118
O O17 0.500000 0.500000 0.000000
#
# Coordination Sequence:
#
# PCOD9020118 Si02
#       8
#     2   2   2   2   2   2   2   2
#     4  12  23  42  67  95 132 177 224 276 328 392
#     4  11  22  43  67  99 138 175 222 279 329 391
#     4   9  22  44  70 100 132 173 214 270 333 403
#     4  11  23  46  65  94 135 180 221 278 337 384
#     4  11  23  42  68  98 136 174 222 273 333 395
#     4  11  25  43  63  97 135 177 228 276 331 390
#     4  11  23  45  67  91 136 177 225 281 333 387
#     4  10  21  46  71  95 137 173 215 272 334 396
#
# _framework density 25.842745000000001
#
# number of rings (size 3 to 8) (size 9 to 14) (size 15 to 20)
#    0.000    1.250    3.750    1.500    3.500    1.000 
#   13.500    5.625    0.000    0.000    0.000    0.000 
#    0.000    0.000    0.000    0.000    0.000    0.000 
#
# Total GULP energy -89430.130862 kJ/mol
# GULP energy per Si atom -5589.383179 kJ/mol
# Density = 2.578393 g / cm^3
# Si number density = 25.842745 Si / 1000 Ang^3
#
#
#
# Elastic Constant Matrix: (Units=GPa)
#
#
# Indices 1 2 3 4 5 6 
#
# 1 118.7652 39.3025 55.8914 2.0201 -7.6283 -13.3635
# 2 39.3025 55.1212 30.2818 16.6748 -9.6307 5.9177
# 3 55.8914 30.2818 183.6421 37.8888 -7.4929 -2.5089
# 4 2.0201 16.6748 37.8888 50.0146 -3.8603 -1.6299
# 5 -7.6283 -9.6307 -7.4929 -3.8603 46.2777 11.7719
# 6 -13.3635 5.9177 -2.5089 -1.6299 11.7719 33.6638
#
#
#
# Elastic Compliance Matrix: (Units=1/GPa)
#
#
# Indices 1 2 3 4 5 6 
#
# 1 0.014860 -0.011742 -0.003873 0.006355 -0.002329 0.008797
# 2 -0.011742 0.032103 0.000570 -0.010528 0.007354 -0.013343
# 3 -0.003873 0.000570 0.007754 -0.005909 0.000642 -0.001570
# 4 0.006355 -0.010528 -0.005909 0.027815 -0.001233 0.005711
# 5 -0.002329 0.007354 0.000642 -0.001233 0.025601 -0.011181
# 6 0.008797 -0.013343 -0.001570 0.005711 -0.011181 0.039613
#
#
# Mechanical properties :
#
#
# Convention : Reuss Voigt Hill
#
# Bulk Modulus (GPa) = 40.60411 67.60888 54.10649
# Shear Modulus (GPa) = 26.87535 41.46139 34.16837
#
# Velocity S-wave (km/s) = 3.22834 4.00981 3.64010
# Velocity P-wave (km/s) = 5.44447 6.90337 6.21686
#
# Compressibility (1/GPa) = 0.02462805
#
# Stress axis : x y z
#
# Youngs Moduli (GPa) = 67.29364 31.14956 128.96657
#
# Poissons Ratio (x) = 0.36576 0.49943
# Poissons Ratio (y) = 0.79016 -0.07349
# Poissons Ratio (z) = 0.26060 -0.01775
#
# Static dielectric constant tensor:
#      x y z
#    x 2.069020 -0.027000 -0.032080 
#    y -0.027000 2.122740 0.000480 
#    z -0.032080 0.000480 2.051670 
# 
# From -- ./inp_files/117546.got.cif
#   From: 2010.05.17/outbox.cif.g08.bks.cpg/sg2_59_cif.got.tgz:117546.got - 2010.06.03 11:33:40.
