data_PCOD9020069
_publ_section_title
;
Structure prediction by ZEFSAII (Michael W. Deem and Ramdas Pophale) SiO2 
 PCOD9020069
Probable space group: P -1
;
_chemical_formula_sum "Si O2"
_cell_formula_units_Z 12
_cell_length_a 5.184800
_cell_length_b 8.834570
_cell_length_c 13.056981
_cell_angle_alpha 67.777894
_cell_angle_beta 104.221278
_cell_angle_gamma 107.053982
_cell_volume 523.142150
_symmetry_space_group_name_H-M "P -1"
_symmetry_group_IT_number 2
_symmetry_cell_setting 'triclinic'
loop_
_space_group_symop_operation_xyz
x,y,z
-x,-y,-z
loop_
_atom_site_type_symbol
_atom_site_label
_atom_site_fract_x
_atom_site_fract_y
_atom_site_fract_z
Si Si1 0.445149 0.930855 0.847935
Si Si2 0.758179 0.420239 0.572088
Si Si3 0.320799 0.287851 0.202866
Si Si4 0.422070 0.976033 0.379900
Si Si5 0.936759 0.495179 0.206584
Si Si6 0.871166 0.158213 0.960324
O O1 0.632010 0.795920 0.879527
O O2 0.375717 0.973695 0.712991
O O3 0.604450 0.102047 0.873939
O O4 0.228615 0.845758 0.931972
O O5 0.500000 0.500000 0.500000
O O6 0.699028 0.219571 0.601371
O O7 0.875727 0.470504 0.683184
O O8 0.000000 0.500000 0.500000
O O9 0.096791 0.392794 0.173905
O O10 0.626564 0.400196 0.226416
O O11 0.252521 0.119927 0.308828
O O12 0.500000 0.000000 0.500000
O O13 0.949093 0.671612 0.108535
O O14 0.000000 0.000000 0.000000
#
# Coordination Sequence:
#
# PCOD9020069 Si02
#       6
#     2   2   2   2   2   2
#     4   9  24  45  67 101 137 184 235 281 359 411
#     4  12  26  44  71 104 138 187 236 289 347 422
#     4  10  26  43  72 102 140 183 232 289 357 405
#     4  10  21  46  69 100 141 182 229 291 353 415
#     4  12  24  46  69 105 141 184 239 290 345 425
#     4  11  25  44  72  99 141 191 236 287 355 415
#
# _framework density 22.938317000000001
#
# number of rings (size 3 to 8) (size 9 to 14) (size 15 to 20)
#    1.000    0.333    1.667    3.000    7.000    4.000 
#    0.000    3.333    0.000    0.000    0.000    0.000 
#    0.000    0.000    0.000    0.000    0.000    0.000 
#
# Total GULP energy -66924.972526 kJ/mol
# GULP energy per Si atom -5577.081044 kJ/mol
# Density = 2.288611 g / cm^3
# Si number density = 22.938317 Si / 1000 Ang^3
#
#
#
# Elastic Constant Matrix: (Units=GPa)
#
#
# Indices 1 2 3 4 5 6 
#
# 1 116.6775 45.7272 50.9325 -6.5416 -7.2769 -4.1152
# 2 45.7272 170.5724 65.3193 -1.6637 1.4114 3.5293
# 3 50.9325 65.3193 163.4717 9.2539 -11.5903 -4.9323
# 4 -6.5416 -1.6637 9.2539 63.3344 -13.1101 1.1997
# 5 -7.2769 1.4114 -11.5903 -13.1101 25.7618 1.4790
# 6 -4.1152 3.5293 -4.9323 1.1997 1.4790 38.5047
#
#
#
# Elastic Compliance Matrix: (Units=1/GPa)
#
#
# Indices 1 2 3 4 5 6 
#
# 1 0.010736 -0.001969 -0.002433 0.002024 0.003028 0.000837
# 2 -0.001969 0.007395 -0.002518 -0.000045 -0.002052 -0.001131
# 3 -0.002433 -0.002518 0.008148 -0.000997 0.002555 0.000947
# 4 0.002024 -0.000045 -0.000997 0.018101 0.009385 -0.000832
# 5 0.003028 -0.002052 0.002555 0.009385 0.045780 -0.001212
# 6 0.000837 -0.001131 0.000947 -0.000832 -0.001212 0.026358
#
#
# Mechanical properties :
#
#
# Convention : Reuss Voigt Hill
#
# Bulk Modulus (GPa) = 80.39900 86.07552 83.23726
# Shear Modulus (GPa) = 37.17361 44.76967 40.97164
#
# Velocity S-wave (km/s) = 4.03002 4.42264 4.23089
# Velocity P-wave (km/s) = 7.53531 7.98035 7.76102
#
# Compressibility (1/GPa) = 0.01243797
#
# Stress axis : x y z
#
# Youngs Moduli (GPa) = 93.14318 135.22950 122.73411
#
# Poissons Ratio (x) = 0.26629 0.29859
# Poissons Ratio (y) = 0.18341 0.30909
# Poissons Ratio (z) = 0.22660 0.34056
#
# Static dielectric constant tensor:
#      x y z
#    x 1.913310 0.087970 0.078190 
#    y 0.087970 1.901200 0.045810 
#    z 0.078190 0.045810 1.849310 
# 
# From -- ./inp_files/478378.got.cif
#   From: 2010.05.17/outbox.cif.g08.bks.cpg/sg2_240_cif.got.tgz:478378.got - 2010.06.03 11:33:40.
