data_PCOD9020170
_publ_section_title
;
Structure prediction by ZEFSAII (Michael W. Deem and Ramdas Pophale) SiO2 
 PCOD9020170
Probable space group: P -1
;
_chemical_formula_sum "Si O2"
_cell_formula_units_Z 16
_cell_length_a 21.711291
_cell_length_b 6.982102
_cell_length_c 10.773351
_cell_angle_alpha 118.786467
_cell_angle_beta 149.410130
_cell_angle_gamma 72.489429
_cell_volume 704.336113
_symmetry_space_group_name_H-M "P -1"
_symmetry_group_IT_number 2
_symmetry_cell_setting 'triclinic'
loop_
_space_group_symop_operation_xyz
x,y,z
-x,-y,-z
loop_
_atom_site_type_symbol
_atom_site_label
_atom_site_fract_x
_atom_site_fract_y
_atom_site_fract_z
Si Si1 0.205126 0.503557 0.515580
Si Si2 0.414345 0.176901 0.428515
Si Si3 0.728503 0.554399 0.891479
Si Si4 0.641603 0.578882 0.011929
Si Si5 0.120041 0.028735 0.130398
Si Si6 0.980062 0.452555 0.303420
Si Si7 0.597805 0.058479 0.074806
Si Si8 0.355865 0.943379 0.487314
O O1 0.301316 0.441384 0.761908
O O2 0.160687 0.301863 0.275844
O O3 0.093591 0.526237 0.423515
O O4 0.285445 0.727041 0.657341
O O5 0.334985 0.250315 0.203233
O O6 0.500000 0.000000 0.500000
O O7 0.321445 0.055170 0.336431
O O8 0.505766 0.409077 0.707847
O O9 0.650167 0.317418 0.623078
O O10 0.718764 0.517538 0.011033
O O11 0.871152 0.571165 0.109691
O O12 0.642514 0.834396 0.067340
O O13 0.243057 0.969279 0.386982
O O14 0.000000 0.000000 0.000000
O O15 0.071376 0.820525 0.885759
O O16 0.000000 0.500000 0.500000
O O17 0.500000 0.000000 0.000000
O O18 0.497185 0.076424 0.800585
#
# Coordination Sequence:
#
# PCOD9020170 Si02
#       8
#     2   2   2   2   2   2   2   2
#     4  11  24  45  71 104 148 196 232 296 367 423
#     4  12  23  38  67 104 141 185 232 294 371 426
#     4  11  23  41  69 105 143 181 233 301 361 435
#     4  12  23  40  66 101 146 180 238 297 356 433
#     4   9  22  42  70 101 138 189 239 285 356 431
#     4  10  21  46  77 108 142 189 245 301 360 436
#     4  12  27  42  66 102 143 190 247 292 352 440
#     4  11  22  41  66 100 141 184 233 292 366 421
#
# _framework density 22.716429000000002
#
# number of rings (size 3 to 8) (size 9 to 14) (size 15 to 20)
#    0.000    1.000    5.000    1.875    1.750    1.000 
#    0.000    5.625    0.000   12.750    0.000    0.000 
#    0.000    0.000    0.000    0.000    0.000    0.000 
#
# Total GULP energy -89204.557545 kJ/mol
# GULP energy per Si atom -5575.284847 kJ/mol
# Density = 2.266472 g / cm^3
# Si number density = 22.716429 Si / 1000 Ang^3
#
#
#
# Elastic Constant Matrix: (Units=GPa)
#
#
# Indices 1 2 3 4 5 6 
#
# 1 92.4292 46.7633 44.5045 13.5102 8.0716 -6.8985
# 2 46.7633 125.0643 54.4133 21.2552 7.9032 -1.6489
# 3 44.5045 54.4133 105.0841 29.8791 15.2906 -5.3151
# 4 13.5102 21.2552 29.8791 40.2685 5.1518 -2.5256
# 5 8.0716 7.9032 15.2906 5.1518 37.3438 1.6166
# 6 -6.8985 -1.6489 -5.3151 -2.5256 1.6166 37.2866
#
#
#
# Elastic Compliance Matrix: (Units=1/GPa)
#
#
# Indices 1 2 3 4 5 6 
#
# 1 0.014926 -0.003699 -0.004284 0.000357 -0.000827 0.002047
# 2 -0.003699 0.011356 -0.003829 -0.002003 0.000278 -0.000876
# 3 -0.004284 -0.003829 0.016197 -0.008009 -0.003833 0.000971
# 4 0.000357 -0.002003 -0.008009 0.031882 -0.000817 0.001031
# 5 -0.000827 0.000278 -0.003833 -0.000817 0.028666 -0.001985
# 6 0.002047 -0.000876 0.000971 0.001031 -0.001985 0.027454
#
#
# Mechanical properties :
#
#
# Convention : Reuss Voigt Hill
#
# Bulk Modulus (GPa) = 53.03427 68.21555 60.62491
# Shear Modulus (GPa) = 31.17412 34.77287 32.97350
#
# Velocity S-wave (km/s) = 3.70850 3.91671 3.81402
# Velocity P-wave (km/s) = 6.46020 7.10975 6.79274
#
# Compressibility (1/GPa) = 0.01885573
#
# Stress axis : x y z
#
# Youngs Moduli (GPa) = 66.99802 88.05840 61.73926
#
# Poissons Ratio (x) = 0.32570 0.26448
# Poissons Ratio (y) = 0.24780 0.23641
# Poissons Ratio (z) = 0.28701 0.33720
#
# Static dielectric constant tensor:
#      x y z
#    x 5.207190 0.679860 -1.443150 
#    y 0.679860 1.991650 -0.357400 
#    z -1.443150 -0.357400 2.595310 
# 
# From -- ./inp_files/411292.got.cif
#   From: 2010.05.17/outbox.cif.g08.bks.cpg/sg2_206_cif.got.tgz:411292.got - 2010.06.03 11:33:40.
