data_PCOD9020876
_publ_section_title
;
Structure prediction by ZEFSAII (Michael W. Deem and Ramdas Pophale) SiO2 
 PCOD9020876
Probable space group: P -1
;
_chemical_formula_sum "Si O2"
_cell_formula_units_Z 14
_cell_length_a 5.205948
_cell_length_b 17.921616
_cell_length_c 16.900536
_cell_angle_alpha 153.975481
_cell_angle_beta 61.575096
_cell_angle_gamma 107.908911
_cell_volume 578.131983
_symmetry_space_group_name_H-M "P -1"
_symmetry_group_IT_number 2
_symmetry_cell_setting 'triclinic'
loop_
_space_group_symop_operation_xyz
x,y,z
-x,-y,-z
loop_
_atom_site_type_symbol
_atom_site_label
_atom_site_fract_x
_atom_site_fract_y
_atom_site_fract_z
Si Si1 0.307896 0.600375 0.365878
Si Si2 0.110623 0.924314 0.498335
Si Si3 0.408005 0.184339 0.346473
Si Si4 0.316476 0.226267 0.074952
Si Si5 0.873188 0.632969 0.238727
Si Si6 0.809068 0.732866 0.170137
Si Si7 0.397336 0.706904 0.740037
O O1 0.434147 0.695953 0.510089
O O2 0.362297 0.390355 0.173499
O O3 0.531985 0.622722 0.284267
O O4 0.951972 0.706660 0.507353
O O5 0.458569 0.806244 0.317857
O O6 0.908614 0.804463 0.441322
O O7 0.108057 0.098051 0.714508
O O8 0.000000 0.000000 0.500000
O O9 0.552691 0.177736 0.231224
O O10 0.487962 0.978723 0.167230
O O11 0.402343 0.269297 0.192271
O O12 0.959703 0.239580 0.133635
O O13 0.975572 0.665811 0.166122
O O14 0.093660 0.448006 0.065540
O O15 0.500000 0.500000 0.500000
#
# Coordination Sequence:
#
# PCOD9020876 Si02
#       7
#     2   2   2   2   2   2   2
#     4  12  26  44  62  97 140 173 212 268 333 392
#     4   9  18  36  61  91 114 148 209 265 305 369
#     4  12  26  44  68  97 134 173 219 271 323 387
#     4  12  24  44  68 100 129 175 220 264 326 387
#     4  10  22  37  61  87 120 168 203 260 321 370
#     4   9  19  39  63  87 117 156 219 259 304 377
#     4  12  21  43  75  94 130 172 221 274 316 374
#
# _framework density 24.215926
#
# number of rings (size 3 to 8) (size 9 to 14) (size 15 to 20)
#    0.000    1.143    2.857    3.429    2.000    1.143 
#    5.143    0.000    0.000    0.000    0.000    0.000 
#    0.000    0.000    0.000    0.000    0.000    0.000 
#
# Total GULP energy -78287.182359 kJ/mol
# GULP energy per Si atom -5591.941597 kJ/mol
# Density = 2.416081 g / cm^3
# Si number density = 24.215926 Si / 1000 Ang^3
#
#
#
# Elastic Constant Matrix: (Units=GPa)
#
#
# Indices 1 2 3 4 5 6 
#
# 1 69.0503 22.4709 21.1706 24.3574 -10.8837 9.1818
# 2 22.4709 107.6627 47.4693 31.4131 2.7110 33.0993
# 3 21.1706 47.4693 171.5788 50.5824 -14.3411 27.2798
# 4 24.3574 31.4131 50.5824 39.4809 -1.3536 14.4126
# 5 -10.8837 2.7110 -14.3411 -1.3536 25.9120 -3.7392
# 6 9.1818 33.0993 27.2798 14.4126 -3.7392 35.2845
#
#
#
# Elastic Compliance Matrix: (Units=1/GPa)
#
#
# Indices 1 2 3 4 5 6 
#
# 1 0.021104 -0.001880 0.003207 -0.015762 0.010202 0.001312
# 2 -0.001880 0.015440 -0.000853 -0.006045 -0.004835 -0.011379
# 3 0.003207 -0.000853 0.010624 -0.014018 0.006316 -0.001853
# 4 -0.015762 -0.006045 -0.014018 0.059172 -0.011343 -0.004762
# 5 0.010202 -0.004835 0.006316 -0.011343 0.047244 0.006637
# 6 0.001312 -0.011379 -0.001853 -0.004762 0.006637 0.042755
#
#
# Mechanical properties :
#
#
# Convention : Reuss Voigt Hill
#
# Bulk Modulus (GPa) = 20.78266 58.94593 39.86429
# Shear Modulus (GPa) = 23.64860 37.28088 30.46474
#
# Velocity S-wave (km/s) = 3.12841 3.92793 3.55074
# Velocity P-wave (km/s) = 4.65297 6.70568 5.77132
#
# Compressibility (1/GPa) = 0.04811704
#
# Stress axis : x y z
#
# Youngs Moduli (GPa) = 47.38337 64.76556 94.13088
#
# Poissons Ratio (x) = 0.12176 -0.30189
# Poissons Ratio (y) = 0.08908 0.08027
# Poissons Ratio (z) = -0.15196 0.05523
#
# Static dielectric constant tensor:
#      x y z
#    x 1.954460 -0.022560 0.052340 
#    y -0.022560 1.927490 0.035510 
#    z 0.052340 0.035510 2.034050 
# 
# From -- ./inp_files/97956.got.cif
#   From: 2010.05.17/outbox.cif.g08.bks.cpg/sg2_49_cif.got.tgz:97956.got - 2010.06.03 11:33:40.
