data_PCOD9020211
_publ_section_title
;
Structure prediction by ZEFSAII (Michael W. Deem and Ramdas Pophale) SiO2 
 PCOD9020211
Probable space group: P -1
;
_chemical_formula_sum "Si O2"
_cell_formula_units_Z 16
_cell_length_a 8.577066
_cell_length_b 12.091293
_cell_length_c 14.599799
_cell_angle_alpha 139.751365
_cell_angle_beta 48.421097
_cell_angle_gamma 129.104362
_cell_volume 707.215992
_symmetry_space_group_name_H-M "P -1"
_symmetry_group_IT_number 2
_symmetry_cell_setting 'triclinic'
loop_
_space_group_symop_operation_xyz
x,y,z
-x,-y,-z
loop_
_atom_site_type_symbol
_atom_site_label
_atom_site_fract_x
_atom_site_fract_y
_atom_site_fract_z
Si Si1 0.551770 0.335282 0.428739
Si Si2 0.235776 0.535473 0.383666
Si Si3 0.789572 0.033816 0.649428
Si Si4 0.113989 0.697244 0.049644
Si Si5 0.293960 0.869881 0.451469
Si Si6 0.397838 0.199833 0.088739
Si Si7 0.019151 0.004713 0.779118
Si Si8 0.209439 0.938715 0.847854
O O1 0.500000 0.500000 0.500000
O O2 0.599506 0.391506 0.551239
O O3 0.753592 0.254858 0.268861
O O4 0.358249 0.158624 0.387115
O O5 0.264240 0.675260 0.379889
O O6 0.288478 0.359237 0.214678
O O7 0.000000 0.500000 0.500000
O O8 0.850669 0.177438 0.795783
O O9 0.683993 0.111639 0.653778
O O10 0.000000 0.000000 0.500000
O O11 0.967673 0.787449 0.099345
O O12 0.354218 0.722918 0.930887
O O13 0.000000 0.500000 0.000000
O O14 0.090785 0.931429 0.611221
O O15 0.500000 0.000000 0.500000
O O16 0.231782 0.084679 0.154682
O O17 0.386879 0.078175 0.926058
O O18 0.177209 0.955761 0.762583
O O19 0.000000 0.000000 0.000000
#
# Coordination Sequence:
#
# PCOD9020211 Si02
#       8
#     2   2   2   2   2   2   2   2
#     4  12  27  46  76 111 146 189 257 305 364 448
#     4  12  25  45  73 113 140 189 254 302 364 443
#     4  12  27  50  72 105 149 200 241 304 377 441
#     4  12  29  48  71 109 149 194 250 303 382 443
#     4  12  24  45  75 103 150 191 247 302 361 447
#     4  11  25  45  74 106 146 188 248 312 374 435
#     4  11  23  47  76 100 146 196 241 306 370 440
#     4  10  21  47  71 107 143 188 241 304 380 428
#
# _framework density 22.623923000000001
#
# number of rings (size 3 to 8) (size 9 to 14) (size 15 to 20)
#    0.000    0.500    6.250    1.125    7.000    3.000 
#    0.000    1.250    0.000    0.000    0.000    0.000 
#    0.000    0.000    0.000    0.000    0.000    0.000 
#
# Total GULP energy -89410.241379 kJ/mol
# GULP energy per Si atom -5588.140086 kJ/mol
# Density = 2.257243 g / cm^3
# Si number density = 22.623923 Si / 1000 Ang^3
#
#
#
# Elastic Constant Matrix: (Units=GPa)
#
#
# Indices 1 2 3 4 5 6 
#
# 1 90.2554 42.2053 29.5409 11.4541 -9.0014 -16.0115
# 2 42.2053 147.9727 49.9922 30.3172 -17.7358 -16.6944
# 3 29.5409 49.9922 122.9690 17.7454 -14.7706 -12.3880
# 4 11.4541 30.3172 17.7454 47.4144 -8.7635 -11.7618
# 5 -9.0014 -17.7358 -14.7706 -8.7635 47.1240 10.5561
# 6 -16.0115 -16.6944 -12.3880 -11.7618 10.5561 46.5416
#
#
#
# Elastic Compliance Matrix: (Units=1/GPa)
#
#
# Indices 1 2 3 4 5 6 
#
# 1 0.013585 -0.002915 -0.001741 0.000056 0.000264 0.003119
# 2 -0.002915 0.009431 -0.002333 -0.004092 0.001410 0.000405
# 3 -0.001741 -0.002333 0.009935 -0.001397 0.001530 0.000509
# 4 0.000056 -0.004092 -0.001397 0.025607 0.001847 0.004232
# 5 0.000264 0.001410 0.001530 0.001847 0.023489 -0.003857
# 6 0.003119 0.000405 0.000509 0.004232 -0.003857 0.024784
#
#
# Mechanical properties :
#
#
# Convention : Reuss Voigt Hill
#
# Bulk Modulus (GPa) = 52.70368 67.18600 59.94484
# Shear Modulus (GPa) = 39.32898 44.17993 41.75446
#
# Velocity S-wave (km/s) = 4.17391 4.42384 4.30069
# Velocity P-wave (km/s) = 6.82458 7.47363 7.15647
#
# Compressibility (1/GPa) = 0.01897401
#
# Stress axis : x y z
#
# Youngs Moduli (GPa) = 73.61128 106.03867 100.64958
#
# Poissons Ratio (x) = 0.30905 0.17521
# Poissons Ratio (y) = 0.21454 0.23483
# Poissons Ratio (z) = 0.12814 0.24741
#
# Static dielectric constant tensor:
#      x y z
#    x 1.884420 0.110810 -0.121130 
#    y 0.110810 1.724970 0.094740 
#    z -0.121130 0.094740 1.774920 
# 
# From -- ./inp_files/500944.got.cif
#   From: 2010.05.17/outbox.cif.g08.bks.cpg/sg2_251_cif.got.tgz:500944.got - 2010.06.03 11:33:40.
