data_PCOD9020258
_publ_section_title
;
Structure prediction by ZEFSAII (Michael W. Deem and Ramdas Pophale) SiO2 
 PCOD9020258
Probable space group: P -1
;
_chemical_formula_sum "Si O2"
_cell_formula_units_Z 16
_cell_length_a 8.746200
_cell_length_b 14.003922
_cell_length_c 6.774802
_cell_angle_alpha 99.533715
_cell_angle_beta 117.309966
_cell_angle_gamma 102.622696
_cell_volume 684.810833
_symmetry_space_group_name_H-M "P -1"
_symmetry_group_IT_number 2
_symmetry_cell_setting 'triclinic'
loop_
_space_group_symop_operation_xyz
x,y,z
-x,-y,-z
loop_
_atom_site_type_symbol
_atom_site_label
_atom_site_fract_x
_atom_site_fract_y
_atom_site_fract_z
Si Si1 0.306738 0.410650 0.813291
Si Si2 0.866091 0.445038 0.076267
Si Si3 0.397954 0.876825 0.372383
Si Si4 0.066275 0.756423 0.844734
Si Si5 0.112955 0.047871 0.880900
Si Si6 0.289702 0.264061 0.114997
Si Si7 0.509484 0.687516 0.397207
Si Si8 0.865923 0.122491 0.451610
O O1 0.338134 0.352988 0.619764
O O2 0.500000 0.500000 0.000000
O O3 0.163782 0.470270 0.767791
O O4 0.273584 0.326297 0.936464
O O5 0.677708 0.381851 0.832236
O O6 0.922978 0.356731 0.180620
O O7 0.000000 0.500000 0.000000
O O8 0.527405 0.806380 0.406267
O O9 0.284977 0.850867 0.500937
O O10 0.500000 0.000000 0.500000
O O11 0.247801 0.835543 0.091852
O O12 0.046950 0.786338 0.618404
O O13 0.893204 0.755641 0.871195
O O14 0.985387 0.088955 0.675422
O O15 0.180182 0.970500 0.764818
O O16 0.287638 0.148569 0.049591
O O17 0.000000 0.000000 0.000000
O O18 0.470059 0.325208 0.363084
#
# Coordination Sequence:
#
# PCOD9020258 Si02
#       8
#     2   2   2   2   2   2   2   2
#     4  10  24  46  72  99 141 184 239 292 367 417
#     4  10  21  48  74  99 139 186 233 303 354 424
#     4  11  26  44  66  99 149 190 233 291 352 428
#     4  11  24  45  71 107 140 184 243 295 359 425
#     4  11  24  42  70 103 141 184 237 290 353 427
#     4  12  24  42  72 103 144 181 236 303 349 429
#     4  10  27  42  70 103 142 179 241 285 364 416
#     4  11  24  42  70 100 141 188 246 284 354 421
#
# _framework density 23.364118000000001
#
# number of rings (size 3 to 8) (size 9 to 14) (size 15 to 20)
#    0.000    1.250    3.750    0.000    7.000    5.500 
#    0.000    1.875    0.000    0.000    0.000    0.000 
#    0.000    0.000    0.000    0.000    0.000    0.000 
#
# Total GULP energy -89369.341796 kJ/mol
# GULP energy per Si atom -5585.583862 kJ/mol
# Density = 2.331094 g / cm^3
# Si number density = 23.364118 Si / 1000 Ang^3
#
#
#
# Elastic Constant Matrix: (Units=GPa)
#
#
# Indices 1 2 3 4 5 6 
#
# 1 48.9365 31.5456 8.2388 14.3596 -18.3955 -13.5216
# 2 31.5456 145.9331 47.4366 8.5291 -13.3237 -9.0361
# 3 8.2388 47.4366 104.5818 2.0903 -12.2536 -2.5361
# 4 14.3596 8.5291 2.0903 34.2592 0.1917 -12.3698
# 5 -18.3955 -13.3237 -12.2536 0.1917 29.9265 -0.0335
# 6 -13.5216 -9.0361 -2.5361 -12.3698 -0.0335 49.1779
#
#
#
# Elastic Compliance Matrix: (Units=1/GPa)
#
#
# Indices 1 2 3 4 5 6 
#
# 1 0.037030 -0.005814 0.002611 -0.012108 0.021328 0.006217
# 2 -0.005814 0.009249 -0.003867 0.000374 -0.001042 -0.000005
# 3 0.002611 -0.003867 0.011682 -0.000714 0.004672 0.000433
# 4 -0.012108 0.000374 -0.000714 0.036369 -0.007795 0.005845
# 5 0.021328 -0.001042 0.004672 -0.007795 0.048029 0.003986
# 6 0.006217 -0.000005 0.000433 0.005845 0.003986 0.023538
#
#
# Mechanical properties :
#
#
# Convention : Reuss Voigt Hill
#
# Bulk Modulus (GPa) = 22.81879 52.65482 37.73680
# Shear Modulus (GPa) = 25.68803 36.82141 31.25472
#
# Velocity S-wave (km/s) = 3.31942 3.97417 3.66146
# Velocity P-wave (km/s) = 4.94764 6.60638 5.83624
#
# Compressibility (1/GPa) = 0.04382353
#
# Stress axis : x y z
#
# Youngs Moduli (GPa) = 27.00478 108.12192 85.59972
#
# Poissons Ratio (x) = 0.62859 -0.22354
# Poissons Ratio (y) = 0.15700 0.33099
# Poissons Ratio (z) = -0.07052 0.41808
#
# Static dielectric constant tensor:
#      x y z
#    x 1.883200 -0.005640 0.048600 
#    y -0.005640 2.005100 0.091500 
#    z 0.048600 0.091500 1.940010 
# 
# From -- ./inp_files/39540.got.cif
#   From: 2010.05.17/outbox.cif.g08.bks.cpg/sg2_20_cif.got.tgz:39540.got - 2010.06.03 11:33:40.
