data_PCOD9020731
_publ_section_title
;
Structure prediction by ZEFSAII (Michael W. Deem and Ramdas Pophale) SiO2 
 PCOD9020731
Probable space group: P -1
;
_chemical_formula_sum "Si O2"
_cell_formula_units_Z 14
_cell_length_a 10.336272
_cell_length_b 24.859318
_cell_length_c 12.157613
_cell_angle_alpha 152.835134
_cell_angle_beta 142.050845
_cell_angle_gamma 22.958608
_cell_volume 548.017977
_symmetry_space_group_name_H-M "P -1"
_symmetry_group_IT_number 2
_symmetry_cell_setting 'triclinic'
loop_
_space_group_symop_operation_xyz
x,y,z
-x,-y,-z
loop_
_atom_site_type_symbol
_atom_site_label
_atom_site_fract_x
_atom_site_fract_y
_atom_site_fract_z
Si Si1 0.944602 0.869297 0.635590
Si Si2 0.506554 0.235500 0.534245
Si Si3 0.313476 0.253509 0.817766
Si Si4 0.439849 0.395098 0.310703
Si Si5 0.530421 0.724578 0.660693
Si Si6 0.714545 0.916169 0.880170
Si Si7 0.772673 0.180557 0.822073
O O1 0.952634 0.725767 0.361253
O O2 0.158787 0.813885 0.784731
O O3 0.155983 0.832696 0.611598
O O4 0.563401 0.076212 0.747698
O O5 0.342137 0.344521 0.505195
O O6 0.571835 0.300362 0.793434
O O7 0.534580 0.107971 0.052844
O O8 0.335165 0.193448 0.397724
O O9 0.535054 0.199820 0.767098
O O10 0.230249 0.407218 0.108538
O O11 0.500000 0.500000 0.500000
O O12 0.313561 0.413998 0.383275
O O13 0.119768 0.969165 0.628100
O O14 0.088148 0.783009 0.932511
O O15 0.500000 0.000000 0.000000
#
# Coordination Sequence:
#
# PCOD9020731 Si02
#       7
#     2   2   2   2   2   2   2
#     4   9  20  33  52  83 105 135 170 218 270 303
#     4   9  16  28  46  73 108 130 160 211 263 307
#     4  11  19  33  54  80 107 136 169 218 269 307
#     4  10  22  37  52  72 108 147 177 211 251 312
#     4   8  16  34  45  73 104 127 171 209 250 305
#     4   8  14  27  43  71 104 131 159 203 258 303
#     4   9  16  27  44  71 103 128 162 199 261 310
#
# _framework density 25.546606000000001
#
# number of rings (size 3 to 8) (size 9 to 14) (size 15 to 20)
#    0.857    2.286    2.857    0.429    0.000    4.000 
#    5.143    0.000    0.000    0.857    0.000   10.000 
#    0.000    0.000    0.000    0.000    0.000    0.000 
#
# Total GULP energy -77964.803290 kJ/mol
# GULP energy per Si atom -5568.914521 kJ/mol
# Density = 2.548846 g / cm^3
# Si number density = 25.546606 Si / 1000 Ang^3
#
#
#
# Elastic Constant Matrix: (Units=GPa)
#
#
# Indices 1 2 3 4 5 6 
#
# 1 139.4683 27.0279 54.8004 -10.5347 17.0195 24.9073
# 2 27.0279 68.5055 26.4403 1.9280 -2.9517 20.7087
# 3 54.8004 26.4403 81.6995 -21.3510 4.3162 17.9035
# 4 -10.5347 1.9280 -21.3510 35.8789 8.3214 4.5478
# 5 17.0195 -2.9517 4.3162 8.3214 38.5212 -4.1519
# 6 24.9073 20.7087 17.9035 4.5478 -4.1519 39.6031
#
#
#
# Elastic Compliance Matrix: (Units=1/GPa)
#
#
# Indices 1 2 3 4 5 6 
#
# 1 0.011119 -0.001228 -0.005161 0.002126 -0.005408 -0.004829
# 2 -0.001228 0.019251 -0.005440 -0.004559 0.002965 -0.006001
# 3 -0.005161 -0.005440 0.022774 0.014153 -0.004424 -0.006294
# 4 0.002126 -0.004559 0.014153 0.041664 -0.013115 -0.011510
# 5 -0.005408 0.002965 -0.004424 -0.013115 0.032854 0.008801
# 6 -0.004829 -0.006001 -0.006294 -0.011510 0.008801 0.036515
#
#
# Mechanical properties :
#
#
# Convention : Reuss Voigt Hill
#
# Bulk Modulus (GPa) = 33.91407 56.24561 45.07984
# Shear Modulus (GPa) = 25.29543 34.89429 30.09486
#
# Velocity S-wave (km/s) = 3.15011 3.69983 3.43598
# Velocity P-wave (km/s) = 5.15122 6.34951 5.78150
#
# Compressibility (1/GPa) = 0.02948628
#
# Stress axis : x y z
#
# Youngs Moduli (GPa) = 89.93715 51.94408 43.90935
#
# Poissons Ratio (x) = 0.06378 0.22663
# Poissons Ratio (y) = 0.11044 0.23886
# Poissons Ratio (z) = 0.46420 0.28257
#
# Static dielectric constant tensor:
#      x y z
#    x 2.027130 -0.003030 0.005270 
#    y -0.003030 2.201320 -0.011090 
#    z 0.005270 -0.011090 2.125890 
# 
# From -- ./inp_files/439431.got.cif
#   From: 2010.05.17/outbox.cif.g08.bks.cpg/sg2_220_cif.got.tgz:439431.got - 2010.06.03 11:33:40.
