data_PCOD9020157
_publ_section_title
;
Structure prediction by ZEFSAII (Michael W. Deem and Ramdas Pophale) SiO2 
 PCOD9020157
Probable space group: P -1
;
_chemical_formula_sum "Si O2"
_cell_formula_units_Z 14
_cell_length_a 11.778118
_cell_length_b 8.098708
_cell_length_c 12.073014
_cell_angle_alpha 101.714248
_cell_angle_beta 99.032446
_cell_angle_gamma 34.782020
_cell_volume 643.164710
_symmetry_space_group_name_H-M "P -1"
_symmetry_group_IT_number 2
_symmetry_cell_setting 'triclinic'
loop_
_space_group_symop_operation_xyz
x,y,z
-x,-y,-z
loop_
_atom_site_type_symbol
_atom_site_label
_atom_site_fract_x
_atom_site_fract_y
_atom_site_fract_z
Si Si1 0.029686 0.865557 0.600073
Si Si2 0.098327 0.727008 0.913664
Si Si3 0.346717 0.500085 0.283970
Si Si4 0.299219 0.298493 0.444824
Si Si5 0.616586 0.449397 0.231998
Si Si6 0.288768 0.284747 0.065631
Si Si7 0.788727 0.870511 0.769632
O O1 0.126619 0.571514 0.538355
O O2 0.209192 0.729482 0.678440
O O3 0.000000 0.000000 0.500000
O O4 0.819649 0.160552 0.666031
O O5 0.286442 0.598427 0.872428
O O6 0.964495 0.794615 0.808815
O O7 0.151241 0.513222 0.976298
O O8 0.000000 0.000000 0.000000
O O9 0.373753 0.359559 0.381461
O O10 0.537220 0.359094 0.237146
O O11 0.278142 0.451926 0.173475
O O12 0.192834 0.291578 0.345666
O O13 0.500000 0.000000 0.500000
O O14 0.418539 0.797435 0.252744
O O15 0.239456 0.185936 0.122829
O O16 0.500000 0.000000 0.000000
#
# Coordination Sequence:
#
# PCOD9020157 Si02
#       7
#     2   2   2   2   2   2   2
#     4  10  22  44  70  98 137 182 234 282 347 417
#     4  12  27  45  72 102 141 190 236 283 351 424
#     4  10  25  44  70 104 137 186 238 283 346 430
#     4  10  21  46  75 103 140 183 231 294 355 406
#     4  12  23  44  68 100 145 178 238 286 341 428
#     4  11  23  46  69 102 143 181 233 293 356 400
#     4  11  24  44  71 106 139 178 240 289 341 423
#
# _framework density 21.767363
#
# number of rings (size 3 to 8) (size 9 to 14) (size 15 to 20)
#    0.000    1.143    2.857    3.000    2.000    3.429 
#   10.286    4.286    0.000    0.000    0.000    0.000 
#    0.000    0.000    0.000    0.000    0.000    0.000 
#
# Total GULP energy -78007.009582 kJ/mol
# GULP energy per Si atom -5571.929256 kJ/mol
# Density = 2.171782 g / cm^3
# Si number density = 21.767363 Si / 1000 Ang^3
#
#
#
# Elastic Constant Matrix: (Units=GPa)
#
#
# Indices 1 2 3 4 5 6 
#
# 1 109.2214 26.0134 23.8091 -0.2266 -17.3137 -12.3884
# 2 26.0134 115.8119 43.1860 -7.8459 0.7765 5.8567
# 3 23.8091 43.1860 70.4646 -12.5441 -9.3598 3.0097
# 4 -0.2266 -7.8459 -12.5441 56.3611 12.2063 -9.2665
# 5 -17.3137 0.7765 -9.3598 12.2063 34.8453 -4.3979
# 6 -12.3884 5.8567 3.0097 -9.2665 -4.3979 25.4875
#
#
#
# Elastic Compliance Matrix: (Units=1/GPa)
#
#
# Indices 1 2 3 4 5 6 
#
# 1 0.012138 -0.002386 -0.002240 -0.001016 0.006787 0.007514
# 2 -0.002386 0.011943 -0.006805 0.000380 -0.003871 -0.003630
# 3 -0.002240 -0.006805 0.020073 0.002714 0.003440 -0.000315
# 4 -0.001016 0.000380 0.002714 0.020674 -0.006330 0.005523
# 5 0.006787 -0.003871 0.003440 -0.006330 0.036275 0.007740
# 6 0.007514 -0.003630 -0.000315 0.005523 0.007740 0.047102
#
#
# Mechanical properties :
#
#
# Convention : Reuss Voigt Hill
#
# Bulk Modulus (GPa) = 46.96306 53.50166 50.23236
# Shear Modulus (GPa) = 28.06395 36.83808 32.45102
#
# Velocity S-wave (km/s) = 3.59453 4.11829 3.86529
# Velocity P-wave (km/s) = 6.23293 6.87357 6.56107
#
# Compressibility (1/GPa) = 0.02129333
#
# Stress axis : x y z
#
# Youngs Moduli (GPa) = 82.38468 83.72760 49.81918
#
# Poissons Ratio (x) = 0.19975 0.11157
# Poissons Ratio (y) = 0.19654 0.33903
# Poissons Ratio (z) = 0.18450 0.56979
#
# Static dielectric constant tensor:
#      x y z
#    x 1.819750 0.076790 0.028190 
#    y 0.076790 1.732170 -0.024920 
#    z 0.028190 -0.024920 1.727420 
# 
# From -- ./inp_files/106529.got.cif
#   From: 2010.05.17/outbox.cif.g08.bks.cpg/sg2_54_cif.got.tgz:106529.got - 2010.06.03 11:33:40.
