data_PCOD9020154
_publ_section_title
;
Structure prediction by ZEFSAII (Michael W. Deem and Ramdas Pophale) SiO2 
 PCOD9020154
Probable space group: P -1
;
_chemical_formula_sum "Si O2"
_cell_formula_units_Z 14
_cell_length_a 9.595077
_cell_length_b 9.159312
_cell_length_c 10.119322
_cell_angle_alpha 83.801973
_cell_angle_beta 135.135193
_cell_angle_gamma 109.367562
_cell_volume 580.972212
_symmetry_space_group_name_H-M "P -1"
_symmetry_group_IT_number 2
_symmetry_cell_setting 'triclinic'
loop_
_space_group_symop_operation_xyz
x,y,z
-x,-y,-z
loop_
_atom_site_type_symbol
_atom_site_label
_atom_site_fract_x
_atom_site_fract_y
_atom_site_fract_z
Si Si1 0.327697 0.005195 0.994655
Si Si2 0.375525 0.088008 0.325876
Si Si3 0.817293 0.525051 0.963087
Si Si4 0.575832 0.442085 0.405665
Si Si5 0.954367 0.317216 0.242053
Si Si6 0.978222 0.835126 0.198364
Si Si7 0.158104 0.676045 0.561686
O O1 0.207615 0.122709 0.861016
O O2 0.406222 0.056827 0.193223
O O3 0.143677 0.831911 0.903035
O O4 0.500000 0.000000 0.000000
O O5 0.458611 0.271089 0.410849
O O6 0.898995 0.240536 0.610932
O O7 0.500000 0.000000 0.500000
O O8 0.136542 0.991610 0.220179
O O9 0.819919 0.425823 0.104678
O O10 0.881383 0.704549 0.033549
O O11 0.593150 0.477985 0.745082
O O12 0.000000 0.500000 0.000000
O O13 0.797610 0.566933 0.599750
O O14 0.638271 0.370179 0.321890
O O15 0.879785 0.240102 0.342431
O O16 0.000000 0.500000 0.500000
#
# Coordination Sequence:
#
# PCOD9020154 Si02
#       7
#     2   2   2   2   2   2   2
#     4  12  29  50  79 120 165 206 266 331 402 472
#     4  12  24  48  82 111 156 212 265 326 403 468
#     4  12  26  46  75 111 152 205 273 319 391 472
#     4  11  24  46  77 109 150 208 260 321 393 467
#     4  11  26  49  74 117 158 195 268 325 391 476
#     4  12  25  49  79 111 162 209 263 333 399 471
#     4  10  21  46  74 110 147 204 259 320 394 470
#
# _framework density 24.097538
#
# number of rings (size 3 to 8) (size 9 to 14) (size 15 to 20)
#    0.000    0.571    5.714    2.143    2.000    4.000 
#    5.143    0.000    0.000    0.000    0.000    0.000 
#    0.000    0.000    0.000    0.000    0.000    0.000 
#
# Total GULP energy -78091.316203 kJ/mol
# GULP energy per Si atom -5577.951157 kJ/mol
# Density = 2.404269 g / cm^3
# Si number density = 24.097538 Si / 1000 Ang^3
#
#
#
# Elastic Constant Matrix: (Units=GPa)
#
#
# Indices 1 2 3 4 5 6 
#
# 1 139.5382 33.6026 43.7626 -7.5731 10.5484 -12.3308
# 2 33.6026 112.1153 70.6275 20.9697 20.2212 -4.8042
# 3 43.7626 70.6275 150.5278 3.0171 10.2610 -10.0457
# 4 -7.5731 20.9697 3.0171 63.0365 -6.4777 3.6114
# 5 10.5484 20.2212 10.2610 -6.4777 34.4239 -10.6041
# 6 -12.3308 -4.8042 -10.0457 3.6114 -10.6041 40.4375
#
#
#
# Elastic Compliance Matrix: (Units=1/GPa)
#
#
# Indices 1 2 3 4 5 6 
#
# 1 0.008306 -0.001691 -0.001516 0.001504 -0.000279 0.001748
# 2 -0.001691 0.016151 -0.006498 -0.006054 -0.008779 -0.001973
# 3 -0.001516 -0.006498 0.010069 0.001618 0.002100 0.001673
# 4 0.001504 -0.006054 0.001618 0.018607 0.006142 0.000090
# 5 -0.000279 -0.008779 0.002100 0.006142 0.037495 0.008678
# 6 0.001748 -0.001973 0.001673 0.000090 0.008678 0.027711
#
#
# Mechanical properties :
#
#
# Convention : Reuss Voigt Hill
#
# Bulk Modulus (GPa) = 66.15380 77.57406 71.86393
# Shear Modulus (GPa) = 35.01679 44.52548 39.77114
#
# Velocity S-wave (km/s) = 3.81613 4.30317 4.06695
# Velocity P-wave (km/s) = 6.85049 7.54661 7.20696
#
# Compressibility (1/GPa) = 0.01511629
#
# Stress axis : x y z
#
# Youngs Moduli (GPa) = 120.39098 61.91586 99.31278
#
# Poissons Ratio (x) = 0.10467 0.15057
# Poissons Ratio (y) = 0.20352 0.64537
# Poissons Ratio (z) = 0.18253 0.40235
#
# Static dielectric constant tensor:
#      x y z
#    x 2.157760 -0.001920 -0.020420 
#    y -0.001920 1.950380 0.048240 
#    z -0.020420 0.048240 2.014920 
# 
# From -- ./inp_files/515702.got.cif
#   From: 2010.05.17/outbox.cif.g08.bks.cpg/sg2_258_cif.got.tgz:515702.got - 2010.06.03 11:33:40.
