data_PCOD9020593
_publ_section_title
;
Structure prediction by ZEFSAII (Michael W. Deem and Ramdas Pophale) SiO2 
 PCOD9020593
Probable space group: P -1
;
_chemical_formula_sum "Si O2"
_cell_formula_units_Z 15
_cell_length_a 12.055996
_cell_length_b 10.722853
_cell_length_c 12.224240
_cell_angle_alpha 101.988426
_cell_angle_beta 144.394733
_cell_angle_gamma 103.038975
_cell_volume 649.078706
_symmetry_space_group_name_H-M "P -1"
_symmetry_group_IT_number 2
_symmetry_cell_setting 'triclinic'
loop_
_space_group_symop_operation_xyz
x,y,z
-x,-y,-z
loop_
_atom_site_type_symbol
_atom_site_label
_atom_site_fract_x
_atom_site_fract_y
_atom_site_fract_z
Si Si1 0.062289 0.459666 0.427673
Si Si2 0.377325 0.803075 0.592986
Si Si3 0.911232 0.072785 0.613998
Si Si4 0.555550 0.545869 0.925980
Si Si5 0.864039 0.879791 0.975380
Si Si6 0.500000 0.500000 0.500000
Si Si7 0.587881 0.275765 0.871104
Si Si8 0.308934 0.673009 0.277065
O O1 0.201751 0.615129 0.478464
O O2 0.284992 0.458354 0.632386
O O3 0.000000 0.500000 0.500000
O O4 0.782293 0.298538 0.117269
O O5 0.258672 0.881997 0.545511
O O6 0.676034 0.903322 0.878361
O O7 0.363488 0.783639 0.447169
O O8 0.724135 0.876186 0.379603
O O9 0.215264 0.241640 0.859725
O O10 0.927965 0.061146 0.755376
O O11 0.661732 0.459060 0.955027
O O12 0.500000 0.500000 0.000000
O O13 0.687298 0.675625 0.764378
O O14 0.000000 0.000000 0.000000
O O15 0.455378 0.607286 0.406934
O O16 0.632149 0.242194 0.778932
O O17 0.000000 0.500000 0.000000
#
# Coordination Sequence:
#
# PCOD9020593 Si02
#       8
#     2   2   2   2   2   1   2   2
#     4  12  24  49  75 100 138 187 241 300 363 425
#     4  11  23  43  68 101 145 193 227 295 353 418
#     4  12  25  45  70 106 149 184 245 299 354 432
#     4  12  25  50  76 100 143 186 239 309 365 429
#     4  11  24  41  63 101 145 190 240 289 351 423
#     4  10  22  36  62  90 132 192 228 278 336 410
#     4  12  27  43  72 109 138 192 240 290 372 427
#     4  11  21  37  64  99 138 184 234 273 351 427
#
# _framework density 23.109677000000001
#
# number of rings (size 3 to 8) (size 9 to 14) (size 15 to 20)
#    0.000    0.533    5.333    3.200    1.867    4.800 
#    0.000    1.333    0.000    0.000    0.000    0.000 
#    0.000    0.000    0.000    0.000    0.000    0.000 
#
# Total GULP energy -83573.096088 kJ/mol
# GULP energy per Si atom -5571.539739 kJ/mol
# Density = 2.305708 g / cm^3
# Si number density = 23.109677 Si / 1000 Ang^3
#
#
#
# Elastic Constant Matrix: (Units=GPa)
#
#
# Indices 1 2 3 4 5 6 
#
# 1 57.8808 6.3640 16.1811 -4.1220 -4.6869 19.0686
# 2 6.3640 61.1528 40.9568 -18.0632 -5.1057 8.1194
# 3 16.1811 40.9568 169.5366 -19.6972 3.2953 10.2590
# 4 -4.1220 -18.0632 -19.6972 38.9346 2.7558 7.0392
# 5 -4.6869 -5.1057 3.2953 2.7558 32.1907 -8.0155
# 6 19.0686 8.1194 10.2590 7.0392 -8.0155 35.6711
#
#
#
# Elastic Compliance Matrix: (Units=1/GPa)
#
#
# Indices 1 2 3 4 5 6 
#
# 1 0.021951 0.001585 -0.001154 0.004773 -0.000007 -0.012706
# 2 0.001585 0.022851 -0.004204 0.009651 0.001886 -0.006320
# 3 -0.001154 -0.004204 0.007395 0.002079 -0.002129 -0.001441
# 4 0.004773 0.009651 0.002079 0.034378 -0.004185 -0.013071
# 5 -0.000007 0.001886 -0.002129 -0.004185 0.034099 0.008675
# 6 -0.012706 -0.006320 -0.001441 -0.013071 0.008675 0.041208
#
#
# Mechanical properties :
#
#
# Convention : Reuss Voigt Hill
#
# Bulk Modulus (GPa) = 22.39720 46.17489 34.28605
# Shear Modulus (GPa) = 27.12796 36.36386 31.74591
#
# Velocity S-wave (km/s) = 3.42991 3.97108 3.71038
# Velocity P-wave (km/s) = 5.03969 6.40704 5.76405
#
# Compressibility (1/GPa) = 0.04464843
#
# Stress axis : x y z
#
# Youngs Moduli (GPa) = 45.55660 43.76214 135.23560
#
# Poissons Ratio (x) = -0.06937 0.15612
# Poissons Ratio (y) = -0.07221 0.56860
# Poissons Ratio (z) = 0.05259 0.18400
#
# Static dielectric constant tensor:
#      x y z
#    x 1.929570 -0.020410 0.011220 
#    y -0.020410 1.782130 0.021940 
#    z 0.011220 0.021940 1.916560 
# 
# From -- ./inp_files/347994.got.cif
#   From: 2010.05.17/outbox.cif.g08.bks.cpg/sg2_174_cif.got.tgz:347994.got - 2010.06.03 11:33:40.
