data_PCOD9020263
_publ_section_title
;
Structure prediction by ZEFSAII (Michael W. Deem and Ramdas Pophale) SiO2 
 PCOD9020263
Probable space group: P -1
;
_chemical_formula_sum "Si O2"
_cell_formula_units_Z 16
_cell_length_a 6.155496
_cell_length_b 24.365406
_cell_length_c 26.153043
_cell_angle_alpha 10.720403
_cell_angle_beta 56.627811
_cell_angle_gamma 56.408848
_cell_volume 607.267641
_symmetry_space_group_name_H-M "P -1"
_symmetry_group_IT_number 2
_symmetry_cell_setting 'triclinic'
loop_
_space_group_symop_operation_xyz
x,y,z
-x,-y,-z
loop_
_atom_site_type_symbol
_atom_site_label
_atom_site_fract_x
_atom_site_fract_y
_atom_site_fract_z
Si Si1 0.390418 0.082202 0.760883
Si Si2 0.135002 0.621909 0.944804
Si Si3 0.085575 0.723781 0.504181
Si Si4 0.640592 0.404173 0.165539
Si Si5 0.475907 0.090274 0.569281
Si Si6 0.045753 0.604686 0.269622
Si Si7 0.040186 0.680938 0.660441
Si Si8 0.257339 0.347979 0.639994
O O1 0.216055 0.342278 0.516529
O O2 0.395103 0.144883 0.764118
O O3 0.238387 0.794154 0.040358
O O4 0.677395 0.072281 0.709585
O O5 0.946351 0.384664 0.161885
O O6 0.140613 0.492255 0.120178
O O7 0.347996 0.648278 0.848532
O O8 0.029465 0.963529 0.654362
O O9 0.055189 0.562225 0.709804
O O10 0.798194 0.881896 0.392071
O O11 0.140542 0.518466 0.636112
O O12 0.490102 0.186648 0.419582
O O13 0.571883 0.748302 0.871493
O O14 0.662711 0.323099 0.355034
O O15 0.884662 0.780399 0.174591
O O16 0.500000 0.500000 0.500000
O O17 0.000000 0.500000 0.500000
#
# Coordination Sequence:
#
# PCOD9020263 Si02
#       8
#     2   2   2   2   2   2   2   2
#     4  11  26  47  73 106 144 190 242 298 360 435
#     4   9  18  37  63  89 122 168 220 284 356 419
#     4  12  26  45  67  98 142 188 236 280 366 420
#     4   9  18  37  63  89 122 168 220 284 356 419
#     4  10  22  38  61  91 128 170 224 283 347 425
#     4  11  26  47  73 106 144 190 242 298 360 435
#     4  10  22  38  61  91 128 170 224 283 347 425
#     4  10  21  48  78 117 155 201 256 324 380 445
#
# _framework density 26.347525999999998
#
# number of rings (size 3 to 8) (size 9 to 14) (size 15 to 20)
#    0.000    1.750    1.250    1.875    0.000   12.000 
#    0.000    6.250    0.000    0.000    0.000    0.000 
#    0.000    0.000    0.000    0.000    0.000    0.000 
#
# Total GULP energy -89368.203668 kJ/mol
# GULP energy per Si atom -5585.512729 kJ/mol
# Density = 2.628756 g / cm^3
# Si number density = 26.347526 Si / 1000 Ang^3
#
#
#
# Elastic Constant Matrix: (Units=GPa)
#
#
# Indices 1 2 3 4 5 6 
#
# 1 79.3480 28.5320 13.0508 9.0265 -28.5111 7.8262
# 2 28.5320 175.1158 5.2435 21.9599 -7.2647 12.9177
# 3 13.0508 5.2435 78.4180 28.2876 -13.0207 -11.4752
# 4 9.0265 21.9599 28.2876 36.5682 -6.1990 -12.5324
# 5 -28.5111 -7.2647 -13.0207 -6.1990 30.8706 2.1337
# 6 7.8262 12.9177 -11.4752 -12.5324 2.1337 87.8670
#
#
#
# Elastic Compliance Matrix: (Units=1/GPa)
#
#
# Indices 1 2 3 4 5 6 
#
# 1 0.020251 -0.002236 -0.000080 -0.001257 0.018036 -0.002103
# 2 -0.002236 0.006752 0.001483 -0.005242 -0.000812 -0.001328
# 3 -0.000080 0.001483 0.018774 -0.014482 0.005282 0.000047
# 4 -0.001257 -0.005242 -0.014482 0.043791 -0.000072 0.005239
# 5 0.018036 -0.000812 0.005282 -0.000072 0.051215 -0.002051
# 6 -0.002103 -0.001328 0.000047 0.005239 -0.002051 0.012567
#
#
# Mechanical properties :
#
#
# Convention : Reuss Voigt Hill
#
# Bulk Modulus (GPa) = 22.67061 47.39273 35.03167
# Shear Modulus (GPa) = 29.46012 50.13151 39.79582
#
# Velocity S-wave (km/s) = 3.34748 4.36673 3.89063
# Velocity P-wave (km/s) = 4.85427 6.59174 5.78857
#
# Compressibility (1/GPa) = 0.04410997
#
# Stress axis : x y z
#
# Youngs Moduli (GPa) = 49.38014 148.10115 53.26388
#
# Poissons Ratio (x) = 0.33118 0.00428
# Poissons Ratio (y) = 0.11042 -0.07897
# Poissons Ratio (z) = 0.00397 -0.21958
#
# Static dielectric constant tensor:
#      x y z
#    x 2.322010 0.048880 0.089460 
#    y 0.048880 2.036890 -0.019800 
#    z 0.089460 -0.019800 1.991920 
# 
# From -- ./inp_files/622053.got.cif
#   From: 2010.05.17/outbox.cif.g08.bks.cpg/sg2_312_cif.got.tgz:622053.got - 2010.06.03 11:33:40.
