data_PCOD9020723
_publ_section_title
;
Structure prediction by ZEFSAII (Michael W. Deem and Ramdas Pophale) SiO2 
 PCOD9020723
Probable space group: P -1
;
_chemical_formula_sum "Si O2"
_cell_formula_units_Z 15
_cell_length_a 9.346000
_cell_length_b 19.851203
_cell_length_c 14.671597
_cell_angle_alpha 160.800061
_cell_angle_beta 50.290390
_cell_angle_gamma 129.127440
_cell_volume 684.515622
_symmetry_space_group_name_H-M "P -1"
_symmetry_group_IT_number 2
_symmetry_cell_setting 'triclinic'
loop_
_space_group_symop_operation_xyz
x,y,z
-x,-y,-z
loop_
_atom_site_type_symbol
_atom_site_label
_atom_site_fract_x
_atom_site_fract_y
_atom_site_fract_z
Si Si1 0.087317 0.791762 0.722595
Si Si2 0.925691 0.590121 0.884142
Si Si3 0.863178 0.780103 0.454353
Si Si4 0.935359 0.878341 0.077163
Si Si5 0.469270 0.004415 0.625644
Si Si6 0.500000 0.500000 0.000000
Si Si7 0.816851 0.307020 0.924915
Si Si8 0.502259 0.746353 0.450086
O O1 0.022933 0.613895 0.449302
O O2 0.313277 0.812490 0.651571
O O3 0.020507 0.749001 0.798162
O O4 0.000000 0.000000 0.000000
O O5 0.740590 0.530061 0.941876
O O6 0.087148 0.692407 0.015031
O O7 0.894445 0.748633 0.019389
O O8 0.811330 0.545922 0.208210
O O9 0.685249 0.837774 0.543484
O O10 0.919526 0.928392 0.705169
O O11 0.043296 0.783029 0.319316
O O12 0.742807 0.956013 0.221091
O O13 0.500000 0.000000 0.500000
O O14 0.501736 0.792421 0.396976
O O15 0.618219 0.172938 0.826335
O O16 0.506562 0.495074 0.873523
#
# Coordination Sequence:
#
# PCOD9020723 Si02
#       8
#     2   2   2   2   2   1   2   2
#     4  11  24  46  70  98 138 185 228 276 334 410
#     4  11  24  43  72  98 139 178 225 286 339 404
#     4  11  25  42  68 100 141 178 220 285 343 409
#     4  12  25  44  69 100 137 180 236 272 339 405
#     4  12  25  39  68 103 135 177 223 285 337 406
#     4  10  22  36  70 100 130 166 226 274 346 388
#     4  11  25  42  65 104 141 174 222 282 355 396
#     4  11  24  41  69  96 137 177 224 276 345 395
#
# _framework density 21.913304
#
# number of rings (size 3 to 8) (size 9 to 14) (size 15 to 20)
#    0.000    0.800    4.000    2.800    7.467    1.600 
#    0.000    0.667    0.000    0.000    0.000    0.000 
#    0.000    0.000    0.000    0.000    0.000    0.000 
#
# Total GULP energy -83781.207187 kJ/mol
# GULP energy per Si atom -5585.413812 kJ/mol
# Density = 2.186343 g / cm^3
# Si number density = 21.913304 Si / 1000 Ang^3
#
#
#
# Elastic Constant Matrix: (Units=GPa)
#
#
# Indices 1 2 3 4 5 6 
#
# 1 150.1647 58.7856 50.7158 -2.5690 20.2496 20.0626
# 2 58.7856 82.6163 42.5641 -8.2179 -0.5864 4.5519
# 3 50.7158 42.5641 125.8368 -9.9755 6.1587 13.0532
# 4 -2.5690 -8.2179 -9.9755 41.1874 3.9470 0.3588
# 5 20.2496 -0.5864 6.1587 3.9470 35.2360 8.6833
# 6 20.0626 4.5519 13.0532 0.3588 8.6833 39.6886
#
#
#
# Elastic Compliance Matrix: (Units=1/GPa)
#
#
# Indices 1 2 3 4 5 6 
#
# 1 0.011043 -0.006981 -0.001548 -0.000538 -0.005370 -0.003093
# 2 -0.006981 0.019231 -0.003915 0.002019 0.004388 0.001633
# 3 -0.001548 -0.003915 0.010271 0.001691 -0.000663 -0.002016
# 4 -0.000538 0.002019 0.001691 0.025323 -0.002755 -0.000142
# 5 -0.005370 0.004388 -0.000663 -0.002755 0.033146 -0.004798
# 6 -0.003093 0.001633 -0.002016 -0.000142 -0.004798 0.028286
#
#
# Mechanical properties :
#
#
# Convention : Reuss Voigt Hill
#
# Bulk Modulus (GPa) = 63.87685 73.63877 68.75781
# Shear Modulus (GPa) = 31.76437 36.99253 34.37845
#
# Velocity S-wave (km/s) = 3.81142 4.11314 3.96515
# Velocity P-wave (km/s) = 6.97010 7.49899 7.23938
#
# Compressibility (1/GPa) = 0.01565512
#
# Stress axis : x y z
#
# Youngs Moduli (GPa) = 90.55122 51.99962 97.36323
#
# Poissons Ratio (x) = 0.36303 0.15075
# Poissons Ratio (y) = 0.63218 0.38120
# Poissons Ratio (z) = 0.14021 0.20359
#
# Static dielectric constant tensor:
#      x y z
#    x 1.841660 -0.044840 -0.020440 
#    y -0.044840 1.840660 0.089120 
#    z -0.020440 0.089120 1.950440 
# 
# From -- ./inp_files/201519.got.cif
#   From: 2010.05.17/outbox.cif.g08.bks.cpg/sg2_101_cif.got.tgz:201519.got - 2010.06.03 11:33:40.
