data_PCOD9020036
_publ_section_title
;
Structure prediction by ZEFSAII (Michael W. Deem and Ramdas Pophale) SiO2 
 PCOD9020036
Probable space group: P -1
;
_chemical_formula_sum "Si O2"
_cell_formula_units_Z 14
_cell_length_a 5.725807
_cell_length_b 12.946180
_cell_length_c 20.438781
_cell_angle_alpha 23.471316
_cell_angle_beta 65.764957
_cell_angle_gamma 62.196076
_cell_volume 533.121154
_symmetry_space_group_name_H-M "P -1"
_symmetry_group_IT_number 2
_symmetry_cell_setting 'triclinic'
loop_
_space_group_symop_operation_xyz
x,y,z
-x,-y,-z
loop_
_atom_site_type_symbol
_atom_site_label
_atom_site_fract_x
_atom_site_fract_y
_atom_site_fract_z
Si Si1 0.639524 0.067875 0.540761
Si Si2 0.812836 0.664361 0.348090
Si Si3 0.195778 0.734018 0.156742
Si Si4 0.407208 0.139254 0.049098
Si Si5 0.885002 0.785976 0.554524
Si Si6 0.989151 0.929443 0.287277
Si Si7 0.576260 0.387305 0.127728
O O1 0.332182 0.192935 0.489981
O O2 0.809650 0.209783 0.484497
O O3 0.763569 0.031050 0.474846
O O4 0.639539 0.776039 0.735108
O O5 0.089054 0.683370 0.270283
O O6 0.784761 0.810057 0.337144
O O7 0.829991 0.348554 0.541257
O O8 0.598457 0.854345 0.215825
O O9 0.129710 0.504547 0.251538
O O10 0.488071 0.767627 0.085785
O O11 0.000000 0.000000 0.000000
O O12 0.126346 0.081638 0.129517
O O13 0.421186 0.378491 0.958326
O O14 0.856575 0.163418 0.217481
O O15 0.500000 0.500000 0.000000
#
# Coordination Sequence:
#
# PCOD9020036 Si02
#       7
#     2   2   2   2   2   2   2
#     4  10  23  42  72  97 139 178 232 285 354 416
#     4  10  23  46  65  97 137 180 234 275 351 430
#     4  10  22  44  68 100 137 175 235 289 354 413
#     4  11  23  45  68 100 134 177 230 296 351 413
#     4  10  21  46  67 102 133 184 227 290 347 423
#     4  11  24  43  70  96 136 184 230 278 353 429
#     4  12  24  43  67 103 136 179 233 298 353 419
#
# _framework density 26.260446000000002
#
# number of rings (size 3 to 8) (size 9 to 14) (size 15 to 20)
#    0.000    1.429    2.857    1.714    0.000    4.000 
#   23.143    0.000    0.000    0.000    0.000    0.000 
#    0.000    0.000    0.000    0.000    0.000    0.000 
#
# Total GULP energy -78076.438340 kJ/mol
# GULP energy per Si atom -5576.888453 kJ/mol
# Density = 2.620068 g / cm^3
# Si number density = 26.260446 Si / 1000 Ang^3
#
#
#
# Elastic Constant Matrix: (Units=GPa)
#
#
# Indices 1 2 3 4 5 6 
#
# 1 104.9202 9.1126 39.6327 -3.2513 -16.9380 0.3382
# 2 9.1126 93.4983 26.5833 -5.2616 -11.9967 1.3232
# 3 39.6327 26.5833 139.9845 -13.1324 -26.4583 -11.3895
# 4 -3.2513 -5.2616 -13.1324 44.0295 -14.7117 -7.3207
# 5 -16.9380 -11.9967 -26.4583 -14.7117 34.8667 -0.2682
# 6 0.3382 1.3232 -11.3895 -7.3207 -0.2682 26.5723
#
#
#
# Elastic Compliance Matrix: (Units=1/GPa)
#
#
# Indices 1 2 3 4 5 6 
#
# 1 0.011130 0.000221 -0.002271 0.001531 0.004400 -0.000660
# 2 0.000221 0.011716 -0.001337 0.002305 0.004093 -0.000483
# 3 -0.002271 -0.001337 0.011287 0.007666 0.010291 0.007149
# 4 0.001531 0.002305 0.007666 0.034971 0.022210 0.013010
# 5 0.004400 0.004093 0.010291 0.022210 0.049490 0.010770
# 6 -0.000660 -0.000483 0.007149 0.013010 0.010770 0.044423
#
#
# Mechanical properties :
#
#
# Convention : Reuss Voigt Hill
#
# Bulk Modulus (GPa) = 36.55297 54.34000 45.44648
# Shear Modulus (GPa) = 27.94706 38.63199 33.28953
#
# Velocity S-wave (km/s) = 3.26579 3.83967 3.56430
# Velocity P-wave (km/s) = 5.30755 6.35571 5.85513
#
# Compressibility (1/GPa) = 0.02735756
#
# Stress axis : x y z
#
# Youngs Moduli (GPa) = 89.84879 85.35618 88.60132
#
# Poissons Ratio (x) = -0.01888 0.20125
# Poissons Ratio (y) = -0.01987 0.11846
# Poissons Ratio (z) = 0.20408 0.11412
#
# Static dielectric constant tensor:
#      x y z
#    x 2.061740 -0.102070 0.052790 
#    y -0.102070 2.077040 0.023430 
#    z 0.052790 0.023430 2.221900 
# 
# From -- ./inp_files/604678.got.cif
#   From: 2010.05.17/outbox.cif.g08.bks.cpg/sg2_303_cif.got.tgz:604678.got - 2010.06.03 11:33:40.
