data_PCOD9020502
_publ_section_title
;
Structure prediction by ZEFSAII (Michael W. Deem and Ramdas Pophale) SiO2 
 PCOD9020502
Probable space group: P -1
;
_chemical_formula_sum "Si O2"
_cell_formula_units_Z 16
_cell_length_a 9.109391
_cell_length_b 5.125426
_cell_length_c 15.925695
_cell_angle_alpha 91.244947
_cell_angle_beta 95.082074
_cell_angle_gamma 78.955270
_cell_volume 726.913023
_symmetry_space_group_name_H-M "P -1"
_symmetry_group_IT_number 2
_symmetry_cell_setting 'triclinic'
loop_
_space_group_symop_operation_xyz
x,y,z
-x,-y,-z
loop_
_atom_site_type_symbol
_atom_site_label
_atom_site_fract_x
_atom_site_fract_y
_atom_site_fract_z
Si Si1 0.141014 0.788957 0.902547
Si Si2 0.376256 0.852677 0.450729
Si Si3 0.200128 0.064418 0.084465
Si Si4 0.342442 0.461387 0.597417
Si Si5 0.350790 0.757907 0.763287
Si Si6 0.515388 0.182064 0.826924
Si Si7 0.890870 0.789108 0.499008
Si Si8 0.632033 0.664285 0.020363
O O1 0.216276 0.864404 0.821815
O O2 0.223129 0.489748 0.923283
O O3 0.963392 0.826997 0.888458
O O4 0.179881 0.934764 0.990974
O O5 0.334079 0.637322 0.512962
O O6 0.481530 0.679661 0.385172
O O7 0.500000 0.000000 0.500000
O O8 0.227546 0.079361 0.432338
O O9 0.306828 0.874475 0.151843
O O10 0.297019 0.281638 0.063994
O O11 0.294821 0.660831 0.672378
O O12 0.230550 0.254260 0.579148
O O13 0.448000 0.485812 0.804595
O O14 0.452793 0.979530 0.761750
O O15 0.448420 0.119003 0.915470
O O16 0.000000 0.500000 0.500000
O O17 0.000000 0.000000 0.500000
O O18 0.500000 0.500000 0.000000
#
# Coordination Sequence:
#
# PCOD9020502 Si02
#       8
#     2   2   2   2   2   2   2   2
#     4  10  22  36  58  86 121 162 210 264 323 371
#     4   9  20  39  69  97 127 168 213 263 307 383
#     4  11  20  37  58  86 120 162 213 270 309 370
#     4  10  22  42  67  96 133 167 216 266 316 395
#     4  11  25  42  61  91 123 174 204 263 323 382
#     4  11  23  38  60  87 124 162 221 256 317 378
#     4  11  21  38  66 101 130 162 206 258 315 378
#     4  11  19  35  59  87 115 161 217 272 306 371
#
# _framework density 22.010885999999999
#
# number of rings (size 3 to 8) (size 9 to 14) (size 15 to 20)
#    0.000    1.500    3.750    2.250    3.500    0.000 
#    0.000    2.500    0.000    0.000    0.000    0.000 
#    0.000    0.000    0.000    0.000    0.000    0.000 
#
# Total GULP energy -89163.291940 kJ/mol
# GULP energy per Si atom -5572.705746 kJ/mol
# Density = 2.196079 g / cm^3
# Si number density = 22.010886 Si / 1000 Ang^3
#
#
#
# Elastic Constant Matrix: (Units=GPa)
#
#
# Indices 1 2 3 4 5 6 
#
# 1 181.1670 59.9236 30.0195 11.2034 -6.6719 -21.1840
# 2 59.9236 94.0855 10.2160 10.9419 -5.1762 -2.5511
# 3 30.0195 10.2160 63.3153 16.5369 -3.7178 5.4885
# 4 11.2034 10.9419 16.5369 32.8896 2.9038 1.9880
# 5 -6.6719 -5.1762 -3.7178 2.9038 20.5810 12.6450
# 6 -21.1840 -2.5511 5.4885 1.9880 12.6450 50.8435
#
#
#
# Elastic Compliance Matrix: (Units=1/GPa)
#
#
# Indices 1 2 3 4 5 6 
#
# 1 0.008072 -0.004804 -0.003652 0.000602 -0.001750 0.003928
# 2 -0.004804 0.014171 0.001514 -0.004077 0.004309 -0.002366
# 3 -0.003652 0.001514 0.020805 -0.010075 0.007558 -0.005177
# 4 0.000602 -0.004077 -0.010075 0.037308 -0.009106 0.001940
# 5 -0.001750 0.004309 0.007558 -0.009106 0.061795 -0.016341
# 6 0.003928 -0.002366 -0.005177 0.001940 -0.016341 0.025733
#
#
# Mechanical properties :
#
#
# Convention : Reuss Voigt Hill
#
# Bulk Modulus (GPa) = 34.28945 59.87622 47.08284
# Shear Modulus (GPa) = 26.11098 36.75670 31.43384
#
# Velocity S-wave (km/s) = 3.44797 4.09091 3.78313
# Velocity P-wave (km/s) = 5.60924 7.04103 6.36552
#
# Compressibility (1/GPa) = 0.02916349
#
# Stress axis : x y z
#
# Youngs Moduli (GPa) = 123.89137 70.56665 48.06469
#
# Poissons Ratio (x) = 0.33901 0.17555
# Poissons Ratio (y) = 0.59518 -0.07278
# Poissons Ratio (z) = 0.45249 -0.10685
#
# Static dielectric constant tensor:
#      x y z
#    x 1.808660 -0.006600 -0.000620 
#    y -0.006600 1.949840 -0.003920 
#    z -0.000620 -0.003920 1.882990 
# 
# From -- ./inp_files/107232.got.cif
#   From: 2010.05.17/outbox.cif.g08.bks.cpg/sg2_54_cif.got.tgz:107232.got - 2010.06.03 11:33:40.
