data_PCOD9020334
_publ_section_title
;
Structure prediction by ZEFSAII (Michael W. Deem and Ramdas Pophale) SiO2 
 PCOD9020334
Probable space group: P -1
;
_chemical_formula_sum "Si O2"
_cell_formula_units_Z 14
_cell_length_a 5.502292
_cell_length_b 27.791479
_cell_length_c 15.797011
_cell_angle_alpha 17.403710
_cell_angle_beta 119.661426
_cell_angle_gamma 116.837611
_cell_volume 625.840112
_symmetry_space_group_name_H-M "P -1"
_symmetry_group_IT_number 2
_symmetry_cell_setting 'triclinic'
loop_
_space_group_symop_operation_xyz
x,y,z
-x,-y,-z
loop_
_atom_site_type_symbol
_atom_site_label
_atom_site_fract_x
_atom_site_fract_y
_atom_site_fract_z
Si Si1 0.106284 0.754096 0.797789
Si Si2 0.412901 0.165731 0.156907
Si Si3 0.159735 0.820786 0.506111
Si Si4 0.197220 0.922516 0.783932
Si Si5 0.397873 0.027764 0.075773
Si Si6 0.374788 0.257680 0.533624
Si Si7 0.629313 0.553484 0.020766
O O1 0.404303 0.713440 0.961527
O O2 0.128569 0.843992 0.560760
O O3 0.921536 0.898600 0.572058
O O4 0.946355 0.596006 0.015506
O O5 0.562139 0.149473 0.118297
O O6 0.075534 0.180077 0.079212
O O7 0.500000 0.000000 0.500000
O O8 0.154025 0.974779 0.185300
O O9 0.929109 0.709132 0.617781
O O10 0.461546 0.726537 0.711342
O O11 0.352391 0.940295 0.870755
O O12 0.476317 0.876023 0.280959
O O13 0.335410 0.177356 0.752183
O O14 0.542255 0.415461 0.300120
O O15 0.500000 0.500000 0.000000
#
# Coordination Sequence:
#
# PCOD9020334 Si02
#       7
#     2   2   2   2   2   2   2
#     4  11  22  34  59  90 120 154 198 251 313 355
#     4  10  22  34  60  91 123 152 203 260 311 356
#     4  12  20  37  60  83 125 157 198 252 297 366
#     4  11  20  39  59  90 122 157 204 258 307 356
#     4  11  22  38  61  84 123 155 205 250 298 364
#     4  11  24  38  55  90 120 163 198 242 307 371
#     4  12  22  38  56  86 126 157 200 245 308 366
#
# _framework density 22.369931000000001
#
# number of rings (size 3 to 8) (size 9 to 14) (size 15 to 20)
#    0.000    0.857    5.714    4.286    2.000    0.000 
#    0.000    0.000    0.000    1.714    0.000    0.000 
#    0.000    0.000    0.000    0.000    0.000    0.000 
#
# Total GULP energy -78146.063817 kJ/mol
# GULP energy per Si atom -5581.861701 kJ/mol
# Density = 2.231902 g / cm^3
# Si number density = 22.369931 Si / 1000 Ang^3
#
#
#
# Elastic Constant Matrix: (Units=GPa)
#
#
# Indices 1 2 3 4 5 6 
#
# 1 99.6433 47.3483 15.3514 -8.2363 -27.4669 10.7909
# 2 47.3483 118.6579 21.1827 -6.1349 -20.6566 23.5109
# 3 15.3514 21.1827 63.7759 0.9829 -31.5936 -2.7862
# 4 -8.2363 -6.1349 0.9829 21.7491 6.2357 -17.2036
# 5 -27.4669 -20.6566 -31.5936 6.2357 31.1547 0.8187
# 6 10.7909 23.5109 -2.7862 -17.2036 0.8187 47.8295
#
#
#
# Elastic Compliance Matrix: (Units=1/GPa)
#
#
# Indices 1 2 3 4 5 6 
#
# 1 0.016246 -0.003957 0.006953 -0.003005 0.019423 -0.002728
# 2 -0.003957 0.012133 -0.000947 -0.004918 0.004763 -0.006977
# 3 0.006953 -0.000947 0.038001 -0.017919 0.047787 -0.006153
# 4 -0.003005 -0.004918 -0.017919 0.081432 -0.041222 0.032047
# 5 0.019423 0.004763 0.047787 -0.041222 0.109633 -0.020643
# 6 -0.002728 -0.006977 -0.006153 0.032047 -0.020643 0.036474
#
#
# Mechanical properties :
#
#
# Convention : Reuss Voigt Hill
#
# Bulk Modulus (GPa) = 14.18890 49.98245 32.08567
# Shear Modulus (GPa) = 15.95842 33.35964 24.65903
#
# Velocity S-wave (km/s) = 2.67383 3.86589 3.32374
# Velocity P-wave (km/s) = 3.98611 6.50530 5.39481
#
# Compressibility (1/GPa) = 0.07047764
#
# Stress axis : x y z
#
# Youngs Moduli (GPa) = 61.55267 82.41942 26.31524
#
# Poissons Ratio (x) = 0.32617 -0.18297
# Poissons Ratio (y) = 0.24359 0.02491
# Poissons Ratio (z) = -0.42797 0.07803
#
# Static dielectric constant tensor:
#      x y z
#    x 1.983850 -0.024150 -0.011990 
#    y -0.024150 1.925090 -0.059990 
#    z -0.011990 -0.059990 1.812060 
# 
# From -- ./inp_files/39928.got.cif
#   From: 2010.05.17/outbox.cif.g08.bks.cpg/sg2_20_cif.got.tgz:39928.got - 2010.06.03 11:33:40.
