data_PCOD9020193
_publ_section_title
;
Structure prediction by ZEFSAII (Michael W. Deem and Ramdas Pophale) SiO2 
 PCOD9020193
Probable space group: P -1
;
_chemical_formula_sum "Si O2"
_cell_formula_units_Z 16
_cell_length_a 14.241575
_cell_length_b 9.873301
_cell_length_c 8.479266
_cell_angle_alpha 73.523573
_cell_angle_beta 44.630258
_cell_angle_gamma 57.063404
_cell_volume 692.108952
_symmetry_space_group_name_H-M "P -1"
_symmetry_group_IT_number 2
_symmetry_cell_setting 'triclinic'
loop_
_space_group_symop_operation_xyz
x,y,z
-x,-y,-z
loop_
_atom_site_type_symbol
_atom_site_label
_atom_site_fract_x
_atom_site_fract_y
_atom_site_fract_z
Si Si1 0.178136 0.029677 0.186515
Si Si2 0.283480 0.662409 0.127352
Si Si3 0.922253 0.122657 0.199952
Si Si4 0.148562 0.512307 0.876005
Si Si5 0.239991 0.059475 0.454222
Si Si6 0.411065 0.399724 0.338876
Si Si7 0.966551 0.396185 0.699954
Si Si8 0.521826 0.030567 0.283260
O O1 0.180117 0.095592 0.334500
O O2 0.026020 0.085985 0.245749
O O3 0.249206 0.834767 0.180042
O O4 0.296205 0.062226 0.935493
O O5 0.324151 0.536009 0.263618
O O6 0.131519 0.681156 0.224744
O O7 0.423062 0.606406 0.851077
O O8 0.883541 0.302446 0.143242
O O9 0.785491 0.087695 0.413011
O O10 0.000000 0.000000 0.000000
O O11 0.301151 0.425991 0.611738
O O12 0.145193 0.476461 0.075945
O O13 0.000000 0.500000 0.000000
O O14 0.417861 0.997432 0.298451
O O15 0.129059 0.236024 0.613986
O O16 0.457699 0.222707 0.276829
O O17 0.000000 0.500000 0.500000
O O18 0.500000 0.000000 0.500000
#
# Coordination Sequence:
#
# PCOD9020193 Si02
#       8
#     2   2   2   2   2   2   2   2
#     4  11  24  41  71  99 135 183 229 287 349 421
#     4  10  21  47  67  99 136 183 227 290 352 421
#     4  12  24  44  70 102 141 181 231 288 349 411
#     4  12  26  43  69 102 139 181 235 289 346 422
#     4  12  24  42  68 102 136 180 239 285 346 421
#     4  10  24  43  71  95 140 183 233 286 356 415
#     4  12  26  41  67  99 141 181 234 289 352 410
#     4  11  25  44  67  98 140 183 231 295 352 413
#
# _framework density 23.117747999999999
#
# number of rings (size 3 to 8) (size 9 to 14) (size 15 to 20)
#    0.000    0.750    2.500    4.500    5.250    1.500 
#    0.000    5.000    0.000    0.000    0.000    0.000 
#    0.000    0.000    0.000    0.000    0.000    0.000 
#
# Total GULP energy -89364.796585 kJ/mol
# GULP energy per Si atom -5585.299787 kJ/mol
# Density = 2.306513 g / cm^3
# Si number density = 23.117748 Si / 1000 Ang^3
#
#
#
# Elastic Constant Matrix: (Units=GPa)
#
#
# Indices 1 2 3 4 5 6 
#
# 1 72.3566 11.1425 22.7517 -8.7563 -8.7664 20.3453
# 2 11.1425 61.2217 16.5000 -17.8031 -7.9666 8.2556
# 3 22.7517 16.5000 158.5542 -17.9060 -0.5740 19.9487
# 4 -8.7563 -17.8031 -17.9060 38.0406 5.1979 2.3284
# 5 -8.7664 -7.9666 -0.5740 5.1979 39.6423 -4.6469
# 6 20.3453 8.2556 19.9487 2.3284 -4.6469 32.0986
#
#
#
# Elastic Compliance Matrix: (Units=1/GPa)
#
#
# Indices 1 2 3 4 5 6 
#
# 1 0.017862 -0.000134 -0.000717 0.004086 0.002107 -0.010833
# 2 -0.000134 0.020132 -0.000368 0.009238 0.002188 -0.005217
# 3 -0.000717 -0.000368 0.007412 0.003579 -0.001119 -0.004479
# 4 0.004086 0.009238 0.003579 0.034245 -0.002861 -0.010088
# 5 0.002107 0.002188 -0.001119 -0.002861 0.026829 0.002889
# 6 -0.010833 -0.005217 -0.004479 -0.010088 0.002889 0.043296
#
#
# Mechanical properties :
#
#
# Convention : Reuss Voigt Hill
#
# Bulk Modulus (GPa) = 23.27347 43.65789 33.46568
# Shear Modulus (GPa) = 30.02320 38.07217 34.04768
#
# Velocity S-wave (km/s) = 3.60767 4.06258 3.84186
# Velocity P-wave (km/s) = 5.23860 6.39782 5.84701
#
# Compressibility (1/GPa) = 0.04296738
#
# Stress axis : x y z
#
# Youngs Moduli (GPa) = 55.98323 49.67097 134.92036
#
# Poissons Ratio (x) = 0.00668 0.09675
# Poissons Ratio (y) = 0.00753 0.04967
# Poissons Ratio (z) = 0.04015 0.01829
#
# Static dielectric constant tensor:
#      x y z
#    x 1.967260 0.015260 0.067800 
#    y 0.015260 1.930310 0.039400 
#    z 0.067800 0.039400 2.003830 
# 
# From -- ./inp_files/298104.got.cif
#   From: 2010.05.17/outbox.cif.g08.bks.cpg/sg2_150_cif.got.tgz:298104.got - 2010.06.03 11:33:40.
