data_PCOD9020532
_publ_section_title
;
Structure prediction by ZEFSAII (Michael W. Deem and Ramdas Pophale) SiO2 
 PCOD9020532
Probable space group: P -1
;
_chemical_formula_sum "Si O2"
_cell_formula_units_Z 14
_cell_length_a 15.068825
_cell_length_b 8.972203
_cell_length_c 8.942939
_cell_angle_alpha 116.797371
_cell_angle_beta 40.756407
_cell_angle_gamma 96.183599
_cell_volume 645.387098
_symmetry_space_group_name_H-M "P -1"
_symmetry_group_IT_number 2
_symmetry_cell_setting 'triclinic'
loop_
_space_group_symop_operation_xyz
x,y,z
-x,-y,-z
loop_
_atom_site_type_symbol
_atom_site_label
_atom_site_fract_x
_atom_site_fract_y
_atom_site_fract_z
Si Si1 0.692595 0.856624 0.870850
Si Si2 0.679164 0.940821 0.260814
Si Si3 0.763348 0.226334 0.461339
Si Si4 0.863770 0.462324 0.594338
Si Si5 0.599123 0.491565 0.537468
Si Si6 0.689655 0.568158 0.166208
Si Si7 0.403218 0.858767 0.103084
O O1 0.775298 0.639425 0.683450
O O2 0.717493 0.968707 0.751123
O O3 0.518615 0.904766 0.080239
O O4 0.723512 0.923415 0.021710
O O5 0.753262 0.059864 0.305002
O O6 0.500000 0.000000 0.500000
O O7 0.722326 0.748291 0.202927
O O8 0.897236 0.275407 0.376278
O O9 0.675558 0.398046 0.548009
O O10 0.672697 0.227494 0.725246
O O11 0.000000 0.500000 0.500000
O O12 0.768190 0.469541 0.869635
O O13 0.718297 0.467958 0.244021
O O14 0.484562 0.397056 0.606871
O O15 0.500861 0.704943 0.790802
#
# Coordination Sequence:
#
# PCOD9020532 Si02
#       7
#     2   2   2   2   2   2   2
#     4  10  22  36  59  90 125 157 189 250 314 363
#     4  11  19  33  54  94 130 147 183 250 329 364
#     4  12  22  34  60  91 121 160 201 247 302 358
#     4  11  24  46  62  80 119 173 216 241 278 359
#     4  11  20  34  61  97 126 147 194 253 321 361
#     4  10  22  36  59  90 125 157 189 250 314 363
#     4  11  20  34  61  97 126 147 194 253 321 361
#
# _framework density 21.692405999999998
#
# number of rings (size 3 to 8) (size 9 to 14) (size 15 to 20)
#    0.000    1.143    5.714    2.143    4.000    0.000 
#    0.000    4.286    0.000    0.000    0.000    0.000 
#    0.000    0.000    0.000    0.000    0.000    0.000 
#
# Total GULP energy -77945.645819 kJ/mol
# GULP energy per Si atom -5567.546130 kJ/mol
# Density = 2.164303 g / cm^3
# Si number density = 21.692406 Si / 1000 Ang^3
#
#
#
# Elastic Constant Matrix: (Units=GPa)
#
#
# Indices 1 2 3 4 5 6 
#
# 1 121.6426 91.4946 29.6512 -6.4766 21.0175 30.8794
# 2 91.4946 125.8234 44.7493 -12.1946 29.1884 12.5733
# 3 29.6512 44.7493 26.1141 -2.4137 10.6921 -6.9044
# 4 -6.4766 -12.1946 -2.4137 25.6344 3.6208 24.1058
# 5 21.0175 29.1884 10.6921 3.6208 17.8997 0.8341
# 6 30.8794 12.5733 -6.9044 24.1058 0.8341 64.2010
#
#
#
# Elastic Compliance Matrix: (Units=1/GPa)
#
#
# Indices 1 2 3 4 5 6 
#
# 1 0.029445 0.012645 -0.046151 0.052740 -0.036387 -0.040932
# 2 0.012645 0.119638 -0.179355 0.163852 -0.130885 -0.108622
# 3 -0.046151 -0.179355 0.348760 -0.273822 0.184623 0.195244
# 4 0.052740 0.163852 -0.273822 0.332348 -0.223051 -0.208794
# 5 -0.036387 -0.130885 0.184623 -0.223051 0.240167 0.143619
# 6 -0.040932 -0.108622 0.195244 -0.208794 0.143619 0.154065
#
#
# Mechanical properties :
#
#
# Convention : Reuss Voigt Hill
#
# Bulk Modulus (GPa) = 13.86558 67.26337 40.56447
# Shear Modulus (GPa) = 2.98653 28.72604 15.85628
#
# Velocity S-wave (km/s) = 1.17463 3.64296 2.70656
# Velocity P-wave (km/s) = 2.87149 6.98355 5.33926
#
# Compressibility (1/GPa) = 0.07212101
#
# Stress axis : x y z
#
# Youngs Moduli (GPa) = 33.96132 8.35856 2.86730
#
# Poissons Ratio (x) = -0.10569 0.13233
# Poissons Ratio (y) = -0.42943 0.51426
# Poissons Ratio (z) = 1.56734 1.49915
#
# Static dielectric constant tensor:
#      x y z
#    x 1.854290 0.016390 0.033470 
#    y 0.016390 1.874880 0.009530 
#    z 0.033470 0.009530 1.822290 
# 
# From -- ./inp_files/168023.got.cif
#   From: 2010.05.17/outbox.cif.g08.bks.cpg/sg2_85_cif.got.tgz:168023.got - 2010.06.03 11:33:40.
