data_PCOD9020203
_publ_section_title
;
Structure prediction by ZEFSAII (Michael W. Deem and Ramdas Pophale) SiO2 
 PCOD9020203
Probable space group: P -1
;
_chemical_formula_sum "Si O2"
_cell_formula_units_Z 14
_cell_length_a 10.797837
_cell_length_b 11.554089
_cell_length_c 6.243401
_cell_angle_alpha 86.776719
_cell_angle_beta 73.941154
_cell_angle_gamma 51.340273
_cell_volume 577.405040
_symmetry_space_group_name_H-M "P -1"
_symmetry_group_IT_number 2
_symmetry_cell_setting 'triclinic'
loop_
_space_group_symop_operation_xyz
x,y,z
-x,-y,-z
loop_
_atom_site_type_symbol
_atom_site_label
_atom_site_fract_x
_atom_site_fract_y
_atom_site_fract_z
Si Si1 0.012692 0.161614 0.927576
Si Si2 0.239483 0.444054 0.368508
Si Si3 0.490454 0.692824 0.419438
Si Si4 0.103440 0.265495 0.512372
Si Si5 0.449579 0.977647 0.273444
Si Si6 0.665913 0.451336 0.033785
Si Si7 0.111004 0.890023 0.647702
O O1 0.815167 0.275580 0.950507
O O2 0.087607 0.230810 0.770503
O O3 0.990919 0.155148 0.188283
O O4 0.112258 0.996260 0.803884
O O5 0.423557 0.342156 0.389264
O O6 0.173453 0.354370 0.450375
O O7 0.265937 0.469577 0.112329
O O8 0.086900 0.615905 0.495286
O O9 0.300254 0.760470 0.507454
O O10 0.497169 0.814525 0.286201
O O11 0.607763 0.526925 0.282447
O O12 0.249559 0.105147 0.359579
O O13 0.500000 0.000000 0.500000
O O14 0.500000 0.000000 0.000000
O O15 0.500000 0.500000 0.000000
O O16 0.000000 0.000000 0.500000
#
# Coordination Sequence:
#
# PCOD9020203 Si02
#       7
#     2   2   2   2   2   2   2
#     4  10  23  43  64  97 137 189 243 297 382 444
#     4  10  23  44  71 103 145 185 253 297 385 458
#     4  12  25  43  72 108 141 193 256 314 372 459
#     4  10  21  47  70 105 145 196 235 314 378 460
#     4  12  26  48  77 114 154 201 255 318 391 462
#     4  11  24  44  69  99 144 193 246 313 380 450
#     4  11  24  42  66  99 140 192 250 310 374 455
#
# _framework density 24.246411999999999
#
# number of rings (size 3 to 8) (size 9 to 14) (size 15 to 20)
#    0.000    1.143    2.857    2.571    0.000    6.857 
#    5.143    4.286    0.000    0.000    0.000    0.000 
#    0.000    0.000    0.000    0.000    0.000    0.000 
#
# Total GULP energy -77967.203530 kJ/mol
# GULP energy per Si atom -5569.085966 kJ/mol
# Density = 2.419123 g / cm^3
# Si number density = 24.246412 Si / 1000 Ang^3
#
#
#
# Elastic Constant Matrix: (Units=GPa)
#
#
# Indices 1 2 3 4 5 6 
#
# 1 73.4793 21.8484 44.8616 -8.5325 -14.0155 -18.7631
# 2 21.8484 118.3081 40.7703 -7.2217 -13.8244 -15.1573
# 3 44.8616 40.7703 124.0832 -22.4898 -37.5286 -1.1761
# 4 -8.5325 -7.2217 -22.4898 47.5489 4.9682 -7.0044
# 5 -14.0155 -13.8244 -37.5286 4.9682 33.9357 0.3536
# 6 -18.7631 -15.1573 -1.1761 -7.0044 0.3536 53.6732
#
#
#
# Elastic Compliance Matrix: (Units=1/GPa)
#
#
# Indices 1 2 3 4 5 6 
#
# 1 0.019705 -0.000372 -0.006552 0.001334 0.000475 0.006811
# 2 -0.000372 0.009942 -0.002822 0.000430 0.000685 0.002667
# 3 -0.006552 -0.002822 0.016175 0.004311 0.013425 -0.002259
# 4 0.001334 0.000430 0.004311 0.023722 0.001981 0.003765
# 5 0.000475 0.000685 0.013425 0.001981 0.044492 0.000619
# 6 0.006811 0.002667 -0.002259 0.003765 0.000619 0.022203
#
#
# Mechanical properties :
#
#
# Convention : Reuss Voigt Hill
#
# Bulk Modulus (GPa) = 37.97834 58.98126 48.47980
# Shear Modulus (GPa) = 30.39380 40.92425 35.65903
#
# Velocity S-wave (km/s) = 3.54437 4.11280 3.83912
# Velocity P-wave (km/s) = 5.69628 6.85070 6.29999
#
# Compressibility (1/GPa) = 0.02633080
#
# Stress axis : x y z
#
# Youngs Moduli (GPa) = 50.74938 100.58768 61.82232
#
# Poissons Ratio (x) = 0.03737 0.40507
# Poissons Ratio (y) = 0.01885 0.17445
# Poissons Ratio (z) = 0.33252 0.28383
#
# Static dielectric constant tensor:
#      x y z
#    x 2.398880 -0.127900 0.457090 
#    y -0.127900 2.049400 -0.198440 
#    z 0.457090 -0.198440 2.445430 
# 
# From -- ./inp_files/68148.got.cif
#   From: 2010.05.17/outbox.cif.g08.bks.cpg/sg2_35_cif.got.tgz:68148.got - 2010.06.03 11:33:40.
