data_PCOD9020131
_publ_section_title
;
Structure prediction by ZEFSAII (Michael W. Deem and Ramdas Pophale) SiO2 
 PCOD9020131
Probable space group: P -1
;
_chemical_formula_sum "Si O2"
_cell_formula_units_Z 16
_cell_length_a 12.283777
_cell_length_b 6.051848
_cell_length_c 10.949493
_cell_angle_alpha 65.117012
_cell_angle_beta 72.589192
_cell_angle_gamma 70.781134
_cell_volume 684.882588
_symmetry_space_group_name_H-M "P -1"
_symmetry_group_IT_number 2
_symmetry_cell_setting 'triclinic'
loop_
_space_group_symop_operation_xyz
x,y,z
-x,-y,-z
loop_
_atom_site_type_symbol
_atom_site_label
_atom_site_fract_x
_atom_site_fract_y
_atom_site_fract_z
Si Si1 0.279770 0.412328 0.678683
Si Si2 0.549631 0.198251 0.028598
Si Si3 0.077696 0.311831 0.921900
Si Si4 0.890138 0.061279 0.432916
Si Si5 0.316667 0.168264 0.466594
Si Si6 0.519862 0.148936 0.681010
Si Si7 0.044239 0.873640 0.201461
Si Si8 0.293962 0.700645 0.245841
O O1 0.205269 0.348002 0.832748
O O2 0.199234 0.667924 0.593582
O O3 0.299340 0.218916 0.604173
O O4 0.415616 0.398747 0.667884
O O5 0.539926 0.060096 0.190577
O O6 0.500000 0.500000 0.000000
O O7 0.668662 0.216426 0.917856
O O8 0.500000 0.000000 0.000000
O O9 0.007127 0.322484 0.815120
O O10 0.000000 0.500000 0.000000
O O11 0.084942 0.048441 0.046601
O O12 0.807841 0.872089 0.526998
O O13 0.000000 0.000000 0.500000
O O14 0.941535 0.027165 0.286188
O O15 0.336724 0.410466 0.333167
O O16 0.422331 0.938405 0.447425
O O17 0.634245 0.166352 0.716388
O O18 0.153905 0.766819 0.276923
#
# Coordination Sequence:
#
# PCOD9020131 Si02
#       8
#     2   2   2   2   2   2   2   2
#     4  12  26  46  71 106 145 188 248 303 374 457
#     4  10  21  46  72 106 149 193 251 309 374 459
#     4  11  24  47  73 103 138 189 238 313 369 436
#     4  12  27  46  73 105 146 192 247 307 378 450
#     4  12  25  44  70 102 146 193 242 304 371 451
#     4  11  25  46  72 106 148 195 244 303 384 445
#     4  11  24  46  72 105 140 183 252 300 380 444
#     4  11  25  45  72 107 145 191 246 308 376 457
#
# _framework density 23.361668000000002
#
# number of rings (size 3 to 8) (size 9 to 14) (size 15 to 20)
#    0.000    0.750    3.750    3.375    1.750    5.000 
#    4.500    0.000    0.000    0.000    0.000    0.000 
#    0.000    0.000    0.000    0.000    0.000    0.000 
#
# Total GULP energy -89267.719424 kJ/mol
# GULP energy per Si atom -5579.232464 kJ/mol
# Density = 2.330850 g / cm^3
# Si number density = 23.361668 Si / 1000 Ang^3
#
#
#
# Elastic Constant Matrix: (Units=GPa)
#
#
# Indices 1 2 3 4 5 6 
#
# 1 105.9283 39.2917 30.2038 23.2002 5.6868 -15.1925
# 2 39.2917 106.3397 45.6831 17.9449 -2.1488 -17.2868
# 3 30.2038 45.6831 114.3935 13.4245 -19.4232 -4.2486
# 4 23.2002 17.9449 13.4245 54.3971 -2.3979 -10.6540
# 5 5.6868 -2.1488 -19.4232 -2.3979 39.6646 1.5213
# 6 -15.1925 -17.2868 -4.2486 -10.6540 1.5213 33.1731
#
#
#
# Elastic Compliance Matrix: (Units=1/GPa)
#
#
# Indices 1 2 3 4 5 6 
#
# 1 0.012434 -0.002590 -0.002306 -0.003420 -0.003378 0.003106
# 2 -0.002590 0.013273 -0.004524 -0.001278 -0.001386 0.004804
# 3 -0.002306 -0.004524 0.012191 -0.000727 0.006102 -0.002365
# 4 -0.003420 -0.001278 -0.000727 0.021374 0.001185 0.004485
# 5 -0.003378 -0.001386 0.006102 0.001185 0.028773 -0.002427
# 6 0.003106 0.004804 -0.002365 0.004485 -0.002427 0.035320
#
#
# Mechanical properties :
#
#
# Convention : Reuss Voigt Hill
#
# Bulk Modulus (GPa) = 52.46824 61.89097 57.17960
# Shear Modulus (GPa) = 33.65737 39.54582 36.60159
#
# Velocity S-wave (km/s) = 3.79979 4.11879 3.96250
# Velocity P-wave (km/s) = 6.46212 7.01208 6.74271
#
# Compressibility (1/GPa) = 0.01905915
#
# Stress axis : x y z
#
# Youngs Moduli (GPa) = 80.42188 75.34233 82.03095
#
# Poissons Ratio (x) = 0.19515 0.18913
# Poissons Ratio (y) = 0.20830 0.37108
# Poissons Ratio (z) = 0.18542 0.34082
#
# Static dielectric constant tensor:
#      x y z
#    x 1.963740 0.038630 0.043270 
#    y 0.038630 1.947310 0.003830 
#    z 0.043270 0.003830 1.877240 
# 
# From -- ./inp_files/410024.got.cif
#   From: 2010.05.17/outbox.cif.g08.bks.cpg/sg2_206_cif.got.tgz:410024.got - 2010.06.03 11:33:40.
