data_PCOD9020155
_publ_section_title
;
Structure prediction by ZEFSAII (Michael W. Deem and Ramdas Pophale) SiO2 
 PCOD9020155
Probable space group: P -1
;
_chemical_formula_sum "Si O2"
_cell_formula_units_Z 16
_cell_length_a 15.265732
_cell_length_b 14.838034
_cell_length_c 16.008050
_cell_angle_alpha 25.953730
_cell_angle_beta 152.911467
_cell_angle_gamma 134.457408
_cell_volume 624.783577
_symmetry_space_group_name_H-M "P -1"
_symmetry_group_IT_number 2
_symmetry_cell_setting 'triclinic'
loop_
_space_group_symop_operation_xyz
x,y,z
-x,-y,-z
loop_
_atom_site_type_symbol
_atom_site_label
_atom_site_fract_x
_atom_site_fract_y
_atom_site_fract_z
Si Si1 0.148629 0.523199 0.822988
Si Si2 0.960779 0.029617 0.539291
Si Si3 0.478169 0.059708 0.223294
Si Si4 0.701542 0.543197 0.405384
Si Si5 0.247623 0.294446 0.363943
Si Si6 0.657460 0.152583 0.589249
Si Si7 0.724032 0.245042 0.392218
Si Si8 0.535270 0.222476 0.822767
O O1 0.115444 0.682173 0.579225
O O2 0.947186 0.474626 0.702219
O O3 0.393378 0.293382 0.222419
O O4 0.134107 0.703452 0.732975
O O5 0.796960 0.927502 0.495433
O O6 0.214095 0.873481 0.915955
O O7 0.000000 0.000000 0.500000
O O8 0.653727 0.106530 0.383206
O O9 0.596390 0.786297 0.517458
O O10 0.306565 0.070752 0.139330
O O11 0.367986 0.246868 0.898025
O O12 0.699431 0.331586 0.530829
O O13 0.543446 0.628275 0.282609
O O14 0.379888 0.328970 0.522204
O O15 0.000000 0.500000 0.000000
O O16 0.785005 0.117231 0.639634
O O17 0.500000 0.500000 0.000000
O O18 0.500000 0.000000 0.000000
#
# Coordination Sequence:
#
# PCOD9020155 Si02
#       8
#     2   2   2   2   2   2   2   2
#     4  11  22  42  71  96 134 185 227 274 346 410
#     4  12  21  39  70  92 133 188 223 271 343 401
#     4  12  23  46  72 101 138 178 232 285 341 409
#     4  12  24  46  68 101 141 180 228 281 343 411
#     4  12  27  42  64 103 140 178 228 281 340 413
#     4  11  26  45  70 100 136 179 226 293 344 397
#     4  10  21  46  74  96 133 184 229 284 348 399
#     4  12  23  41  66  97 135 183 228 273 337 413
#
# _framework density 25.608865999999999
#
# number of rings (size 3 to 8) (size 9 to 14) (size 15 to 20)
#    0.000    0.500    7.500    1.125    5.250    1.000 
#    4.500    0.625    0.000    0.000    0.000    0.000 
#    0.000    0.000    0.000    0.000    0.000    0.000 
#
# Total GULP energy -89509.298729 kJ/mol
# GULP energy per Si atom -5594.331171 kJ/mol
# Density = 2.555058 g / cm^3
# Si number density = 25.608866 Si / 1000 Ang^3
#
#
#
# Elastic Constant Matrix: (Units=GPa)
#
#
# Indices 1 2 3 4 5 6 
#
# 1 98.6825 7.4447 -1.2722 -6.7048 -16.0467 -14.8633
# 2 7.4447 98.0224 19.8456 5.2153 -2.4317 -10.2546
# 3 -1.2722 19.8456 74.7348 12.0557 3.2531 2.3230
# 4 -6.7048 5.2153 12.0557 34.6003 4.6718 4.4591
# 5 -16.0467 -2.4317 3.2531 4.6718 29.4687 6.7761
# 6 -14.8633 -10.2546 2.3230 4.4591 6.7761 54.5924
#
#
#
# Elastic Compliance Matrix: (Units=1/GPa)
#
#
# Indices 1 2 3 4 5 6 
#
# 1 0.011496 -0.000535 -0.000188 0.001341 0.005508 0.002244
# 2 -0.000535 0.011117 -0.002871 -0.001134 0.000645 0.002077
# 3 -0.000188 -0.002871 0.014947 -0.004571 -0.001100 -0.000717
# 4 0.001341 -0.001134 -0.004571 0.031625 -0.003457 -0.001807
# 5 0.005508 0.000645 -0.001100 -0.003457 0.038301 -0.002804
# 6 0.002244 0.002077 -0.000717 -0.001807 -0.002804 0.019845
#
#
# Mechanical properties :
#
#
# Convention : Reuss Voigt Hill
#
# Bulk Modulus (GPa) = 32.92422 35.94176 34.43299
# Shear Modulus (GPa) = 34.56766 40.09372 37.33069
#
# Velocity S-wave (km/s) = 3.67799 3.96108 3.82216
# Velocity P-wave (km/s) = 5.56069 5.91486 5.74051
#
# Compressibility (1/GPa) = 0.03037278
#
# Stress axis : x y z
#
# Youngs Moduli (GPa) = 86.98490 89.94997 66.90159
#
# Poissons Ratio (x) = 0.04812 0.01258
# Poissons Ratio (y) = 0.04653 0.19207
# Poissons Ratio (z) = 0.01636 0.25825
#
# Static dielectric constant tensor:
#      x y z
#    x 2.115250 -0.116620 -0.053150 
#    y -0.116620 1.845250 -0.144910 
#    z -0.053150 -0.144910 2.032870 
# 
# From -- ./inp_files/534160.got.cif
#   From: 2010.05.17/outbox.cif.g08.bks.cpg/sg2_268_cif.got.tgz:534160.got - 2010.06.03 11:33:40.
