data_PCOD9020420
_publ_section_title
;
Structure prediction by ZEFSAII (Michael W. Deem and Ramdas Pophale) SiO2 
 PCOD9020420
Probable space group: P -1
;
_chemical_formula_sum "Si O2"
_cell_formula_units_Z 12
_cell_length_a 11.910134
_cell_length_b 10.696191
_cell_length_c 14.408128
_cell_angle_alpha 137.146771
_cell_angle_beta 28.301821
_cell_angle_gamma 120.193136
_cell_volume 530.894381
_symmetry_space_group_name_H-M "P -1"
_symmetry_group_IT_number 2
_symmetry_cell_setting 'triclinic'
loop_
_space_group_symop_operation_xyz
x,y,z
-x,-y,-z
loop_
_atom_site_type_symbol
_atom_site_label
_atom_site_fract_x
_atom_site_fract_y
_atom_site_fract_z
Si Si1 0.046126 0.046850 0.339042
Si Si2 0.305028 0.805958 0.856416
Si Si3 0.477427 0.732987 0.282952
Si Si4 0.800679 0.978845 0.203112
Si Si5 0.242120 0.431928 0.714261
Si Si6 0.937146 0.315187 0.737208
O O1 0.770283 0.178143 0.557615
O O2 0.067138 0.190651 0.482130
O O3 0.048062 0.850263 0.285402
O O4 0.269418 0.961335 0.049951
O O5 0.381615 0.577967 0.713199
O O6 0.500155 0.783999 0.616740
O O7 0.004857 0.861546 0.074005
O O8 0.656893 0.850735 0.198437
O O9 0.391749 0.807653 0.492285
O O10 0.643412 0.489348 0.025691
O O11 0.000000 0.000000 0.000000
O O12 0.089289 0.439214 0.733645
O O13 0.000000 0.500000 0.000000
#
# Coordination Sequence:
#
# PCOD9020420 Si02
#       6
#     2   2   2   2   2   2
#     4  10  23  41  63  94 123 169 210 246 308 371
#     4  10  22  38  59  94 123 157 211 255 301 372
#     4  10  22  41  62  90 127 161 203 258 306 363
#     4  10  22  35  62  93 124 159 204 258 312 362
#     4  11  22  36  64  91 121 161 204 258 310 358
#     4  11  22  40  67  88 126 172 202 251 312 367
#
# _framework density 22.603366000000001
#
# number of rings (size 3 to 8) (size 9 to 14) (size 15 to 20)
#    0.000    1.667    3.333    0.500    4.667    0.667 
#    0.000    0.000    0.000    3.000    0.000    0.000 
#    0.000    0.000    0.000    0.000    0.000    0.000 
#
# Total GULP energy -66829.266843 kJ/mol
# GULP energy per Si atom -5569.105570 kJ/mol
# Density = 2.255192 g / cm^3
# Si number density = 22.603366 Si / 1000 Ang^3
#
#
#
# Elastic Constant Matrix: (Units=GPa)
#
#
# Indices 1 2 3 4 5 6 
#
# 1 86.5061 19.5635 42.8105 9.0058 13.6361 9.4442
# 2 19.5635 56.2626 42.3537 -5.1834 14.8484 -7.9004
# 3 42.8105 42.3537 163.1294 2.1561 18.1417 4.5695
# 4 9.0058 -5.1834 2.1561 42.7951 0.8260 -5.1765
# 5 13.6361 14.8484 18.1417 0.8260 42.9659 13.3289
# 6 9.4442 -7.9004 4.5695 -5.1765 13.3289 19.6235
#
#
#
# Elastic Compliance Matrix: (Units=1/GPa)
#
#
# Indices 1 2 3 4 5 6 
#
# 1 0.015821 -0.006808 -0.002213 -0.005656 0.002395 -0.012958
# 2 -0.006808 0.035707 -0.006554 0.010601 -0.018286 0.034395
# 3 -0.002213 -0.006554 0.008466 -0.001305 0.000791 -0.004427
# 4 -0.005656 0.010601 -0.001305 0.028531 -0.008189 0.020382
# 5 0.002395 -0.018286 0.000791 -0.008189 0.040575 -0.038419
# 6 -0.012958 0.034395 -0.004427 0.020382 -0.038419 0.103546
#
#
# Mechanical properties :
#
#
# Convention : Reuss Voigt Hill
#
# Bulk Modulus (GPa) = 34.66973 57.26149 45.96561
# Shear Modulus (GPa) = 18.28761 34.48827 26.38794
#
# Velocity S-wave (km/s) = 2.84749 3.91039 3.42048
# Velocity P-wave (km/s) = 5.11689 6.76582 5.99829
#
# Compressibility (1/GPa) = 0.02884361
#
# Stress axis : x y z
#
# Youngs Moduli (GPa) = 63.20848 28.00572 118.12287
#
# Poissons Ratio (x) = 0.19066 0.26139
# Poissons Ratio (y) = 0.43032 0.77419
# Poissons Ratio (z) = 0.13987 0.18355
#
# Static dielectric constant tensor:
#      x y z
#    x 1.939630 -0.067100 -0.088720 
#    y -0.067100 1.848770 0.041360 
#    z -0.088720 0.041360 1.996550 
# 
# From -- ./inp_files/260584.got.cif
#   From: 2010.05.17/outbox.cif.g08.bks.cpg/sg2_131_cif.got.tgz:260584.got - 2010.06.03 11:33:40.
