data_PCOD9020654
_publ_section_title
;
Structure prediction by ZEFSAII (Michael W. Deem and Ramdas Pophale) SiO2 
 PCOD9020654
Probable space group: P -1
;
_chemical_formula_sum "Si O2"
_cell_formula_units_Z 14
_cell_length_a 20.186197
_cell_length_b 12.545934
_cell_length_c 5.508262
_cell_angle_alpha 72.456088
_cell_angle_beta 110.887862
_cell_angle_gamma 155.144878
_cell_volume 546.949398
_symmetry_space_group_name_H-M "P -1"
_symmetry_group_IT_number 2
_symmetry_cell_setting 'triclinic'
loop_
_space_group_symop_operation_xyz
x,y,z
-x,-y,-z
loop_
_atom_site_type_symbol
_atom_site_label
_atom_site_fract_x
_atom_site_fract_y
_atom_site_fract_z
Si Si1 0.332274 0.741084 0.091455
Si Si2 0.258796 0.830668 0.271009
Si Si3 0.977194 0.063218 0.621412
Si Si4 0.416131 0.241724 0.935820
Si Si5 0.042367 0.388530 0.583283
Si Si6 0.730051 0.587564 0.890049
Si Si7 0.313936 0.115276 0.380848
O O1 0.325077 0.807355 0.276070
O O2 0.313720 0.581917 0.212798
O O3 0.189782 0.578668 0.832284
O O4 0.500000 0.000000 0.000000
O O5 0.089585 0.558883 0.358126
O O6 0.355272 0.040600 0.452985
O O7 0.281341 0.951317 0.998731
O O8 0.010334 0.236559 0.469119
O O9 0.116822 0.238059 0.878291
O O10 0.000000 0.000000 0.500000
O O11 0.801550 0.792910 0.692913
O O12 0.586661 0.422431 0.992931
O O13 0.376479 0.242709 0.631099
O O14 0.387978 0.270442 0.126816
O O15 0.878604 0.156634 0.681785
#
# Coordination Sequence:
#
# PCOD9020654 Si02
#       7
#     2   2   2   2   2   2   2
#     4  11  21  38  61  98 131 167 213 269 332 386
#     4  10  22  36  64  92 138 169 213 264 328 388
#     4  10  23  43  68  92 126 177 221 271 329 380
#     4  10  23  41  67  95 133 173 211 270 325 385
#     4  11  24  40  63  96 130 173 220 271 318 403
#     4  10  22  43  64  95 131 170 221 273 325 390
#     4  10  24  42  64 100 133 175 215 262 336 382
#
# _framework density 25.596516000000001
#
# number of rings (size 3 to 8) (size 9 to 14) (size 15 to 20)
#    0.857    0.857    1.429    2.143    4.000    1.714 
#    0.000    1.429    0.000    0.000    0.000    0.000 
#    0.000    0.000    0.000    0.000    0.000    0.000 
#
# Total GULP energy -78204.511950 kJ/mol
# GULP energy per Si atom -5586.036568 kJ/mol
# Density = 2.553826 g / cm^3
# Si number density = 25.596516 Si / 1000 Ang^3
#
#
#
# Elastic Constant Matrix: (Units=GPa)
#
#
# Indices 1 2 3 4 5 6 
#
# 1 86.5651 35.1796 30.2216 6.4622 -18.5363 0.1352
# 2 35.1796 137.7904 54.9989 -22.2483 2.3986 21.1235
# 3 30.2216 54.9989 93.9218 -17.5536 -22.1004 8.0594
# 4 6.4622 -22.2483 -17.5536 46.0678 1.1169 -4.5149
# 5 -18.5363 2.3986 -22.1004 1.1169 38.5002 -11.2687
# 6 0.1352 21.1235 8.0594 -4.5149 -11.2687 59.1743
#
#
#
# Elastic Compliance Matrix: (Units=1/GPa)
#
#
# Indices 1 2 3 4 5 6 
#
# 1 0.016303 -0.004985 -0.001615 -0.005203 0.008305 0.003147
# 2 -0.004985 0.012779 -0.006731 0.004028 -0.008632 -0.004970
# 3 -0.001615 -0.006731 0.018127 0.003847 0.010594 0.002249
# 4 -0.005203 0.004028 0.003847 0.025858 -0.001368 -0.000238
# 5 0.008305 -0.008632 0.010594 -0.001368 0.039263 0.008992
# 6 0.003147 -0.004970 0.002249 -0.000238 0.008992 0.020054
#
#
# Mechanical properties :
#
#
# Convention : Reuss Voigt Hill
#
# Bulk Modulus (GPa) = 48.66689 62.11972 55.39330
# Shear Modulus (GPa) = 30.13916 41.94026 36.03971
#
# Velocity S-wave (km/s) = 3.43515 4.05225 3.75639
# Velocity P-wave (km/s) = 5.89814 6.79822 6.36411
#
# Compressibility (1/GPa) = 0.02054785
#
# Stress axis : x y z
#
# Youngs Moduli (GPa) = 61.33652 78.25078 55.16534
#
# Poissons Ratio (x) = 0.39006 0.08911
# Poissons Ratio (y) = 0.30575 0.37133
# Poissons Ratio (z) = 0.09908 0.52672
#
# Static dielectric constant tensor:
#      x y z
#    x 2.069720 -0.014820 -0.028230 
#    y -0.014820 2.000620 -0.006580 
#    z -0.028230 -0.006580 2.018020 
# 
# From -- ./inp_files/124009.got.cif
#   From: 2010.05.17/outbox.cif.g08.bks.cpg/sg2_63_cif.got.tgz:124009.got - 2010.06.03 11:33:40.
