data_PCOD9020796
_publ_section_title
;
Structure prediction by ZEFSAII (Michael W. Deem and Ramdas Pophale) SiO2 
 PCOD9020796
Probable space group: P -1
;
_chemical_formula_sum "Si O2"
_cell_formula_units_Z 15
_cell_length_a 14.012540
_cell_length_b 13.743307
_cell_length_c 13.787999
_cell_angle_alpha 21.439581
_cell_angle_beta 41.177711
_cell_angle_gamma 51.565676
_cell_volume 603.625608
_symmetry_space_group_name_H-M "P -1"
_symmetry_group_IT_number 2
_symmetry_cell_setting 'triclinic'
loop_
_space_group_symop_operation_xyz
x,y,z
-x,-y,-z
loop_
_atom_site_type_symbol
_atom_site_label
_atom_site_fract_x
_atom_site_fract_y
_atom_site_fract_z
Si Si1 0.160147 0.334278 0.160977
Si Si2 0.599024 0.394714 0.726432
Si Si3 0.082931 0.224728 0.928727
Si Si4 0.500000 0.000000 0.000000
Si Si5 0.756784 0.072396 0.380091
Si Si6 0.904596 0.177716 0.857875
Si Si7 0.444261 0.058760 0.658475
Si Si8 0.824682 0.950142 0.787321
O O1 0.198920 0.200195 0.158668
O O2 0.222299 0.197168 0.331708
O O3 0.220478 0.669863 0.801209
O O4 0.976051 0.223451 0.411365
O O5 0.783041 0.539818 0.447298
O O6 0.541896 0.626671 0.610045
O O7 0.529562 0.299580 0.762559
O O8 0.549373 0.113309 0.088949
O O9 0.129364 0.239054 0.992036
O O10 0.904985 0.197104 0.082000
O O11 0.098692 0.933064 0.146986
O O12 0.323900 0.980770 0.131777
O O13 0.585169 0.028334 0.515846
O O14 0.000000 0.500000 0.500000
O O15 0.728723 0.086894 0.112192
O O16 0.000000 0.000000 0.000000
#
# Coordination Sequence:
#
# PCOD9020796 Si02
#       8
#     2   2   2   1   2   2   2   2
#     4  10  23  39  58  89 131 174 203 245 306 361
#     4  11  24  39  60  90 131 168 211 254 308 366
#     4  10  24  43  65  93 125 167 212 263 315 372
#     4  12  20  32  56  88 122 166 212 256 284 344
#     4  11  22  41  66  92 127 166 209 251 300 368
#     4  11  24  44  68  92 123 160 202 259 330 388
#     4  11  23  43  65  92 122 163 205 256 318 378
#     4  10  22  37  58  90 128 167 213 255 300 359
#
# _framework density 24.849837999999998
#
# number of rings (size 3 to 8) (size 9 to 14) (size 15 to 20)
#    0.000    1.333    0.000    6.400    0.000   13.333 
#    0.000    1.333    0.000    0.000    0.000    0.000 
#    0.000    0.000    0.000    0.000    0.000    0.000 
#
# Total GULP energy -83702.246273 kJ/mol
# GULP energy per Si atom -5580.149752 kJ/mol
# Density = 2.479328 g / cm^3
# Si number density = 24.849838 Si / 1000 Ang^3
#
#
#
# Elastic Constant Matrix: (Units=GPa)
#
#
# Indices 1 2 3 4 5 6 
#
# 1 67.5464 55.7363 20.7928 6.4565 -25.2776 -26.5508
# 2 55.7363 103.0501 46.9047 24.2358 -21.5791 -56.8353
# 3 20.7928 46.9047 107.0465 -7.8187 -21.7045 -16.2474
# 4 6.4565 24.2358 -7.8187 55.2337 -11.8669 -18.1347
# 5 -25.2776 -21.5791 -21.7045 -11.8669 45.6795 12.3271
# 6 -26.5508 -56.8353 -16.2474 -18.1347 12.3271 49.2644
#
#
#
# Elastic Compliance Matrix: (Units=1/GPa)
#
#
# Indices 1 2 3 4 5 6 
#
# 1 0.035932 -0.027151 0.007126 0.008668 0.015472 -0.010289
# 2 -0.027151 0.055524 -0.015620 -0.011709 -0.010770 0.042657
# 3 0.007126 -0.015620 0.015719 0.007254 0.008177 -0.008371
# 4 0.008668 -0.011709 0.007254 0.025428 0.009149 0.000627
# 5 0.015472 -0.010770 0.008177 0.009149 0.033345 -0.006366
# 6 -0.010289 0.042657 -0.008371 0.000627 -0.006366 0.063029
#
#
# Mechanical properties :
#
#
# Convention : Reuss Voigt Hill
#
# Bulk Modulus (GPa) = 27.86688 58.27897 43.07292
# Shear Modulus (GPa) = 16.01395 40.31615 28.16505
#
# Velocity S-wave (km/s) = 2.54131 4.03226 3.37027
# Velocity P-wave (km/s) = 4.45528 6.72177 5.70227
#
# Compressibility (1/GPa) = 0.03588489
#
# Stress axis : x y z
#
# Youngs Moduli (GPa) = 27.83024 18.01031 63.61793
#
# Poissons Ratio (x) = 0.48900 -0.45334
# Poissons Ratio (y) = 0.75563 0.99368
# Poissons Ratio (z) = -0.19832 0.28131
#
# Static dielectric constant tensor:
#      x y z
#    x 2.011110 0.037060 -0.015780 
#    y 0.037060 1.993510 0.056840 
#    z -0.015780 0.056840 1.965390 
# 
# From -- ./inp_files/533545.got.cif
#   From: 2010.05.17/outbox.cif.g08.bks.cpg/sg2_267_cif.got.tgz:533545.got - 2010.06.03 11:33:40.
