data_PCOD9020663
_publ_section_title
;
Structure prediction by ZEFSAII (Michael W. Deem and Ramdas Pophale) SiO2 
 PCOD9020663
Probable space group: P -1
;
_chemical_formula_sum "Si O2"
_cell_formula_units_Z 13
_cell_length_a 7.034683
_cell_length_b 15.867047
_cell_length_c 8.276354
_cell_angle_alpha 38.940221
_cell_angle_beta 88.298599
_cell_angle_gamma 68.952336
_cell_volume 490.352139
_symmetry_space_group_name_H-M "P -1"
_symmetry_group_IT_number 2
_symmetry_cell_setting 'triclinic'
loop_
_space_group_symop_operation_xyz
x,y,z
-x,-y,-z
loop_
_atom_site_type_symbol
_atom_site_label
_atom_site_fract_x
_atom_site_fract_y
_atom_site_fract_z
Si Si1 0.500000 0.500000 0.500000
Si Si2 0.635075 0.853434 0.598590
Si Si3 0.531293 0.222230 0.721075
Si Si4 0.768186 0.473773 0.895709
Si Si5 0.727594 0.939378 0.949367
Si Si6 0.970505 0.166891 0.211522
Si Si7 0.209729 0.481440 0.809864
O O1 0.550325 0.318773 0.723088
O O2 0.285451 0.533598 0.575258
O O3 0.506038 0.921307 0.335832
O O4 0.885655 0.813547 0.678239
O O5 0.500000 0.000000 0.500000
O O6 0.627042 0.706663 0.880602
O O7 0.452815 0.354549 0.386547
O O8 0.741064 0.046845 0.928561
O O9 0.333999 0.188546 0.813317
O O10 0.967905 0.496640 0.793422
O O11 0.787351 0.441764 0.133404
O O12 0.756146 0.349023 0.961586
O O13 0.915320 0.864606 0.918897
O O14 0.000000 0.000000 0.500000
#
# Coordination Sequence:
#
# PCOD9020663 Si02
#       7
#     1   2   2   2   2   2   2
#     4  12  26  38  62 102 134 160 216 274 322 370
#     4   9  17  37  63  86 122 167 209 248 317 386
#     4  11  24  42  66  93 131 171 216 268 318 387
#     4  10  22  43  69  90 127 172 216 256 328 389
#     4  10  22  42  63  92 127 174 215 255 323 389
#     4  10  22  36  64  97 126 161 212 270 319 382
#     4  10  22  41  65  96 124 168 213 267 317 388
#
# _framework density 26.511559999999999
#
# number of rings (size 3 to 8) (size 9 to 14) (size 15 to 20)
#    0.000    1.846    1.538    2.769    2.154    6.769 
#    0.000    0.000    0.000    4.615    0.000    0.000 
#    0.000    0.000    0.000    0.000    0.000    0.000 
#
# Total GULP energy -72368.278405 kJ/mol
# GULP energy per Si atom -5566.790647 kJ/mol
# Density = 2.645122 g / cm^3
# Si number density = 26.511560 Si / 1000 Ang^3
#
#
#
# Elastic Constant Matrix: (Units=GPa)
#
#
# Indices 1 2 3 4 5 6 
#
# 1 80.4884 42.4322 36.1053 2.8315 -37.0987 0.2658
# 2 42.4322 217.0277 75.0995 -38.1729 -45.7054 16.6652
# 3 36.1053 75.0995 140.6458 -27.4604 -47.4316 -9.4812
# 4 2.8315 -38.1729 -27.4604 56.7587 2.5883 -12.8104
# 5 -37.0987 -45.7054 -47.4316 2.5883 42.3544 4.0465
# 6 0.2658 16.6652 -9.4812 -12.8104 4.0465 32.9386
#
#
#
# Elastic Compliance Matrix: (Units=1/GPa)
#
#
# Indices 1 2 3 4 5 6 
#
# 1 0.021475 -0.000573 0.000526 -0.002800 0.019256 -0.003186
# 2 -0.000573 0.007283 -0.001326 0.003209 0.006015 -0.003553
# 3 0.000526 -0.001326 0.013938 0.006441 0.013720 0.005498
# 4 -0.002800 0.003209 0.006441 0.024843 0.005826 0.009199
# 5 0.019256 0.006015 0.013720 0.005826 0.062421 -0.004652
# 6 -0.003186 -0.003553 0.005498 0.009199 -0.004652 0.037914
#
#
# Mechanical properties :
#
#
# Convention : Reuss Voigt Hill
#
# Bulk Modulus (GPa) = 25.03201 82.82620 53.92911
# Shear Modulus (GPa) = 27.18331 45.37868 36.28100
#
# Velocity S-wave (km/s) = 3.20556 4.14171 3.70333
# Velocity P-wave (km/s) = 4.81282 7.36077 6.21869
#
# Compressibility (1/GPa) = 0.03994884
#
# Stress axis : x y z
#
# Youngs Moduli (GPa) = 46.56595 137.31447 71.74593
#
# Poissons Ratio (x) = 0.07869 -0.03771
# Poissons Ratio (y) = 0.02669 0.09512
# Poissons Ratio (z) = -0.02447 0.18206
#
# Static dielectric constant tensor:
#      x y z
#    x 2.469770 0.034450 0.299970 
#    y 0.034450 2.122860 -0.041970 
#    z 0.299970 -0.041970 2.190150 
# 
# From -- ./inp_files/216312.got.cif
#   From: 2010.05.17/outbox.cif.g08.bks.cpg/sg2_109_cif.got.tgz:216312.got - 2010.06.03 11:33:40.
