data_PCOD9020187
_publ_section_title
;
Structure prediction by ZEFSAII (Michael W. Deem and Ramdas Pophale) SiO2 
 PCOD9020187
Probable space group: P -1
;
_chemical_formula_sum "Si O2"
_cell_formula_units_Z 14
_cell_length_a 13.436646
_cell_length_b 11.089316
_cell_length_c 9.106411
_cell_angle_alpha 63.673703
_cell_angle_beta 123.726096
_cell_angle_gamma 147.387462
_cell_volume 607.335944
_symmetry_space_group_name_H-M "P -1"
_symmetry_group_IT_number 2
_symmetry_cell_setting 'triclinic'
loop_
_space_group_symop_operation_xyz
x,y,z
-x,-y,-z
loop_
_atom_site_type_symbol
_atom_site_label
_atom_site_fract_x
_atom_site_fract_y
_atom_site_fract_z
Si Si1 0.436701 0.301010 0.996773
Si Si2 0.647567 0.236665 0.076474
Si Si3 0.901973 0.069674 0.265630
Si Si4 0.279530 0.063514 0.293466
Si Si5 0.494159 0.940744 0.364150
Si Si6 0.276396 0.238311 0.447647
Si Si7 0.083740 0.700494 0.103440
O O1 0.557997 0.307223 0.987344
O O2 0.409282 0.197301 0.181976
O O3 0.500000 0.500000 0.000000
O O4 0.229349 0.144108 0.830690
O O5 0.865517 0.443717 0.076777
O O6 0.646636 0.164286 0.272424
O O7 0.500000 0.000000 0.000000
O O8 0.126779 0.223302 0.380345
O O9 0.792042 0.945444 0.398474
O O10 0.896160 0.196545 0.087595
O O11 0.418721 0.127652 0.501563
O O12 0.220135 0.146511 0.282789
O O13 0.110955 0.817771 0.212147
O O14 0.268156 0.762045 0.224762
O O15 0.500000 0.000000 0.500000
O O16 0.500000 0.500000 0.500000
#
# Coordination Sequence:
#
# PCOD9020187 Si02
#       7
#     2   2   2   2   2   2   2
#     4  11  24  46  73 104 143 186 239 293 352 437
#     4  12  27  45  71 106 139 191 242 297 358 422
#     4  10  24  45  66 104 146 178 245 288 357 432
#     4  10  23  44  71 100 142 184 234 294 357 428
#     4  10  21  47  65 101 143 175 240 291 354 427
#     4  11  25  43  68 104 143 189 230 298 361 421
#     4  10  24  45  72  97 137 191 235 295 356 425
#
# _framework density 23.051494000000002
#
# number of rings (size 3 to 8) (size 9 to 14) (size 15 to 20)
#    0.000    1.429    4.286    0.857    8.000    4.000 
#    2.571    1.429    0.000    0.000    0.000    0.000 
#    0.000    0.000    0.000    0.000    0.000    0.000 
#
# Total GULP energy -77962.714561 kJ/mol
# GULP energy per Si atom -5568.765326 kJ/mol
# Density = 2.299903 g / cm^3
# Si number density = 23.051494 Si / 1000 Ang^3
#
#
#
# Elastic Constant Matrix: (Units=GPa)
#
#
# Indices 1 2 3 4 5 6 
#
# 1 98.7849 52.9669 33.8002 17.7892 -13.7158 8.4964
# 2 52.9669 136.6597 33.2780 32.6473 -6.5674 15.8124
# 3 33.8002 33.2780 111.7166 2.6132 -5.9993 20.2986
# 4 17.7892 32.6473 2.6132 24.8872 4.3070 -7.5372
# 5 -13.7158 -6.5674 -5.9993 4.3070 35.8168 7.6828
# 6 8.4964 15.8124 20.2986 -7.5372 7.6828 44.0085
#
#
#
# Elastic Compliance Matrix: (Units=1/GPa)
#
#
# Indices 1 2 3 4 5 6 
#
# 1 0.015357 -0.001920 -0.002684 -0.010683 0.007250 -0.004132
# 2 -0.001920 0.015109 -0.001344 -0.022276 0.006503 -0.009389
# 3 -0.002684 -0.001344 0.010954 0.001063 0.001312 -0.004098
# 4 -0.010683 -0.022276 0.001063 0.090188 -0.025152 0.029413
# 5 0.007250 0.006503 0.001312 -0.025152 0.038427 -0.015357
# 6 -0.004132 -0.009389 -0.004098 0.029413 -0.015357 0.036503
#
#
# Mechanical properties :
#
#
# Convention : Reuss Voigt Hill
#
# Bulk Modulus (GPa) = 33.87061 65.25018 49.56039
# Shear Modulus (GPa) = 21.90349 36.08355 28.99352
#
# Velocity S-wave (km/s) = 3.08587 3.96074 3.55036
# Velocity P-wave (km/s) = 5.23662 7.02028 6.19300
#
# Compressibility (1/GPa) = 0.02952412
#
# Stress axis : x y z
#
# Youngs Moduli (GPa) = 65.11875 66.18519 91.29205
#
# Poissons Ratio (x) = 0.12705 0.24506
# Poissons Ratio (y) = 0.12501 0.12267
# Poissons Ratio (z) = 0.17480 0.08893
#
# Static dielectric constant tensor:
#      x y z
#    x 2.269160 -0.445900 0.059880 
#    y -0.445900 2.506770 0.048800 
#    z 0.059880 0.048800 2.172360 
# 
# From -- ./inp_files/306820.got.cif
#   From: 2010.05.17/outbox.cif.g08.bks.cpg/sg2_154_cif.got.tgz:306820.got - 2010.06.03 11:33:40.
