data_PCOD9020116
_publ_section_title
;
Structure prediction by ZEFSAII (Michael W. Deem and Ramdas Pophale) SiO2 
 PCOD9020116
Probable space group: P -1
;
_chemical_formula_sum "Si O2"
_cell_formula_units_Z 14
_cell_length_a 8.587001
_cell_length_b 12.376438
_cell_length_c 7.497704
_cell_angle_alpha 91.897632
_cell_angle_beta 51.115243
_cell_angle_gamma 106.266213
_cell_volume 584.470405
_symmetry_space_group_name_H-M "P -1"
_symmetry_group_IT_number 2
_symmetry_cell_setting 'triclinic'
loop_
_space_group_symop_operation_xyz
x,y,z
-x,-y,-z
loop_
_atom_site_type_symbol
_atom_site_label
_atom_site_fract_x
_atom_site_fract_y
_atom_site_fract_z
Si Si1 0.402635 0.354452 0.286518
Si Si2 0.496477 0.149585 0.357243
Si Si3 0.772024 0.481115 0.411089
Si Si4 0.105854 0.659811 0.979042
Si Si5 0.851866 0.733309 0.866862
Si Si6 0.289137 0.893332 0.441571
Si Si7 0.378540 0.700479 0.196326
O O1 0.372791 0.240155 0.418171
O O2 0.405312 0.464990 0.398986
O O3 0.212139 0.334176 0.278040
O O4 0.593834 0.359209 0.012490
O O5 0.728779 0.213477 0.109910
O O6 0.557812 0.128743 0.513926
O O7 0.370045 0.028033 0.355898
O O8 0.768730 0.409573 0.228653
O O9 0.762722 0.391385 0.568530
O O10 0.977508 0.591901 0.234416
O O11 0.930213 0.668781 0.962433
O O12 0.049608 0.846769 0.687198
O O13 0.627332 0.745349 0.081891
O O14 0.305814 0.810859 0.265143
#
# Coordination Sequence:
#
# PCOD9020116 Si02
#       7
#     2   2   2   2   2   2   2
#     4  10  25  38  62 101 132 163 213 263 325 378
#     4  10  22  44  64  97 123 170 222 262 316 375
#     4  11  22  42  65  95 134 169 211 269 309 393
#     4  10  23  41  66  95 126 178 211 258 325 373
#     4   9  22  42  61 100 126 168 215 252 334 373
#     4  10  21  46  71  84 135 170 214 270 308 383
#     4  10  22  43  64  99 127 174 204 267 321 382
#
# _framework density 23.953309999999998
#
# number of rings (size 3 to 8) (size 9 to 14) (size 15 to 20)
#    0.857    1.143    2.857    0.429    2.000    6.286 
#    2.571    2.143    0.000    0.000    0.000    0.000 
#    0.000    0.000    0.000    0.000    0.000    0.000 
#
# Total GULP energy -78116.163464 kJ/mol
# GULP energy per Si atom -5579.725962 kJ/mol
# Density = 2.389879 g / cm^3
# Si number density = 23.953310 Si / 1000 Ang^3
#
#
#
# Elastic Constant Matrix: (Units=GPa)
#
#
# Indices 1 2 3 4 5 6 
#
# 1 67.7258 4.7341 14.6763 -5.4342 1.9198 -0.5588
# 2 4.7341 91.5407 34.3993 -15.2176 11.8326 11.5909
# 3 14.6763 34.3993 110.6221 -1.4482 7.6950 16.2890
# 4 -5.4342 -15.2176 -1.4482 30.0142 7.3346 -7.0125
# 5 1.9198 11.8326 7.6950 7.3346 37.4758 6.0028
# 6 -0.5588 11.5909 16.2890 -7.0125 6.0028 30.1527
#
#
#
# Elastic Compliance Matrix: (Units=1/GPa)
#
#
# Indices 1 2 3 4 5 6 
#
# 1 0.015665 0.000708 -0.002518 0.004128 -0.001747 0.002687
# 2 0.000708 0.014596 -0.004097 0.008588 -0.005435 -0.000305
# 3 -0.002518 -0.004097 0.011374 -0.003439 0.000648 -0.005545
# 4 0.004128 0.008588 -0.003439 0.044006 -0.012653 0.011386
# 5 -0.001747 -0.005435 0.000648 -0.012653 0.032053 -0.007617
# 6 0.002687 -0.000305 -0.005545 0.011386 -0.007617 0.040491
#
#
# Mechanical properties :
#
#
# Convention : Reuss Voigt Hill
#
# Bulk Modulus (GPa) = 33.53461 41.94534 37.73998
# Shear Modulus (GPa) = 27.78697 33.93381 30.86039
#
# Velocity S-wave (km/s) = 3.40964 3.76794 3.59326
# Velocity P-wave (km/s) = 5.43427 6.03980 5.74502
#
# Compressibility (1/GPa) = 0.02981994
#
# Stress axis : x y z
#
# Youngs Moduli (GPa) = 63.83811 68.51174 87.91660
#
# Poissons Ratio (x) = -0.04853 0.22142
# Poissons Ratio (y) = -0.04522 0.36023
# Poissons Ratio (z) = 0.16078 0.28072
#
# Static dielectric constant tensor:
#      x y z
#    x 2.117160 0.018230 0.014270 
#    y 0.018230 1.882940 0.006250 
#    z 0.014270 0.006250 1.895570 
# 
# From -- ./inp_files/253418.got.cif
#   From: 2010.05.17/outbox.cif.g08.bks.cpg/sg2_127_cif.got.tgz:253418.got - 2010.06.03 11:33:40.
