data_PCOD9020208
_publ_section_title
;
Structure prediction by ZEFSAII (Michael W. Deem and Ramdas Pophale) SiO2 
 PCOD9020208
Probable space group: P -1
;
_chemical_formula_sum "Si O2"
_cell_formula_units_Z 16
_cell_length_a 11.803380
_cell_length_b 9.626656
_cell_length_c 6.955777
_cell_angle_alpha 60.243211
_cell_angle_beta 83.283787
_cell_angle_gamma 105.088175
_cell_volume 633.284547
_symmetry_space_group_name_H-M "P -1"
_symmetry_group_IT_number 2
_symmetry_cell_setting 'triclinic'
loop_
_space_group_symop_operation_xyz
x,y,z
-x,-y,-z
loop_
_atom_site_type_symbol
_atom_site_label
_atom_site_fract_x
_atom_site_fract_y
_atom_site_fract_z
Si Si1 0.989579 0.187408 0.370811
Si Si2 0.208755 0.824702 0.889373
Si Si3 0.462098 0.648826 0.306276
Si Si4 0.324670 0.297126 0.034068
Si Si5 0.144473 0.110270 0.885503
Si Si6 0.760976 0.633797 0.643606
Si Si7 0.876312 0.346391 0.576501
Si Si8 0.327561 0.668561 0.665053
O O1 0.121944 0.342011 0.260739
O O2 0.915782 0.216311 0.183517
O O3 0.911036 0.199580 0.563928
O O4 0.000000 0.000000 0.500000
O O5 0.305093 0.787400 0.754526
O O6 0.186553 0.718230 0.163289
O O7 0.225028 0.010768 0.842056
O O8 0.500000 0.500000 0.500000
O O9 0.567845 0.741309 0.069461
O O10 0.341408 0.541467 0.283320
O O11 0.430594 0.747337 0.424197
O O12 0.201420 0.186520 0.024340
O O13 0.346355 0.500252 0.862959
O O14 0.310153 0.268601 0.283466
O O15 0.172889 0.268128 0.625942
O O16 0.000000 0.000000 0.000000
O O17 0.795250 0.392995 0.400108
O O18 0.000000 0.500000 0.500000
#
# Coordination Sequence:
#
# PCOD9020208 Si02
#       8
#     2   2   2   2   2   2   2   2
#     4  11  24  40  64 100 135 178 223 271 334 409
#     4  11  26  41  62  98 142 181 219 273 342 408
#     4  10  21  47  71 102 127 173 235 290 329 392
#     4  11  26  42  77 101 129 177 236 280 336 400
#     4  12  25  43  66 102 140 179 220 274 336 406
#     4  12  23  40  73 101 134 172 228 287 333 393
#     4  11  26  40  60  93 141 181 222 273 339 398
#     4  10  24  43  64  98 135 173 228 281 333 399
#
# _framework density 25.265104999999998
#
# number of rings (size 3 to 8) (size 9 to 14) (size 15 to 20)
#    0.000    1.000    3.750    2.625    8.750    1.000 
#    0.000    0.625    0.000    1.500    0.000    0.000 
#    0.000    0.000    0.000    0.000    0.000    0.000 
#
# Total GULP energy -89493.713533 kJ/mol
# GULP energy per Si atom -5593.357096 kJ/mol
# Density = 2.520760 g / cm^3
# Si number density = 25.265105 Si / 1000 Ang^3
#
#
#
# Elastic Constant Matrix: (Units=GPa)
#
#
# Indices 1 2 3 4 5 6 
#
# 1 80.1282 32.3878 33.1272 8.1389 -8.8132 -10.1468
# 2 32.3878 133.9158 35.0419 50.3264 -12.1326 -29.8258
# 3 33.1272 35.0419 108.2761 40.8137 -17.8980 -5.3949
# 4 8.1389 50.3264 40.8137 45.2367 -12.6000 -13.1206
# 5 -8.8132 -12.1326 -17.8980 -12.6000 48.2061 14.4219
# 6 -10.1468 -29.8258 -5.3949 -13.1206 14.4219 44.4520
#
#
#
# Elastic Compliance Matrix: (Units=1/GPa)
#
#
# Indices 1 2 3 4 5 6 
#
# 1 0.016986 -0.005675 -0.007011 0.010484 0.001243 0.001910
# 2 -0.005675 0.016038 0.003737 -0.019369 -0.002141 0.004896
# 3 -0.007011 0.003737 0.017564 -0.019095 0.002177 -0.003304
# 4 0.010484 -0.019369 -0.019095 0.061414 0.004925 0.003609
# 5 0.001243 -0.002141 0.002177 0.004925 0.024763 -0.007469
# 6 0.001910 0.004896 -0.003304 0.003609 -0.007469 0.029305
#
#
# Mechanical properties :
#
#
# Convention : Reuss Voigt Hill
#
# Bulk Modulus (GPa) = 30.59187 58.15934 44.37561
# Shear Modulus (GPa) = 25.65866 42.36317 34.01091
#
# Velocity S-wave (km/s) = 3.19027 4.09925 3.67299
# Velocity P-wave (km/s) = 5.07002 6.74350 5.96573
#
# Compressibility (1/GPa) = 0.03268843
#
# Stress axis : x y z
#
# Youngs Moduli (GPa) = 58.87072 62.35350 56.93385
#
# Poissons Ratio (x) = 0.35389 0.39919
# Poissons Ratio (y) = 0.33412 -0.21276
# Poissons Ratio (z) = 0.41277 -0.23302
#
# Static dielectric constant tensor:
#      x y z
#    x 2.071940 -0.091740 0.002260 
#    y -0.091740 2.021380 -0.005350 
#    z 0.002260 -0.005350 2.066400 
# 
# From -- ./inp_files/243007.got.cif
#   From: 2010.05.17/outbox.cif.g08.bks.cpg/sg2_122_cif.got.tgz:243007.got - 2010.06.03 11:33:40.
