data_PCOD9020952
_publ_section_title
;
Structure prediction by ZEFSAII (Michael W. Deem and Ramdas Pophale) SiO2 
 PCOD9020952
Probable space group: P -1
;
_chemical_formula_sum "Si O2"
_cell_formula_units_Z 16
_cell_length_a 13.040881
_cell_length_b 5.747527
_cell_length_c 11.530218
_cell_angle_alpha 73.782245
_cell_angle_beta 122.664418
_cell_angle_gamma 91.361024
_cell_volume 689.917501
_symmetry_space_group_name_H-M "P -1"
_symmetry_group_IT_number 2
_symmetry_cell_setting 'triclinic'
loop_
_space_group_symop_operation_xyz
x,y,z
-x,-y,-z
loop_
_atom_site_type_symbol
_atom_site_label
_atom_site_fract_x
_atom_site_fract_y
_atom_site_fract_z
Si Si1 0.116355 0.878688 0.275704
Si Si2 0.111783 0.437379 0.489236
Si Si3 0.725129 0.974938 0.451487
Si Si4 0.143177 0.856024 0.841561
Si Si5 0.631199 0.465084 0.250086
Si Si6 0.488796 0.327825 0.625937
Si Si7 0.763706 0.657071 0.127919
Si Si8 0.746858 0.049747 0.879016
O O1 0.090359 0.611761 0.338296
O O2 0.153379 0.915677 0.161902
O O3 0.233940 0.915293 0.419879
O O4 0.997216 0.069773 0.213233
O O5 0.149008 0.158534 0.510698
O O6 0.235285 0.496223 0.620151
O O7 0.000000 0.500000 0.500000
O O8 0.634797 0.786187 0.452323
O O9 0.649680 0.172943 0.292195
O O10 0.164195 0.622472 0.802059
O O11 0.183845 0.123334 0.799320
O O12 0.226985 0.787902 0.016426
O O13 0.531658 0.547647 0.276545
O O14 0.633789 0.616534 0.112288
O O15 0.500000 0.500000 0.500000
O O16 0.611552 0.131518 0.735659
O O17 0.758413 0.780326 0.980529
#
# Coordination Sequence:
#
# PCOD9020952 Si02
#       8
#     2   2   2   2   2   2   2   2
#     4  11  23  41  67 103 136 180 230 287 345 415
#     4  10  22  37  62  98 138 178 225 279 347 412
#     4  10  24  38  68  98 133 177 227 285 348 405
#     4  10  25  45  70 103 142 184 228 281 345 411
#     4  10  23  40  64 100 135 181 228 284 342 411
#     4  11  24  47  70  97 137 175 234 288 345 410
#     4  10  25  44  71 103 140 185 230 280 348 411
#     4  10  25  44  67  98 137 185 234 284 345 404
#
# _framework density 23.191179000000002
#
# number of rings (size 3 to 8) (size 9 to 14) (size 15 to 20)
#    0.750    1.000    0.000    3.375    8.750    7.000 
#    0.000    1.250    0.000    0.000    0.000    0.000 
#    0.000    0.000    0.000    0.000    0.000    0.000 
#
# Total GULP energy -89242.607789 kJ/mol
# GULP energy per Si atom -5577.662987 kJ/mol
# Density = 2.313839 g / cm^3
# Si number density = 23.191179 Si / 1000 Ang^3
#
#
#
# Elastic Constant Matrix: (Units=GPa)
#
#
# Indices 1 2 3 4 5 6 
#
# 1 135.1417 44.2102 26.9255 -21.0929 -33.7115 -2.8189
# 2 44.2102 112.4034 19.6891 -15.9605 -21.4567 -6.7395
# 3 26.9255 19.6891 62.0178 -13.1866 -24.1372 8.0846
# 4 -21.0929 -15.9605 -13.1866 33.5616 8.1689 -1.3134
# 5 -33.7115 -21.4567 -24.1372 8.1689 51.2065 -5.2192
# 6 -2.8189 -6.7395 8.0846 -1.3134 -5.2192 28.0898
#
#
#
# Elastic Compliance Matrix: (Units=1/GPa)
#
#
# Indices 1 2 3 4 5 6 
#
# 1 0.010205 -0.002224 -0.001326 0.003752 0.004759 0.001932
# 2 -0.002224 0.011096 -0.001469 0.002855 0.002388 0.003439
# 3 -0.001326 -0.001469 0.021810 0.005019 0.007468 -0.005141
# 4 0.003752 0.002855 0.005019 0.035410 0.000523 0.001370
# 5 0.004759 0.002388 0.007468 0.000523 0.027511 0.004037
# 6 0.001932 0.003439 -0.005141 0.001370 0.004037 0.038913
#
#
# Mechanical properties :
#
#
# Convention : Reuss Voigt Hill
#
# Bulk Modulus (GPa) = 30.23676 54.57916 42.40796
# Shear Modulus (GPa) = 30.11926 37.15412 33.63669
#
# Velocity S-wave (km/s) = 3.60771 4.00694 3.81255
# Velocity P-wave (km/s) = 5.51547 6.70768 6.14058
#
# Compressibility (1/GPa) = 0.03307232
#
# Stress axis : x y z
#
# Youngs Moduli (GPa) = 97.99478 90.12169 45.85056
#
# Poissons Ratio (x) = 0.20046 0.06080
# Poissons Ratio (y) = 0.21797 0.06735
# Poissons Ratio (z) = 0.12994 0.13238
#
# Static dielectric constant tensor:
#      x y z
#    x 1.874010 0.004170 -0.024010 
#    y 0.004170 1.928970 0.007350 
#    z -0.024010 0.007350 1.938910 
# 
# From -- ./inp_files/410103.got.cif
#   From: 2010.05.17/outbox.cif.g08.bks.cpg/sg2_206_cif.got.tgz:410103.got - 2010.06.03 11:33:40.
