data_PCOD9020047
_publ_section_title
;
Structure prediction by ZEFSAII (Michael W. Deem and Ramdas Pophale) SiO2 
 PCOD9020047
Probable space group: P -1
;
_chemical_formula_sum "Si O2"
_cell_formula_units_Z 14
_cell_length_a 15.418135
_cell_length_b 7.218002
_cell_length_c 14.689966
_cell_angle_alpha 97.978432
_cell_angle_beta 152.619379
_cell_angle_gamma 68.104381
_cell_volume 622.734066
_symmetry_space_group_name_H-M "P -1"
_symmetry_group_IT_number 2
_symmetry_cell_setting 'triclinic'
loop_
_space_group_symop_operation_xyz
x,y,z
-x,-y,-z
loop_
_atom_site_type_symbol
_atom_site_label
_atom_site_fract_x
_atom_site_fract_y
_atom_site_fract_z
Si Si1 0.600593 0.933051 0.488479
Si Si2 0.699587 0.971644 0.940692
Si Si3 0.126927 0.760668 0.413542
Si Si4 0.059633 0.521291 0.951733
Si Si5 0.862191 0.677279 0.305035
Si Si6 0.518989 0.410785 0.410347
Si Si7 0.420843 0.885483 0.815184
O O1 0.849745 0.722272 0.718543
O O2 0.500000 0.000000 0.500000
O O3 0.444164 0.896525 0.272725
O O4 0.590293 0.152928 0.460438
O O5 0.522465 0.992662 0.851587
O O6 0.842102 0.715420 0.020503
O O7 0.899939 0.980434 0.174581
O O8 0.289693 0.603857 0.473891
O O9 0.281530 0.813473 0.621740
O O10 0.030414 0.650936 0.380819
O O11 0.267098 0.552789 0.147045
O O12 0.000000 0.500000 0.000000
O O13 0.000000 0.500000 0.500000
O O14 0.746421 0.925738 0.256686
O O15 0.646067 0.686399 0.061794
O O16 0.500000 0.500000 0.500000
#
# Coordination Sequence:
#
# PCOD9020047 Si02
#       7
#     2   2   2   2   2   2   2
#     4  11  22  40  65  89 124 186 230 264 330 388
#     4  10  22  40  65  94 134 172 222 273 334 381
#     4  11  22  44  68  98 136 174 217 280 326 388
#     4  11  20  40  61  86 132 177 220 276 322 381
#     4  10  24  44  73  98 130 172 217 273 345 401
#     4  11  24  42  61  98 138 175 225 273 322 390
#     4  10  21  46  67  97 135 166 216 278 332 398
#
# _framework density 22.481506
#
# number of rings (size 3 to 8) (size 9 to 14) (size 15 to 20)
#    0.000    1.429    5.714    1.286    0.000    3.429 
#    0.000    4.286    0.000    0.000    0.000    0.000 
#    0.000    0.000    0.000    0.000    0.000    0.000 
#
# Total GULP energy -78235.019535 kJ/mol
# GULP energy per Si atom -5588.215681 kJ/mol
# Density = 2.243034 g / cm^3
# Si number density = 22.481506 Si / 1000 Ang^3
#
#
#
# Elastic Constant Matrix: (Units=GPa)
#
#
# Indices 1 2 3 4 5 6 
#
# 1 146.2111 11.8148 60.4292 -3.4389 11.5966 -12.2613
# 2 11.8148 49.5726 43.7064 4.2183 1.6072 -3.5327
# 3 60.4292 43.7064 256.9856 13.5776 -17.1027 10.5440
# 4 -3.4389 4.2183 13.5776 39.6005 -4.1217 -3.4646
# 5 11.5966 1.6072 -17.1027 -4.1217 46.0468 0.4501
# 6 -12.2613 -3.5327 10.5440 -3.4646 0.4501 23.5389
#
#
#
# Elastic Compliance Matrix: (Units=1/GPa)
#
#
# Indices 1 2 3 4 5 6 
#
# 1 0.008723 0.000719 -0.002734 0.001835 -0.003134 0.006206
# 2 0.000719 0.024838 -0.004808 -0.000699 -0.002957 0.006209
# 3 -0.002734 -0.004808 0.005854 -0.001875 0.002913 -0.005099
# 4 0.001835 -0.000699 -0.001875 0.026745 0.001205 0.005604
# 5 -0.003134 -0.002957 0.002913 0.001205 0.023835 -0.003659
# 6 0.006206 0.006209 -0.005099 0.005604 -0.003659 0.049827
#
#
# Mechanical properties :
#
#
# Convention : Reuss Voigt Hill
#
# Bulk Modulus (GPa) = 38.80524 76.07444 57.43984
# Shear Modulus (GPa) = 30.85337 44.29184 37.57261
#
# Velocity S-wave (km/s) = 3.70860 4.44345 4.09255
# Velocity P-wave (km/s) = 5.96965 7.76130 6.92367
#
# Compressibility (1/GPa) = 0.02576972
#
# Stress axis : x y z
#
# Youngs Moduli (GPa) = 114.63490 40.26104 170.82584
#
# Poissons Ratio (x) = -0.02894 0.46698
# Poissons Ratio (y) = -0.08240 0.82131
# Poissons Ratio (z) = 0.31337 0.19357
#
# Static dielectric constant tensor:
#      x y z
#    x 1.811300 0.113380 -0.091430 
#    y 0.113380 1.647130 0.159730 
#    z -0.091430 0.159730 1.829460 
# 
# From -- ./inp_files/529795.got.cif
#   From: 2010.05.17/outbox.cif.g08.bks.cpg/sg2_265_cif.got.tgz:529795.got - 2010.06.03 11:33:40.
