data_PCOD9020659
_publ_section_title
;
Structure prediction by ZEFSAII (Michael W. Deem and Ramdas Pophale) SiO2 
 PCOD9020659
Probable space group: P -1
;
_chemical_formula_sum "Si O2"
_cell_formula_units_Z 15
_cell_length_a 11.531977
_cell_length_b 17.612322
_cell_length_c 17.422800
_cell_angle_alpha 20.819289
_cell_angle_beta 150.738994
_cell_angle_gamma 146.693339
_cell_volume 610.543984
_symmetry_space_group_name_H-M "P -1"
_symmetry_group_IT_number 2
_symmetry_cell_setting 'triclinic'
loop_
_space_group_symop_operation_xyz
x,y,z
-x,-y,-z
loop_
_atom_site_type_symbol
_atom_site_label
_atom_site_fract_x
_atom_site_fract_y
_atom_site_fract_z
Si Si1 0.547618 0.645046 0.666303
Si Si2 0.155535 0.475609 0.374406
Si Si3 0.392152 0.010060 0.344617
Si Si4 0.362493 0.001580 0.717898
Si Si5 0.918519 0.146049 0.908803
Si Si6 0.578207 0.214511 0.890683
Si Si7 0.000000 0.500000 0.500000
Si Si8 0.754773 0.302370 0.198495
O O1 0.290151 0.507316 0.638448
O O2 0.483166 0.828032 0.515869
O O3 0.653819 0.749358 0.549334
O O4 0.736264 0.519053 0.937294
O O5 0.344572 0.336281 0.653977
O O6 0.267061 0.619683 0.231820
O O7 0.076567 0.648250 0.225422
O O8 0.946751 0.320526 0.359525
O O9 0.502248 0.234240 0.158880
O O10 0.500000 0.000000 0.500000
O O11 0.108882 0.999176 0.190129
O O12 0.226707 0.871913 0.692553
O O13 0.299305 0.873963 0.879992
O O14 0.653887 0.021596 0.866998
O O15 0.997508 0.262634 0.764830
O O16 0.500000 0.000000 0.000000
#
# Coordination Sequence:
#
# PCOD9020659 Si02
#       8
#     2   2   2   2   2   2   1   2
#     4  10  23  39  63  96 138 178 221 260 323 388
#     4  11  27  44  73  98 132 174 225 280 344 391
#     4  11  25  38  61 100 142 178 219 262 327 392
#     4  10  25  42  71  95 132 174 224 277 333 388
#     4  11  23  41  68 100 134 182 223 268 324 399
#     4  11  25  49  73  99 125 170 229 286 339 401
#     4  10  22  36  64  94 132 180 220 258 310 390
#     4  11  25  45  64 102 141 175 219 276 329 401
#
# _framework density 24.568255000000001
#
# number of rings (size 3 to 8) (size 9 to 14) (size 15 to 20)
#    0.000    1.333    2.667    0.800    9.333    5.333 
#    0.000    1.333    0.000    0.000    0.000    0.000 
#    0.000    0.000    0.000    0.000    0.000    0.000 
#
# Total GULP energy -83618.636907 kJ/mol
# GULP energy per Si atom -5574.575794 kJ/mol
# Density = 2.451234 g / cm^3
# Si number density = 24.568255 Si / 1000 Ang^3
#
#
#
# Elastic Constant Matrix: (Units=GPa)
#
#
# Indices 1 2 3 4 5 6 
#
# 1 58.1410 20.8217 14.4154 -10.3963 -21.9034 -17.7995
# 2 20.8217 95.3795 -9.6473 2.0224 0.9358 -17.5737
# 3 14.4154 -9.6473 85.9687 -2.1826 -26.5056 -2.2020
# 4 -10.3963 2.0224 -2.1826 29.6178 -5.2651 -7.1848
# 5 -21.9034 0.9358 -26.5056 -5.2651 39.8301 -5.4832
# 6 -17.7995 -17.5737 -2.2020 -7.1848 -5.4832 35.0372
#
#
#
# Elastic Compliance Matrix: (Units=1/GPa)
#
#
# Indices 1 2 3 4 5 6 
#
# 1 0.051138 -0.004803 0.005651 0.035282 0.041850 0.037710
# 2 -0.004803 0.012360 0.001740 -0.001898 -0.001579 0.003233
# 3 0.005651 0.001740 0.016324 0.008133 0.016241 0.008979
# 4 0.035282 -0.001898 0.008133 0.062444 0.038104 0.036251
# 5 0.041850 -0.001579 0.016241 0.038104 0.069535 0.040185
# 6 0.037710 0.003233 0.008979 0.036251 0.040185 0.063607
#
#
# Mechanical properties :
#
#
# Convention : Reuss Voigt Hill
#
# Bulk Modulus (GPa) = 11.76493 32.29654 22.03074
# Shear Modulus (GPa) = 16.74684 35.15698 25.95191
#
# Velocity S-wave (km/s) = 2.61367 3.78695 3.25363
# Velocity P-wave (km/s) = 3.72926 5.68291 4.80640
#
# Compressibility (1/GPa) = 0.08499837
#
# Stress axis : x y z
#
# Youngs Moduli (GPa) = 19.55488 80.90463 61.26117
#
# Poissons Ratio (x) = 0.38856 -0.34618
# Poissons Ratio (y) = 0.09392 -0.10659
# Poissons Ratio (z) = -0.11050 -0.14077
#
# Static dielectric constant tensor:
#      x y z
#    x 2.001160 0.027470 0.003460 
#    y 0.027470 2.095500 -0.018090 
#    z 0.003460 -0.018090 1.986870 
# 
# From -- ./inp_files/446236.got.cif
#   From: 2010.05.17/outbox.cif.g08.bks.cpg/sg2_224_cif.got.tgz:446236.got - 2010.06.03 11:33:40.
