data_PCOD9020369
_publ_section_title
;
Structure prediction by ZEFSAII (Michael W. Deem and Ramdas Pophale) SiO2 
 PCOD9020369
Probable space group: P -1
;
_chemical_formula_sum "Si O2"
_cell_formula_units_Z 14
_cell_length_a 8.332969
_cell_length_b 14.797807
_cell_length_c 5.468868
_cell_angle_alpha 76.305297
_cell_angle_beta 88.447393
_cell_angle_gamma 64.049131
_cell_volume 586.865968
_symmetry_space_group_name_H-M "P -1"
_symmetry_group_IT_number 2
_symmetry_cell_setting 'triclinic'
loop_
_space_group_symop_operation_xyz
x,y,z
-x,-y,-z
loop_
_atom_site_type_symbol
_atom_site_label
_atom_site_fract_x
_atom_site_fract_y
_atom_site_fract_z
Si Si1 0.905590 0.669255 0.487073
Si Si2 0.678748 0.182853 0.431499
Si Si3 0.437496 0.103267 0.281049
Si Si4 0.098484 0.166212 0.950759
Si Si5 0.768933 0.067137 0.011953
Si Si6 0.145972 0.498568 0.190396
Si Si7 0.798609 0.338122 0.137411
O O1 0.784200 0.615030 0.623297
O O2 0.030146 0.584550 0.337881
O O3 0.042967 0.670626 0.683380
O O4 0.829777 0.780596 0.290437
O O5 0.491259 0.180794 0.381606
O O6 0.750112 0.133689 0.724869
O O7 0.679891 0.292668 0.311029
O O8 0.798038 0.106501 0.253412
O O9 0.234721 0.143709 0.184242
O O10 0.500000 0.000000 0.500000
O O11 0.566637 0.078867 0.055374
O O12 0.902958 0.254361 0.974187
O O13 0.109090 0.055685 0.948031
O O14 0.273007 0.545008 0.038307
O O15 0.000000 0.500000 0.000000
#
# Coordination Sequence:
#
# PCOD9020369 Si02
#       7
#     2   2   2   2   2   2   2
#     4   9  19  31  58  83 113 141 185 241 291 343
#     4  10  24  38  57  80 119 163 193 231 289 343
#     4  10  22  40  57  77 116 163 202 235 278 334
#     4  11  21  34  58  85 112 150 200 243 278 337
#     4  10  23  38  56  80 117 159 200 232 281 330
#     4   8  16  36  53  81 112 144 180 233 296 347
#     4  10  22  35  56  87 115 148 189 239 294 344
#
# _framework density 23.855532
#
# number of rings (size 3 to 8) (size 9 to 14) (size 15 to 20)
#    0.857    1.429    1.429    0.429    8.000    1.143 
#    0.000    0.000    0.000    0.857    0.000   35.000 
#    0.000    0.000    0.000    0.000    0.000    0.000 
#
# Total GULP energy -78064.716961 kJ/mol
# GULP energy per Si atom -5576.051212 kJ/mol
# Density = 2.380124 g / cm^3
# Si number density = 23.855532 Si / 1000 Ang^3
#
#
#
# Elastic Constant Matrix: (Units=GPa)
#
#
# Indices 1 2 3 4 5 6 
#
# 1 58.2526 28.8243 31.1996 -19.3105 -20.0177 33.1289
# 2 28.8243 108.5202 60.5879 -13.4983 -18.5330 36.9323
# 3 31.1996 60.5879 150.9326 -27.3387 -31.1675 29.3401
# 4 -19.3105 -13.4983 -27.3387 61.2223 20.5795 -20.6700
# 5 -20.0177 -18.5330 -31.1675 20.5795 39.1204 -9.7054
# 6 33.1289 36.9323 29.3401 -20.6700 -9.7054 45.7512
#
#
#
# Elastic Compliance Matrix: (Units=1/GPa)
#
#
# Indices 1 2 3 4 5 6 
#
# 1 0.033807 0.001145 -0.000685 -0.001255 0.012267 -0.022930
# 2 0.001145 0.015126 -0.003990 -0.002972 0.003381 -0.011106
# 3 -0.000685 -0.003990 0.009745 0.001413 0.004549 -0.000929
# 4 -0.001255 -0.002972 0.001413 0.022977 -0.010387 0.010579
# 5 0.012267 0.003381 0.004549 -0.010387 0.039859 -0.010767
# 6 -0.022930 -0.011106 -0.000929 0.010579 -0.010767 0.050518
#
#
# Mechanical properties :
#
#
# Convention : Reuss Voigt Hill
#
# Bulk Modulus (GPa) = 19.37281 62.10321 40.73801
# Shear Modulus (GPa) = 25.47190 42.35833 33.91511
#
# Velocity S-wave (km/s) = 3.27120 4.21838 3.77462
# Velocity P-wave (km/s) = 4.73352 7.05804 6.00924
#
# Compressibility (1/GPa) = 0.05161873
#
# Stress axis : x y z
#
# Youngs Moduli (GPa) = 29.58010 66.11286 102.62134
#
# Poissons Ratio (x) = -0.07573 0.07028
# Poissons Ratio (y) = -0.03388 0.40943
# Poissons Ratio (z) = 0.02026 0.26377
#
# Static dielectric constant tensor:
#      x y z
#    x 1.987710 0.003780 -0.079000 
#    y 0.003780 1.897740 0.017360 
#    z -0.079000 0.017360 1.943610 
# 
# From -- ./inp_files/75760.got.cif
#   From: 2010.05.17/outbox.cif.g08.bks.cpg/sg2_38_cif.got.tgz:75760.got - 2010.06.03 11:33:40.
