data_PCOD9020200
_publ_section_title
;
Structure prediction by ZEFSAII (Michael W. Deem and Ramdas Pophale) SiO2 
 PCOD9020200
Probable space group: P -1
;
_chemical_formula_sum "Si O2"
_cell_formula_units_Z 14
_cell_length_a 9.893858
_cell_length_b 11.657604
_cell_length_c 9.786690
_cell_angle_alpha 121.186815
_cell_angle_beta 44.120591
_cell_angle_gamma 110.211478
_cell_volume 671.608095
_symmetry_space_group_name_H-M "P -1"
_symmetry_group_IT_number 2
_symmetry_cell_setting 'triclinic'
loop_
_space_group_symop_operation_xyz
x,y,z
-x,-y,-z
loop_
_atom_site_type_symbol
_atom_site_label
_atom_site_fract_x
_atom_site_fract_y
_atom_site_fract_z
Si Si1 0.391197 0.608326 0.544963
Si Si2 0.390338 0.418692 0.915159
Si Si3 0.233080 0.899247 0.834771
Si Si4 0.980022 0.526935 0.192137
Si Si5 0.920104 0.822768 0.364720
Si Si6 0.792052 0.856990 0.165262
Si Si7 0.729344 0.020083 0.849111
O O1 0.500000 0.500000 0.500000
O O2 0.484138 0.584951 0.315978
O O3 0.377142 0.769862 0.680853
O O4 0.169627 0.568696 0.690434
O O5 0.329328 0.263835 0.881918
O O6 0.500000 0.500000 0.000000
O O7 0.189307 0.501523 0.087413
O O8 0.289297 0.995163 0.728954
O O9 0.220924 0.994453 0.036008
O O10 0.014097 0.851517 0.943901
O O11 0.896631 0.677209 0.352364
O O12 0.000000 0.500000 0.000000
O O13 0.820589 0.839219 0.297672
O O14 0.151803 0.845643 0.189099
O O15 0.826302 0.921544 0.606041
O O16 0.500000 0.000000 0.000000
#
# Coordination Sequence:
#
# PCOD9020200 Si02
#       7
#     2   2   2   2   2   2   2
#     4  12  25  44  76 103 131 194 241 274 359 427
#     4  12  28  46  68 110 141 185 238 296 352 414
#     4  10  23  44  72  99 136 185 227 287 355 413
#     4  12  22  45  75  96 145 183 239 291 338 431
#     4  10  22  42  68  99 130 188 224 279 355 403
#     4  10  21  47  69  94 145 182 229 283 355 414
#     4  10  23  39  64 102 135 167 232 286 334 413
#
# _framework density 20.845490999999999
#
# number of rings (size 3 to 8) (size 9 to 14) (size 15 to 20)
#    0.000    1.143    4.286    0.857    4.000    3.429 
#   10.286    0.000    0.000    0.000    0.000    0.000 
#    0.000    0.000    0.000    0.000    0.000    0.000 
#
# Total GULP energy -78086.930224 kJ/mol
# GULP energy per Si atom -5577.637873 kJ/mol
# Density = 2.079805 g / cm^3
# Si number density = 20.845491 Si / 1000 Ang^3
#
#
#
# Elastic Constant Matrix: (Units=GPa)
#
#
# Indices 1 2 3 4 5 6 
#
# 1 121.8422 62.7059 42.0651 -0.6387 -3.4096 16.2592
# 2 62.7059 150.9512 45.2403 3.3677 3.9849 -3.1130
# 3 42.0651 45.2403 90.7198 -11.9952 2.4139 4.7912
# 4 -0.6387 3.3677 -11.9952 38.8149 9.6948 -12.4504
# 5 -3.4096 3.9849 2.4139 9.6948 24.1726 2.3889
# 6 16.2592 -3.1130 4.7912 -12.4504 2.3889 41.9770
#
#
#
# Elastic Compliance Matrix: (Units=1/GPa)
#
#
# Indices 1 2 3 4 5 6 
#
# 1 0.012782 -0.004243 -0.004145 -0.003997 0.005139 -0.006270
# 2 -0.004243 0.009354 -0.002841 -0.000424 -0.001948 0.002647
# 3 -0.004145 -0.002841 0.015256 0.006610 -0.004476 0.001869
# 4 -0.003997 -0.000424 0.006610 0.035942 -0.016793 0.012379
# 5 0.005139 -0.001948 -0.004476 -0.016793 0.050534 -0.009481
# 6 -0.006270 0.002647 0.001869 0.012379 -0.009481 0.030445
#
#
# Mechanical properties :
#
#
# Convention : Reuss Voigt Hill
#
# Bulk Modulus (GPa) = 66.96307 73.72621 70.34464
# Shear Modulus (GPa) = 27.51032 35.22636 31.36834
#
# Velocity S-wave (km/s) = 3.63674 4.11527 3.88339
# Velocity P-wave (km/s) = 7.05888 7.61744 7.34347
#
# Compressibility (1/GPa) = 0.01493360
#
# Stress axis : x y z
#
# Youngs Moduli (GPa) = 78.23718 106.90243 65.54742
#
# Poissons Ratio (x) = 0.45361 0.27168
# Poissons Ratio (y) = 0.33197 0.18624
# Poissons Ratio (z) = 0.32427 0.30375
#
# Static dielectric constant tensor:
#      x y z
#    x 1.751930 -0.003290 -0.048410 
#    y -0.003290 1.804240 -0.009600 
#    z -0.048410 -0.009600 1.724070 
# 
# From -- ./inp_files/189681.got.cif
#   From: 2010.05.17/outbox.cif.g08.bks.cpg/sg2_95_cif.got.tgz:189681.got - 2010.06.03 11:33:40.
