data_PCOD9020497
_publ_section_title
;
Structure prediction by ZEFSAII (Michael W. Deem and Ramdas Pophale) SiO2 
 PCOD9020497
Probable space group: P -1
;
_chemical_formula_sum "Si O2"
_cell_formula_units_Z 14
_cell_length_a 16.564498
_cell_length_b 19.777069
_cell_length_c 13.403413
_cell_angle_alpha 26.222834
_cell_angle_beta 24.782164
_cell_angle_gamma 21.809031
_cell_volume 641.107152
_symmetry_space_group_name_H-M "P -1"
_symmetry_group_IT_number 2
_symmetry_cell_setting 'triclinic'
loop_
_space_group_symop_operation_xyz
x,y,z
-x,-y,-z
loop_
_atom_site_type_symbol
_atom_site_label
_atom_site_fract_x
_atom_site_fract_y
_atom_site_fract_z
Si Si1 0.278922 0.195133 0.858881
Si Si2 0.880453 0.218748 0.384694
Si Si3 0.567112 0.137487 0.211265
Si Si4 0.025440 0.449728 0.421511
Si Si5 0.168338 0.974885 0.144537
Si Si6 0.611918 0.306492 0.382910
Si Si7 0.679515 0.365795 0.886647
O O1 0.500096 0.189022 0.660291
O O2 0.151365 0.360022 0.698214
O O3 0.324924 0.013225 0.989572
O O4 0.080386 0.249756 0.094638
O O5 0.653701 0.346300 0.395409
O O6 0.822972 0.199345 0.587175
O O7 0.000000 0.000000 0.500000
O O8 0.299542 0.340653 0.223320
O O9 0.500000 0.000000 0.500000
O O10 0.681378 0.184698 0.107786
O O11 0.730537 0.064633 0.026801
O O12 0.000000 0.500000 0.500000
O O13 0.937289 0.318904 0.679103
O O14 0.884588 0.168681 0.211322
O O15 0.434537 0.499416 0.262324
O O16 0.500000 0.500000 0.000000
#
# Coordination Sequence:
#
# PCOD9020497 Si02
#       7
#     2   2   2   2   2   2   2
#     4   9  18  36  63  85 112 163 201 232 292 356
#     4   8  17  33  57  89 118 154 195 240 288 355
#     4  12  26  40  59  89 126 154 195 256 309 346
#     4  11  22  40  62  83 115 160 207 244 288 366
#     4  10  22  36  57  91 124 150 192 250 304 338
#     4   9  19  37  63  86 117 155 203 239 283 362
#     4  11  24  40  64  85 114 163 208 239 292 361
#
# _framework density 21.837223000000002
#
# number of rings (size 3 to 8) (size 9 to 14) (size 15 to 20)
#    0.000    2.286    1.429    2.571    4.000    6.857 
#    0.000    2.857    0.000    3.429    0.000    0.000 
#    0.000    0.000    0.000    0.000    0.000    0.000 
#
# Total GULP energy -78177.697703 kJ/mol
# GULP energy per Si atom -5584.121264 kJ/mol
# Density = 2.178752 g / cm^3
# Si number density = 21.837223 Si / 1000 Ang^3
#
#
#
# Elastic Constant Matrix: (Units=GPa)
#
#
# Indices 1 2 3 4 5 6 
#
# 1 66.1660 18.6171 53.9786 5.4791 -9.3293 3.5731
# 2 18.6171 42.1120 17.5217 12.0465 -1.0600 3.5397
# 3 53.9786 17.5217 149.8207 13.3404 -17.2902 21.3862
# 4 5.4791 12.0465 13.3404 29.2483 -4.4753 -1.2799
# 5 -9.3293 -1.0600 -17.2902 -4.4753 59.3040 -1.1197
# 6 3.5731 3.5397 21.3862 -1.2799 -1.1197 30.4111
#
#
#
# Elastic Compliance Matrix: (Units=1/GPa)
#
#
# Indices 1 2 3 4 5 6 
#
# 1 0.024037 -0.008363 -0.008398 0.003188 0.001504 0.004245
# 2 -0.008363 0.030771 0.000834 -0.011879 -0.001490 -0.003740
# 3 -0.008398 0.000834 0.011133 -0.003925 0.001510 -0.007049
# 4 0.003188 -0.011879 -0.003925 0.040877 0.002335 0.005575
# 5 0.001504 -0.001490 0.001510 0.002335 0.017683 -0.000316
# 6 0.004245 -0.003740 -0.007049 0.005575 -0.000316 0.038000
#
#
# Mechanical properties :
#
#
# Convention : Reuss Voigt Hill
#
# Bulk Modulus (GPa) = 29.33689 48.70374 39.02032
# Shear Modulus (GPa) = 24.30520 34.99143 29.64832
#
# Velocity S-wave (km/s) = 3.33981 4.00731 3.68869
# Velocity P-wave (km/s) = 5.32315 6.61535 6.00412
#
# Compressibility (1/GPa) = 0.03408677
#
# Stress axis : x y z
#
# Youngs Moduli (GPa) = 41.60273 32.49778 89.82321
#
# Poissons Ratio (x) = 0.27178 0.75437
# Poissons Ratio (y) = 0.34792 -0.07492
# Poissons Ratio (z) = 0.34940 -0.02711
#
# Static dielectric constant tensor:
#      x y z
#    x 1.842420 -0.026910 0.006970 
#    y -0.026910 1.827130 -0.040290 
#    z 0.006970 -0.040290 1.864830 
# 
# From -- ./inp_files/456604.got.cif
#   From: 2010.05.17/outbox.cif.g08.bks.cpg/sg2_229_cif.got.tgz:456604.got - 2010.06.03 11:33:40.
