data_PCOD9020724
_publ_section_title
;
Structure prediction by ZEFSAII (Michael W. Deem and Ramdas Pophale) SiO2 
 PCOD9020724
Probable space group: P -1
;
_chemical_formula_sum "Si O2"
_cell_formula_units_Z 16
_cell_length_a 21.224357
_cell_length_b 5.346723
_cell_length_c 9.004765
_cell_angle_alpha 108.346534
_cell_angle_beta 124.892383
_cell_angle_gamma 97.235839
_cell_volume 731.528663
_symmetry_space_group_name_H-M "P -1"
_symmetry_group_IT_number 2
_symmetry_cell_setting 'triclinic'
loop_
_space_group_symop_operation_xyz
x,y,z
-x,-y,-z
loop_
_atom_site_type_symbol
_atom_site_label
_atom_site_fract_x
_atom_site_fract_y
_atom_site_fract_z
Si Si1 0.716484 0.321504 0.957619
Si Si2 0.835749 0.584099 0.935707
Si Si3 0.193645 0.934388 0.422796
Si Si4 0.423266 0.008789 0.807826
Si Si5 0.698557 0.901362 0.128308
Si Si6 0.988654 0.176510 0.879544
Si Si7 0.311862 0.378944 0.428722
Si Si8 0.429242 0.086260 0.496620
O O1 0.704645 0.602882 0.046180
O O2 0.698193 0.090709 0.020479
O O3 0.806726 0.425233 0.022916
O O4 0.653899 0.185294 0.710541
O O5 0.826626 0.354160 0.751395
O O6 0.765187 0.697282 0.806129
O O7 0.932507 0.791975 0.111346
O O8 0.107547 0.980325 0.327836
O O9 0.225582 0.920453 0.627529
O O10 0.266860 0.172187 0.468919
O O11 0.352667 0.696715 0.611682
O O12 0.451427 0.142241 0.709374
O O13 0.382159 0.161871 0.890596
O O14 0.500000 0.000000 0.000000
O O15 0.000000 0.500000 0.000000
O O16 0.000000 0.000000 0.000000
O O17 0.391597 0.328143 0.456402
O O18 0.500000 0.000000 0.500000
#
# Coordination Sequence:
#
# PCOD9020724 Si02
#       8
#     2   2   2   2   2   2   2   2
#     4  12  26  44  68 100 139 189 233 286 350 417
#     4  11  22  43  70 103 136 182 239 288 352 412
#     4  11  22  43  70 103 136 182 239 288 352 412
#     4  12  27  44  67 100 133 184 237 294 348 415
#     4  12  26  44  68 100 139 189 233 286 350 417
#     4  10  22  36  70 108 138 174 235 298 337 414
#     4  12  20  43  76  90 142 178 238 281 356 402
#     4  12  27  44  67 100 133 184 237 294 348 415
#
# _framework density 21.872008000000001
#
# number of rings (size 3 to 8) (size 9 to 14) (size 15 to 20)
#    0.000    0.500    6.250    2.250    1.750    1.000 
#    0.000    1.250    0.000    0.000    0.000    0.000 
#    0.000    0.000    0.000    0.000    0.000    0.000 
#
# Total GULP energy -89288.937847 kJ/mol
# GULP energy per Si atom -5580.558615 kJ/mol
# Density = 2.182223 g / cm^3
# Si number density = 21.872008 Si / 1000 Ang^3
#
#
#
# Elastic Constant Matrix: (Units=GPa)
#
#
# Indices 1 2 3 4 5 6 
#
# 1 84.8364 14.6935 38.8770 -15.6903 8.4430 -6.2712
# 2 14.6935 80.6561 16.3965 -11.6164 -10.8827 -7.5645
# 3 38.8770 16.3965 69.0310 -23.3529 -6.3345 -9.3541
# 4 -15.6903 -11.6164 -23.3529 42.5580 -6.9977 -3.4020
# 5 8.4430 -10.8827 -6.3345 -6.9977 42.2772 -2.5037
# 6 -6.2712 -7.5645 -9.3541 -3.4020 -2.5037 34.8982
#
#
#
# Elastic Compliance Matrix: (Units=1/GPa)
#
#
# Indices 1 2 3 4 5 6 
#
# 1 0.017084 -0.001978 -0.009947 -0.000650 -0.005548 -0.000486
# 2 -0.001978 0.014382 0.000132 0.004387 0.005056 0.003588
# 3 -0.009947 0.000132 0.026055 0.012617 0.008431 0.007060
# 4 -0.000650 0.004387 0.012617 0.033539 0.009183 0.008144
# 5 -0.005548 0.005056 0.008431 0.009183 0.029162 0.005346
# 6 -0.000486 0.003588 0.007060 0.008144 0.005346 0.032415
#
#
# Mechanical properties :
#
#
# Convention : Reuss Voigt Hill
#
# Bulk Modulus (GPa) = 29.46711 41.60639 35.53675
# Shear Modulus (GPa) = 26.66172 34.91712 30.78942
#
# Velocity S-wave (km/s) = 3.49519 3.99987 3.75601
# Velocity P-wave (km/s) = 5.45804 6.35578 5.92394
#
# Compressibility (1/GPa) = 0.03393614
#
# Stress axis : x y z
#
# Youngs Moduli (GPa) = 58.53448 69.53007 38.38032
#
# Poissons Ratio (x) = 0.13753 0.38175
# Poissons Ratio (y) = 0.11578 -0.00507
# Poissons Ratio (z) = 0.58221 -0.00918
#
# Static dielectric constant tensor:
#      x y z
#    x 1.882540 -0.023010 0.028200 
#    y -0.023010 1.887870 -0.006840 
#    z 0.028200 -0.006840 1.782850 
# 
# From -- ./inp_files/48364.got.cif
#   From: 2010.05.17/outbox.cif.g08.bks.cpg/sg2_25_cif.got.tgz:48364.got - 2010.06.03 11:33:40.
