data_PCOD9020421
_publ_section_title
;
Structure prediction by ZEFSAII (Michael W. Deem and Ramdas Pophale) SiO2 
 PCOD9020421
Probable space group: P -1
;
_chemical_formula_sum "Si O2"
_cell_formula_units_Z 12
_cell_length_a 4.881381
_cell_length_b 19.911373
_cell_length_c 13.484228
_cell_angle_alpha 21.262607
_cell_angle_beta 93.618201
_cell_angle_gamma 100.679165
_cell_volume 444.416226
_symmetry_space_group_name_H-M "P -1"
_symmetry_group_IT_number 2
_symmetry_cell_setting 'triclinic'
loop_
_space_group_symop_operation_xyz
x,y,z
-x,-y,-z
loop_
_atom_site_type_symbol
_atom_site_label
_atom_site_fract_x
_atom_site_fract_y
_atom_site_fract_z
Si Si1 0.251313 0.344489 0.853983
Si Si2 0.203812 0.882064 0.993941
Si Si3 0.121708 0.272959 0.375429
Si Si4 0.780907 0.035389 0.524513
Si Si5 0.334924 0.610457 0.665572
Si Si6 0.669339 0.760524 0.274874
O O1 0.990730 0.293590 0.840342
O O2 0.172691 0.426393 0.843711
O O3 0.534628 0.525018 0.578203
O O4 0.313739 0.145911 0.150506
O O5 0.008897 0.844277 0.142352
O O6 0.508504 0.862089 0.056978
O O7 0.199786 0.074777 0.669614
O O8 0.891395 0.309600 0.395621
O O9 0.438228 0.432246 0.193961
O O10 0.951856 0.232122 0.322252
O O11 0.500000 0.000000 0.500000
O O12 0.000000 0.000000 0.500000
O O13 0.547265 0.763581 0.378793
#
# Coordination Sequence:
#
# PCOD9020421 Si02
#       6
#     2   2   2   2   2   2
#     4   9  24  41  62  89 126 155 206 251 293 352
#     4  11  21  37  61  89 123 172 204 236 278 355
#     4  11  23  41  60  92 126 154 200 251 296 353
#     4  11  25  46  70  88 111 156 206 253 308 364
#     4  10  23  38  60  88 134 157 191 248 302 345
#     4  10  22  35  63  87 127 163 208 229 295 348
#
# _framework density 27.001715000000001
#
# number of rings (size 3 to 8) (size 9 to 14) (size 15 to 20)
#    1.000    0.667    0.000    4.000    0.000   12.000 
#    0.000    5.000    0.000    0.000    0.000    0.000 
#    0.000    0.000    0.000    0.000    0.000    0.000 
#
# Total GULP energy -67165.177402 kJ/mol
# GULP energy per Si atom -5597.098117 kJ/mol
# Density = 2.694026 g / cm^3
# Si number density = 27.001715 Si / 1000 Ang^3
#
#
#
# Elastic Constant Matrix: (Units=GPa)
#
#
# Indices 1 2 3 4 5 6 
#
# 1 143.4880 33.6276 -0.8640 8.8165 9.5720 11.5394
# 2 33.6276 178.3698 -3.8896 5.9020 9.9292 8.9031
# 3 -0.8640 -3.8896 51.3941 6.4535 4.8754 0.1964
# 4 8.8165 5.9020 6.4535 40.6017 9.9994 -1.7333
# 5 9.5720 9.9292 4.8754 9.9994 22.4912 11.1221
# 6 11.5394 8.9031 0.1964 -1.7333 11.1221 46.4852
#
#
#
# Elastic Compliance Matrix: (Units=1/GPa)
#
#
# Indices 1 2 3 4 5 6 
#
# 1 0.007540 -0.001222 0.000337 -0.001182 -0.001570 -0.001307
# 2 -0.001222 0.005988 0.000651 -0.000240 -0.001967 -0.000384
# 3 0.000337 0.000651 0.020190 -0.002354 -0.004051 0.000588
# 4 -0.001182 -0.000240 -0.002354 0.028985 -0.014148 0.004815
# 5 -0.001570 -0.001967 -0.004051 -0.014148 0.060158 -0.014137
# 6 -0.001307 -0.000384 0.000588 0.004815 -0.014137 0.025470
#
#
# Mechanical properties :
#
#
# Convention : Reuss Voigt Hill
#
# Bulk Modulus (GPa) = 30.07684 47.88888 38.98286
# Shear Modulus (GPa) = 31.27268 44.87415 38.07342
#
# Velocity S-wave (km/s) = 3.40689 4.08106 3.75912
# Velocity P-wave (km/s) = 5.16129 6.32303 5.77147
#
# Compressibility (1/GPa) = 0.03324817
#
# Stress axis : x y z
#
# Youngs Moduli (GPa) = 132.62121 167.01099 49.52931
#
# Poissons Ratio (x) = 0.20416 -0.01667
# Poissons Ratio (y) = 0.16212 -0.03224
# Poissons Ratio (z) = -0.04465 -0.10870
#
# Static dielectric constant tensor:
#      x y z
#    x 2.001420 0.006310 -0.043290 
#    y 0.006310 2.207950 -0.045210 
#    z -0.043290 -0.045210 2.224940 
# 
# From -- ./inp_files/59233.got.cif
#   From: 2010.05.17/outbox.cif.g08.bks.cpg/sg2_30_cif.got.tgz:59233.got - 2010.06.03 11:33:40.
