data_PCOD9020480
_publ_section_title
;
Structure prediction by ZEFSAII (Michael W. Deem and Ramdas Pophale) SiO2 
 PCOD9020480
Probable space group: P -1
;
_chemical_formula_sum "Si O2"
_cell_formula_units_Z 12
_cell_length_a 9.949386
_cell_length_b 10.743469
_cell_length_c 16.486030
_cell_angle_alpha 33.722464
_cell_angle_beta 36.980777
_cell_angle_gamma 28.140159
_cell_volume 446.775962
_symmetry_space_group_name_H-M "P -1"
_symmetry_group_IT_number 2
_symmetry_cell_setting 'triclinic'
loop_
_space_group_symop_operation_xyz
x,y,z
-x,-y,-z
loop_
_atom_site_type_symbol
_atom_site_label
_atom_site_fract_x
_atom_site_fract_y
_atom_site_fract_z
Si Si1 0.834370 0.497424 0.247467
Si Si2 0.161806 0.716825 0.020658
Si Si3 0.370751 0.126272 0.082049
Si Si4 0.533898 0.430630 0.194701
Si Si5 0.667241 0.154173 0.460166
Si Si6 0.983419 0.496501 0.411836
O O1 0.768114 0.278369 0.407414
O O2 0.029672 0.549992 0.174761
O O3 0.028797 0.363192 0.142269
O O4 0.520544 0.825204 0.220777
O O5 0.178701 0.799138 0.874662
O O6 0.500000 0.500000 0.000000
O O7 0.000000 0.000000 0.000000
O O8 0.502047 0.281518 0.954854
O O9 0.500000 0.000000 0.000000
O O10 0.588540 0.325318 0.318660
O O11 0.250630 0.486536 0.268078
O O12 0.357366 0.243348 0.587561
O O13 0.913587 0.811552 0.505139
O O14 0.000000 0.500000 0.500000
#
# Coordination Sequence:
#
# PCOD9020480 Si02
#       6
#     2   2   2   2   2   2
#     4  11  23  38  60  88 123 152 196 254 303 355
#     4  11  25  42  60  86 117 163 209 247 293 347
#     4  11  21  33  56  90 121 150 189 237 312 363
#     4  10  22  38  63  86 126 157 196 248 296 359
#     4  11  22  37  61  92 124 150 194 241 309 368
#     4  10  22  36  56  91 125 159 189 232 304 373
#
# _framework density 26.859099000000001
#
# number of rings (size 3 to 8) (size 9 to 14) (size 15 to 20)
#    0.000    1.333    1.667    5.500    4.667    6.667 
#    0.000    0.000    0.000    6.000    0.000    0.000 
#    0.000    0.000    0.000    0.000    0.000    0.000 
#
# Total GULP energy -67145.172515 kJ/mol
# GULP energy per Si atom -5595.431043 kJ/mol
# Density = 2.679797 g / cm^3
# Si number density = 26.859099 Si / 1000 Ang^3
#
#
#
# Elastic Constant Matrix: (Units=GPa)
#
#
# Indices 1 2 3 4 5 6 
#
# 1 88.3426 29.4457 45.7278 0.4754 -30.1032 19.1553
# 2 29.4457 179.6227 37.4451 -1.1335 -15.3023 25.0857
# 3 45.7278 37.4451 112.3688 6.8587 -32.3885 17.1455
# 4 0.4754 -1.1335 6.8587 51.1082 4.5810 -8.9337
# 5 -30.1032 -15.3023 -32.3885 4.5810 55.5373 -9.0485
# 6 19.1553 25.0857 17.1455 -8.9337 -9.0485 41.2962
#
#
#
# Elastic Compliance Matrix: (Units=1/GPa)
#
#
# Indices 1 2 3 4 5 6 
#
# 1 0.016644 -0.000758 -0.004121 -0.000919 0.005754 -0.004487
# 2 -0.000758 0.006394 -0.001319 -0.000209 0.000109 -0.003006
# 3 -0.004121 -0.001319 0.012869 -0.002518 0.004768 -0.002130
# 4 -0.000919 -0.000209 -0.002518 0.021134 -0.002864 0.005543
# 5 0.005754 0.000109 0.004768 -0.002864 0.024165 -0.000039
# 6 -0.004487 -0.003006 -0.002130 0.005543 -0.000039 0.030197
#
#
# Mechanical properties :
#
#
# Convention : Reuss Voigt Hill
#
# Bulk Modulus (GPa) = 42.53615 67.28568 54.91092
# Shear Modulus (GPa) = 37.98278 47.43603 42.70940
#
# Velocity S-wave (km/s) = 3.76460 4.20707 3.99197
# Velocity P-wave (km/s) = 5.89639 6.97889 6.46035
#
# Compressibility (1/GPa) = 0.02350941
#
# Stress axis : x y z
#
# Youngs Moduli (GPa) = 60.08129 156.38735 77.70543
#
# Poissons Ratio (x) = 0.11859 0.32025
# Poissons Ratio (y) = 0.04556 0.10252
# Poissons Ratio (z) = 0.24762 0.20634
#
# Static dielectric constant tensor:
#      x y z
#    x 2.308490 0.074280 0.089350 
#    y 0.074280 2.123050 -0.023280 
#    z 0.089350 -0.023280 2.180190 
# 
# From -- ./inp_files/60724.got.cif
#   From: 2010.05.17/outbox.cif.g08.bks.cpg/sg2_31_cif.got.tgz:60724.got - 2010.06.03 11:33:40.
