data_PCOD9020652
_publ_section_title
;
Structure prediction by ZEFSAII (Michael W. Deem and Ramdas Pophale) SiO2 
 PCOD9020652
Probable space group: P -1
;
_chemical_formula_sum "Si O2"
_cell_formula_units_Z 16
_cell_length_a 12.417384
_cell_length_b 18.168195
_cell_length_c 21.336892
_cell_angle_alpha 19.546863
_cell_angle_beta 152.907004
_cell_angle_gamma 152.084055
_cell_volume 701.263397
_symmetry_space_group_name_H-M "P -1"
_symmetry_group_IT_number 2
_symmetry_cell_setting 'triclinic'
loop_
_space_group_symop_operation_xyz
x,y,z
-x,-y,-z
loop_
_atom_site_type_symbol
_atom_site_label
_atom_site_fract_x
_atom_site_fract_y
_atom_site_fract_z
Si Si1 0.530084 0.850486 0.696303
Si Si2 0.746245 0.902889 0.979676
Si Si3 0.837184 0.001482 0.354053
Si Si4 0.320502 0.190909 0.378780
Si Si5 0.277873 0.594030 0.955394
Si Si6 0.889400 0.557565 0.140100
Si Si7 0.225289 0.434654 0.630712
Si Si8 0.346391 0.643294 0.397301
O O1 0.303541 0.618782 0.772506
O O2 0.500000 0.000000 0.500000
O O3 0.481474 0.018638 0.589386
O O4 0.775940 0.771568 0.897373
O O5 0.769276 0.797694 0.144312
O O6 0.567011 0.708841 0.000174
O O7 0.651099 0.122569 0.754354
O O8 0.000000 0.000000 0.000000
O O9 0.633827 0.752018 0.437784
O O10 0.763170 0.238684 0.143671
O O11 0.000000 0.000000 0.500000
O O12 0.045099 0.060306 0.361899
O O13 0.503569 0.386587 0.359089
O O14 0.267783 0.340474 0.174467
O O15 0.122623 0.568127 0.832673
O O16 0.155928 0.615571 0.263704
O O17 0.230033 0.446018 0.547890
O O18 0.000000 0.500000 0.500000
#
# Coordination Sequence:
#
# PCOD9020652 Si02
#       8
#     2   2   2   2   2   2   2   2
#     4  11  25  42  68  98 142 181 222 272 347 419
#     4  10  22  36  64  92 130 172 226 282 333 393
#     4  11  22  45  74  95 132 181 242 279 331 403
#     4  11  23  44  72  99 128 185 233 282 333 406
#     4  10  23  44  66 101 132 179 229 280 340 404
#     4  11  26  41  66 102 144 179 220 278 354 413
#     4  11  23  36  65  98 132 168 229 284 338 395
#     4  11  25  42  63 101 138 177 225 286 340 404
#
# _framework density 22.815961999999999
#
# number of rings (size 3 to 8) (size 9 to 14) (size 15 to 20)
#    0.000    1.250    3.750    1.125    8.750    0.000 
#    0.000    3.125    0.000    0.000    0.000    0.000 
#    0.000    0.000    0.000    0.000    0.000    0.000 
#
# Total GULP energy -89075.138467 kJ/mol
# GULP energy per Si atom -5567.196154 kJ/mol
# Density = 2.276403 g / cm^3
# Si number density = 22.815962 Si / 1000 Ang^3
#
#
#
# Elastic Constant Matrix: (Units=GPa)
#
#
# Indices 1 2 3 4 5 6 
#
# 1 50.9015 36.7583 30.9979 6.1764 -18.2855 2.1263
# 2 36.7583 130.6120 21.0355 27.4516 -29.7805 12.0967
# 3 30.9979 21.0355 129.9822 0.7295 -26.2732 3.6953
# 4 6.1764 27.4516 0.7295 32.7974 -2.7961 -1.6311
# 5 -18.2855 -29.7805 -26.2732 -2.7961 43.9092 -0.0950
# 6 2.1263 12.0967 3.6953 -1.6311 -0.0950 30.0655
#
#
#
# Elastic Compliance Matrix: (Units=1/GPa)
#
#
# Indices 1 2 3 4 5 6 
#
# 1 0.028918 -0.006500 -0.004927 0.000568 0.004724 0.001221
# 2 -0.006500 0.013305 0.000862 -0.009676 0.006205 -0.005505
# 3 -0.004927 0.000862 0.009632 0.000303 0.004313 -0.001152
# 4 0.000568 -0.009676 0.000303 0.038454 -0.003684 0.005890
# 5 0.004724 0.006205 0.004313 -0.003684 0.031288 -0.003462
# 6 0.001221 -0.005505 -0.001152 0.005890 -0.003462 0.035839
#
#
# Mechanical properties :
#
#
# Convention : Reuss Voigt Hill
#
# Bulk Modulus (GPa) = 32.54851 54.34213 43.44532
# Shear Modulus (GPa) = 26.48185 36.20135 31.34160
#
# Velocity S-wave (km/s) = 3.41056 3.98762 3.71033
# Velocity P-wave (km/s) = 5.45948 6.71348 6.11869
#
# Compressibility (1/GPa) = 0.03072338
#
# Stress axis : x y z
#
# Youngs Moduli (GPa) = 34.58096 75.15955 103.82412
#
# Poissons Ratio (x) = 0.48854 0.51157
# Poissons Ratio (y) = 0.22478 -0.08948
# Poissons Ratio (z) = 0.17039 -0.06478
#
# Static dielectric constant tensor:
#      x y z
#    x 0.956870 -0.716980 -0.206540 
#    y -0.716980 1.466020 -0.165930 
#    z -0.206540 -0.165930 1.849880 
# 
# From -- ./inp_files/595987.got.cif
#   From: 2010.05.17/outbox.cif.g08.bks.cpg/sg2_298_cif.got.tgz:595987.got - 2010.06.03 11:33:40.
