data_PCOD9020925
_publ_section_title
;
Structure prediction by ZEFSAII (Michael W. Deem and Ramdas Pophale) SiO2 
 PCOD9020925
Probable space group: P -1
;
_chemical_formula_sum "Si O2"
_cell_formula_units_Z 16
_cell_length_a 18.601270
_cell_length_b 12.384822
_cell_length_c 9.344527
_cell_angle_alpha 143.234990
_cell_angle_beta 39.681344
_cell_angle_gamma 143.417224
_cell_volume 718.146918
_symmetry_space_group_name_H-M "P -1"
_symmetry_group_IT_number 2
_symmetry_cell_setting 'triclinic'
loop_
_space_group_symop_operation_xyz
x,y,z
-x,-y,-z
loop_
_atom_site_type_symbol
_atom_site_label
_atom_site_fract_x
_atom_site_fract_y
_atom_site_fract_z
Si Si1 0.357699 0.798687 0.584073
Si Si2 0.305464 0.527689 0.115754
Si Si3 0.467234 0.575263 0.336971
Si Si4 0.736425 0.881441 0.926573
Si Si5 0.923816 0.870373 0.841166
Si Si6 0.146084 0.582651 0.910299
Si Si7 0.838246 0.017393 0.605245
Si Si8 0.292906 0.440855 0.725700
O O1 0.351318 0.725916 0.354927
O O2 0.466348 0.768460 0.468067
O O3 0.230555 0.636571 0.694839
O O4 0.350383 0.007281 0.826336
O O5 0.165980 0.360343 0.209405
O O6 0.402901 0.435122 0.886349
O O7 0.304024 0.554643 0.977234
O O8 0.356534 0.363564 0.208269
O O9 0.417734 0.553906 0.553278
O O10 0.826573 0.935465 0.983883
O O11 0.827646 0.962963 0.732605
O O12 0.025613 0.896444 0.590456
O O13 0.000000 0.000000 0.000000
O O14 0.195805 0.797919 0.148677
O O15 0.175790 0.434640 0.805938
O O16 0.000000 0.500000 0.000000
O O17 0.742237 0.796430 0.446745
#
# Coordination Sequence:
#
# PCOD9020925 Si02
#       8
#     2   2   2   2   2   2   2   2
#     4  10  22  39  63  93 120 156 210 257 304 359
#     4  12  23  41  63  91 130 162 199 263 312 357
#     4  10  22  44  66  88 120 164 216 250 299 370
#     4  10  23  41  67  91 118 167 206 250 306 367
#     4  12  24  39  60  95 129 159 197 255 316 363
#     4  10  22  37  62  91 120 164 211 247 296 374
#     4  10  22  40  63  86 124 162 204 246 298 372
#     4  10  23  41  62  90 124 164 204 252 309 364
#
# _framework density 22.279563
#
# number of rings (size 3 to 8) (size 9 to 14) (size 15 to 20)
#    0.000    1.500    2.500    1.875    7.000    1.500 
#    0.000    1.875    0.000    6.000    0.000    0.000 
#    0.000    0.000    0.000    0.000    0.000    0.000 
#
# Total GULP energy -89439.664036 kJ/mol
# GULP energy per Si atom -5589.979002 kJ/mol
# Density = 2.222885 g / cm^3
# Si number density = 22.279563 Si / 1000 Ang^3
#
#
#
# Elastic Constant Matrix: (Units=GPa)
#
#
# Indices 1 2 3 4 5 6 
#
# 1 87.9663 22.4333 46.7641 -6.9789 6.5023 -4.6791
# 2 22.4333 80.8688 40.8731 -21.0388 6.2993 -6.9010
# 3 46.7641 40.8731 128.2240 -2.6170 5.8979 -12.9170
# 4 -6.9789 -21.0388 -2.6170 44.4331 -10.4233 -5.2700
# 5 6.5023 6.2993 5.8979 -10.4233 28.6764 -3.7806
# 6 -4.6791 -6.9010 -12.9170 -5.2700 -3.7806 20.8947
#
#
#
# Elastic Compliance Matrix: (Units=1/GPa)
#
#
# Indices 1 2 3 4 5 6 
#
# 1 0.014418 -0.001201 -0.004796 0.000997 -0.001681 -0.000186
# 2 -0.001201 0.017625 -0.004534 0.008789 0.001211 0.005185
# 3 -0.004796 -0.004534 0.011369 -0.001865 -0.000417 0.003911
# 4 0.000997 0.008789 -0.001865 0.030659 0.010911 0.011680
# 5 -0.001681 0.001211 -0.000417 0.010911 0.040333 0.009815
# 6 -0.000186 0.005185 0.003911 0.011680 0.009815 0.056669
#
#
# Mechanical properties :
#
#
# Convention : Reuss Voigt Hill
#
# Bulk Modulus (GPa) = 44.74631 57.46667 51.10649
# Shear Modulus (GPa) = 25.05209 31.26676 28.15942
#
# Velocity S-wave (km/s) = 3.35691 3.75024 3.55901
# Velocity P-wave (km/s) = 5.92897 6.67846 6.31485
#
# Compressibility (1/GPa) = 0.02234821
#
# Stress axis : x y z
#
# Youngs Moduli (GPa) = 69.35988 56.73703 87.96162
#
# Poissons Ratio (x) = 0.06813 0.42191
# Poissons Ratio (y) = 0.08328 0.39885
# Poissons Ratio (z) = 0.33268 0.25727
#
# Static dielectric constant tensor:
#      x y z
#    x 1.815250 -0.006140 0.006450 
#    y -0.006140 1.824140 -0.007340 
#    z 0.006450 -0.007340 1.818990 
# 
# From -- ./inp_files/333882.got.cif
#   From: 2010.05.17/outbox.cif.g08.bks.cpg/sg2_167_cif.got.tgz:333882.got - 2010.06.03 11:33:40.
