data_PCOD9020914
_publ_section_title
;
Structure prediction by ZEFSAII (Michael W. Deem and Ramdas Pophale) SiO2 
 PCOD9020914
Probable space group: P -1
;
_chemical_formula_sum "Si O2"
_cell_formula_units_Z 16
_cell_length_a 18.257419
_cell_length_b 16.219887
_cell_length_c 8.677369
_cell_angle_alpha 39.043571
_cell_angle_beta 58.102431
_cell_angle_gamma 27.715303
_cell_volume 632.017776
_symmetry_space_group_name_H-M "P -1"
_symmetry_group_IT_number 2
_symmetry_cell_setting 'triclinic'
loop_
_space_group_symop_operation_xyz
x,y,z
-x,-y,-z
loop_
_atom_site_type_symbol
_atom_site_label
_atom_site_fract_x
_atom_site_fract_y
_atom_site_fract_z
Si Si1 0.255100 0.616911 0.402325
Si Si2 0.932321 0.384113 0.478465
Si Si3 0.259647 0.108856 0.361182
Si Si4 0.619763 0.465419 0.950525
Si Si5 0.043196 0.290752 0.802655
Si Si6 0.325998 0.029003 0.069367
Si Si7 0.310325 0.295591 0.191075
Si Si8 0.780815 0.288729 0.358433
O O1 0.111158 0.688762 0.458788
O O2 0.237717 0.728067 0.416191
O O3 0.458009 0.276242 0.692703
O O4 0.314925 0.439136 0.930606
O O5 0.088489 0.270492 0.401498
O O6 0.021185 0.229855 0.768289
O O7 0.748857 0.721497 0.230131
O O8 0.232739 0.107393 0.217565
O O9 0.271955 0.248036 0.162931
O O10 0.460318 0.792021 0.661778
O O11 0.740075 0.332867 0.852530
O O12 0.500000 0.500000 0.000000
O O13 0.705177 0.329406 0.223201
O O14 0.000000 0.500000 0.500000
O O15 0.875978 0.473142 0.835097
O O16 0.246990 0.036158 0.019288
O O17 0.500000 0.000000 0.500000
O O18 0.000000 0.000000 0.500000
#
# Coordination Sequence:
#
# PCOD9020914 Si02
#       8
#     2   2   2   2   2   2   2   2
#     4  11  27  47  76 108 146 207 253 316 375 462
#     4  11  22  39  67 110 149 186 240 312 380 446
#     4  11  23  43  72 109 144 197 245 311 377 443
#     4  11  28  54  76 107 152 201 256 312 385 462
#     4  10  22  37  62 106 149 189 242 307 377 439
#     4  10  22  38  64 104 151 187 244 299 380 444
#     4  12  24  44  77 109 155 196 252 315 375 454
#     4  12  30  50  78 113 153 201 257 315 386 454
#
# _framework density 25.315743000000001
#
# number of rings (size 3 to 8) (size 9 to 14) (size 15 to 20)
#    0.000    1.000    3.750    2.250   10.500    2.000 
#    2.250    0.000    0.000    0.000    0.000    0.000 
#    0.000    0.000    0.000    0.000    0.000    0.000 
#
# Total GULP energy -89440.787157 kJ/mol
# GULP energy per Si atom -5590.049197 kJ/mol
# Density = 2.525812 g / cm^3
# Si number density = 25.315743 Si / 1000 Ang^3
#
#
#
# Elastic Constant Matrix: (Units=GPa)
#
#
# Indices 1 2 3 4 5 6 
#
# 1 116.1587 28.8205 39.3118 22.4375 36.5461 16.5402
# 2 28.8205 83.4489 19.6815 12.4229 6.5108 10.5658
# 3 39.3118 19.6815 115.0309 -2.0620 21.3169 11.4205
# 4 22.4375 12.4229 -2.0620 37.2474 3.1722 8.6936
# 5 36.5461 6.5108 21.3169 3.1722 48.2669 8.4299
# 6 16.5402 10.5658 11.4205 8.6936 8.4299 29.0319
#
#
#
# Elastic Compliance Matrix: (Units=1/GPa)
#
#
# Indices 1 2 3 4 5 6 
#
# 1 0.014474 -0.002398 -0.002902 -0.006962 -0.008609 -0.001647
# 2 -0.002398 0.013821 -0.001575 -0.002757 0.001280 -0.002591
# 3 -0.002902 -0.001575 0.010651 0.003610 -0.002107 -0.002433
# 4 -0.006962 -0.002757 0.003610 0.033628 0.003137 -0.007431
# 5 -0.008609 0.001280 -0.002107 0.003137 0.028476 -0.003940
# 6 -0.001647 -0.002591 -0.002433 -0.007431 -0.003940 0.040653
#
#
# Mechanical properties :
#
#
# Convention : Reuss Voigt Hill
#
# Bulk Modulus (GPa) = 39.68684 54.47401 47.08042
# Shear Modulus (GPa) = 30.51534 38.03088 34.27311
#
# Velocity S-wave (km/s) = 3.47564 3.88011 3.68343
# Velocity P-wave (km/s) = 5.64070 6.45277 6.06035
#
# Compressibility (1/GPa) = 0.02519727
#
# Stress axis : x y z
#
# Youngs Moduli (GPa) = 69.08997 72.35133 93.88593
#
# Poissons Ratio (x) = 0.17347 0.27247
# Poissons Ratio (y) = 0.16565 0.14786
# Poissons Ratio (z) = 0.20051 0.11394
#
# Static dielectric constant tensor:
#      x y z
#    x 2.044750 0.039510 -0.077240 
#    y 0.039510 2.056690 0.030670 
#    z -0.077240 0.030670 2.155330 
# 
# From -- ./inp_files/335223.got.cif
#   From: 2010.05.17/outbox.cif.g08.bks.cpg/sg2_168_cif.got.tgz:335223.got - 2010.06.03 11:33:40.
