data_PCOD9020372
_publ_section_title
;
Structure prediction by ZEFSAII (Michael W. Deem and Ramdas Pophale) SiO2 
 PCOD9020372
Probable space group: P -1
;
_chemical_formula_sum "Si O2"
_cell_formula_units_Z 16
_cell_length_a 11.093854
_cell_length_b 15.179904
_cell_length_c 5.411335
_cell_angle_alpha 58.252955
_cell_angle_beta 119.247596
_cell_angle_gamma 121.428382
_cell_volume 631.777735
_symmetry_space_group_name_H-M "P -1"
_symmetry_group_IT_number 2
_symmetry_cell_setting 'triclinic'
loop_
_space_group_symop_operation_xyz
x,y,z
-x,-y,-z
loop_
_atom_site_type_symbol
_atom_site_label
_atom_site_fract_x
_atom_site_fract_y
_atom_site_fract_z
Si Si1 0.682199 0.921679 0.265792
Si Si2 0.557836 0.252559 0.008230
Si Si3 0.784906 0.657333 0.666304
Si Si4 0.232068 0.852507 0.797897
Si Si5 0.106727 0.471794 0.340036
Si Si6 0.057830 0.098640 0.708831
Si Si7 0.925471 0.328113 0.748863
Si Si8 0.542689 0.693861 0.670557
O O1 0.852570 0.952298 0.313812
O O2 0.643856 0.825011 0.572784
O O3 0.422067 0.136977 0.982962
O O4 0.657331 0.026419 0.201045
O O5 0.700901 0.217459 0.208493
O O6 0.533068 0.319488 0.119500
O O7 0.560524 0.315578 0.658706
O O8 0.760188 0.554561 0.610846
O O9 0.818497 0.771919 0.373887
O O10 0.657537 0.638444 0.770954
O O11 0.934230 0.665611 0.947351
O O12 0.088569 0.873119 0.526285
O O13 0.194337 0.785473 0.117532
O O14 0.135368 0.571617 0.413576
O O15 0.003359 0.355612 0.525157
O O16 0.000000 0.500000 0.000000
O O17 0.000000 0.000000 0.000000
#
# Coordination Sequence:
#
# PCOD9020372 Si02
#       8
#     2   2   2   2   2   2   2   2
#     4   9  22  38  57  85 126 172 211 254 306 378
#     4  10  23  42  61  87 130 175 222 253 305 380
#     4   9  19  36  61  88 118 169 208 252 325 369
#     4  11  22  39  59  94 126 173 209 263 325 361
#     4   9  18  37  58  94 121 158 201 265 326 388
#     4  10  22  35  56  93 128 162 211 269 305 378
#     4   9  20  35  61  93 127 151 210 268 319 382
#     4   9  22  39  61  88 123 174 220 253 296 381
#
# _framework density 25.32536
#
# number of rings (size 3 to 8) (size 9 to 14) (size 15 to 20)
#    0.750    1.750    0.000    0.750    5.250    1.500 
#    4.500    0.000    0.000    1.500    0.000    0.000 
#    0.000    0.000    0.000    0.000    0.000    0.000 
#
# Total GULP energy -89136.047415 kJ/mol
# GULP energy per Si atom -5571.002963 kJ/mol
# Density = 2.526772 g / cm^3
# Si number density = 25.325360 Si / 1000 Ang^3
#
#
#
# Elastic Constant Matrix: (Units=GPa)
#
#
# Indices 1 2 3 4 5 6 
#
# 1 112.4953 34.2662 32.0559 6.3409 13.1544 -27.3640
# 2 34.2662 77.5611 14.7252 -5.9204 7.9378 -34.5204
# 3 32.0559 14.7252 97.8990 -0.2439 -11.6471 -11.5736
# 4 6.3409 -5.9204 -0.2439 27.3451 -8.8109 -0.5425
# 5 13.1544 7.9378 -11.6471 -8.8109 34.8762 -2.1410
# 6 -27.3640 -34.5204 -11.5736 -0.5425 -2.1410 47.5205
#
#
#
# Elastic Compliance Matrix: (Units=1/GPa)
#
#
# Indices 1 2 3 4 5 6 
#
# 1 0.013097 -0.002949 -0.004209 -0.005860 -0.006910 0.003997
# 2 -0.002949 0.020767 -0.000811 0.004836 -0.001855 0.013162
# 3 -0.004209 -0.000811 0.012575 0.003105 0.006780 0.000391
# 4 -0.005860 0.004836 0.003105 0.043298 0.013207 0.001984
# 5 -0.006910 -0.001855 0.006780 0.013207 0.037189 -0.001849
# 6 0.003997 0.013162 0.000391 0.001984 -0.001849 0.032941
#
#
# Mechanical properties :
#
#
# Convention : Reuss Voigt Hill
#
# Bulk Modulus (GPa) = 32.78456 50.00557 41.39507
# Shear Modulus (GPa) = 26.88590 35.74223 31.31406
#
# Velocity S-wave (km/s) = 3.26179 3.76083 3.52016
# Velocity P-wave (km/s) = 5.21144 6.21664 5.73610
#
# Compressibility (1/GPa) = 0.03050216
#
# Stress axis : x y z
#
# Youngs Moduli (GPa) = 76.35196 48.15407 79.52024
#
# Poissons Ratio (x) = 0.14199 0.33472
# Poissons Ratio (y) = 0.22513 0.06447
# Poissons Ratio (z) = 0.32138 0.03904
#
# Static dielectric constant tensor:
#      x y z
#    x 2.080450 0.050030 0.009790 
#    y 0.050030 2.071340 0.049990 
#    z 0.009790 0.049990 2.012990 
# 
# From -- ./inp_files/79535.got.cif
#   From: 2010.05.17/outbox.cif.g08.bks.cpg/sg2_40_cif.got.tgz:79535.got - 2010.06.03 11:33:40.
