data_PCOD9020843
_publ_section_title
;
Structure prediction by ZEFSAII (Michael W. Deem and Ramdas Pophale) SiO2 
 PCOD9020843
Probable space group: P -1
;
_chemical_formula_sum "Si O2"
_cell_formula_units_Z 16
_cell_length_a 16.764690
_cell_length_b 9.797652
_cell_length_c 5.119652
_cell_angle_alpha 116.675971
_cell_angle_beta 95.550003
_cell_angle_gamma 58.090845
_cell_volume 626.817752
_symmetry_space_group_name_H-M "P -1"
_symmetry_group_IT_number 2
_symmetry_cell_setting 'triclinic'
loop_
_space_group_symop_operation_xyz
x,y,z
-x,-y,-z
loop_
_atom_site_type_symbol
_atom_site_label
_atom_site_fract_x
_atom_site_fract_y
_atom_site_fract_z
Si Si1 0.526204 0.664580 0.390675
Si Si2 0.598076 0.254430 0.051681
Si Si3 0.885571 0.191094 0.938590
Si Si4 0.759770 0.876684 0.779364
Si Si5 0.918849 0.560436 0.811818
Si Si6 0.246339 0.402637 0.864412
Si Si7 0.008538 0.814264 0.545512
Si Si8 0.605081 0.823254 0.898204
O O1 0.579592 0.451624 0.162275
O O2 0.451680 0.717169 0.655830
O O3 0.602956 0.703197 0.562841
O O4 0.461975 0.774310 0.214556
O O5 0.707997 0.091473 0.902542
O O6 0.956833 0.198159 0.752634
O O7 0.791732 0.394664 0.075535
O O8 0.923115 0.160885 0.220114
O O9 0.902858 0.996325 0.692858
O O10 0.861093 0.764353 0.858977
O O11 0.766042 0.737107 0.439065
O O12 0.675515 0.891065 0.940671
O O13 0.972107 0.376320 0.499903
O O14 0.829040 0.557284 0.893309
O O15 0.000000 0.500000 0.000000
O O16 0.350241 0.302437 0.943246
O O17 0.500000 0.000000 0.000000
#
# Coordination Sequence:
#
# PCOD9020843 Si02
#       8
#     2   2   2   2   2   2   2   2
#     4  10  22  41  62  92 126 169 208 250 309 370
#     4  10  22  40  65  88 129 170 204 251 310 374
#     4   9  17  34  58  81 113 149 190 243 299 356
#     4  11  22  38  64  90 123 163 210 258 311 370
#     4  10  22  40  59  86 120 159 206 257 309 372
#     4  10  22  37  60  89 121 157 206 261 306 366
#     4   9  17  34  59  82 108 151 192 239 304 353
#     4  11  22  37  62  94 124 163 208 258 306 367
#
# _framework density 25.525763000000001
#
# number of rings (size 3 to 8) (size 9 to 14) (size 15 to 20)
#    0.000    2.000    2.500    0.750    3.500    1.500 
#    2.250    0.000    2.750    0.000    0.000    0.000 
#    0.000    0.000    0.000    0.000    0.000    0.000 
#
# Total GULP energy -89209.197009 kJ/mol
# GULP energy per Si atom -5575.574813 kJ/mol
# Density = 2.546767 g / cm^3
# Si number density = 25.525763 Si / 1000 Ang^3
#
#
#
# Elastic Constant Matrix: (Units=GPa)
#
#
# Indices 1 2 3 4 5 6 
#
# 1 51.4097 26.9984 -3.9513 -5.8992 -14.1388 -27.2055
# 2 26.9984 238.0687 73.5807 28.7126 -8.2143 -39.5181
# 3 -3.9513 73.5807 104.2723 0.6758 4.1368 -18.6720
# 4 -5.8992 28.7126 0.6758 58.6118 0.5586 6.2260
# 5 -14.1388 -8.2143 4.1368 0.5586 29.1060 1.1548
# 6 -27.2055 -39.5181 -18.6720 6.2260 1.1548 40.4383
#
#
#
# Elastic Compliance Matrix: (Units=1/GPa)
#
#
# Indices 1 2 3 4 5 6 
#
# 1 0.040813 -0.001763 0.007164 0.001720 0.017155 0.028288
# 2 -0.001763 0.006954 -0.004258 -0.003998 0.001621 0.004213
# 3 0.007164 -0.004258 0.014085 0.001915 -0.000033 0.006869
# 4 0.001720 -0.003998 0.001915 0.019696 -0.000749 -0.004876
# 5 0.017155 0.001621 -0.000033 -0.000749 0.042691 0.012006
# 6 0.028288 0.004213 0.006869 -0.004876 0.012006 0.051457
#
#
# Mechanical properties :
#
#
# Convention : Reuss Voigt Hill
#
# Bulk Modulus (GPa) = 15.59095 65.22292 40.40693
# Shear Modulus (GPa) = 25.66899 45.43942 35.55421
#
# Velocity S-wave (km/s) = 3.17458 4.22375 3.73617
# Velocity P-wave (km/s) = 4.42249 7.02809 5.87165
#
# Compressibility (1/GPa) = 0.06413979
#
# Stress axis : x y z
#
# Youngs Moduli (GPa) = 24.50195 143.80808 70.99687
#
# Poissons Ratio (x) = 0.25347 -0.50864
# Poissons Ratio (y) = 0.04319 0.30229
# Poissons Ratio (z) = -0.17554 0.61230
#
# Static dielectric constant tensor:
#      x y z
#    x 1.892850 -0.009990 -0.119500 
#    y -0.009990 2.101020 -0.007430 
#    z -0.119500 -0.007430 2.070310 
# 
# From -- ./inp_files/80095.got.cif
#   From: 2010.05.17/outbox.cif.g08.bks.cpg/sg2_41_cif.got.tgz:80095.got - 2010.06.03 11:33:40.
