data_PCOD9020997
_publ_section_title
;
Structure prediction by ZEFSAII (Michael W. Deem and Ramdas Pophale) SiO2 
 PCOD9020997
Probable space group: P -1
;
_chemical_formula_sum "Si O2"
_cell_formula_units_Z 16
_cell_length_a 12.384935
_cell_length_b 12.017011
_cell_length_c 12.857184
_cell_angle_alpha 32.309379
_cell_angle_beta 133.314109
_cell_angle_gamma 130.250652
_cell_volume 733.259379
_symmetry_space_group_name_H-M "P -1"
_symmetry_group_IT_number 2
_symmetry_cell_setting 'triclinic'
loop_
_space_group_symop_operation_xyz
x,y,z
-x,-y,-z
loop_
_atom_site_type_symbol
_atom_site_label
_atom_site_fract_x
_atom_site_fract_y
_atom_site_fract_z
Si Si1 0.486523 0.590116 0.161856
Si Si2 0.529766 0.266156 0.734063
Si Si3 0.978236 0.617107 0.246485
Si Si4 0.776511 0.292672 0.244104
Si Si5 0.829713 0.699999 0.284225
Si Si6 0.674409 0.816649 0.516291
Si Si7 0.989094 0.762342 0.722847
Si Si8 0.858977 0.156664 0.020860
O O1 0.487223 0.734892 0.152147
O O2 0.654462 0.635522 0.194147
O O3 0.438594 0.347168 0.360143
O O4 0.365668 0.640112 0.959734
O O5 0.500000 0.500000 0.500000
O O6 0.404866 0.129999 0.685393
O O7 0.694094 0.219865 0.851098
O O8 0.835354 0.436335 0.266902
O O9 0.927862 0.744473 0.209558
O O10 0.109435 0.490937 0.468131
O O11 0.036340 0.752982 0.077506
O O12 0.917612 0.339172 0.220661
O O13 0.738939 0.039624 0.437152
O O14 0.847637 0.904153 0.208293
O O15 0.811277 0.693022 0.675554
O O16 0.070243 0.762141 0.886746
O O17 0.000000 0.000000 0.500000
#
# Coordination Sequence:
#
# PCOD9020997 Si02
#       8
#     2   2   2   2   2   2   2   2
#     4  11  23  39  62  92 132 167 212 263 328 392
#     4  10  22  37  63  99 132 170 210 263 334 399
#     4  11  26  45  67  95 129 177 231 275 317 384
#     4  11  23  39  62  92 132 167 212 263 328 392
#     4  11  26  45  67  95 129 177 231 275 317 384
#     4  10  22  38  57  94 135 166 208 262 330 394
#     4  10  22  37  63  99 132 170 210 263 334 399
#     4  12  23  44  72  96 135 176 216 274 338 390
#
# _framework density 21.820381000000001
#
# number of rings (size 3 to 8) (size 9 to 14) (size 15 to 20)
#    0.000    1.250    1.250    4.875    8.750    2.500 
#    0.000    0.625    0.000    0.000    0.000    0.000 
#    0.000    0.000    0.000    0.000    0.000    0.000 
#
# Total GULP energy -89504.455839 kJ/mol
# GULP energy per Si atom -5594.028490 kJ/mol
# Density = 2.177072 g / cm^3
# Si number density = 21.820381 Si / 1000 Ang^3
#
#
#
# Elastic Constant Matrix: (Units=GPa)
#
#
# Indices 1 2 3 4 5 6 
#
# 1 53.6670 -6.9128 15.5248 -9.4229 7.6543 5.4030
# 2 -6.9128 51.2810 -4.4920 -1.6629 13.8432 -0.5463
# 3 15.5248 -4.4920 72.0173 5.5121 15.1433 7.6528
# 4 -9.4229 -1.6629 5.5121 38.0696 10.1428 2.7276
# 5 7.6543 13.8432 15.1433 10.1428 34.1088 4.4694
# 6 5.4030 -0.5463 7.6528 2.7276 4.4694 28.4459
#
#
#
# Elastic Compliance Matrix: (Units=1/GPa)
#
#
# Indices 1 2 3 4 5 6 
#
# 1 0.023303 0.005302 -0.003341 0.008867 -0.008142 -0.002996
# 2 0.005302 0.024476 0.002883 0.005707 -0.014148 0.000363
# 3 -0.003341 0.002883 0.016644 -0.001016 -0.007172 -0.002563
# 4 0.008867 0.005707 -0.001016 0.032551 -0.013227 -0.002344
# 5 -0.008142 -0.014148 -0.007172 -0.013227 0.044331 -0.002493
# 6 -0.002996 0.000363 -0.002563 -0.002344 -0.002493 0.037037
#
#
# Mechanical properties :
#
#
# Convention : Reuss Voigt Hill
#
# Bulk Modulus (GPa) = 13.49318 20.57836 17.03577
# Shear Modulus (GPa) = 25.85904 31.64788 28.75346
#
# Velocity S-wave (km/s) = 3.44624 3.81252 3.63400
# Velocity P-wave (km/s) = 4.69389 5.36951 5.04303
#
# Compressibility (1/GPa) = 0.07411152
#
# Stress axis : x y z
#
# Youngs Moduli (GPa) = 42.91361 40.85640 60.08244
#
# Poissons Ratio (x) = -0.21663 0.20073
# Poissons Ratio (y) = -0.22753 -0.17324
# Poissons Ratio (z) = 0.14337 -0.11780
#
# Static dielectric constant tensor:
#      x y z
#    x 1.783960 0.016970 -0.006510 
#    y 0.016970 1.855150 -0.051080 
#    z -0.006510 -0.051080 1.805450 
# 
# From -- ./inp_files/427463.got.cif
#   From: 2010.05.17/outbox.cif.g08.bks.cpg/sg2_214_cif.got.tgz:427463.got - 2010.06.03 11:33:40.
