data_PCOD9020845
_publ_section_title
;
Structure prediction by ZEFSAII (Michael W. Deem and Ramdas Pophale) SiO2 
 PCOD9020845
Probable space group: P -1
;
_chemical_formula_sum "Si O2"
_cell_formula_units_Z 16
_cell_length_a 5.299990
_cell_length_b 15.466473
_cell_length_c 14.822829
_cell_angle_alpha 139.084554
_cell_angle_beta 127.823088
_cell_angle_gamma 54.249611
_cell_volume 611.213307
_symmetry_space_group_name_H-M "P -1"
_symmetry_group_IT_number 2
_symmetry_cell_setting 'triclinic'
loop_
_space_group_symop_operation_xyz
x,y,z
-x,-y,-z
loop_
_atom_site_type_symbol
_atom_site_label
_atom_site_fract_x
_atom_site_fract_y
_atom_site_fract_z
Si Si1 0.239376 0.854712 0.107493
Si Si2 0.979947 0.842210 0.747561
Si Si3 0.619642 0.589817 0.901671
Si Si4 0.065333 0.760393 0.494244
Si Si5 0.354699 0.694835 0.317957
Si Si6 0.058689 0.400883 0.350759
Si Si7 0.312112 0.285059 0.153123
Si Si8 0.173074 0.945248 0.366950
O O1 0.202766 0.872979 0.220405
O O2 0.528950 0.724394 0.047800
O O3 0.227258 0.004930 0.186012
O O4 0.925369 0.814782 0.962504
O O5 0.079180 0.778132 0.619747
O O6 0.803105 0.745319 0.688176
O O7 0.329840 0.814210 0.853537
O O8 0.719732 0.441208 0.848413
O O9 0.284812 0.584051 0.766411
O O10 0.833189 0.629606 0.899477
O O11 0.288737 0.679396 0.398699
O O12 0.715850 0.712095 0.379339
O O13 0.081641 0.912553 0.586651
O O14 0.126263 0.836728 0.344806
O O15 0.000000 0.500000 0.500000
O O16 0.302751 0.397470 0.317942
O O17 0.500000 0.000000 0.500000
#
# Coordination Sequence:
#
# PCOD9020845 Si02
#       8
#     2   2   2   2   2   2   2   2
#     4  10  22  44  61  91 132 165 226 265 336 393
#     4  10  22  37  63  94 124 181 212 273 323 393
#     4  10  24  38  60  91 132 177 209 274 319 399
#     4  10  23  40  69 101 134 167 222 279 330 392
#     4  11  23  42  69  96 136 171 223 273 339 388
#     4  10  22  37  60  89 132 168 222 266 322 388
#     4  10  23  39  59  92 130 174 219 264 326 391
#     4   9  21  46  70  99 124 167 218 286 332 394
#
# _framework density 26.177441999999999
#
# number of rings (size 3 to 8) (size 9 to 14) (size 15 to 20)
#    0.000    2.000    0.000    1.500    8.750    7.000 
#   15.750    0.625    0.000    0.000    0.000    0.000 
#    0.000    0.000    0.000    0.000    0.000    0.000 
#
# Total GULP energy -89281.673618 kJ/mol
# GULP energy per Si atom -5580.104601 kJ/mol
# Density = 2.611786 g / cm^3
# Si number density = 26.177442 Si / 1000 Ang^3
#
#
#
# Elastic Constant Matrix: (Units=GPa)
#
#
# Indices 1 2 3 4 5 6 
#
# 1 82.9764 23.2780 43.9229 18.6675 -17.2916 15.4127
# 2 23.2780 87.5094 18.1953 25.4704 -8.2463 32.6090
# 3 43.9229 18.1953 134.5836 13.4149 -30.7137 9.9500
# 4 18.6675 25.4704 13.4149 32.1212 -0.8934 7.7605
# 5 -17.2916 -8.2463 -30.7137 -0.8934 48.9373 -6.9940
# 6 15.4127 32.6090 9.9500 7.7605 -6.9940 33.5284
#
#
#
# Elastic Compliance Matrix: (Units=1/GPa)
#
#
# Indices 1 2 3 4 5 6 
#
# 1 0.017169 0.000529 -0.003911 -0.007497 0.002862 -0.004914
# 2 0.000529 0.022178 -0.000284 -0.013288 0.000863 -0.018473
# 3 -0.003911 -0.000284 0.009987 -0.001661 0.004881 0.000513
# 4 -0.007497 -0.013288 -0.001661 0.045275 -0.004321 0.005482
# 5 0.002862 0.000863 0.004881 -0.004321 0.024947 0.002600
# 6 -0.004914 -0.018473 0.000513 0.005482 0.002600 0.049173
#
#
# Mechanical properties :
#
#
# Convention : Reuss Voigt Hill
#
# Bulk Modulus (GPa) = 23.80796 52.87353 38.34074
# Shear Modulus (GPa) = 26.30721 37.56226 31.93473
#
# Velocity S-wave (km/s) = 3.17355 3.79213 3.49654
# Velocity P-wave (km/s) = 4.74796 6.27819 5.56591
#
# Compressibility (1/GPa) = 0.04200276
#
# Stress axis : x y z
#
# Youngs Moduli (GPa) = 58.24287 45.08893 100.13325
#
# Poissons Ratio (x) = -0.02386 0.39164
# Poissons Ratio (y) = -0.03082 0.02842
# Poissons Ratio (z) = 0.22780 0.01280
#
# Static dielectric constant tensor:
#      x y z
#    x 2.147830 -0.022230 0.016010 
#    y -0.022230 2.149630 -0.015590 
#    z 0.016010 -0.015590 2.102440 
# 
# From -- ./inp_files/97271.got.cif
#   From: 2010.05.17/outbox.cif.g08.bks.cpg/sg2_49_cif.got.tgz:97271.got - 2010.06.03 11:33:40.
