data_PCOD9020610
_publ_section_title
;
Structure prediction by ZEFSAII (Michael W. Deem and Ramdas Pophale) SiO2 
 PCOD9020610
Probable space group: P -1
;
_chemical_formula_sum "Si O2"
_cell_formula_units_Z 16
_cell_length_a 5.349127
_cell_length_b 25.180451
_cell_length_c 14.941691
_cell_angle_alpha 21.444020
_cell_angle_beta 75.460995
_cell_angle_gamma 72.688370
_cell_volume 700.499956
_symmetry_space_group_name_H-M "P -1"
_symmetry_group_IT_number 2
_symmetry_cell_setting 'triclinic'
loop_
_space_group_symop_operation_xyz
x,y,z
-x,-y,-z
loop_
_atom_site_type_symbol
_atom_site_label
_atom_site_fract_x
_atom_site_fract_y
_atom_site_fract_z
Si Si1 0.702686 0.586693 0.388610
Si Si2 0.387916 0.884382 0.255923
Si Si3 0.345793 0.129087 0.377690
Si Si4 0.277124 0.365118 0.483342
Si Si5 0.815361 0.289737 0.077327
Si Si6 0.935604 0.828326 0.935293
Si Si7 0.920944 0.142606 0.921417
Si Si8 0.463374 0.031258 0.707302
O O1 0.500000 0.500000 0.500000
O O2 0.637113 0.620629 0.444160
O O3 0.000000 0.500000 0.500000
O O4 0.722691 0.721949 0.109655
O O5 0.475999 0.728652 0.443994
O O6 0.506267 0.862481 0.379803
O O7 0.094391 0.978790 0.144880
O O8 0.500000 0.000000 0.000000
O O9 0.539420 0.245196 0.198196
O O10 0.287056 0.070610 0.573944
O O11 0.074923 0.205710 0.236202
O O12 0.500000 0.000000 0.500000
O O13 0.043943 0.264080 0.662842
O O14 0.192664 0.534176 0.194443
O O15 0.854507 0.223763 0.076293
O O16 0.035091 0.806098 0.062081
O O17 0.748751 0.985536 0.707289
O O18 0.632989 0.100957 0.019947
#
# Coordination Sequence:
#
# PCOD9020610 Si02
#       8
#     2   2   2   2   2   2   2   2
#     4  11  24  38  61  97 138 176 210 269 357 421
#     4   9  21  45  65 103 132 182 234 284 350 410
#     4  12  27  45  72  99 140 188 238 282 336 414
#     4  10  23  44  66 100 148 175 224 296 348 424
#     4  12  26  44  66 106 138 183 230 280 357 407
#     4  10  22  36  62  96 134 170 220 287 341 409
#     4   9  21  41  68 101 131 181 232 284 354 406
#     4  11  23  41  72  96 132 182 241 288 333 410
#
# _framework density 22.840831000000001
#
# number of rings (size 3 to 8) (size 9 to 14) (size 15 to 20)
#    0.000    1.500    2.500    1.875    8.750    2.000 
#   11.250    1.250    0.000    0.000    0.000    0.000 
#    0.000    0.000    0.000    0.000    0.000    0.000 
#
# Total GULP energy -89231.021922 kJ/mol
# GULP energy per Si atom -5576.938870 kJ/mol
# Density = 2.278884 g / cm^3
# Si number density = 22.840831 Si / 1000 Ang^3
#
#
#
# Elastic Constant Matrix: (Units=GPa)
#
#
# Indices 1 2 3 4 5 6 
#
# 1 95.3886 28.4025 49.6760 -11.1258 -2.0784 -5.8602
# 2 28.4025 127.9563 45.4354 -19.3466 16.5738 -1.3501
# 3 49.6760 45.4354 119.4979 -8.2723 1.7325 -6.9710
# 4 -11.1258 -19.3466 -8.2723 32.4508 -3.9540 5.4843
# 5 -2.0784 16.5738 1.7325 -3.9540 42.6536 1.9289
# 6 -5.8602 -1.3501 -6.9710 5.4843 1.9289 32.5140
#
#
#
# Elastic Compliance Matrix: (Units=1/GPa)
#
#
# Indices 1 2 3 4 5 6 
#
# 1 0.013893 -0.000995 -0.005173 0.002904 0.001508 0.000774
# 2 -0.000995 0.010324 -0.003193 0.004755 -0.003443 -0.001033
# 3 -0.005173 -0.003193 0.011757 -0.000905 0.000355 0.001587
# 4 0.002904 0.004755 -0.000905 0.035589 0.001883 -0.005588
# 5 0.001508 -0.003443 0.000355 0.001883 0.025088 -0.001601
# 6 0.000774 -0.001033 0.001587 -0.005588 -0.001601 0.032231
#
#
# Mechanical properties :
#
#
# Convention : Reuss Voigt Hill
#
# Bulk Modulus (GPa) = 57.96142 65.54117 61.75130
# Shear Modulus (GPa) = 32.60431 36.14561 34.37496
#
# Velocity S-wave (km/s) = 3.78227 3.98238 3.88361
# Velocity P-wave (km/s) = 6.67124 7.06419 6.87053
#
# Compressibility (1/GPa) = 0.01725286
#
# Stress axis : x y z
#
# Youngs Moduli (GPa) = 71.98072 96.86421 85.05288
#
# Poissons Ratio (x) = 0.09639 0.43994
# Poissons Ratio (y) = 0.07163 0.27156
# Poissons Ratio (z) = 0.37232 0.30927
#
# Static dielectric constant tensor:
#      x y z
#    x 1.966910 -0.008340 0.013740 
#    y -0.008340 1.881420 -0.024580 
#    z 0.013740 -0.024580 2.001430 
# 
# From -- ./inp_files/485895.got.cif
#   From: 2010.05.17/outbox.cif.g08.bks.cpg/sg2_243_cif.got.tgz:485895.got - 2010.06.03 11:33:40.
