data_PCOD9020622
_publ_section_title
;
Structure prediction by ZEFSAII (Michael W. Deem and Ramdas Pophale) SiO2 
 PCOD9020622
Probable space group: P -1
;
_chemical_formula_sum "Si O2"
_cell_formula_units_Z 15
_cell_length_a 29.357922
_cell_length_b 14.141480
_cell_length_c 11.759595
_cell_angle_alpha 148.246997
_cell_angle_beta 157.640116
_cell_angle_gamma 21.531228
_cell_volume 679.906083
_symmetry_space_group_name_H-M "P -1"
_symmetry_group_IT_number 2
_symmetry_cell_setting 'triclinic'
loop_
_space_group_symop_operation_xyz
x,y,z
-x,-y,-z
loop_
_atom_site_type_symbol
_atom_site_label
_atom_site_fract_x
_atom_site_fract_y
_atom_site_fract_z
Si Si1 0.919076 0.317615 0.833414
Si Si2 0.372161 0.237926 0.534047
Si Si3 0.500000 0.500000 0.500000
Si Si4 0.990946 0.548965 0.395480
Si Si5 0.483241 0.446480 0.151363
Si Si6 0.361521 0.019206 0.650234
Si Si7 0.275256 0.001550 0.200419
Si Si8 0.888940 0.064523 0.697168
O O1 0.757002 0.492563 0.555969
O O2 0.940546 0.128254 0.773804
O O3 0.885245 0.520071 0.048933
O O4 0.090916 0.157692 0.991222
O O5 0.265081 0.183676 0.281464
O O6 0.500000 0.000000 0.500000
O O7 0.464318 0.269982 0.871185
O O8 0.418880 0.523122 0.211615
O O9 0.373596 0.814310 0.529356
O O10 0.000000 0.500000 0.500000
O O11 0.181778 0.310390 0.546638
O O12 0.929126 0.815605 0.509656
O O13 0.681713 0.300266 0.472451
O O14 0.371877 0.713316 0.095218
O O15 0.396883 0.943082 0.522927
O O16 0.500000 0.000000 0.000000
O O17 0.000000 0.000000 0.000000
#
# Coordination Sequence:
#
# PCOD9020622 Si02
#       8
#     2   2   1   2   2   2   2   2
#     4  11  26  46  69 106 141 193 238 299 365 429
#     4  12  26  48  75 100 145 190 248 298 356 436
#     4  10  22  40  68  98 142 168 234 292 348 424
#     4  11  23  40  65  99 139 182 235 284 357 419
#     4  11  26  44  72 107 140 190 242 292 373 421
#     4  10  22  36  63  94 132 177 223 281 351 409
#     4  10  25  45  69 102 140 183 244 295 359 432
#     4  12  26  42  70 104 150 187 239 303 361 435
#
# _framework density 22.061872000000001
#
# number of rings (size 3 to 8) (size 9 to 14) (size 15 to 20)
#    0.000    1.067    1.333    3.600    7.467    6.933 
#    0.000    0.000    0.000    0.000    0.000    0.000 
#    0.000    0.000    0.000    0.000    0.000    0.000 
#
# Total GULP energy -83528.037169 kJ/mol
# GULP energy per Si atom -5568.535811 kJ/mol
# Density = 2.201166 g / cm^3
# Si number density = 22.061872 Si / 1000 Ang^3
#
#
#
# Elastic Constant Matrix: (Units=GPa)
#
#
# Indices 1 2 3 4 5 6 
#
# 1 94.0788 25.2157 31.2303 7.0450 11.4333 17.9748
# 2 25.2157 124.1832 33.5466 13.6849 4.6257 3.8513
# 3 31.2303 33.5466 103.5317 6.0920 -10.9170 -9.6629
# 4 7.0450 13.6849 6.0920 37.9323 2.0991 -6.9883
# 5 11.4333 4.6257 -10.9170 2.0991 28.5976 2.0902
# 6 17.9748 3.8513 -9.6629 -6.9883 2.0902 32.0974
#
#
#
# Elastic Compliance Matrix: (Units=1/GPa)
#
#
# Indices 1 2 3 4 5 6 
#
# 1 0.016232 -0.000561 -0.006376 -0.003419 -0.007765 -0.011181
# 2 -0.000561 0.009520 -0.003173 -0.003132 -0.002127 -0.002327
# 3 -0.006376 -0.003173 0.014107 0.001093 0.007788 0.007929
# 4 -0.003419 -0.003132 0.001093 0.029662 -0.000553 0.009113
# 5 -0.007765 -0.002127 0.007788 -0.000553 0.041126 0.004149
# 6 -0.011181 -0.002327 0.007929 0.009113 0.004149 0.041797
#
#
# Mechanical properties :
#
#
# Convention : Reuss Voigt Hill
#
# Bulk Modulus (GPa) = 50.91528 55.75322 53.33425
# Shear Modulus (GPa) = 27.90031 35.17886 31.53959
#
# Velocity S-wave (km/s) = 3.56003 3.99752 3.78510
# Velocity P-wave (km/s) = 6.32669 6.82884 6.58255
#
# Compressibility (1/GPa) = 0.01964047
#
# Stress axis : x y z
#
# Youngs Moduli (GPa) = 61.60643 105.04118 70.88645
#
# Poissons Ratio (x) = 0.05892 0.45196
# Poissons Ratio (y) = 0.03456 0.22490
# Poissons Ratio (z) = 0.39279 0.33326
#
# Static dielectric constant tensor:
#      x y z
#    x 1.886350 0.020980 -0.037360 
#    y 0.020980 1.805010 0.010650 
#    z -0.037360 0.010650 1.897690 
# 
# From -- ./inp_files/477705.got.cif
#   From: 2010.05.17/outbox.cif.g08.bks.cpg/sg2_239_cif.got.tgz:477705.got - 2010.06.03 11:33:40.
