data_PCOD9020075
_publ_section_title
;
Structure prediction by ZEFSAII (Michael W. Deem and Ramdas Pophale) SiO2 
 PCOD9020075
Probable space group: P -1
;
_chemical_formula_sum "Si O2"
_cell_formula_units_Z 14
_cell_length_a 15.209178
_cell_length_b 19.865727
_cell_length_c 7.286584
_cell_angle_alpha 148.585624
_cell_angle_beta 39.189786
_cell_angle_gamma 149.388708
_cell_volume 577.461183
_symmetry_space_group_name_H-M "P -1"
_symmetry_group_IT_number 2
_symmetry_cell_setting 'triclinic'
loop_
_space_group_symop_operation_xyz
x,y,z
-x,-y,-z
loop_
_atom_site_type_symbol
_atom_site_label
_atom_site_fract_x
_atom_site_fract_y
_atom_site_fract_z
Si Si1 0.163508 0.116521 0.134260
Si Si2 0.934891 0.184195 0.227308
Si Si3 0.282255 0.873276 0.880573
Si Si4 0.682328 0.538193 0.362197
Si Si5 0.974236 0.376914 0.981096
Si Si6 0.262008 0.499972 0.400125
Si Si7 0.453315 0.187541 0.551420
O O1 0.328768 0.173232 0.873962
O O2 0.129717 0.998504 0.076170
O O3 0.187260 0.279541 0.504095
O O4 0.000000 0.000000 0.000000
O O5 0.790566 0.170580 0.306496
O O6 0.950222 0.263326 0.584747
O O7 0.128202 0.310325 0.122683
O O8 0.439784 0.864893 0.642572
O O9 0.131876 0.740261 0.950451
O O10 0.344997 0.051655 0.253894
O O11 0.500000 0.500000 0.500000
O O12 0.661987 0.501755 0.529501
O O13 0.818790 0.493948 0.001455
O O14 0.870432 0.449861 0.263042
O O15 0.416215 0.632854 0.326592
#
# Coordination Sequence:
#
# PCOD9020075 Si02
#       7
#     2   2   2   2   2   2   2
#     4  12  23  44  64  89 140 175 208 262 336 393
#     4  11  22  40  70  96 123 180 212 258 331 394
#     4  10  22  42  67  98 128 166 228 266 326 379
#     4  11  24  40  64 100 134 172 216 270 329 388
#     4  10  21  46  69  92 135 172 218 276 317 389
#     4  10  23  43  69  93 130 173 223 271 324 376
#     4  10  23  42  64  97 133 163 216 288 310 384
#
# _framework density 24.244054999999999
#
# number of rings (size 3 to 8) (size 9 to 14) (size 15 to 20)
#    0.000    1.429    4.286    1.714    2.000    6.857 
#    2.571    1.429    0.000    0.000    0.000    0.000 
#    0.000    0.000    0.000    0.000    0.000    0.000 
#
# Total GULP energy -78129.665379 kJ/mol
# GULP energy per Si atom -5580.690384 kJ/mol
# Density = 2.418887 g / cm^3
# Si number density = 24.244055 Si / 1000 Ang^3
#
#
#
# Elastic Constant Matrix: (Units=GPa)
#
#
# Indices 1 2 3 4 5 6 
#
# 1 148.7769 38.4036 29.0682 1.9134 -29.4429 17.7930
# 2 38.4036 103.0811 29.9288 17.6347 -26.1427 -4.5495
# 3 29.0682 29.9288 63.1482 11.0835 -19.5119 -6.4718
# 4 1.9134 17.6347 11.0835 37.8912 -4.1545 -20.6434
# 5 -29.4429 -26.1427 -19.5119 -4.1545 29.0796 3.7058
# 6 17.7930 -4.5495 -6.4718 -20.6434 3.7058 42.3266
#
#
#
# Elastic Compliance Matrix: (Units=1/GPa)
#
#
# Indices 1 2 3 4 5 6 
#
# 1 0.009710 -0.000934 -0.001736 -0.001982 0.008326 -0.006143
# 2 -0.000934 0.014101 -0.002506 -0.005943 0.009481 -0.002204
# 3 -0.001736 -0.002506 0.021566 -0.003266 0.009827 0.001305
# 4 -0.001982 -0.005943 -0.003266 0.040387 -0.006313 0.019945
# 5 0.008326 0.009481 0.009827 -0.006313 0.058201 -0.009153
# 6 -0.006143 -0.002204 0.001305 0.019945 -0.009153 0.036700
#
#
# Mechanical properties :
#
#
# Convention : Reuss Voigt Hill
#
# Bulk Modulus (GPa) = 28.55162 56.64528 42.59845
# Shear Modulus (GPa) = 24.66821 36.36652 30.51736
#
# Velocity S-wave (km/s) = 3.19328 3.87721 3.55174
# Velocity P-wave (km/s) = 5.03968 6.59234 5.86760
#
# Compressibility (1/GPa) = 0.03502429
#
# Stress axis : x y z
#
# Youngs Moduli (GPa) = 102.99057 70.91824 46.36941
#
# Poissons Ratio (x) = 0.06622 0.08050
# Poissons Ratio (y) = 0.09617 0.11621
# Poissons Ratio (z) = 0.17879 0.17774
#
# Static dielectric constant tensor:
#      x y z
#    x 1.961180 0.019270 -0.019420 
#    y 0.019270 2.240450 0.222440 
#    z -0.019420 0.222440 2.223950 
# 
# From -- ./inp_files/319143.got.cif
#   From: 2010.05.17/outbox.cif.g08.bks.cpg/sg2_160_cif.got.tgz:319143.got - 2010.06.03 11:33:40.
