data_PCOD9020930
_publ_section_title
;
Structure prediction by ZEFSAII (Michael W. Deem and Ramdas Pophale) SiO2 
 PCOD9020930
Probable space group: P -1
;
_chemical_formula_sum "Si O2"
_cell_formula_units_Z 16
_cell_length_a 12.728466
_cell_length_b 9.179775
_cell_length_c 16.009886
_cell_angle_alpha 47.672349
_cell_angle_beta 142.276006
_cell_angle_gamma 115.012263
_cell_volume 820.889823
_symmetry_space_group_name_H-M "P -1"
_symmetry_group_IT_number 2
_symmetry_cell_setting 'triclinic'
loop_
_space_group_symop_operation_xyz
x,y,z
-x,-y,-z
loop_
_atom_site_type_symbol
_atom_site_label
_atom_site_fract_x
_atom_site_fract_y
_atom_site_fract_z
Si Si1 0.801428 0.067474 0.881286
Si Si2 0.454420 0.836752 0.473350
Si Si3 0.339206 0.192792 0.837630
Si Si4 0.171064 0.320376 0.843673
Si Si5 0.210530 0.617934 0.512123
Si Si6 0.030163 0.304892 0.351477
Si Si7 0.691501 0.523530 0.641756
Si Si8 0.998595 0.103282 0.589677
O O1 0.659788 0.075235 0.714667
O O2 0.781906 0.295648 0.814133
O O3 0.785139 0.898772 0.002136
O O4 0.000000 0.000000 0.000000
O O5 0.332022 0.716367 0.492045
O O6 0.638259 0.688594 0.616577
O O7 0.500000 0.000000 0.500000
O O8 0.320100 0.299792 0.874913
O O9 0.309940 0.385183 0.683003
O O10 0.169371 0.100459 0.753694
O O11 0.500000 0.000000 0.000000
O O12 0.978373 0.368195 0.657609
O O13 0.139325 0.502338 0.820796
O O14 0.159806 0.747577 0.516064
O O15 0.192938 0.396634 0.386737
O O16 0.035118 0.199751 0.486417
O O17 0.022384 0.121985 0.354367
O O18 0.500000 0.500000 0.500000
#
# Coordination Sequence:
#
# PCOD9020930 Si02
#       8
#     2   2   2   2   2   2   2   2
#     4  11  21  39  63  91 114 165 210 252 292 375
#     4  11  24  41  61  93 131 165 198 258 324 367
#     4  11  24  39  60  91 120 162 205 258 309 363
#     4  11  20  40  66  85 117 159 212 254 295 373
#     4  11  20  42  63  85 123 164 211 246 309 372
#     4  11  19  38  63  90 121 154 210 250 306 366
#     4  10  22  37  62  92 124 165 202 251 309 366
#     4  10  22  37  65  87 116 164 202 258 308 356
#
# _framework density 19.491045
#
# number of rings (size 3 to 8) (size 9 to 14) (size 15 to 20)
#    0.000    1.250    5.000    2.250    1.750    1.000 
#    2.250    1.250    0.000    0.000    0.000    0.000 
#    0.000    0.000    0.000    0.000    0.000    0.000 
#
# Total GULP energy -89186.383493 kJ/mol
# GULP energy per Si atom -5574.148968 kJ/mol
# Density = 1.944668 g / cm^3
# Si number density = 19.491045 Si / 1000 Ang^3
#
#
#
# Elastic Constant Matrix: (Units=GPa)
#
#
# Indices 1 2 3 4 5 6 
#
# 1 81.7827 24.7108 33.4981 -24.1096 5.5513 -9.1346
# 2 24.7108 110.2361 36.5306 -32.1540 -1.0008 -16.6686
# 3 33.4981 36.5306 102.2803 -40.7800 1.9612 -5.6464
# 4 -24.1096 -32.1540 -40.7800 33.0476 -3.8117 3.3852
# 5 5.5513 -1.0008 1.9612 -3.8117 32.6955 -12.1948
# 6 -9.1346 -16.6686 -5.6464 3.3852 -12.1948 38.3470
#
#
#
# Elastic Compliance Matrix: (Units=1/GPa)
#
#
# Indices 1 2 3 4 5 6 
#
# 1 0.015935 0.000124 -0.001092 0.010072 -0.000474 0.002649
# 2 0.000124 0.014071 0.001262 0.015200 0.004501 0.006421
# 3 -0.001092 0.001262 0.019590 0.024720 0.002610 0.001821
# 4 0.010072 0.015200 0.024720 0.083198 0.010153 0.008531
# 5 -0.000474 0.004501 0.002610 0.010153 0.036678 0.012996
# 6 0.002649 0.006421 0.001821 0.008531 0.012996 0.033148
#
#
# Mechanical properties :
#
#
# Convention : Reuss Voigt Hill
#
# Bulk Modulus (GPa) = 19.92637 53.75314 36.83976
# Shear Modulus (GPa) = 22.85629 34.12198 28.48914
#
# Velocity S-wave (km/s) = 3.42812 4.18862 3.82730
# Velocity P-wave (km/s) = 5.09067 7.14359 6.20265
#
# Compressibility (1/GPa) = 0.05018475
#
# Stress axis : x y z
#
# Youngs Moduli (GPa) = 62.75622 71.07024 51.04521
#
# Poissons Ratio (x) = -0.00882 0.05573
# Poissons Ratio (y) = -0.00779 -0.06443
# Poissons Ratio (z) = 0.06852 -0.08971
#
# Static dielectric constant tensor:
#      x y z
#    x 1.718620 -0.055140 0.012330 
#    y -0.055140 1.727180 0.004620 
#    z 0.012330 0.004620 1.638860 
# 
# From -- ./inp_files/244663.got.cif
#   From: 2010.05.17/outbox.cif.g08.bks.cpg/sg2_123_cif.got.tgz:244663.got - 2010.06.03 11:33:40.
