data_PCOD9020764
_publ_section_title
;
Structure prediction by ZEFSAII (Michael W. Deem and Ramdas Pophale) SiO2 
 PCOD9020764
Probable space group: P -1
;
_chemical_formula_sum "Si O2"
_cell_formula_units_Z 15
_cell_length_a 9.138952
_cell_length_b 10.407578
_cell_length_c 9.310690
_cell_angle_alpha 70.291353
_cell_angle_beta 133.174048
_cell_angle_gamma 104.330787
_cell_volume 607.820002
_symmetry_space_group_name_H-M "P -1"
_symmetry_group_IT_number 2
_symmetry_cell_setting 'triclinic'
loop_
_space_group_symop_operation_xyz
x,y,z
-x,-y,-z
loop_
_atom_site_type_symbol
_atom_site_label
_atom_site_fract_x
_atom_site_fract_y
_atom_site_fract_z
Si Si1 0.784060 0.875919 0.366245
Si Si2 0.000000 0.500000 0.500000
Si Si3 0.124729 0.140333 0.046712
Si Si4 0.593253 0.301730 0.794967
Si Si5 0.412642 0.866788 0.707092
Si Si6 0.772093 0.294564 0.612926
Si Si7 0.932025 0.110647 0.204865
Si Si8 0.681938 0.414451 0.094625
O O1 0.632301 0.748841 0.297254
O O2 0.980171 0.840996 0.601364
O O3 0.668924 0.993824 0.332771
O O4 0.867783 0.952261 0.251373
O O5 0.813395 0.420096 0.487911
O O6 0.888146 0.466069 0.282976
O O7 0.349380 0.128315 0.152406
O O8 0.111916 0.156125 0.203442
O O9 0.988585 0.249497 0.835259
O O10 0.000000 0.000000 0.000000
O O11 0.631349 0.324444 0.643470
O O12 0.739242 0.177959 0.981711
O O13 0.669786 0.418334 0.911613
O O14 0.317279 0.826665 0.503552
O O15 0.364766 0.741512 0.829228
O O16 0.500000 0.500000 0.000000
#
# Coordination Sequence:
#
# PCOD9020764 Si02
#       8
#     2   1   2   2   2   2   2   2
#     4  11  22  38  65  99 141 175 213 261 334 410
#     4  10  24  48  64  90 124 172 230 280 330 382
#     4  11  22  35  61  96 136 173 214 259 327 402
#     4  11  23  41  67  99 131 172 221 277 330 400
#     4  11  22  41  65  95 139 177 214 266 332 400
#     4  10  23  42  67  94 131 177 224 277 329 390
#     4  10  22  37  56  98 137 174 211 255 323 401
#     4  11  25  44  67  92 126 175 228 281 336 385
#
# _framework density 24.678357999999999
#
# number of rings (size 3 to 8) (size 9 to 14) (size 15 to 20)
#    0.000    1.333    1.333    4.400    1.867    3.200 
#    2.400    2.667    0.000    0.000    0.000    0.000 
#    0.000    0.000    0.000    0.000    0.000    0.000 
#
# Total GULP energy -83703.444836 kJ/mol
# GULP energy per Si atom -5580.229656 kJ/mol
# Density = 2.462219 g / cm^3
# Si number density = 24.678358 Si / 1000 Ang^3
#
#
#
# Elastic Constant Matrix: (Units=GPa)
#
#
# Indices 1 2 3 4 5 6 
#
# 1 104.8853 25.6452 44.2683 12.8603 4.6078 2.2923
# 2 25.6452 64.7511 26.5134 18.5823 0.3652 4.6958
# 3 44.2683 26.5134 96.9579 17.9332 -10.3207 10.0097
# 4 12.8603 18.5823 17.9332 43.6991 2.3775 3.2053
# 5 4.6078 0.3652 -10.3207 2.3775 50.9699 13.4268
# 6 2.2923 4.6958 10.0097 3.2053 13.4268 38.5186
#
#
#
# Elastic Compliance Matrix: (Units=1/GPa)
#
#
# Indices 1 2 3 4 5 6 
#
# 1 0.012631 -0.002823 -0.005438 -0.000282 -0.002732 0.001981
# 2 -0.002823 0.019579 -0.002787 -0.006283 0.000110 -0.001010
# 3 -0.005438 -0.002787 0.015206 -0.003378 0.004999 -0.004750
# 4 -0.000282 -0.006283 -0.003378 0.027123 -0.001896 0.000064
# 5 -0.002732 0.000110 0.004999 -0.001896 0.023374 -0.009140
# 6 0.001981 -0.001010 -0.004750 0.000064 -0.009140 0.030382
#
#
# Mechanical properties :
#
#
# Convention : Reuss Voigt Hill
#
# Bulk Modulus (GPa) = 39.49542 51.04978 45.27260
# Shear Modulus (GPa) = 31.48001 37.98202 34.73102
#
# Velocity S-wave (km/s) = 3.57545 3.92737 3.75553
# Velocity P-wave (km/s) = 5.75186 6.42624 6.09838
#
# Compressibility (1/GPa) = 0.02531939
#
# Stress axis : x y z
#
# Youngs Moduli (GPa) = 79.17018 51.07584 65.76307
#
# Poissons Ratio (x) = 0.14420 0.35763
# Poissons Ratio (y) = 0.22352 0.18327
# Poissons Ratio (z) = 0.43054 0.14234
#
# Static dielectric constant tensor:
#      x y z
#    x 2.203200 -0.133540 -0.134740 
#    y -0.133540 1.990720 0.013110 
#    z -0.134740 0.013110 1.981710 
# 
# From -- ./inp_files/177038.got.cif
#   From: 2010.05.17/outbox.cif.g08.bks.cpg/sg2_89_cif.got.tgz:177038.got - 2010.06.03 11:33:40.
