data_PCOD9020531
_publ_section_title
;
Structure prediction by ZEFSAII (Michael W. Deem and Ramdas Pophale) SiO2 
 PCOD9020531
Probable space group: P -1
;
_chemical_formula_sum "Si O2"
_cell_formula_units_Z 14
_cell_length_a 21.853181
_cell_length_b 7.460703
_cell_length_c 8.526488
_cell_angle_alpha 77.095336
_cell_angle_beta 32.804108
_cell_angle_gamma 57.184879
_cell_volume 544.483485
_symmetry_space_group_name_H-M "P -1"
_symmetry_group_IT_number 2
_symmetry_cell_setting 'triclinic'
loop_
_space_group_symop_operation_xyz
x,y,z
-x,-y,-z
loop_
_atom_site_type_symbol
_atom_site_label
_atom_site_fract_x
_atom_site_fract_y
_atom_site_fract_z
Si Si1 0.955891 0.162326 0.411997
Si Si2 0.125489 0.253768 0.672638
Si Si3 0.442417 0.354219 0.147174
Si Si4 0.812020 0.199203 0.240195
Si Si5 0.621957 0.682369 0.383437
Si Si6 0.084771 0.411295 0.172573
Si Si7 0.356382 0.304839 0.026946
O O1 0.053023 0.245761 0.203110
O O2 0.777166 0.394990 0.755066
O O3 0.000000 0.000000 0.500000
O O4 0.018372 0.003410 0.150728
O O5 0.251560 0.251337 0.327934
O O6 0.010255 0.333013 0.766371
O O7 0.208839 0.986579 0.616448
O O8 0.000000 0.500000 0.000000
O O9 0.258282 0.583374 0.523523
O O10 0.484365 0.209532 0.251502
O O11 0.465330 0.236694 0.952112
O O12 0.500000 0.500000 0.000000
O O13 0.710353 0.388487 0.274756
O O14 0.745209 0.706557 0.149287
O O15 0.577013 0.763612 0.282202
O O16 0.000000 0.500000 0.500000
#
# Coordination Sequence:
#
# PCOD9020531 Si02
#       7
#     2   2   2   2   2   2   2
#     4  11  19  34  57  97 130 160 191 242 311 391
#     4  11  20  34  55  91 128 161 183 243 314 378
#     4  10  25  44  63  85 117 165 224 266 290 342
#     4  10  22  36  59  90 124 156 210 242 313 367
#     4  10  22  40  59  92 116 170 203 245 308 367
#     4  11  19  33  56  87 135 159 186 236 305 383
#     4  11  21  39  63  87 129 160 198 252 315 367
#
# _framework density 25.712440000000001
#
# number of rings (size 3 to 8) (size 9 to 14) (size 15 to 20)
#    0.857    0.571    7.143    0.857    0.000    4.000 
#    0.000    0.714    0.000    0.857    0.000    0.000 
#    0.000    0.000    0.000    0.000    0.000    0.000 
#
# Total GULP energy -78013.580193 kJ/mol
# GULP energy per Si atom -5572.398585 kJ/mol
# Density = 2.565392 g / cm^3
# Si number density = 25.712440 Si / 1000 Ang^3
#
#
#
# Elastic Constant Matrix: (Units=GPa)
#
#
# Indices 1 2 3 4 5 6 
#
# 1 137.1789 39.7955 55.7058 -21.2265 32.4263 -3.4264
# 2 39.7955 134.3327 32.6574 -22.1722 9.1222 -20.3269
# 3 55.7058 32.6574 117.2582 -9.7441 26.2709 -5.7811
# 4 -21.2265 -22.1722 -9.7441 60.1630 -5.2836 5.5830
# 5 32.4263 9.1222 26.2709 -5.2836 46.5227 -6.4447
# 6 -3.4264 -20.3269 -5.7811 5.5830 -6.4447 44.6667
#
#
#
# Elastic Compliance Matrix: (Units=1/GPa)
#
#
# Indices 1 2 3 4 5 6 
#
# 1 0.010704 -0.001875 -0.003288 0.002235 -0.005188 -0.001486
# 2 -0.001875 0.009240 -0.001570 0.002243 0.001156 0.003744
# 3 -0.003288 -0.001570 0.011370 -0.000233 -0.003850 -0.000022
# 4 0.002235 0.002243 -0.000233 0.018308 0.000058 -0.001118
# 5 -0.005188 0.001156 -0.003850 0.000058 0.027564 0.003599
# 6 -0.001486 0.003744 -0.000022 -0.001118 0.003599 0.024634
#
#
# Mechanical properties :
#
#
# Convention : Reuss Voigt Hill
#
# Bulk Modulus (GPa) = 56.03374 71.67634 63.85504
# Shear Modulus (GPa) = 41.24188 47.64456 44.44322
#
# Velocity S-wave (km/s) = 4.00930 4.30929 4.16200
# Velocity P-wave (km/s) = 6.57818 7.25925 6.92709
#
# Compressibility (1/GPa) = 0.01784639
#
# Stress axis : x y z
#
# Youngs Moduli (GPa) = 93.42172 108.22677 87.95279
#
# Poissons Ratio (x) = 0.20296 0.28919
# Poissons Ratio (y) = 0.17519 0.13812
# Poissons Ratio (z) = 0.30717 0.16996
#
# Static dielectric constant tensor:
#      x y z
#    x 6.951630 2.683060 0.189080 
#    y 2.683060 3.595270 0.080450 
#    z 0.189080 0.080450 2.101870 
# 
# From -- ./inp_files/351687.got.cif
#   From: 2010.05.17/outbox.cif.g08.bks.cpg/sg2_176_cif.got.tgz:351687.got - 2010.06.03 11:33:40.
