data_PCOD9020449
_publ_section_title
;
Structure prediction by ZEFSAII (Michael W. Deem and Ramdas Pophale) SiO2 
 PCOD9020449
Probable space group: P -1
;
_chemical_formula_sum "Si O2"
_cell_formula_units_Z 14
_cell_length_a 8.886606
_cell_length_b 11.513675
_cell_length_c 7.369227
_cell_angle_alpha 91.359947
_cell_angle_beta 50.694329
_cell_angle_gamma 102.844933
_cell_volume 561.935411
_symmetry_space_group_name_H-M "P -1"
_symmetry_group_IT_number 2
_symmetry_cell_setting 'triclinic'
loop_
_space_group_symop_operation_xyz
x,y,z
-x,-y,-z
loop_
_atom_site_type_symbol
_atom_site_label
_atom_site_fract_x
_atom_site_fract_y
_atom_site_fract_z
Si Si1 0.885210 0.795842 0.048402
Si Si2 0.309507 0.560717 0.650349
Si Si3 0.375040 0.284767 0.417806
Si Si4 0.957476 0.602460 0.406324
Si Si5 0.785362 0.030250 0.965073
Si Si6 0.684227 0.989136 0.644150
Si Si7 0.841193 0.251907 0.445021
O O1 0.957308 0.720021 0.832986
O O2 0.822981 0.909606 0.016803
O O3 0.709261 0.724317 0.310774
O O4 0.071491 0.854348 0.043003
O O5 0.500000 0.500000 0.500000
O O6 0.386790 0.645925 0.770195
O O7 0.102026 0.459649 0.749493
O O8 0.295198 0.665267 0.521514
O O9 0.248206 0.357234 0.401959
O O10 0.312330 0.144345 0.414421
O O11 0.000000 0.500000 0.500000
O O12 0.122474 0.717264 0.367922
O O13 0.811902 0.021927 0.730650
O O14 0.552559 0.024439 0.159964
O O15 0.758864 0.108505 0.469558
#
# Coordination Sequence:
#
# PCOD9020449 Si02
#       7
#     2   2   2   2   2   2   2
#     4  11  22  34  54  87 119 153 189 232 284 344
#     4   9  20  39  60  81 108 153 198 235 280 334
#     4  11  21  37  61  86 118 151 190 237 288 343
#     4   9  20  39  60  81 108 153 198 235 280 334
#     4  10  22  36  52  85 126 151 186 226 286 360
#     4  11  22  37  60  88 116 153 186 235 296 344
#     4  11  21  37  61  86 118 151 190 237 288 343
#
# _framework density 24.913898
#
# number of rings (size 3 to 8) (size 9 to 14) (size 15 to 20)
#    0.000    1.714    0.000    5.143    0.000    3.429 
#    0.000    7.143    0.000   13.714    0.000    0.000 
#    0.000    0.000    0.000    0.000    0.000    0.000 
#
# Total GULP energy -77952.543136 kJ/mol
# GULP energy per Si atom -5568.038795 kJ/mol
# Density = 2.485719 g / cm^3
# Si number density = 24.913898 Si / 1000 Ang^3
#
#
#
# Elastic Constant Matrix: (Units=GPa)
#
#
# Indices 1 2 3 4 5 6 
#
# 1 148.2545 43.0836 23.6106 14.7430 -9.4553 -3.1247
# 2 43.0836 155.0118 19.5332 22.1742 -1.4152 -1.0762
# 3 23.6106 19.5332 69.7337 13.4515 1.6933 0.3687
# 4 14.7430 22.1742 13.4515 18.8515 4.0963 -3.9537
# 5 -9.4553 -1.4152 1.6933 4.0963 15.7151 3.0482
# 6 -3.1247 -1.0762 0.3687 -3.9537 3.0482 50.6139
#
#
#
# Elastic Compliance Matrix: (Units=1/GPa)
#
#
# Indices 1 2 3 4 5 6 
#
# 1 0.008310 -0.001291 -0.001580 -0.005332 0.006504 -0.000311
# 2 -0.001291 0.008161 -0.000130 -0.009209 0.002523 -0.000777
# 3 -0.001580 -0.000130 0.017046 -0.011073 0.000302 -0.001108
# 4 -0.005332 -0.009209 -0.011073 0.083200 -0.026010 0.007621
# 5 0.006504 0.002523 0.000302 -0.026010 0.075712 -0.006138
# 6 -0.000311 -0.000777 -0.001108 0.007621 -0.006138 0.020695
#
#
# Mechanical properties :
#
#
# Convention : Reuss Voigt Hill
#
# Bulk Modulus (GPa) = 36.34160 60.60609 48.47384
# Shear Modulus (GPa) = 21.90133 36.15428 29.02780
#
# Velocity S-wave (km/s) = 2.96815 3.81355 3.41710
# Velocity P-wave (km/s) = 5.13469 6.61589 5.92178
#
# Compressibility (1/GPa) = 0.02751668
#
# Stress axis : x y z
#
# Youngs Moduli (GPa) = 120.33122 122.53165 58.66478
#
# Poissons Ratio (x) = 0.15815 0.09269
# Poissons Ratio (y) = 0.15531 0.00762
# Poissons Ratio (z) = 0.19011 0.01591
#
# Static dielectric constant tensor:
#      x y z
#    x 1.988960 0.082930 0.031460 
#    y 0.082930 2.131980 0.014960 
#    z 0.031460 0.014960 2.086380 
# 
# From -- ./inp_files/188184.got.cif
#   From: 2010.05.17/outbox.cif.g08.bks.cpg/sg2_95_cif.got.tgz:188184.got - 2010.06.03 11:33:40.
