data_PCOD9020842
_publ_section_title
;
Structure prediction by ZEFSAII (Michael W. Deem and Ramdas Pophale) SiO2 
 PCOD9020842
Probable space group: P -1
;
_chemical_formula_sum "Si O2"
_cell_formula_units_Z 16
_cell_length_a 10.425029
_cell_length_b 11.931515
_cell_length_c 14.737290
_cell_angle_alpha 64.019909
_cell_angle_beta 138.956332
_cell_angle_gamma 138.691020
_cell_volume 758.874214
_symmetry_space_group_name_H-M "P -1"
_symmetry_group_IT_number 2
_symmetry_cell_setting 'triclinic'
loop_
_space_group_symop_operation_xyz
x,y,z
-x,-y,-z
loop_
_atom_site_type_symbol
_atom_site_label
_atom_site_fract_x
_atom_site_fract_y
_atom_site_fract_z
Si Si1 0.345995 0.376181 0.548958
Si Si2 0.048201 0.099540 0.343870
Si Si3 0.344747 0.389337 0.097243
Si Si4 0.509757 0.153304 0.953582
Si Si5 0.146859 0.440121 0.573528
Si Si6 0.780712 0.057741 0.603304
Si Si7 0.104939 0.371180 0.149494
Si Si8 0.726528 0.773230 0.066071
O O1 0.500000 0.500000 0.500000
O O2 0.126347 0.180725 0.457313
O O3 0.197660 0.423994 0.503096
O O4 0.593275 0.439853 0.724222
O O5 0.082916 0.232401 0.245844
O O6 0.246037 0.076905 0.425419
O O7 0.729954 0.911529 0.221610
O O8 0.556959 0.421301 0.268225
O O9 0.115353 0.342102 0.058856
O O10 0.521883 0.578665 0.074513
O O11 0.259119 0.254253 0.021696
O O12 0.409143 0.160418 0.994471
O O13 0.832469 0.328756 0.042324
O O14 0.500000 0.000000 0.000000
O O15 0.000000 0.500000 0.500000
O O16 0.970948 0.245199 0.587655
O O17 0.966051 0.099356 0.773159
O O18 0.500000 0.000000 0.500000
#
# Coordination Sequence:
#
# PCOD9020842 Si02
#       8
#     2   2   2   2   2   2   2   2
#     4   9  19  35  57  82 114 149 190 239 284 339
#     4   9  19  37  57  79 122 150 188 236 295 345
#     4   9  19  36  58  80 112 147 189 242 281 332
#     4   9  18  34  54  77 109 147 179 230 288 338
#     4  10  22  37  60  88 117 153 198 240 289 347
#     4  10  22  38  59  83 120 158 189 241 298 344
#     4   9  18  34  58  88 108 148 195 234 286 343
#     4   9  19  39  56  80 114 149 188 235 290 340
#
# _framework density 21.083863000000001
#
# number of rings (size 3 to 8) (size 9 to 14) (size 15 to 20)
#    0.000    2.750    0.000    0.000    5.250    4.000 
#    6.750    5.625    0.000    0.000    0.000    0.000 
#    0.000    0.000    0.000    0.000    0.000    0.000 
#
# Total GULP energy -89226.960907 kJ/mol
# GULP energy per Si atom -5576.685057 kJ/mol
# Density = 2.103588 g / cm^3
# Si number density = 21.083863 Si / 1000 Ang^3
#
#
#
# Elastic Constant Matrix: (Units=GPa)
#
#
# Indices 1 2 3 4 5 6 
#
# 1 195.4566 21.6224 80.2219 6.5922 -7.1004 -26.3304
# 2 21.6224 46.8181 14.7354 1.9829 -4.4557 -10.8613
# 3 80.2219 14.7354 64.4120 14.8094 0.6669 -13.0292
# 4 6.5922 1.9829 14.8094 20.3785 -5.7672 1.4407
# 5 -7.1004 -4.4557 0.6669 -5.7672 46.4948 4.6505
# 6 -26.3304 -10.8613 -13.0292 1.4407 4.6505 37.3464
#
#
#
# Elastic Compliance Matrix: (Units=1/GPa)
#
#
# Indices 1 2 3 4 5 6 
#
# 1 0.012029 0.000057 -0.016683 0.008936 0.002994 0.001959
# 2 0.000057 0.024193 -0.004940 0.001449 0.002074 0.005038
# 3 -0.016683 -0.004940 0.045261 -0.029557 -0.007807 0.004704
# 4 0.008936 0.001449 -0.029557 0.071339 0.011555 -0.007781
# 5 0.002994 0.002074 -0.007807 0.011555 0.024054 -0.003451
# 6 0.001959 0.005038 0.004704 -0.007781 -0.003451 0.031994
#
#
# Mechanical properties :
#
#
# Convention : Reuss Voigt Hill
#
# Bulk Modulus (GPa) = 26.07662 59.98290 43.02976
# Shear Modulus (GPa) = 18.88313 33.51775 26.20044
#
# Velocity S-wave (km/s) = 2.99594 3.99147 3.52899
# Velocity P-wave (km/s) = 4.93583 7.05365 6.08754
#
# Compressibility (1/GPa) = 0.03834853
#
# Stress axis : x y z
#
# Youngs Moduli (GPa) = 83.13483 41.33447 22.09391
#
# Poissons Ratio (x) = -0.00234 0.36860
# Poissons Ratio (y) = -0.00470 0.10915
# Poissons Ratio (z) = 1.38697 0.20421
#
# Static dielectric constant tensor:
#      x y z
#    x 1.781760 0.022670 0.007480 
#    y 0.022670 1.831340 0.043570 
#    z 0.007480 0.043570 1.776660 
# 
# From -- ./inp_files/398374.got.cif
#   From: 2010.05.17/outbox.cif.g08.bks.cpg/sg2_200_cif.got.tgz:398374.got - 2010.06.03 11:33:40.
