data_PCOD9020976
_publ_section_title
;
Structure prediction by ZEFSAII (Michael W. Deem and Ramdas Pophale) SiO2 
 PCOD9020976
Probable space group: P -1
;
_chemical_formula_sum "Si O2"
_cell_formula_units_Z 14
_cell_length_a 8.548637
_cell_length_b 5.619852
_cell_length_c 23.462145
_cell_angle_alpha 130.079120
_cell_angle_beta 40.791496
_cell_angle_gamma 114.419911
_cell_volume 557.240021
_symmetry_space_group_name_H-M "P -1"
_symmetry_group_IT_number 2
_symmetry_cell_setting 'triclinic'
loop_
_space_group_symop_operation_xyz
x,y,z
-x,-y,-z
loop_
_atom_site_type_symbol
_atom_site_label
_atom_site_fract_x
_atom_site_fract_y
_atom_site_fract_z
Si Si1 0.174178 0.729279 0.763480
Si Si2 0.877963 0.315144 0.354762
Si Si3 0.686375 0.855389 0.974802
Si Si4 0.595610 0.095771 0.718042
Si Si5 0.159430 0.573643 0.401140
Si Si6 0.508261 0.088521 0.577523
Si Si7 0.359036 0.819476 0.155865
O O1 0.338343 0.413752 0.691800
O O2 0.080963 0.600791 0.709394
O O3 0.957002 0.889992 0.887734
O O4 0.348453 0.990771 0.748104
O O5 0.904040 0.538118 0.436289
O O6 0.107166 0.049751 0.261928
O O7 0.624865 0.185523 0.402933
O O8 0.698927 0.480592 0.908218
O O9 0.569155 0.954548 0.083422
O O10 0.500000 0.000000 0.000000
O O11 0.701220 0.315545 0.676704
O O12 0.559850 0.262143 0.814884
O O13 0.752603 0.755283 0.640329
O O14 0.226722 0.838614 0.466800
O O15 0.500000 0.000000 0.500000
#
# Coordination Sequence:
#
# PCOD9020976 Si02
#       7
#     2   2   2   2   2   2   2
#     4  11  22  41  68  91 136 177 221 274 340 390
#     4  11  21  41  71  91 133 183 216 274 343 388
#     4  11  21  36  62  96 128 173 226 269 326 401
#     4  10  22  41  66  95 136 176 222 277 330 398
#     4  10  23  42  68 100 133 174 226 277 333 400
#     4  11  25  45  67  99 134 174 227 279 335 402
#     4  10  22  37  63  94 131 174 224 270 327 400
#
# _framework density 25.123825
#
# number of rings (size 3 to 8) (size 9 to 14) (size 15 to 20)
#    0.000    1.429    4.286    0.857    4.000    1.714 
#    0.000    1.429    0.000    0.000    0.000    0.000 
#    0.000    0.000    0.000    0.000    0.000    0.000 
#
# Total GULP energy -78124.806124 kJ/mol
# GULP energy per Si atom -5580.343295 kJ/mol
# Density = 2.506664 g / cm^3
# Si number density = 25.123825 Si / 1000 Ang^3
#
#
#
# Elastic Constant Matrix: (Units=GPa)
#
#
# Indices 1 2 3 4 5 6 
#
# 1 113.7909 26.4169 28.8658 -24.3357 20.7103 25.8962
# 2 26.4169 89.9533 35.8021 -26.8552 -7.1397 10.9121
# 3 28.8658 35.8021 84.7519 -23.2975 -6.0914 -4.8154
# 4 -24.3357 -26.8552 -23.2975 49.5637 -10.7461 1.3775
# 5 20.7103 -7.1397 -6.0914 -10.7461 45.9094 -3.6727
# 6 25.8962 10.9121 -4.8154 1.3775 -3.6727 53.6994
#
#
#
# Elastic Compliance Matrix: (Units=1/GPa)
#
#
# Indices 1 2 3 4 5 6 
#
# 1 0.013634 -0.001116 -0.004310 0.002786 -0.006826 -0.007273
# 2 -0.001116 0.015904 -0.004329 0.006939 0.003787 -0.003001
# 3 -0.004310 -0.004329 0.016938 0.004439 0.004933 0.004701
# 4 0.002786 0.006939 0.004439 0.028977 0.006984 -0.002621
# 5 -0.006826 0.003787 0.004933 0.006984 0.028116 0.004708
# 6 -0.007273 -0.003001 0.004701 -0.002621 0.004708 0.023550
#
#
# Mechanical properties :
#
#
# Convention : Reuss Voigt Hill
#
# Bulk Modulus (GPa) = 37.08615 52.29620 44.69118
# Shear Modulus (GPa) = 32.13020 42.99523 37.56271
#
# Velocity S-wave (km/s) = 3.58001 4.14131 3.87085
# Velocity P-wave (km/s) = 5.64642 6.61271 6.14857
#
# Compressibility (1/GPa) = 0.02696424
#
# Stress axis : x y z
#
# Youngs Moduli (GPa) = 73.34796 62.87831 59.03996
#
# Poissons Ratio (x) = 0.07019 0.25446
# Poissons Ratio (y) = 0.08188 0.25559
# Poissons Ratio (z) = 0.31613 0.27220
#
# Static dielectric constant tensor:
#      x y z
#    x 1.980010 -0.004400 0.033020 
#    y -0.004400 2.056600 -0.015900 
#    z 0.033020 -0.015900 2.163700 
# 
# From -- ./inp_files/34455.got.cif
#   From: 2010.05.17/outbox.cif.g08.bks.cpg/sg2_18_cif.got.tgz:34455.got - 2010.06.03 11:33:40.
