data_PCOD9020746
_publ_section_title
;
Structure prediction by ZEFSAII (Michael W. Deem and Ramdas Pophale) SiO2 
 PCOD9020746
Probable space group: P -1
;
_chemical_formula_sum "Si O2"
_cell_formula_units_Z 16
_cell_length_a 9.941738
_cell_length_b 9.434910
_cell_length_c 14.260560
_cell_angle_alpha 116.238210
_cell_angle_beta 112.805869
_cell_angle_gamma 31.017578
_cell_volume 618.151882
_symmetry_space_group_name_H-M "P -1"
_symmetry_group_IT_number 2
_symmetry_cell_setting 'triclinic'
loop_
_space_group_symop_operation_xyz
x,y,z
-x,-y,-z
loop_
_atom_site_type_symbol
_atom_site_label
_atom_site_fract_x
_atom_site_fract_y
_atom_site_fract_z
Si Si1 0.187235 0.101586 0.972685
Si Si2 0.837651 0.954710 0.837636
Si Si3 0.349523 0.229984 0.304861
Si Si4 0.379853 0.499676 0.759039
Si Si5 0.673596 0.344563 0.623216
Si Si6 0.719594 0.608626 0.876616
Si Si7 0.771470 0.037955 0.407420
Si Si8 0.278069 0.330571 0.521513
O O1 0.124920 0.084351 0.051793
O O2 0.232077 0.249057 0.043720
O O3 0.959542 0.297183 0.892453
O O4 0.454823 0.798782 0.913237
O O5 0.783963 0.820354 0.750965
O O6 0.094509 0.795933 0.810520
O O7 0.564421 0.278753 0.829240
O O8 0.303964 0.356469 0.231097
O O9 0.666452 0.960211 0.324733
O O10 0.275717 0.383120 0.426411
O O11 0.582245 0.419231 0.727218
O O12 0.309252 0.430547 0.640779
O O13 0.736179 0.112086 0.529442
O O14 0.422983 0.655692 0.600432
O O15 0.947829 0.175669 0.619732
O O16 0.000000 0.500000 0.500000
O O17 0.500000 0.000000 0.500000
#
# Coordination Sequence:
#
# PCOD9020746 Si02
#       8
#     2   2   2   2   2   2   2   2
#     4   9  18  36  49  81 110 142 176 225 277 336
#     4  11  23  34  61  85 116 145 185 225 287 337
#     4  11  22  37  57  89 114 150 185 225 282 341
#     4  12  21  38  55  84 111 156 188 223 266 341
#     4  10  22  38  54  75 110 153 195 226 266 310
#     4   9  19  32  55  75 113 143 176 223 278 331
#     4  10  22  37  55  77 109 152 189 234 265 316
#     4  12  23  36  50  82 123 153 176 221 275 338
#
# _framework density 25.883607999999999
#
# number of rings (size 3 to 8) (size 9 to 14) (size 15 to 20)
#    0.000    1.500    3.750    1.500    0.000    7.000 
#    0.000    0.000    0.000    0.000    0.000   17.500 
#    0.000    0.000    0.000    0.000    0.000    0.000 
#
# Total GULP energy -89471.992966 kJ/mol
# GULP energy per Si atom -5591.999560 kJ/mol
# Density = 2.582470 g / cm^3
# Si number density = 25.883608 Si / 1000 Ang^3
#
#
#
# Elastic Constant Matrix: (Units=GPa)
#
#
# Indices 1 2 3 4 5 6 
#
# 1 88.5698 43.5586 32.0084 2.9979 -19.7687 -28.3147
# 2 43.5586 147.1558 38.9451 -2.8483 -11.4937 -34.2571
# 3 32.0084 38.9451 130.6102 -5.8353 -17.3791 -10.3857
# 4 2.9979 -2.8483 -5.8353 41.2032 3.0371 -3.1145
# 5 -19.7687 -11.4937 -17.3791 3.0371 43.6981 4.9435
# 6 -28.3147 -34.2571 -10.3857 -3.1145 4.9435 43.9868
#
#
#
# Elastic Compliance Matrix: (Units=1/GPa)
#
#
# Indices 1 2 3 4 5 6 
#
# 1 0.016984 -0.002184 -0.002220 -0.001497 0.005426 0.007991
# 2 -0.002184 0.009177 -0.001721 0.000953 0.000065 0.005395
# 3 -0.002220 -0.001721 0.008982 0.001096 0.002130 -0.000811
# 4 -0.001497 0.000953 0.001096 0.024896 -0.001949 0.002019
# 5 0.005426 0.000065 0.002130 -0.001949 0.026230 0.000960
# 6 0.007991 0.005395 -0.000811 0.002019 0.000960 0.031923
#
#
# Mechanical properties :
#
#
# Convention : Reuss Voigt Hill
#
# Bulk Modulus (GPa) = 43.68553 66.15111 54.91832
# Shear Modulus (GPa) = 36.21266 42.56588 39.38927
#
# Velocity S-wave (km/s) = 3.74446 4.05966 3.90524
# Velocity P-wave (km/s) = 5.96732 6.89834 6.44965
#
# Compressibility (1/GPa) = 0.02289087
#
# Stress axis : x y z
#
# Youngs Moduli (GPa) = 58.88022 108.96905 111.33846
#
# Poissons Ratio (x) = 0.23804 0.24720
# Poissons Ratio (y) = 0.12862 0.19160
# Poissons Ratio (z) = 0.13073 0.18752
#
# Static dielectric constant tensor:
#      x y z
#    x 2.185210 -0.021600 0.097310 
#    y -0.021600 1.994630 0.009150 
#    z 0.097310 0.009150 2.076450 
# 
# From -- ./inp_files/519767.got.cif
#   From: 2010.05.17/outbox.cif.g08.bks.cpg/sg2_260_cif.got.tgz:519767.got - 2010.06.03 11:33:40.
