data_PCOD9020233
_publ_section_title
;
Structure prediction by ZEFSAII (Michael W. Deem and Ramdas Pophale) SiO2 
 PCOD9020233
Probable space group: P -1
;
_chemical_formula_sum "Si O2"
_cell_formula_units_Z 16
_cell_length_a 15.783232
_cell_length_b 16.717720
_cell_length_c 6.015611
_cell_angle_alpha 114.731168
_cell_angle_beta 55.601425
_cell_angle_gamma 150.213666
_cell_volume 640.517884
_symmetry_space_group_name_H-M "P -1"
_symmetry_group_IT_number 2
_symmetry_cell_setting 'triclinic'
loop_
_space_group_symop_operation_xyz
x,y,z
-x,-y,-z
loop_
_atom_site_type_symbol
_atom_site_label
_atom_site_fract_x
_atom_site_fract_y
_atom_site_fract_z
Si Si1 0.803957 0.169629 0.818414
Si Si2 0.327794 0.439759 0.754813
Si Si3 0.313261 0.107749 0.217176
Si Si4 0.223137 0.525710 0.683682
Si Si5 0.818390 0.244482 0.393976
Si Si6 0.541796 0.693427 0.121149
Si Si7 0.764327 0.391566 0.833820
Si Si8 0.821286 0.832418 0.195820
O O1 0.730594 0.141626 0.639738
O O2 0.020789 0.356407 0.691129
O O3 0.780151 0.047887 0.739558
O O4 0.752801 0.165218 0.149345
O O5 0.500000 0.500000 0.500000
O O6 0.276916 0.477527 0.695794
O O7 0.156087 0.247542 0.825657
O O8 0.406194 0.543924 0.978741
O O9 0.252501 0.146440 0.500746
O O10 0.287751 0.126216 0.029172
O O11 0.541907 0.256563 0.033705
O O12 0.400976 0.658190 0.412909
O O13 0.199657 0.598015 0.944108
O O14 0.780276 0.320830 0.568599
O O15 0.053259 0.411534 0.247393
O O16 0.648301 0.700592 0.123717
O O17 0.000000 0.000000 0.000000
#
# Coordination Sequence:
#
# PCOD9020233 Si02
#       8
#     2   2   2   2   2   2   2   2
#     4  11  28  44  70 108 149 183 236 286 373 413
#     4  12  23  45  65  99 131 177 248 287 354 414
#     4  12  26  45  66 103 139 187 229 297 351 430
#     4  11  24  42  71  98 132 188 230 298 339 434
#     4  10  25  47  74 110 139 189 230 303 342 440
#     4  12  23  43  70  94 128 192 232 293 345 414
#     4  10  21  47  75 102 142 175 246 280 360 420
#     4  12  29  43  66 101 142 183 234 297 357 413
#
# _framework density 24.979787999999999
#
# number of rings (size 3 to 8) (size 9 to 14) (size 15 to 20)
#    0.000    0.750    5.000    1.125    7.000    7.000 
#    0.000    0.000    0.000    0.000    0.000    0.000 
#    0.000    0.000    0.000    0.000    0.000    0.000 
#
# Total GULP energy -89134.612936 kJ/mol
# GULP energy per Si atom -5570.913309 kJ/mol
# Density = 2.492293 g / cm^3
# Si number density = 24.979788 Si / 1000 Ang^3
#
#
#
# Elastic Constant Matrix: (Units=GPa)
#
#
# Indices 1 2 3 4 5 6 
#
# 1 66.1684 2.5363 30.5159 -0.2198 17.8189 -3.6758
# 2 2.5363 46.7093 21.5089 -3.9777 16.8362 -7.5067
# 3 30.5159 21.5089 145.8613 -3.9151 22.0259 -1.7029
# 4 -0.2198 -3.9777 -3.9151 32.7829 -1.2456 -0.0617
# 5 17.8189 16.8362 22.0259 -1.2456 35.5952 -14.2379
# 6 -3.6758 -7.5067 -1.7029 -0.0617 -14.2379 32.5443
#
#
#
# Elastic Compliance Matrix: (Units=1/GPa)
#
#
# Indices 1 2 3 4 5 6 
#
# 1 0.018974 0.003707 -0.003029 -0.000167 -0.009997 -0.001534
# 2 0.003707 0.027432 -0.002847 0.002539 -0.012533 0.001119
# 3 -0.003029 -0.002847 0.008362 0.000513 -0.003051 -0.001895
# 4 -0.000167 0.002539 0.000513 0.030869 -0.000114 0.000602
# 5 -0.009997 -0.012533 -0.003051 -0.000114 0.047561 0.016628
# 6 -0.001534 0.001119 -0.001895 0.000602 0.016628 0.037989
#
#
# Mechanical properties :
#
#
# Convention : Reuss Voigt Hill
#
# Bulk Modulus (GPa) = 19.82935 40.87347 30.35141
# Shear Modulus (GPa) = 25.99630 33.79635 29.89632
#
# Velocity S-wave (km/s) = 3.22948 3.68223 3.46326
# Velocity P-wave (km/s) = 4.67562 5.87168 5.30745
#
# Compressibility (1/GPa) = 0.05043029
#
# Stress axis : x y z
#
# Youngs Moduli (GPa) = 52.70310 36.45349 119.59154
#
# Poissons Ratio (x) = -0.13514 0.36225
# Poissons Ratio (y) = -0.19538 0.34048
# Poissons Ratio (z) = 0.15964 0.10378
#
# Static dielectric constant tensor:
#      x y z
#    x 2.152550 0.005630 0.109880 
#    y 0.005630 1.949000 0.015370 
#    z 0.109880 0.015370 2.096680 
# 
# From -- ./inp_files/47022.got.cif
#   From: 2010.05.17/outbox.cif.g08.bks.cpg/sg2_24_cif.got.tgz:47022.got - 2010.06.03 11:33:40.
