data_PCOD9020213
_publ_section_title
;
Structure prediction by ZEFSAII (Michael W. Deem and Ramdas Pophale) SiO2 
 PCOD9020213
Probable space group: P -1
;
_chemical_formula_sum "Si O2"
_cell_formula_units_Z 13
_cell_length_a 16.222388
_cell_length_b 11.123412
_cell_length_c 8.899934
_cell_angle_alpha 138.701904
_cell_angle_beta 133.909726
_cell_angle_gamma 32.203007
_cell_volume 557.164159
_symmetry_space_group_name_H-M "P -1"
_symmetry_group_IT_number 2
_symmetry_cell_setting 'triclinic'
loop_
_space_group_symop_operation_xyz
x,y,z
-x,-y,-z
loop_
_atom_site_type_symbol
_atom_site_label
_atom_site_fract_x
_atom_site_fract_y
_atom_site_fract_z
Si Si1 0.794205 0.906210 0.027158
Si Si2 0.526270 0.602453 0.989225
Si Si3 0.237412 0.636476 0.191874
Si Si4 0.683559 0.623660 0.647037
Si Si5 0.009709 0.186372 0.552150
Si Si6 0.500000 0.000000 0.500000
Si Si7 0.987655 0.441771 0.262687
O O1 0.933211 0.850477 0.239222
O O2 0.640132 0.192547 0.111252
O O3 0.757143 0.744480 0.889070
O O4 0.846323 0.814231 0.834142
O O5 0.653062 0.408725 0.844825
O O6 0.500000 0.500000 0.000000
O O7 0.559223 0.768157 0.250965
O O8 0.333536 0.461360 0.296056
O O9 0.112694 0.923777 0.354894
O O10 0.140380 0.572492 0.940978
O O11 0.822709 0.370485 0.492672
O O12 0.545218 0.825572 0.547815
O O13 0.046304 0.341059 0.671007
O O14 0.000000 0.500000 0.500000
#
# Coordination Sequence:
#
# PCOD9020213 Si02
#       7
#     2   2   2   2   2   1   2
#     4  10  22  47  71  98 149 192 228 312 354 426
#     4  11  29  47  64 106 149 194 243 294 368 422
#     4  12  26  43  76 109 140 198 240 298 363 443
#     4  10  21  47  71 110 138 193 241 291 370 427
#     4  11  23  44  74 107 145 180 245 304 359 427
#     4  10  26  46  74  94 152 190 230 302 358 432
#     4  11  25  44  71 107 144 186 249 299 359 425
#
# _framework density 23.332440999999999
#
# number of rings (size 3 to 8) (size 9 to 14) (size 15 to 20)
#    0.000    1.231    3.077    1.385   10.769    3.692 
#    0.000    0.000    0.000    0.000    0.000    0.000 
#    0.000    0.000    0.000    0.000    0.000    0.000 
#
# Total GULP energy -72444.807418 kJ/mol
# GULP energy per Si atom -5572.677494 kJ/mol
# Density = 2.327933 g / cm^3
# Si number density = 23.332441 Si / 1000 Ang^3
#
#
#
# Elastic Constant Matrix: (Units=GPa)
#
#
# Indices 1 2 3 4 5 6 
#
# 1 124.7893 36.4046 29.1456 23.5679 -21.1466 5.5254
# 2 36.4046 69.1147 20.4345 23.3645 -7.6798 20.3819
# 3 29.1456 20.4345 110.4989 11.0205 -13.6284 -5.5197
# 4 23.5679 23.3645 11.0205 33.6616 4.7870 -2.6887
# 5 -21.1466 -7.6798 -13.6284 4.7870 33.2206 0.5636
# 6 5.5254 20.3819 -5.5197 -2.6887 0.5636 13.4686
#
#
#
# Elastic Compliance Matrix: (Units=1/GPa)
#
#
# Indices 1 2 3 4 5 6 
#
# 1 0.012289 0.005797 -0.002440 -0.014791 0.010602 -0.018211
# 2 0.005797 0.121189 -0.018968 -0.105331 0.042774 -0.216364
# 3 -0.002440 -0.018968 0.013321 0.014002 -0.003138 0.038091
# 4 -0.014791 -0.105331 0.014002 0.131698 -0.050385 0.199603
# 5 0.010602 0.042774 -0.003138 -0.050385 0.054115 -0.082687
# 6 -0.018211 -0.216364 0.038091 0.199603 -0.082687 0.468056
#
#
# Mechanical properties :
#
#
# Convention : Reuss Voigt Hill
#
# Bulk Modulus (GPa) = 8.65227 52.93025 30.79126
# Shear Modulus (GPa) = 5.74438 30.63136 18.18787
#
# Velocity S-wave (km/s) = 1.57077 3.62722 2.79500
# Velocity P-wave (km/s) = 2.64690 6.34640 4.86225
#
# Compressibility (1/GPa) = 0.11557657
#
# Stress axis : x y z
#
# Youngs Moduli (GPa) = 81.37654 8.25155 75.07177
#
# Poissons Ratio (x) = -0.04784 0.18320
# Poissons Ratio (y) = -0.47177 1.42396
# Poissons Ratio (z) = 0.19859 0.15652
#
# Static dielectric constant tensor:
#      x y z
#    x 2.045310 -0.027440 0.053270 
#    y -0.027440 1.902860 -0.048340 
#    z 0.053270 -0.048340 1.884890 
# 
# From -- ./inp_files/333942.got.cif
#   From: 2010.05.17/outbox.cif.g08.bks.cpg/sg2_167_cif.got.tgz:333942.got - 2010.06.03 11:33:40.
