data_PCOD9020321
_publ_section_title
;
Structure prediction by ZEFSAII (Michael W. Deem and Ramdas Pophale) SiO2 
 PCOD9020321
Probable space group: P -1
;
_chemical_formula_sum "Si O2"
_cell_formula_units_Z 15
_cell_length_a 16.117690
_cell_length_b 15.611255
_cell_length_c 14.140314
_cell_angle_alpha 41.428616
_cell_angle_beta 42.733189
_cell_angle_gamma 17.658704
_cell_volume 710.572880
_symmetry_space_group_name_H-M "P -1"
_symmetry_group_IT_number 2
_symmetry_cell_setting 'triclinic'
loop_
_space_group_symop_operation_xyz
x,y,z
-x,-y,-z
loop_
_atom_site_type_symbol
_atom_site_label
_atom_site_fract_x
_atom_site_fract_y
_atom_site_fract_z
Si Si1 0.736196 0.179993 0.323273
Si Si2 0.883817 0.320634 0.069454
Si Si3 0.260012 0.086232 0.565875
Si Si4 0.500000 0.000000 0.000000
Si Si5 0.189677 0.306055 0.622649
Si Si6 0.227665 0.704055 0.441737
Si Si7 0.560250 0.067916 0.098151
Si Si8 0.553923 0.646245 0.271913
O O1 0.820469 0.236127 0.160033
O O2 0.426671 0.481079 0.371857
O O3 0.783262 0.015920 0.350964
O O4 0.923081 0.990052 0.418643
O O5 0.762136 0.444607 0.175143
O O6 0.713781 0.591319 0.931458
O O7 0.202542 0.051966 0.023926
O O8 0.162376 0.213734 0.647799
O O9 0.089045 0.348246 0.426376
O O10 0.580611 0.817098 0.512662
O O11 0.545360 0.112360 0.840126
O O12 0.490954 0.967543 0.922749
O O13 0.314496 0.137790 0.754371
O O14 0.322382 0.756598 0.354635
O O15 0.288016 0.548603 0.604881
#
# Coordination Sequence:
#
# PCOD9020321 Si02
#       8
#     2   2   2   1   2   2   2   2
#     4  11  21  37  62  88 112 153 200 252 287 357
#     4  10  22  40  57  82 123 157 192 243 302 342
#     4  10  22  39  65  90 118 147 203 250 302 346
#     4  10  22  34  58  84 118 156 206 232 288 356
#     4  10  22  42  61  89 121 156 188 254 305 350
#     4  10  22  37  59  83 122 156 203 247 305 340
#     4  11  23  40  59  84 122 162 193 241 298 362
#     4   9  21  38  54  85 119 163 198 251 290 356
#
# _framework density 21.109726999999999
#
# number of rings (size 3 to 8) (size 9 to 14) (size 15 to 20)
#    0.000    1.867    0.000    4.000    3.733    9.067 
#    0.000    1.333    0.000    0.000    0.000    0.000 
#    0.000    0.000    0.000    0.000    0.000    0.000 
#
# Total GULP energy -83591.250834 kJ/mol
# GULP energy per Si atom -5572.750056 kJ/mol
# Density = 2.106168 g / cm^3
# Si number density = 21.109727 Si / 1000 Ang^3
#
#
#
# Elastic Constant Matrix: (Units=GPa)
#
#
# Indices 1 2 3 4 5 6 
#
# 1 119.2165 18.4359 41.7379 -33.5974 -23.3201 22.7912
# 2 18.4359 64.7557 -0.4022 -5.6951 -11.5376 -5.1928
# 3 41.7379 -0.4022 63.7221 -23.2616 -11.9835 14.3279
# 4 -33.5974 -5.6951 -23.2616 29.7731 -4.5836 -0.0184
# 5 -23.3201 -11.5376 -11.9835 -4.5836 33.1713 -13.3911
# 6 22.7912 -5.1928 14.3279 -0.0184 -13.3911 22.2105
#
#
#
# Elastic Compliance Matrix: (Units=1/GPa)
#
#
# Indices 1 2 3 4 5 6 
#
# 1 0.020988 -0.002992 0.001551 0.026043 0.011236 -0.016441
# 2 -0.002992 0.019837 0.003126 0.004674 0.011724 0.012764
# 3 0.001551 0.003126 0.029801 0.027379 0.011403 -0.013187
# 4 0.026043 0.004674 0.027379 0.090304 0.032852 -0.023411
# 5 0.011236 0.011724 0.011403 0.032852 0.058520 0.019165
# 6 -0.016441 0.012764 -0.013187 -0.023411 0.019165 0.084921
#
#
# Mechanical properties :
#
#
# Convention : Reuss Voigt Hill
#
# Bulk Modulus (GPa) = 13.51424 40.80415 27.15919
# Shear Modulus (GPa) = 15.35310 29.55916 22.45613
#
# Velocity S-wave (km/s) = 2.69977 3.74607 3.26510
# Velocity P-wave (km/s) = 4.01674 6.17108 5.20655
#
# Compressibility (1/GPa) = 0.07399601
#
# Stress axis : x y z
#
# Youngs Moduli (GPa) = 47.64553 50.41001 33.55557
#
# Poissons Ratio (x) = 0.15081 -0.05203
# Poissons Ratio (y) = 0.14254 -0.10488
# Poissons Ratio (z) = -0.07388 -0.15756
#
# Static dielectric constant tensor:
#      x y z
#    x 1.728760 -0.003490 0.012760 
#    y -0.003490 1.770690 -0.006220 
#    z 0.012760 -0.006220 1.787690 
# 
# From -- ./inp_files/321715.got.cif
#   From: 2010.05.17/outbox.cif.g08.bks.cpg/sg2_161_cif.got.tgz:321715.got - 2010.06.03 11:33:40.
