data_PCOD9020092
_publ_section_title
;
Structure prediction by ZEFSAII (Michael W. Deem and Ramdas Pophale) SiO2 
 PCOD9020092
Probable space group: P -1
;
_chemical_formula_sum "Si O2"
_cell_formula_units_Z 16
_cell_length_a 17.423954
_cell_length_b 5.545041
_cell_length_c 6.758517
_cell_angle_alpha 72.961285
_cell_angle_beta 94.947130
_cell_angle_gamma 92.866979
_cell_volume 621.787298
_symmetry_space_group_name_H-M "P -1"
_symmetry_group_IT_number 2
_symmetry_cell_setting 'triclinic'
loop_
_space_group_symop_operation_xyz
x,y,z
-x,-y,-z
loop_
_atom_site_type_symbol
_atom_site_label
_atom_site_fract_x
_atom_site_fract_y
_atom_site_fract_z
Si Si1 0.140366 0.010556 0.116695
Si Si2 0.442284 0.906253 0.178063
Si Si3 0.284864 0.716688 0.176074
Si Si4 0.323122 0.771869 0.640409
Si Si5 0.501606 0.387474 0.249001
Si Si6 0.174800 0.481209 0.740375
Si Si7 0.956183 0.228943 0.537420
Si Si8 0.759740 0.771946 0.564455
O O1 0.179813 0.091006 0.312924
O O2 0.202192 0.823472 0.080388
O O3 0.066680 0.859491 0.222370
O O4 0.139636 0.261008 0.923877
O O5 0.358242 0.865744 0.071563
O O6 0.469193 0.625165 0.307912
O O7 0.450431 0.126073 0.292145
O O8 0.500000 0.000000 0.000000
O O9 0.301086 0.758557 0.405578
O O10 0.284320 0.416687 0.248702
O O11 0.409574 0.685206 0.691132
O O12 0.260482 0.594218 0.784249
O O13 0.300576 0.059133 0.605941
O O14 0.500000 0.500000 0.000000
O O15 0.115872 0.703116 0.637211
O O16 0.189914 0.366166 0.554269
O O17 0.000000 0.500000 0.500000
O O18 0.000000 0.000000 0.500000
#
# Coordination Sequence:
#
# PCOD9020092 Si02
#       8
#     2   2   2   2   2   2   2   2
#     4  11  25  45  77 112 144 200 252 296 375 452
#     4  10  24  40  60  93 140 183 242 302 375 417
#     4  10  23  42  70  97 140 194 249 311 362 445
#     4  10  23  42  70  97 140 194 249 311 362 445
#     4  10  24  40  60  93 140 183 242 302 375 417
#     4  11  25  45  77 112 144 200 252 296 375 452
#     4  12  27  52  78 111 164 188 238 318 375 450
#     4  10  21  46  70 105 150 186 258 312 359 432
#
# _framework density 25.732271999999998
#
# number of rings (size 3 to 8) (size 9 to 14) (size 15 to 20)
#    0.000    1.500    3.750    0.750   10.500    5.000 
#    0.000    0.000    0.000    0.000    0.000    0.000 
#    0.000    0.000    0.000    0.000    0.000    0.000 
#
# Total GULP energy -89447.755361 kJ/mol
# GULP energy per Si atom -5590.484710 kJ/mol
# Density = 2.567370 g / cm^3
# Si number density = 25.732272 Si / 1000 Ang^3
#
#
#
# Elastic Constant Matrix: (Units=GPa)
#
#
# Indices 1 2 3 4 5 6 
#
# 1 114.6685 48.4296 41.8345 -18.6221 -18.1330 -9.9003
# 2 48.4296 143.5584 17.7618 -34.1444 -6.7076 -10.3869
# 3 41.8345 17.7618 136.2078 -36.2486 -14.1759 -8.8076
# 4 -18.6221 -34.1444 -36.2486 36.0939 1.9709 -7.2401
# 5 -18.1330 -6.7076 -14.1759 1.9709 52.4759 -15.0150
# 6 -9.9003 -10.3869 -8.8076 -7.2401 -15.0150 53.4873
#
#
#
# Elastic Compliance Matrix: (Units=1/GPa)
#
#
# Indices 1 2 3 4 5 6 
#
# 1 0.011879 -0.003127 -0.002441 0.000991 0.003683 0.002357
# 2 -0.003127 0.011189 0.003577 0.013369 0.002127 0.004590
# 3 -0.002441 0.003577 0.012563 0.015636 0.004009 0.005553
# 4 0.000991 0.013369 0.015636 0.059264 0.008564 0.015780
# 5 0.003683 0.002127 0.004009 0.008564 0.024135 0.009689
# 6 0.002357 0.004590 0.005553 0.015780 0.009689 0.025794
#
#
# Mechanical properties :
#
#
# Convention : Reuss Voigt Hill
#
# Bulk Modulus (GPa) = 31.59701 67.83183 49.71442
# Shear Modulus (GPa) = 31.37641 47.50534 39.44087
#
# Velocity S-wave (km/s) = 3.49569 4.30133 3.91927
# Velocity P-wave (km/s) = 5.34780 7.14748 6.31211
#
# Compressibility (1/GPa) = 0.03164857
#
# Stress axis : x y z
#
# Youngs Moduli (GPa) = 84.18235 89.37124 79.60158
#
# Poissons Ratio (x) = 0.27947 0.19434
# Poissons Ratio (y) = 0.26325 -0.28476
# Poissons Ratio (z) = 0.20552 -0.31971
#
# Static dielectric constant tensor:
#      x y z
#    x 2.110780 0.057070 -0.042270 
#    y 0.057070 2.298290 0.126630 
#    z -0.042270 0.126630 2.249520 
# 
# From -- ./inp_files/322213.got.cif
#   From: 2010.05.17/outbox.cif.g08.bks.cpg/sg2_162_cif.got.tgz:322213.got - 2010.06.03 11:33:40.
