data_PCOD9020119
_publ_section_title
;
Structure prediction by ZEFSAII (Michael W. Deem and Ramdas Pophale) SiO2 
 PCOD9020119
Probable space group: P -1
;
_chemical_formula_sum "Si O2"
_cell_formula_units_Z 13
_cell_length_a 14.465832
_cell_length_b 11.983502
_cell_length_c 8.742498
_cell_angle_alpha 45.121189
_cell_angle_beta 124.433659
_cell_angle_gamma 149.414242
_cell_volume 542.713070
_symmetry_space_group_name_H-M "P -1"
_symmetry_group_IT_number 2
_symmetry_cell_setting 'triclinic'
loop_
_space_group_symop_operation_xyz
x,y,z
-x,-y,-z
loop_
_atom_site_type_symbol
_atom_site_label
_atom_site_fract_x
_atom_site_fract_y
_atom_site_fract_z
Si Si1 0.250722 0.938907 0.537636
Si Si2 0.159810 0.533145 0.444445
Si Si3 0.716896 0.207340 0.004128
Si Si4 0.169177 0.348820 0.168299
Si Si5 0.562174 0.533672 0.854614
Si Si6 0.500000 0.000000 0.500000
Si Si7 0.208067 0.236474 0.638971
O O1 0.413718 0.019941 0.536902
O O2 0.055984 0.689370 0.521130
O O3 0.297010 0.171968 0.335261
O O4 0.244299 0.899323 0.751825
O O5 0.215207 0.709685 0.184997
O O6 0.292660 0.723522 0.520657
O O7 0.190090 0.385284 0.562930
O O8 0.818948 0.461642 0.943080
O O9 0.500000 0.000000 0.000000
O O10 0.325310 0.499775 0.039638
O O11 0.220911 0.297996 0.413150
O O12 0.970299 0.068376 0.204505
O O13 0.387461 0.350587 0.759149
O O14 0.500000 0.500000 0.000000
#
# Coordination Sequence:
#
# PCOD9020119 Si02
#       7
#     2   2   2   2   2   1   2
#     4  12  25  46  70  98 141 181 229 288 336 412
#     4  11  23  45  72 103 134 184 228 283 343 409
#     4  11  23  46  73 104 139 175 230 289 340 406
#     4  10  23  44  71 101 130 180 226 280 346 392
#     4  12  26  44  69 100 137 186 227 274 344 408
#     4  12  24  44  66  96 150 180 222 274 350 398
#     4  10  21  46  71  95 138 172 231 288 329 402
#
# _framework density 23.953727000000001
#
# number of rings (size 3 to 8) (size 9 to 14) (size 15 to 20)
#    0.000    0.923    4.615    2.308    2.154    0.615 
#    8.308    0.000    0.000    0.000    0.000    0.000 
#    0.000    0.000    0.000    0.000    0.000    0.000 
#
# Total GULP energy -72608.986146 kJ/mol
# GULP energy per Si atom -5585.306627 kJ/mol
# Density = 2.389921 g / cm^3
# Si number density = 23.953727 Si / 1000 Ang^3
#
#
#
# Elastic Constant Matrix: (Units=GPa)
#
#
# Indices 1 2 3 4 5 6 
#
# 1 69.5667 1.0522 -0.5119 -0.5969 -16.7181 11.1777
# 2 1.0522 181.2124 18.0988 1.5809 -3.3756 25.5374
# 3 -0.5119 18.0988 60.3834 -4.6887 9.3481 -1.3377
# 4 -0.5969 1.5809 -4.6887 14.6610 3.7008 -2.3281
# 5 -16.7181 -3.3756 9.3481 3.7008 10.3251 -0.4373
# 6 11.1777 25.5374 -1.3377 -2.3281 -0.4373 45.4702
#
#
#
# Elastic Compliance Matrix: (Units=1/GPa)
#
#
# Indices 1 2 3 4 5 6 
#
# 1 0.036800 0.005200 -0.017125 -0.028435 0.086426 -0.013095
# 2 0.005200 0.007300 -0.005793 -0.008066 0.018698 -0.005782
# 3 -0.017125 -0.005793 0.030996 0.028323 -0.067448 0.009177
# 4 -0.028435 -0.008066 0.028323 0.107998 -0.112318 0.016803
# 5 0.086426 0.018698 -0.067448 -0.112318 0.342693 -0.036186
# 6 -0.013095 -0.005782 0.009177 0.016803 -0.036186 0.029241
#
#
# Mechanical properties :
#
#
# Convention : Reuss Voigt Hill
#
# Bulk Modulus (GPa) = 25.21342 38.71562 31.96452
# Shear Modulus (GPa) = 8.28248 33.59282 20.93765
#
# Velocity S-wave (km/s) = 1.86151 3.74893 2.95970
# Velocity P-wave (km/s) = 3.89474 5.91076 5.00530
#
# Compressibility (1/GPa) = 0.03966143
#
# Stress axis : x y z
#
# Youngs Moduli (GPa) = 27.17405 136.98102 32.26183
#
# Poissons Ratio (x) = -0.71232 0.55247
# Poissons Ratio (y) = -0.14131 0.18690
# Poissons Ratio (z) = 0.46534 0.79354
#
# Static dielectric constant tensor:
#      x y z
#    x 1.981980 0.013620 0.009240 
#    y 0.013620 1.829520 -0.003990 
#    z 0.009240 -0.003990 1.947070 
# 
# From -- ./inp_files/166779.got.cif
#   From: 2010.05.17/outbox.cif.g08.bks.cpg/sg2_84_cif.got.tgz:166779.got - 2010.06.03 11:33:40.
