data_PCOD9020499
_publ_section_title
;
Structure prediction by ZEFSAII (Michael W. Deem and Ramdas Pophale) SiO2 
 PCOD9020499
Probable space group: P -1
;
_chemical_formula_sum "Si O2"
_cell_formula_units_Z 16
_cell_length_a 24.668756
_cell_length_b 10.196179
_cell_length_c 12.880781
_cell_angle_alpha 157.506656
_cell_angle_beta 44.170036
_cell_angle_gamma 133.794752
_cell_volume 858.410101
_symmetry_space_group_name_H-M "P -1"
_symmetry_group_IT_number 2
_symmetry_cell_setting 'triclinic'
loop_
_space_group_symop_operation_xyz
x,y,z
-x,-y,-z
loop_
_atom_site_type_symbol
_atom_site_label
_atom_site_fract_x
_atom_site_fract_y
_atom_site_fract_z
Si Si1 0.606549 0.940665 0.106388
Si Si2 0.449653 0.205526 0.549675
Si Si3 0.599618 0.693993 0.709872
Si Si4 0.999629 0.088505 0.187260
Si Si5 0.339566 0.040358 0.393928
Si Si6 0.168724 0.930140 0.582957
Si Si7 0.832260 0.884032 0.039161
Si Si8 0.333008 0.267950 0.925131
O O1 0.642577 0.709357 0.972609
O O2 0.512227 0.934145 0.242905
O O3 0.636309 0.333480 0.383318
O O4 0.624311 0.871324 0.912917
O O5 0.507046 0.559068 0.743342
O O6 0.393080 0.237566 0.553148
O O7 0.399217 0.107940 0.649841
O O8 0.621775 0.906197 0.731785
O O9 0.083921 0.990333 0.036790
O O10 0.000000 0.500000 0.500000
O O11 0.914378 0.939356 0.237869
O O12 0.000000 0.000000 0.000000
O O13 0.250248 0.130588 0.580208
O O14 0.333461 0.646178 0.152072
O O15 0.166796 0.532627 0.257470
O O16 0.172332 0.950952 0.719391
O O17 0.752985 0.927320 0.118366
#
# Coordination Sequence:
#
# PCOD9020499 Si02
#       8
#     2   2   2   2   2   2   2   2
#     4  10  25  40  53  74 107 145 177 214 269 313
#     4  10  22  36  58  73 108 135 184 216 272 298
#     4  10  25  40  53  74 107 145 177 214 269 313
#     4   8  14  26  44  68 106 130 152 196 265 311
#     4  11  22  35  58  80 105 136 182 222 258 307
#     4   9  17  29  47  76 102 131 162 209 258 306
#     4   9  17  29  47  76 102 131 162 209 258 306
#     4  11  22  35  58  80 105 136 182 222 258 307
#
# _framework density 18.639109999999999
#
# number of rings (size 3 to 8) (size 9 to 14) (size 15 to 20)
#    0.750    1.500    1.250    1.500    3.500    2.000 
#    0.000    0.000    0.000    0.000    0.000    1.750 
#    0.000    0.000    0.000    0.000    0.000    0.000 
#
# Total GULP energy -89110.187057 kJ/mol
# GULP energy per Si atom -5569.386691 kJ/mol
# Density = 1.859669 g / cm^3
# Si number density = 18.639110 Si / 1000 Ang^3
#
#
#
# Elastic Constant Matrix: (Units=GPa)
#
#
# Indices 1 2 3 4 5 6 
#
# 1 85.6916 38.7746 -3.8669 -3.1663 13.9736 16.1580
# 2 38.7746 33.6918 -7.3025 -11.4969 -19.3351 4.6467
# 3 -3.8669 -7.3025 50.8830 -4.4803 16.3750 -3.2519
# 4 -3.1663 -11.4969 -4.4803 24.4641 9.5606 -0.9580
# 5 13.9736 -19.3351 16.3750 9.5606 45.0662 -9.8259
# 6 16.1580 4.6467 -3.2519 -0.9580 -9.8259 27.7282
#
#
#
# Elastic Compliance Matrix: (Units=1/GPa)
#
#
# Indices 1 2 3 4 5 6 
#
# 1 -0.073546 0.133711 -0.011104 0.017411 0.091920 0.052322
# 2 0.133711 -0.199101 0.023241 -0.015998 -0.152993 -0.096593
# 3 -0.011104 0.023241 0.022292 0.012171 0.004287 0.007130
# 4 0.017411 -0.015998 0.012171 0.049130 -0.030403 -0.015114
# 5 0.091920 -0.152993 0.004287 -0.030403 -0.079402 -0.056611
# 6 0.052322 -0.096593 0.007130 -0.015114 -0.056611 0.002015
#
#
# Mechanical properties :
#
#
# Convention : Reuss Voigt Hill
#
# Bulk Modulus (GPa) = 24.18910 25.05297 24.62104
# Shear Modulus (GPa) = -8.98429 28.96245 9.98908
#
# Velocity S-wave (km/s) = -2.19786 3.94617 2.31751
# Velocity P-wave (km/s) = 2.56222 5.85092 4.51654
#
# Compressibility (1/GPa) = 0.04134094
#
# Stress axis : x y z
#
# Youngs Moduli (GPa) = -13.59695 -5.02257 44.85845
#
# Poissons Ratio (x) = 0.67157 0.49811
# Poissons Ratio (y) = 1.81806 -1.04256
# Poissons Ratio (z) = -0.15098 0.11673
#
# Static dielectric constant tensor:
#      x y z
#    x 1.674340 0.061950 -0.016080 
#    y 0.061950 1.653960 0.005040 
#    z -0.016080 0.005040 1.721640 
# 
# From -- ./inp_files/474370.got.cif
#   From: 2010.05.17/outbox.cif.g08.bks.cpg/sg2_238_cif.got.tgz:474370.got - 2010.06.03 11:33:40.
