data_PCOD9020404
_publ_section_title
;
Structure prediction by ZEFSAII (Michael W. Deem and Ramdas Pophale) SiO2 
 PCOD9020404
Probable space group: P -1
;
_chemical_formula_sum "Si O2"
_cell_formula_units_Z 16
_cell_length_a 8.844443
_cell_length_b 12.303850
_cell_length_c 10.516914
_cell_angle_alpha 144.126617
_cell_angle_beta 72.704671
_cell_angle_gamma 96.233945
_cell_volume 622.161119
_symmetry_space_group_name_H-M "P -1"
_symmetry_group_IT_number 2
_symmetry_cell_setting 'triclinic'
loop_
_space_group_symop_operation_xyz
x,y,z
-x,-y,-z
loop_
_atom_site_type_symbol
_atom_site_label
_atom_site_fract_x
_atom_site_fract_y
_atom_site_fract_z
Si Si1 0.402611 0.419725 0.338793
Si Si2 0.715057 0.371609 0.074394
Si Si3 0.309834 0.601434 0.172900
Si Si4 0.241778 0.206536 0.829318
Si Si5 0.940104 0.020428 0.779973
Si Si6 0.252911 0.208147 0.536436
Si Si7 0.189720 0.767405 0.625550
Si Si8 0.586375 0.972689 0.130820
O O1 0.500000 0.500000 0.500000
O O2 0.521726 0.428136 0.197876
O O3 0.229361 0.562942 0.489951
O O4 0.394928 0.200953 0.136483
O O5 0.776624 0.564319 0.259068
O O6 0.750289 0.300343 0.853661
O O7 0.787204 0.201762 0.991880
O O8 0.271922 0.733461 0.430834
O O9 0.500000 0.500000 0.000000
O O10 0.215750 0.434322 0.060979
O O11 0.299288 0.164207 0.630302
O O12 0.362168 0.122215 0.833399
O O13 0.082158 0.126665 0.810879
O O14 0.896592 0.876839 0.550734
O O15 0.008103 0.886769 0.756491
O O16 0.406427 0.101651 0.314334
O O17 0.290733 0.893552 0.795182
#
# Coordination Sequence:
#
# PCOD9020404 Si02
#       8
#     2   2   2   2   2   2   2   2
#     4  12  25  46  71  94 123 166 229 281 316 375
#     4  11  24  41  61  97 131 174 212 261 324 381
#     4  11  20  37  66  94 138 170 211 261 313 388
#     4  10  22  35  59  98 138 173 207 253 321 385
#     4  11  26  37  62  96 145 169 211 254 329 397
#     4  11  22  37  63  95 139 172 210 256 315 397
#     4  11  24  42  64 102 129 170 211 267 324 385
#     4  11  21  40  66  93 124 169 222 263 317 382
#
# _framework density 25.716809000000001
#
# number of rings (size 3 to 8) (size 9 to 14) (size 15 to 20)
#    0.000    1.000    5.000    1.500    7.000    1.500 
#    0.000    0.625    0.000    3.750    0.000    0.000 
#    0.000    0.000    0.000    0.000    0.000    0.000 
#
# Total GULP energy -89592.161461 kJ/mol
# GULP energy per Si atom -5599.510091 kJ/mol
# Density = 2.565828 g / cm^3
# Si number density = 25.716809 Si / 1000 Ang^3
#
#
#
# Elastic Constant Matrix: (Units=GPa)
#
#
# Indices 1 2 3 4 5 6 
#
# 1 88.7644 14.0287 47.9504 0.6347 16.7469 -12.8341
# 2 14.0287 84.3062 46.3759 -10.8127 -3.5606 -28.5831
# 3 47.9504 46.3759 138.9857 7.5638 26.4467 -12.1420
# 4 0.6347 -10.8127 7.5638 36.8186 -7.7642 -0.2815
# 5 16.7469 -3.5606 26.4467 -7.7642 48.2465 12.1595
# 6 -12.8341 -28.5831 -12.1420 -0.2815 12.1595 34.5877
#
#
#
# Elastic Compliance Matrix: (Units=1/GPa)
#
#
# Indices 1 2 3 4 5 6 
#
# 1 0.015317 0.002477 -0.004623 0.000534 -0.004448 0.007676
# 2 0.002477 0.022414 -0.007919 0.008829 0.002566 0.015832
# 3 -0.004623 -0.007919 0.012937 -0.006335 -0.006737 -0.001401
# 4 0.000534 0.008829 -0.006335 0.032877 0.008596 0.002516
# 5 -0.004448 0.002566 -0.006737 0.008596 0.030719 -0.012625
# 6 0.007676 0.015832 -0.001401 0.002516 -0.012625 0.048810
#
#
# Mechanical properties :
#
#
# Convention : Reuss Voigt Hill
#
# Bulk Modulus (GPa) = 32.74649 58.75184 45.74916
# Shear Modulus (GPa) = 25.85554 37.51064 31.68309
#
# Velocity S-wave (km/s) = 3.17424 3.82331 3.51379
# Velocity P-wave (km/s) = 5.11815 6.51042 5.85581
#
# Compressibility (1/GPa) = 0.03053762
#
# Stress axis : x y z
#
# Youngs Moduli (GPa) = 65.28745 44.61538 77.29916
#
# Poissons Ratio (x) = -0.11053 0.35736
# Poissons Ratio (y) = -0.16174 0.61215
# Poissons Ratio (z) = 0.30182 0.35332
#
# Static dielectric constant tensor:
#      x y z
#    x 1.996110 -0.048820 0.004760 
#    y -0.048820 2.031410 -0.005020 
#    z 0.004760 -0.005020 2.026070 
# 
# From -- ./inp_files/313914.got.cif
#   From: 2010.05.17/outbox.cif.g08.bks.cpg/sg2_157_cif.got.tgz:313914.got - 2010.06.03 11:33:40.
