data_PCOD9020752
_publ_section_title
;
Structure prediction by ZEFSAII (Michael W. Deem and Ramdas Pophale) SiO2 
 PCOD9020752
Probable space group: P -1
;
_chemical_formula_sum "Si O2"
_cell_formula_units_Z 16
_cell_length_a 12.628789
_cell_length_b 10.730817
_cell_length_c 9.666343
_cell_angle_alpha 138.910551
_cell_angle_beta 87.865130
_cell_angle_gamma 114.222950
_cell_volume 699.661433
_symmetry_space_group_name_H-M "P -1"
_symmetry_group_IT_number 2
_symmetry_cell_setting 'triclinic'
loop_
_space_group_symop_operation_xyz
x,y,z
-x,-y,-z
loop_
_atom_site_type_symbol
_atom_site_label
_atom_site_fract_x
_atom_site_fract_y
_atom_site_fract_z
Si Si1 0.648984 0.590078 0.572794
Si Si2 0.678899 0.030059 0.984289
Si Si3 0.446181 0.883616 0.696047
Si Si4 0.242258 0.836854 0.496809
Si Si5 0.859697 0.301711 0.901080
Si Si6 0.926440 0.085872 0.252457
Si Si7 0.021507 0.291369 0.118386
Si Si8 0.192136 0.470108 0.691888
O O1 0.500000 0.500000 0.500000
O O2 0.718727 0.852202 0.842973
O O3 0.641553 0.394624 0.502539
O O4 0.710556 0.584817 0.420514
O O5 0.593200 0.971734 0.798203
O O6 0.582478 0.984275 0.076325
O O7 0.777809 0.308912 0.214770
O O8 0.386472 0.910317 0.583687
O O9 0.222130 0.865625 0.361447
O O10 0.200169 0.959634 0.706314
O O11 0.133130 0.563110 0.311769
O O12 0.902263 0.209639 0.948626
O O13 0.799528 0.434896 0.075781
O O14 0.000000 0.500000 0.000000
O O15 0.046322 0.250919 0.489493
O O16 0.974185 0.234662 0.232214
O O17 0.922187 0.857807 0.038396
#
# Coordination Sequence:
#
# PCOD9020752 Si02
#       8
#     2   2   2   2   2   2   2   2
#     4   9  19  34  57  88 116 146 191 244 297 337
#     4   9  19  35  58  89 114 147 196 249 295 340
#     4   9  19  35  60  85 117 152 193 243 296 343
#     4  11  22  40  56  84 124 158 193 238 292 356
#     4  10  22  41  57  80 125 165 194 233 288 359
#     4  11  23  35  61  93 116 151 196 249 297 346
#     4  10  22  37  55  88 118 151 198 241 292 348
#     4  11  21  36  59  88 117 157 192 242 292 345
#
# _framework density 22.868203000000001
#
# number of rings (size 3 to 8) (size 9 to 14) (size 15 to 20)
#    0.000    2.000    2.500    2.625    5.250    2.500 
#    0.000    0.625    0.000    3.000    0.000    0.000 
#    0.000    0.000    0.000    0.000    0.000    0.000 
#
# Total GULP energy -89249.406900 kJ/mol
# GULP energy per Si atom -5578.087931 kJ/mol
# Density = 2.281615 g / cm^3
# Si number density = 22.868203 Si / 1000 Ang^3
#
#
#
# Elastic Constant Matrix: (Units=GPa)
#
#
# Indices 1 2 3 4 5 6 
#
# 1 110.1860 2.3977 37.9653 -12.9707 -15.9956 -21.1489
# 2 2.3977 27.1104 15.9759 -10.5124 -16.0598 -6.2081
# 3 37.9653 15.9759 94.6458 -11.3515 -24.8385 -12.2669
# 4 -12.9707 -10.5124 -11.3515 43.3822 -9.6159 9.2618
# 5 -15.9956 -16.0598 -24.8385 -9.6159 52.9643 -1.1315
# 6 -21.1489 -6.2081 -12.2669 9.2618 -1.1315 27.1706
#
#
#
# Elastic Compliance Matrix: (Units=1/GPa)
#
#
# Indices 1 2 3 4 5 6 
#
# 1 0.013234 0.008132 -0.003410 0.004327 0.005849 0.009388
# 2 0.008132 0.062690 -0.003651 0.018989 0.023489 0.013511
# 3 -0.003410 -0.003651 0.014529 0.002530 0.005188 0.002425
# 4 0.004327 0.018989 0.002530 0.033160 0.014232 -0.001862
# 5 0.005849 0.023489 0.005188 0.014232 0.032974 0.008784
# 6 0.009388 0.013511 0.002425 -0.001862 0.008784 0.049294
#
#
# Mechanical properties :
#
#
# Convention : Reuss Voigt Hill
#
# Bulk Modulus (GPa) = 10.79977 38.29111 24.54544
# Shear Modulus (GPa) = 21.31247 36.41030 28.86139
#
# Velocity S-wave (km/s) = 3.05613 3.99454 3.55642
# Velocity P-wave (km/s) = 4.14561 6.16894 5.25556
#
# Compressibility (1/GPa) = 0.09259458
#
# Stress axis : x y z
#
# Youngs Moduli (GPa) = 75.56198 15.95152 68.82747
#
# Poissons Ratio (x) = -0.12972 0.23473
# Poissons Ratio (y) = -0.61449 0.25130
# Poissons Ratio (z) = 0.25770 0.05824
#
# Static dielectric constant tensor:
#      x y z
#    x 1.958250 0.031660 0.031960 
#    y 0.031660 1.886250 -0.011050 
#    z 0.031960 -0.011050 1.907300 
# 
# From -- ./inp_files/308799.got.cif
#   From: 2010.05.17/outbox.cif.g08.bks.cpg/sg2_155_cif.got.tgz:308799.got - 2010.06.03 11:33:40.
