data_PCOD9020172
_publ_section_title
;
Structure prediction by ZEFSAII (Michael W. Deem and Ramdas Pophale) SiO2 
 PCOD9020172
Probable space group: P -1
;
_chemical_formula_sum "Si O2"
_cell_formula_units_Z 16
_cell_length_a 11.990542
_cell_length_b 5.263332
_cell_length_c 11.309085
_cell_angle_alpha 106.062958
_cell_angle_beta 87.571559
_cell_angle_gamma 115.268563
_cell_volume 617.869104
_symmetry_space_group_name_H-M "P -1"
_symmetry_group_IT_number 2
_symmetry_cell_setting 'triclinic'
loop_
_space_group_symop_operation_xyz
x,y,z
-x,-y,-z
loop_
_atom_site_type_symbol
_atom_site_label
_atom_site_fract_x
_atom_site_fract_y
_atom_site_fract_z
Si Si1 0.295717 0.845734 0.011444
Si Si2 0.849888 0.622935 0.633875
Si Si3 0.489368 0.621342 0.888700
Si Si4 0.582774 0.322137 0.490881
Si Si5 0.303892 0.403789 0.694574
Si Si6 0.900972 0.143812 0.435859
Si Si7 0.908229 0.685231 0.906724
Si Si8 0.130093 0.655262 0.801954
O O1 0.205330 0.556025 0.047320
O O2 0.375895 0.133305 0.121081
O O3 0.398269 0.776871 0.930659
O O4 0.219244 0.910660 0.919350
O O5 0.707191 0.493124 0.584706
O O6 0.892491 0.366297 0.562211
O O7 0.863057 0.717711 0.781681
O O8 0.967040 0.873567 0.590241
O O9 0.410837 0.382010 0.764873
O O10 0.500000 0.500000 0.000000
O O11 0.500000 0.500000 0.500000
O O12 0.630927 0.313883 0.354752
O O13 0.500000 0.000000 0.500000
O O14 0.191108 0.430163 0.770429
O O15 0.226765 0.141515 0.577230
O O16 0.877184 0.241536 0.316333
O O17 0.998517 0.530268 0.853535
O O18 0.000000 0.000000 0.000000
#
# Coordination Sequence:
#
# PCOD9020172 Si02
#       8
#     2   2   2   2   2   2   2   2
#     4  10  23  42  65 101 143 189 251 301 372 455
#     4  10  24  47  75 109 150 199 258 321 395 471
#     4  10  23  42  70 102 140 202 249 301 376 457
#     4  12  28  51  74 114 160 209 264 325 398 474
#     4  11  24  44  76 105 147 199 253 324 390 471
#     4  10  21  46  77 110 144 190 258 327 389 469
#     4  11  26  45  73 107 153 195 245 323 395 462
#     4  10  22  43  72 104 142 188 246 320 381 465
#
# _framework density 25.895451000000001
#
# number of rings (size 3 to 8) (size 9 to 14) (size 15 to 20)
#    0.000    1.500    1.250    1.875   10.500    1.500 
#    4.500    0.000    0.000    0.000    0.000    0.000 
#    0.000    0.000    0.000    0.000    0.000    0.000 
#
# Total GULP energy -89351.796977 kJ/mol
# GULP energy per Si atom -5584.487311 kJ/mol
# Density = 2.583651 g / cm^3
# Si number density = 25.895451 Si / 1000 Ang^3
#
#
#
# Elastic Constant Matrix: (Units=GPa)
#
#
# Indices 1 2 3 4 5 6 
#
# 1 149.9315 48.2778 49.8466 16.6131 25.9736 26.2587
# 2 48.2778 155.6386 73.3117 -4.1147 16.1811 40.9899
# 3 49.8466 73.3117 134.0697 1.4459 24.1673 32.6086
# 4 16.6131 -4.1147 1.4459 32.5385 10.6023 2.1111
# 5 25.9736 16.1811 24.1673 10.6023 51.9991 11.1580
# 6 26.2587 40.9899 32.6086 2.1111 11.1580 41.2932
#
#
#
# Elastic Compliance Matrix: (Units=1/GPa)
#
#
# Indices 1 2 3 4 5 6 
#
# 1 0.008777 -0.001235 -0.001620 -0.003770 -0.001974 -0.002350
# 2 -0.001235 0.010348 -0.003574 0.002540 -0.000002 -0.006794
# 3 -0.001620 -0.003574 0.011416 0.001019 -0.002791 -0.003735
# 4 -0.003770 0.002540 0.001019 0.035056 -0.006311 -0.001016
# 5 -0.001974 -0.000002 -0.002791 -0.006311 0.023343 -0.002524
# 6 -0.002350 -0.006794 -0.003735 -0.001016 -0.002524 0.036139
#
#
# Mechanical properties :
#
#
# Convention : Reuss Voigt Hill
#
# Bulk Modulus (GPa) = 56.54962 86.94577 71.74770
# Shear Modulus (GPa) = 34.76280 43.04641 38.90460
#
# Velocity S-wave (km/s) = 3.66789 4.08157 3.88025
# Velocity P-wave (km/s) = 6.31055 7.47402 6.91679
#
# Compressibility (1/GPa) = 0.01768358
#
# Stress axis : x y z
#
# Youngs Moduli (GPa) = 113.93077 96.63315 87.59657
#
# Poissons Ratio (x) = 0.11935 0.14189
# Poissons Ratio (y) = 0.14071 0.31308
# Poissons Ratio (z) = 0.18455 0.34538
#
# Static dielectric constant tensor:
#      x y z
#    x 2.098180 -0.016300 0.021490 
#    y -0.016300 2.264530 0.111710 
#    z 0.021490 0.111710 2.202500 
# 
# From -- ./inp_files/410828.got.cif
#   From: 2010.05.17/outbox.cif.g08.bks.cpg/sg2_206_cif.got.tgz:410828.got - 2010.06.03 11:33:40.
