data_PCOD9020085
_publ_section_title
;
Structure prediction by ZEFSAII (Michael W. Deem and Ramdas Pophale) SiO2 
 PCOD9020085
Probable space group: P -1
;
_chemical_formula_sum "Si O2"
_cell_formula_units_Z 15
_cell_length_a 11.388628
_cell_length_b 13.726809
_cell_length_c 25.194081
_cell_angle_alpha 157.375976
_cell_angle_beta 27.852571
_cell_angle_gamma 137.457672
_cell_volume 635.147059
_symmetry_space_group_name_H-M "P -1"
_symmetry_group_IT_number 2
_symmetry_cell_setting 'triclinic'
loop_
_space_group_symop_operation_xyz
x,y,z
-x,-y,-z
loop_
_atom_site_type_symbol
_atom_site_label
_atom_site_fract_x
_atom_site_fract_y
_atom_site_fract_z
Si Si1 0.941628 0.894117 0.677469
Si Si2 0.029789 0.269937 0.301678
Si Si3 0.594732 0.223253 0.886582
Si Si4 0.582071 0.188615 0.290161
Si Si5 0.427759 0.281441 0.561896
Si Si6 0.946862 0.298142 0.695194
Si Si7 0.140065 0.886417 0.973921
Si Si8 0.500000 0.000000 0.500000
O O1 0.839482 0.896915 0.780142
O O2 0.227976 0.927460 0.578560
O O3 0.997740 0.584366 0.477998
O O4 0.719210 0.131877 0.848777
O O5 0.726179 0.266531 0.420272
O O6 0.170355 0.115297 0.113911
O O7 0.774408 0.345929 0.843476
O O8 0.635426 0.940451 0.696055
O O9 0.266988 0.444650 0.126021
O O10 0.500000 0.500000 0.500000
O O11 0.695949 0.163697 0.171963
O O12 0.825107 0.986285 0.130362
O O13 0.243083 0.285384 0.586861
O O14 0.443356 0.056602 0.486269
O O15 0.255675 0.594766 0.812984
O O16 0.000000 0.000000 0.500000
#
# Coordination Sequence:
#
# PCOD9020085 Si02
#       8
#     2   2   2   2   2   2   2   1
#     4  10  21  46  70 102 138 187 232 289 347 413
#     4  10  24  43  73  99 141 181 233 290 341 415
#     4  11  23  44  66 101 137 178 236 281 345 425
#     4  11  24  40  69 102 139 178 225 287 345 418
#     4  11  22  46  66  99 136 183 229 283 349 411
#     4  11  26  41  69  99 141 183 224 291 350 411
#     4  11  23  41  68 103 135 178 232 282 348 412
#     4  10  22  44  70  92 138 184 230 280 346 408
#
# _framework density 23.616578000000001
#
# number of rings (size 3 to 8) (size 9 to 14) (size 15 to 20)
#    0.000    1.333    2.667    2.400    3.733    1.067 
#    2.400   10.667    0.000    0.000    0.000    0.000 
#    0.000    0.000    0.000    0.000    0.000    0.000 
#
# Total GULP energy -83660.276231 kJ/mol
# GULP energy per Si atom -5577.351749 kJ/mol
# Density = 2.356283 g / cm^3
# Si number density = 23.616578 Si / 1000 Ang^3
#
#
#
# Elastic Constant Matrix: (Units=GPa)
#
#
# Indices 1 2 3 4 5 6 
#
# 1 163.1529 37.0936 55.1787 3.0470 -8.8924 -5.5247
# 2 37.0936 106.4668 15.0678 -4.4666 -4.9980 7.8114
# 3 55.1787 15.0678 72.7786 7.0066 9.6609 -4.8413
# 4 3.0470 -4.4666 7.0066 21.9857 1.2193 -2.0895
# 5 -8.8924 -4.9980 9.6609 1.2193 40.1064 3.9564
# 6 -5.5247 7.8114 -4.8413 -2.0895 3.9564 39.0925
#
#
#
# Elastic Compliance Matrix: (Units=1/GPa)
#
#
# Indices 1 2 3 4 5 6 
#
# 1 0.009147 -0.002065 -0.006960 0.000393 0.003384 0.000522
# 2 -0.002065 0.010644 -0.001230 0.002522 0.001342 -0.002572
# 3 -0.006960 -0.001230 0.020834 -0.005336 -0.006774 0.002243
# 4 0.000393 0.002522 -0.005336 0.047774 0.000093 0.001435
# 5 0.003384 0.001342 -0.006774 0.000093 0.027819 -0.003439
# 6 0.000522 -0.002572 0.002243 0.001435 -0.003439 0.026871
#
#
# Mechanical properties :
#
#
# Convention : Reuss Voigt Hill
#
# Bulk Modulus (GPa) = 49.71428 61.89762 55.80595
# Shear Modulus (GPa) = 29.35931 35.90746 32.63339
#
# Velocity S-wave (km/s) = 3.52968 3.90351 3.72129
# Velocity P-wave (km/s) = 6.14067 6.82516 6.49194
#
# Compressibility (1/GPa) = 0.02011494
#
# Stress axis : x y z
#
# Youngs Moduli (GPa) = 109.32088 93.95321 47.99844
#
# Poissons Ratio (x) = 0.19401 0.33407
# Poissons Ratio (y) = 0.22574 0.05904
# Poissons Ratio (z) = 0.76088 0.11556
#
# Static dielectric constant tensor:
#      x y z
#    x 1.884410 -0.023940 -0.020150 
#    y -0.023940 1.941470 -0.038680 
#    z -0.020150 -0.038680 1.959020 
# 
# From -- ./inp_files/618574.got.cif
#   From: 2010.05.17/outbox.cif.g08.bks.cpg/sg2_310_cif.got.tgz:618574.got - 2010.06.03 11:33:40.
