data_PCOD9020970
_publ_section_title
;
Structure prediction by ZEFSAII (Michael W. Deem and Ramdas Pophale) SiO2 
 PCOD9020970
Probable space group: P -1
;
_chemical_formula_sum "Si O2"
_cell_formula_units_Z 16
_cell_length_a 14.301135
_cell_length_b 12.070684
_cell_length_c 9.007639
_cell_angle_alpha 68.915226
_cell_angle_beta 97.778047
_cell_angle_gamma 147.130426
_cell_volume 743.456507
_symmetry_space_group_name_H-M "P -1"
_symmetry_group_IT_number 2
_symmetry_cell_setting 'triclinic'
loop_
_space_group_symop_operation_xyz
x,y,z
-x,-y,-z
loop_
_atom_site_type_symbol
_atom_site_label
_atom_site_fract_x
_atom_site_fract_y
_atom_site_fract_z
Si Si1 0.594654 0.940116 0.624997
Si Si2 0.969147 0.274880 0.411891
Si Si3 0.919933 0.782289 0.081848
Si Si4 0.537721 0.401710 0.031885
Si Si5 0.113796 0.933503 0.784550
Si Si6 0.362414 0.764738 0.379821
Si Si7 0.476042 0.671866 0.281450
Si Si8 0.110599 0.204315 0.599392
O O1 0.582555 0.808103 0.782874
O O2 0.438229 0.789154 0.539084
O O3 0.586960 0.043766 0.683465
O O4 0.788114 0.147732 0.481745
O O5 0.148358 0.520634 0.410480
O O6 0.959745 0.125756 0.530657
O O7 0.980531 0.267209 0.241108
O O8 0.740538 0.589035 0.038020
O O9 0.870161 0.713043 0.275300
O O10 0.065641 0.862535 0.982309
O O11 0.000000 0.000000 0.000000
O O12 0.500000 0.500000 0.000000
O O13 0.522303 0.353898 0.879304
O O14 0.330381 0.162668 0.694416
O O15 0.058702 0.010798 0.698347
O O16 0.459223 0.792747 0.258703
O O17 0.299889 0.423683 0.443890
#
# Coordination Sequence:
#
# PCOD9020970 Si02
#       8
#     2   2   2   2   2   2   2   2
#     4  11  25  44  71  98 134 179 226 284 332 397
#     4  11  22  38  70  97 128 174 226 279 341 396
#     4  10  22  39  58  91 136 176 216 273 327 400
#     4  12  26  40  65 100 140 176 221 274 344 403
#     4  11  22  37  62  95 137 175 221 277 337 400
#     4  10  23  48  69  97 131 178 235 280 328 395
#     4  11  23  41  64  94 134 179 223 276 326 403
#     4  10  22  37  63  93 134 178 223 271 337 403
#
# _framework density 21.521097000000001
#
# number of rings (size 3 to 8) (size 9 to 14) (size 15 to 20)
#    0.000    1.250    1.250    5.625    7.000    0.500 
#    0.000    0.000    0.000    1.500    0.000    0.000 
#    0.000    0.000    0.000    0.000    0.000    0.000 
#
# Total GULP energy -89295.243029 kJ/mol
# GULP energy per Si atom -5580.952689 kJ/mol
# Density = 2.147211 g / cm^3
# Si number density = 21.521097 Si / 1000 Ang^3
#
#
#
# Elastic Constant Matrix: (Units=GPa)
#
#
# Indices 1 2 3 4 5 6 
#
# 1 73.1715 11.5788 29.9307 8.0342 -19.3628 -24.1359
# 2 11.5788 89.8153 42.8221 28.8344 -17.8811 -14.0430
# 3 29.9307 42.8221 83.5820 16.7345 -16.7613 -7.8824
# 4 8.0342 28.8344 16.7345 29.6449 -2.0231 -9.9049
# 5 -19.3628 -17.8811 -16.7613 -2.0231 31.8614 2.0536
# 6 -24.1359 -14.0430 -7.8824 -9.9049 2.0536 33.4315
#
#
#
# Elastic Compliance Matrix: (Units=1/GPa)
#
#
# Indices 1 2 3 4 5 6 
#
# 1 0.025596 0.006599 -0.007636 -0.002087 0.013950 0.017975
# 2 0.006599 0.022464 -0.007760 -0.016200 0.011062 0.006891
# 3 -0.007636 -0.007760 0.018963 -0.002741 0.001140 -0.005184
# 4 -0.002087 -0.016200 -0.002741 0.053480 -0.008885 0.007433
# 5 0.013950 0.011062 0.001140 -0.008885 0.045491 0.009560
# 6 0.017975 0.006891 -0.005184 0.007433 0.009560 0.046176
#
#
# Mechanical properties :
#
#
# Convention : Reuss Voigt Hill
#
# Bulk Modulus (GPa) = 20.23180 46.13689 33.18435
# Shear Modulus (GPa) = 20.30533 29.80339 25.05436
#
# Velocity S-wave (km/s) = 3.07499 3.72539 3.41570
# Velocity P-wave (km/s) = 4.69348 6.32370 5.56857
#
# Compressibility (1/GPa) = 0.04942714
#
# Stress axis : x y z
#
# Youngs Moduli (GPa) = 39.06927 44.51619 52.73345
#
# Poissons Ratio (x) = -0.29374 0.40267
# Poissons Ratio (y) = -0.25780 0.40923
# Poissons Ratio (z) = 0.29833 0.34546
#
# Static dielectric constant tensor:
#      x y z
#    x 1.781780 0.009930 -0.008920 
#    y 0.009930 1.794660 0.030310 
#    z -0.008920 0.030310 1.885480 
# 
# From -- ./inp_files/307368.got.cif
#   From: 2010.05.17/outbox.cif.g08.bks.cpg/sg2_154_cif.got.tgz:307368.got - 2010.06.03 11:33:40.
