data_PCOD9020506
_publ_section_title
;
Structure prediction by ZEFSAII (Michael W. Deem and Ramdas Pophale) SiO2 
 PCOD9020506
Probable space group: P -1
;
_chemical_formula_sum "Si O2"
_cell_formula_units_Z 15
_cell_length_a 10.835294
_cell_length_b 11.946482
_cell_length_c 8.684399
_cell_angle_alpha 123.005103
_cell_angle_beta 46.223633
_cell_angle_gamma 130.029484
_cell_volume 611.319539
_symmetry_space_group_name_H-M "P -1"
_symmetry_group_IT_number 2
_symmetry_cell_setting 'triclinic'
loop_
_space_group_symop_operation_xyz
x,y,z
-x,-y,-z
loop_
_atom_site_type_symbol
_atom_site_label
_atom_site_fract_x
_atom_site_fract_y
_atom_site_fract_z
Si Si1 0.755027 0.661935 0.037250
Si Si2 0.411748 0.333743 0.516281
Si Si3 0.257933 0.811404 0.173418
Si Si4 0.198286 0.064311 0.281338
Si Si5 0.217110 0.573310 0.553985
Si Si6 0.409097 0.676241 0.168183
Si Si7 0.058817 0.236178 0.337141
Si Si8 0.000000 0.500000 0.000000
O O1 0.760520 0.694790 0.237875
O O2 0.598201 0.702350 0.117879
O O3 0.661938 0.483577 0.972075
O O4 0.939364 0.741880 0.831627
O O5 0.500000 0.500000 0.500000
O O6 0.337657 0.213629 0.359928
O O7 0.583518 0.331978 0.462906
O O8 0.422292 0.795043 0.118087
O O9 0.122693 0.814032 0.433701
O O10 0.281658 0.945828 0.142695
O O11 0.150950 0.663101 0.054695
O O12 0.143857 0.119174 0.211949
O O13 0.000000 0.000000 0.500000
O O14 0.243744 0.646253 0.417054
O O15 0.191902 0.405418 0.410468
O O16 0.062460 0.550505 0.799709
#
# Coordination Sequence:
#
# PCOD9020506 Si02
#       8
#     2   2   2   2   2   2   2   1
#     4   9  20  35  62  90 115 155 205 249 293 363
#     4  11  21  37  65  91 115 158 206 247 298 362
#     4  10  22  38  58  86 123 164 196 250 303 356
#     4  10  22  40  59  87 128 158 196 252 306 352
#     4   9  19  36  57  89 115 155 201 252 288 363
#     4   9  19  36  56  86 124 152 201 246 306 346
#     4   9  18  38  59  87 122 154 199 248 299 356
#     4  10  22  36  58  88 118 156 210 238 302 352
#
# _framework density 24.537085000000001
#
# number of rings (size 3 to 8) (size 9 to 14) (size 15 to 20)
#    0.000    2.400    1.333    0.800    1.867    4.800 
#    0.000    9.333    0.000    0.000    0.000    0.000 
#    0.000    0.000    0.000    0.000    0.000    0.000 
#
# Total GULP energy -83526.487940 kJ/mol
# GULP energy per Si atom -5568.432529 kJ/mol
# Density = 2.448124 g / cm^3
# Si number density = 24.537085 Si / 1000 Ang^3
#
#
#
# Elastic Constant Matrix: (Units=GPa)
#
#
# Indices 1 2 3 4 5 6 
#
# 1 63.9642 30.9228 14.6879 6.2050 -0.9162 -29.4286
# 2 30.9228 88.5789 14.7481 -8.8508 10.6188 -27.7056
# 3 14.6879 14.7481 125.4759 -26.3843 15.9337 -15.5882
# 4 6.2050 -8.8508 -26.3843 29.1498 -4.8886 7.4274
# 5 -0.9162 10.6188 15.9337 -4.8886 34.4408 -11.0020
# 6 -29.4286 -27.7056 -15.5882 7.4274 -11.0020 39.0678
#
#
#
# Elastic Compliance Matrix: (Units=1/GPa)
#
#
# Indices 1 2 3 4 5 6 
#
# 1 0.033212 -0.005944 -0.005247 -0.018259 0.010590 0.025162
# 2 -0.005944 0.015711 0.000948 0.005051 -0.003056 0.005221
# 3 -0.005247 0.000948 0.011163 0.011304 -0.004729 -0.002307
# 4 -0.018259 0.005051 0.011304 0.053492 -0.005206 -0.017298
# 5 0.010590 -0.003056 -0.004729 -0.005206 0.036567 0.015211
# 6 0.025162 0.005221 -0.002307 -0.017298 0.015211 0.054905
#
#
# Mechanical properties :
#
#
# Convention : Reuss Voigt Hill
#
# Bulk Modulus (GPa) = 25.25352 44.30405 34.77878
# Shear Modulus (GPa) = 20.94358 35.04237 27.99297
#
# Velocity S-wave (km/s) = 2.92472 3.78317 3.38130
# Velocity P-wave (km/s) = 4.66044 6.09740 5.42669
#
# Compressibility (1/GPa) = 0.03959845
#
# Stress axis : x y z
#
# Youngs Moduli (GPa) = 30.10964 63.65025 89.57963
#
# Poissons Ratio (x) = 0.37837 0.47005
# Poissons Ratio (y) = 0.17899 -0.08492
# Poissons Ratio (z) = 0.15799 -0.06034
#
# Static dielectric constant tensor:
#      x y z
#    x 2.099970 -0.062770 -0.103300 
#    y -0.062770 1.900920 -0.039510 
#    z -0.103300 -0.039510 2.047770 
# 
# From -- ./inp_files/250173.got.cif
#   From: 2010.05.17/outbox.cif.g08.bks.cpg/sg2_126_cif.got.tgz:250173.got - 2010.06.03 11:33:40.
