data_PCOD9020152
_publ_section_title
;
Structure prediction by ZEFSAII (Michael W. Deem and Ramdas Pophale) SiO2 
 PCOD9020152
Probable space group: P -1
;
_chemical_formula_sum "Si O2"
_cell_formula_units_Z 12
_cell_length_a 18.922459
_cell_length_b 5.308182
_cell_length_c 4.896816
_cell_angle_alpha 86.065301
_cell_angle_beta 100.202198
_cell_angle_gamma 67.977452
_cell_volume 443.815904
_symmetry_space_group_name_H-M "P -1"
_symmetry_group_IT_number 2
_symmetry_cell_setting 'triclinic'
loop_
_space_group_symop_operation_xyz
x,y,z
-x,-y,-z
loop_
_atom_site_type_symbol
_atom_site_label
_atom_site_fract_x
_atom_site_fract_y
_atom_site_fract_z
Si Si1 0.580317 0.769237 0.172881
Si Si2 0.721142 0.349509 0.399897
Si Si3 0.149691 0.529013 0.222164
Si Si4 0.820699 0.847522 0.213675
Si Si5 0.987078 0.782444 0.309348
Si Si6 0.580599 0.498413 0.668490
O O1 0.674518 0.663801 0.229707
O O2 0.576393 0.779249 0.499499
O O3 0.580332 0.518162 0.990231
O O4 0.500000 0.000000 0.000000
O O5 0.657633 0.305593 0.566900
O O6 0.796743 0.328063 0.622495
O O7 0.748977 0.132212 0.192796
O O8 0.161313 0.286244 0.464792
O O9 0.056354 0.701007 0.140886
O O10 0.182659 0.384284 0.972323
O O11 0.896673 0.896156 0.156447
O O12 0.000000 0.500000 0.500000
O O13 0.000000 0.000000 0.500000
O O14 0.500000 0.500000 0.500000
#
# Coordination Sequence:
#
# PCOD9020152 Si02
#       6
#     2   2   2   2   2   2
#     4  10  23  43  65  94 128 177 232 284 366 426
#     4  10  26  43  70  98 144 178 238 301 358 430
#     4  11  25  44  69 105 141 189 238 296 360 430
#     4  11  25  44  69 105 141 189 238 296 360 430
#     4  10  21  46  74 107 151 199 246 298 366 443
#     4  10  23  43  65  94 128 177 232 284 366 426
#
# _framework density 27.038239999999998
#
# number of rings (size 3 to 8) (size 9 to 14) (size 15 to 20)
#    1.000    0.667    1.667    1.500    4.667    1.333 
#    0.000    3.333    0.000    0.000    0.000    0.000 
#    0.000    0.000    0.000    0.000    0.000    0.000 
#
# Total GULP energy -66852.552127 kJ/mol
# GULP energy per Si atom -5571.046011 kJ/mol
# Density = 2.697670 g / cm^3
# Si number density = 27.038240 Si / 1000 Ang^3
#
#
#
# Elastic Constant Matrix: (Units=GPa)
#
#
# Indices 1 2 3 4 5 6 
#
# 1 164.5563 46.0355 22.0893 21.3506 -11.9411 -37.0575
# 2 46.0355 130.6508 31.8808 26.3058 -11.4908 -44.5163
# 3 22.0893 31.8808 106.5573 14.7984 1.0614 -14.4317
# 4 21.3506 26.3058 14.7984 53.8297 -5.4389 -1.6234
# 5 -11.9411 -11.4908 1.0614 -5.4389 38.3071 7.4514
# 6 -37.0575 -44.5163 -14.4317 -1.6234 7.4514 63.6374
#
#
#
# Elastic Compliance Matrix: (Units=1/GPa)
#
#
# Indices 1 2 3 4 5 6 
#
# 1 0.007535 -0.000763 -0.000554 -0.002242 0.001128 0.003539
# 2 -0.000763 0.011853 -0.001784 -0.004650 0.001312 0.007170
# 3 -0.000554 -0.001784 0.010435 -0.001895 -0.001444 0.000916
# 4 -0.002242 -0.004650 -0.001895 0.022325 0.002034 -0.004657
# 5 0.001128 0.001312 -0.001444 0.002034 0.027554 -0.001927
# 6 0.003539 0.007170 0.000916 -0.004657 -0.001927 0.023105
#
#
# Mechanical properties :
#
#
# Convention : Reuss Voigt Hill
#
# Bulk Modulus (GPa) = 42.33752 66.86395 54.60074
# Shear Modulus (GPa) = 42.77770 51.27209 47.02490
#
# Velocity S-wave (km/s) = 3.98190 4.35935 4.17490
# Velocity P-wave (km/s) = 6.06903 7.07967 6.59374
#
# Compressibility (1/GPa) = 0.02361971
#
# Stress axis : x y z
#
# Youngs Moduli (GPa) = 132.72181 84.36572 95.83093
#
# Poissons Ratio (x) = 0.06438 0.05310
# Poissons Ratio (y) = 0.10129 0.17099
# Poissons Ratio (z) = 0.07355 0.15053
#
# Static dielectric constant tensor:
#      x y z
#    x 2.265810 -0.006230 -0.002720 
#    y -0.006230 2.397580 -0.289970 
#    z -0.002720 -0.289970 2.237910 
# 
# From -- ./inp_files/113560.got.cif
#   From: 2010.05.17/outbox.cif.g08.bks.cpg/sg2_57_cif.got.tgz:113560.got - 2010.06.03 11:33:40.
