data_PCOD9020328
_publ_section_title
;
Structure prediction by ZEFSAII (Michael W. Deem and Ramdas Pophale) SiO2 
 PCOD9020328
Probable space group: P -1
;
_chemical_formula_sum "Si O2"
_cell_formula_units_Z 16
_cell_length_a 14.317120
_cell_length_b 8.094720
_cell_length_c 14.489607
_cell_angle_alpha 119.738486
_cell_angle_beta 88.057372
_cell_angle_gamma 41.874283
_cell_volume 699.069820
_symmetry_space_group_name_H-M "P -1"
_symmetry_group_IT_number 2
_symmetry_cell_setting 'triclinic'
loop_
_space_group_symop_operation_xyz
x,y,z
-x,-y,-z
loop_
_atom_site_type_symbol
_atom_site_label
_atom_site_fract_x
_atom_site_fract_y
_atom_site_fract_z
Si Si1 0.773448 0.347178 0.087319
Si Si2 0.560948 0.379340 0.173534
Si Si3 0.385674 0.711391 0.467553
Si Si4 0.314485 0.273257 0.639611
Si Si5 0.998764 0.923074 0.701460
Si Si6 0.602719 0.499755 0.948887
Si Si7 0.822598 0.695692 0.602436
Si Si8 0.986843 0.204523 0.623372
O O1 0.741522 0.191866 0.088823
O O2 0.661179 0.706020 0.250676
O O3 0.666400 0.523336 0.039207
O O4 0.000000 0.000000 0.000000
O O5 0.523577 0.416266 0.293702
O O6 0.532912 0.248098 0.069812
O O7 0.377759 0.844296 0.283886
O O8 0.500000 0.500000 0.500000
O O9 0.293564 0.087551 0.570772
O O10 0.202625 0.901461 0.532006
O O11 0.129023 0.719374 0.730301
O O12 0.500000 0.000000 0.500000
O O13 0.148565 0.549218 0.524183
O O14 0.817309 0.114515 0.787268
O O15 0.928462 0.233468 0.734047
O O16 0.500000 0.500000 0.000000
O O17 0.850863 0.596160 0.681862
O O18 0.000000 0.500000 0.500000
O O19 0.000000 0.000000 0.500000
#
# Coordination Sequence:
#
# PCOD9020328 Si02
#       8
#     2   2   2   2   2   2   2   2
#     4  11  23  39  64  99 130 174 224 272 328 397
#     4  11  21  39  64  95 128 173 223 273 325 398
#     4  12  24  39  65 102 137 171 219 283 345 395
#     4  12  22  40  66  98 132 171 223 277 336 396
#     4  11  19  35  61  94 131 166 214 274 330 388
#     4  10  22  38  64  94 126 177 229 262 322 404
#     4  11  17  34  62  96 129 160 222 269 328 390
#     4  10  22  34  58  97 135 171 207 276 343 391
#
# _framework density 22.887554999999999
#
# number of rings (size 3 to 8) (size 9 to 14) (size 15 to 20)
#    0.000    1.000    6.250    1.500    0.000    1.000 
#    0.000    0.000    0.000   11.250    3.250    0.000 
#    0.000    0.000    0.000    0.000    0.000    0.000 
#
# Total GULP energy -89177.936700 kJ/mol
# GULP energy per Si atom -5573.621044 kJ/mol
# Density = 2.283546 g / cm^3
# Si number density = 22.887555 Si / 1000 Ang^3
#
#
#
# Elastic Constant Matrix: (Units=GPa)
#
#
# Indices 1 2 3 4 5 6 
#
# 1 130.5591 44.8861 40.3080 -6.4168 -16.6196 -36.1280
# 2 44.8861 136.0262 27.6648 -31.4538 -7.8167 -8.7412
# 3 40.3080 27.6648 88.5799 -30.2964 -4.0291 -14.5677
# 4 -6.4168 -31.4538 -30.2964 43.9027 -15.6226 5.4956
# 5 -16.6196 -7.8167 -4.0291 -15.6226 37.3251 -3.5252
# 6 -36.1280 -8.7412 -14.5677 5.4956 -3.5252 45.0241
#
#
#
# Elastic Compliance Matrix: (Units=1/GPa)
#
#
# Indices 1 2 3 4 5 6 
#
# 1 0.013023 -0.003301 -0.004227 -0.003009 0.004255 0.009141
# 2 -0.003301 0.010734 0.001825 0.010447 0.005269 -0.000837
# 3 -0.004227 0.001825 0.018738 0.016045 0.007394 0.001645
# 4 -0.003009 0.010447 0.016045 0.049063 0.023175 0.000631
# 5 0.004255 0.005269 0.007394 0.023175 0.040968 0.007208
# 6 0.009141 -0.000837 0.001645 0.000631 0.007208 0.030403
#
#
# Mechanical properties :
#
#
# Convention : Reuss Voigt Hill
#
# Bulk Modulus (GPa) = 32.16765 64.54257 48.35511
# Shear Modulus (GPa) = 27.07115 41.40414 34.23765
#
# Velocity S-wave (km/s) = 3.44290 4.25788 3.87189
# Velocity P-wave (km/s) = 5.46717 7.24112 6.41575
#
# Compressibility (1/GPa) = 0.03108713
#
# Stress axis : x y z
#
# Youngs Moduli (GPa) = 76.78853 93.15799 53.36869
#
# Poissons Ratio (x) = 0.30756 0.22560
# Poissons Ratio (y) = 0.25352 -0.09739
# Poissons Ratio (z) = 0.32460 -0.17000
#
# Static dielectric constant tensor:
#      x y z
#    x 1.905100 0.057200 0.006910 
#    y 0.057200 1.877210 0.027610 
#    z 0.006910 0.027610 1.833200 
# 
# From -- ./inp_files/528946.got.cif
#   From: 2010.05.17/outbox.cif.g08.bks.cpg/sg2_265_cif.got.tgz:528946.got - 2010.06.03 11:33:40.
