data_PCOD9020940
_publ_section_title
;
Structure prediction by ZEFSAII (Michael W. Deem and Ramdas Pophale) SiO2 
 PCOD9020940
Probable space group: P -1
;
_chemical_formula_sum "Si O2"
_cell_formula_units_Z 12
_cell_length_a 10.869274
_cell_length_b 4.915254
_cell_length_c 20.665173
_cell_angle_alpha 120.502572
_cell_angle_beta 151.657339
_cell_angle_gamma 61.493663
_cell_volume 450.340436
_symmetry_space_group_name_H-M "P -1"
_symmetry_group_IT_number 2
_symmetry_cell_setting 'triclinic'
loop_
_space_group_symop_operation_xyz
x,y,z
-x,-y,-z
loop_
_atom_site_type_symbol
_atom_site_label
_atom_site_fract_x
_atom_site_fract_y
_atom_site_fract_z
Si Si1 0.150488 0.998823 0.503009
Si Si2 0.568012 0.596579 0.408214
Si Si3 0.219958 0.734625 0.149048
Si Si4 0.837287 0.268838 0.064624
Si Si5 0.010868 0.391157 0.303277
Si Si6 0.492298 0.296262 0.123969
O O1 0.414331 0.777815 0.614683
O O2 0.008344 0.765637 0.361828
O O3 0.214648 0.308757 0.532201
O O4 0.000000 0.000000 0.500000
O O5 0.310315 0.705663 0.262848
O O6 0.700481 0.727579 0.550622
O O7 0.453922 0.580901 0.193600
O O8 0.066211 0.073358 0.108395
O O9 0.000000 0.500000 0.000000
O O10 0.954196 0.335350 0.196324
O O11 0.710843 0.582654 0.011181
O O12 0.606960 0.029213 0.935019
O O13 0.776062 0.269625 0.221575
#
# Coordination Sequence:
#
# PCOD9020940 Si02
#       6
#     2   2   2   2   2   2
#     4  10  22  37  62  94 129 157 207 258 317 369
#     4  10  24  39  64  96 123 165 211 260 320 365
#     4  10  24  45  66  92 130 170 214 258 312 386
#     4  11  25  42  64  95 129 173 209 256 320 375
#     4  10  25  40  69  94 133 158 215 267 317 371
#     4  11  24  40  69  92 128 169 215 260 312 372
#
# _framework density 26.646508999999998
#
# number of rings (size 3 to 8) (size 9 to 14) (size 15 to 20)
#    1.000    0.667    0.000    3.000    7.000    7.333 
#    0.000    0.833    0.000    0.000    0.000    0.000 
#    0.000    0.000    0.000    0.000    0.000    0.000 
#
# Total GULP energy -67061.233879 kJ/mol
# GULP energy per Si atom -5588.436157 kJ/mol
# Density = 2.658586 g / cm^3
# Si number density = 26.646509 Si / 1000 Ang^3
#
#
#
# Elastic Constant Matrix: (Units=GPa)
#
#
# Indices 1 2 3 4 5 6 
#
# 1 47.9241 19.0725 33.6885 13.1005 -19.2728 0.9107
# 2 19.0725 69.2104 11.8188 -9.1183 -3.7675 13.2543
# 3 33.6885 11.8188 171.2061 -21.6141 -19.6282 -13.3719
# 4 13.1005 -9.1183 -21.6141 41.7405 5.8496 -9.4309
# 5 -19.2728 -3.7675 -19.6282 5.8496 39.8389 5.7643
# 6 0.9107 13.2543 -13.3719 -9.4309 5.7643 38.8873
#
#
#
# Elastic Compliance Matrix: (Units=1/GPa)
#
#
# Indices 1 2 3 4 5 6 
#
# 1 0.053678 -0.013275 -0.011759 -0.032191 0.025433 -0.012353
# 2 -0.013275 0.019308 0.001699 0.009312 -0.004732 -0.002726
# 3 -0.011759 0.001699 0.009498 0.010818 -0.003316 0.006077
# 4 -0.032191 0.009312 0.010818 0.047852 -0.018656 0.015670
# 5 0.025433 -0.004732 -0.003316 -0.018656 0.039584 -0.010515
# 6 -0.012353 -0.002726 0.006077 0.015670 -0.010515 0.034382
#
#
# Mechanical properties :
#
#
# Convention : Reuss Voigt Hill
#
# Bulk Modulus (GPa) = 27.92189 46.38892 37.15540
# Shear Modulus (GPa) = 19.01793 39.01073 29.01433
#
# Velocity S-wave (km/s) = 2.67444 3.83039 3.30337
# Velocity P-wave (km/s) = 4.47640 6.08353 5.34076
#
# Compressibility (1/GPa) = 0.03581419
#
# Stress axis : x y z
#
# Youngs Moduli (GPa) = 18.62959 51.79188 105.28988
#
# Poissons Ratio (x) = 0.68755 1.23810
# Poissons Ratio (y) = 0.24731 -0.17894
# Poissons Ratio (z) = 0.21907 -0.08802
#
# Static dielectric constant tensor:
#      x y z
#    x 2.087650 -0.041570 0.015510 
#    y -0.041570 2.044750 -0.005050 
#    z 0.015510 -0.005050 2.138950 
# 
# From -- ./inp_files/62814.got.cif
#   From: 2010.05.17/outbox.cif.g08.bks.cpg/sg2_32_cif.got.tgz:62814.got - 2010.06.03 11:33:40.
