data_PCOD9020031
_publ_section_title
;
Structure prediction by ZEFSAII (Michael W. Deem and Ramdas Pophale) SiO2 
 PCOD9020031
Probable space group: P -1
;
_chemical_formula_sum "Si O2"
_cell_formula_units_Z 16
_cell_length_a 15.393603
_cell_length_b 8.148918
_cell_length_c 7.144437
_cell_angle_alpha 82.138478
_cell_angle_beta 97.381007
_cell_angle_gamma 134.676930
_cell_volume 630.623801
_symmetry_space_group_name_H-M "P -1"
_symmetry_group_IT_number 2
_symmetry_cell_setting 'triclinic'
loop_
_space_group_symop_operation_xyz
x,y,z
-x,-y,-z
loop_
_atom_site_type_symbol
_atom_site_label
_atom_site_fract_x
_atom_site_fract_y
_atom_site_fract_z
Si Si1 0.996570 0.018416 0.721566
Si Si2 0.736699 0.027936 0.475818
Si Si3 0.314584 0.950725 0.117037
Si Si4 0.405573 0.658804 0.817700
Si Si5 0.236651 0.483765 0.268225
Si Si6 0.831973 0.484937 0.336731
Si Si7 0.766094 0.864678 0.180724
Si Si8 0.523955 0.337574 0.573943
O O1 0.870040 0.775479 0.793593
O O2 0.041290 0.265235 0.731856
O O3 0.106323 0.054505 0.830698
O O4 0.000000 0.000000 0.500000
O O5 0.710657 0.996894 0.693894
O O6 0.834771 0.294018 0.403717
O O7 0.763786 0.892051 0.401478
O O8 0.606176 0.907250 0.368115
O O9 0.258187 0.694066 0.158543
O O10 0.461243 0.135521 0.088761
O O11 0.248037 0.979492 0.946868
O O12 0.285442 0.616168 0.805189
O O13 0.347904 0.399691 0.869806
O O14 0.441509 0.708079 0.600673
O O15 0.200871 0.477925 0.475462
O O16 0.364636 0.554936 0.277202
O O17 0.500000 0.500000 0.500000
#
# Coordination Sequence:
#
# PCOD9020031 Si02
#       8
#     2   2   2   2   2   2   2   2
#     4   9  19  36  62  81 110 162 196 228 288 347
#     4  10  20  35  60  89 116 145 193 242 285 336
#     4  10  21  35  57  88 121 151 188 238 294 339
#     4   9  17  33  55  83 118 151 188 233 287 347
#     4   9  18  34  55  83 115 156 193 230 291 346
#     4   8  16  33  56  81 111 153 193 232 285 339
#     4  11  21  36  61  86 117 154 192 236 286 340
#     4  10  17  30  58  86 114 150 190 237 286 339
#
# _framework density 25.371704000000001
#
# number of rings (size 3 to 8) (size 9 to 14) (size 15 to 20)
#    0.000    2.500    1.250    1.875    0.000    3.500 
#    0.000    8.125    5.500    1.500    0.000    0.000 
#    0.000    0.000    0.000    0.000    0.000    0.000 
#
# Total GULP energy -89457.912195 kJ/mol
# GULP energy per Si atom -5591.119512 kJ/mol
# Density = 2.531396 g / cm^3
# Si number density = 25.371704 Si / 1000 Ang^3
#
#
#
# Elastic Constant Matrix: (Units=GPa)
#
#
# Indices 1 2 3 4 5 6 
#
# 1 36.9772 31.9205 33.0439 -2.4234 3.7464 6.3495
# 2 31.9205 157.6172 35.3445 -24.3806 17.1525 22.8426
# 3 33.0439 35.3445 91.7342 5.9608 -3.7995 -4.3003
# 4 -2.4234 -24.3806 5.9608 29.6293 -18.0320 3.3196
# 5 3.7464 17.1525 -3.7995 -18.0320 38.8796 5.3744
# 6 6.3495 22.8426 -4.3003 3.3196 5.3744 31.3460
#
#
#
# Elastic Compliance Matrix: (Units=1/GPa)
#
#
# Indices 1 2 3 4 5 6 
#
# 1 0.046644 -0.003685 -0.016147 0.004373 -0.001141 -0.009246
# 2 -0.003685 0.010950 -0.004012 0.011683 0.001841 -0.009337
# 3 -0.016147 -0.004012 0.019361 -0.010199 -0.000906 0.010086
# 4 0.004373 0.011683 -0.010199 0.064243 0.026279 -0.022108
# 5 -0.001141 0.001841 -0.000906 0.026279 0.038588 -0.010634
# 6 -0.009246 -0.009337 0.010086 -0.022108 -0.010634 0.046127
#
#
# Mechanical properties :
#
#
# Convention : Reuss Voigt Hill
#
# Bulk Modulus (GPa) = 34.16777 54.10515 44.13646
# Shear Modulus (GPa) = 17.64559 32.37229 25.00894
#
# Velocity S-wave (km/s) = 2.64006 3.57588 3.14300
# Velocity P-wave (km/s) = 4.77382 6.19843 5.53217
#
# Compressibility (1/GPa) = 0.02926734
#
# Stress axis : x y z
#
# Youngs Moduli (GPa) = 21.43908 91.32094 51.64965
#
# Poissons Ratio (x) = 0.33652 0.83397
# Poissons Ratio (y) = 0.07900 0.20723
# Poissons Ratio (z) = 0.34617 0.36640
#
# Static dielectric constant tensor:
#      x y z
#    x 1.995680 -0.018870 -0.012570 
#    y -0.018870 2.026460 0.028700 
#    z -0.012570 0.028700 2.038600 
# 
# From -- ./inp_files/176096.got.cif
#   From: 2010.05.17/outbox.cif.g08.bks.cpg/sg2_89_cif.got.tgz:176096.got - 2010.06.03 11:33:40.
