data_PCOD9020932
_publ_section_title
;
Structure prediction by ZEFSAII (Michael W. Deem and Ramdas Pophale) SiO2 
 PCOD9020932
Probable space group: P -1
;
_chemical_formula_sum "Si O2"
_cell_formula_units_Z 16
_cell_length_a 23.014635
_cell_length_b 11.179291
_cell_length_c 10.190211
_cell_angle_alpha 129.134614
_cell_angle_beta 34.547908
_cell_angle_gamma 152.503186
_cell_volume 634.999837
_symmetry_space_group_name_H-M "P -1"
_symmetry_group_IT_number 2
_symmetry_cell_setting 'triclinic'
loop_
_space_group_symop_operation_xyz
x,y,z
-x,-y,-z
loop_
_atom_site_type_symbol
_atom_site_label
_atom_site_fract_x
_atom_site_fract_y
_atom_site_fract_z
Si Si1 0.122894 0.952467 0.642879
Si Si2 0.472395 0.560094 0.724963
Si Si3 0.343881 0.351758 0.083395
Si Si4 0.888539 0.710293 0.155064
Si Si5 0.875261 0.199884 0.851615
Si Si6 0.536545 0.908065 0.118700
Si Si7 0.726853 0.396232 0.975232
Si Si8 0.779170 0.336354 0.325592
O O1 0.324477 0.134176 0.389021
O O2 0.130542 0.130156 0.682133
O O3 0.074581 0.920257 0.865720
O O4 0.943195 0.637555 0.704667
O O5 0.500000 0.500000 0.500000
O O6 0.345004 0.545930 0.925465
O O7 0.389712 0.354354 0.853074
O O8 0.380786 0.579712 0.164653
O O9 0.160446 0.028460 0.238796
O O10 0.500000 0.500000 0.000000
O O11 0.741867 0.471208 0.152124
O O12 0.864245 0.574456 0.233450
O O13 0.094233 0.507767 0.669711
O O14 0.801616 0.202020 0.117715
O O15 0.734298 0.090630 0.929636
O O16 0.429863 0.881336 0.403289
O O17 0.591027 0.082419 0.016268
#
# Coordination Sequence:
#
# PCOD9020932 Si02
#       8
#     2   2   2   2   2   2   2   2
#     4   9  20  36  57  98 132 163 212 294 333 372
#     4  12  23  39  72  99 122 182 231 276 332 392
#     4  10  27  45  65  99 146 178 222 276 345 414
#     4   9  18  36  55  98 134 156 222 286 326 385
#     4  10  23  40  64  99 132 175 233 279 321 408
#     4  11  24  45  60  94 145 183 213 278 352 398
#     4  10  22  37  62  92 130 168 223 272 326 400
#     4  11  23  36  71 102 127 183 230 280 340 394
#
# _framework density 25.196857000000001
#
# number of rings (size 3 to 8) (size 9 to 14) (size 15 to 20)
#    0.750    1.000    2.500    0.375    8.750    3.000 
#    0.000    3.125    0.000    0.000    0.000    0.000 
#    0.000    0.000    0.000    0.000    0.000    0.000 
#
# Total GULP energy -89331.547144 kJ/mol
# GULP energy per Si atom -5583.221696 kJ/mol
# Density = 2.513951 g / cm^3
# Si number density = 25.196857 Si / 1000 Ang^3
#
#
#
# Elastic Constant Matrix: (Units=GPa)
#
#
# Indices 1 2 3 4 5 6 
#
# 1 110.3382 27.1520 27.0948 -8.4833 -7.0074 6.8763
# 2 27.1520 107.4520 3.7155 -5.1453 3.0971 -13.9691
# 3 27.0948 3.7155 54.3155 -13.3818 -17.6512 -6.2468
# 4 -8.4833 -5.1453 -13.3818 24.8493 7.1385 10.5998
# 5 -7.0074 3.0971 -17.6512 7.1385 20.4106 -1.8628
# 6 6.8763 -13.9691 -6.2468 10.5998 -1.8628 36.7757
#
#
#
# Elastic Compliance Matrix: (Units=1/GPa)
#
#
# Indices 1 2 3 4 5 6 
#
# 1 0.011861 -0.003280 -0.006413 0.003013 -0.002536 -0.005550
# 2 -0.003280 0.010768 0.000970 0.000019 -0.001490 0.004787
# 3 -0.006413 0.000970 0.031196 0.005320 0.023364 0.006517
# 4 0.003013 0.000019 0.005320 0.055545 -0.015295 -0.016437
# 5 -0.002536 -0.001490 0.023364 -0.015295 0.075007 0.012084
# 6 -0.005550 0.004787 0.006517 -0.016437 0.012084 0.036505
#
#
# Mechanical properties :
#
#
# Convention : Reuss Voigt Hill
#
# Bulk Modulus (GPa) = 27.48658 43.11447 35.30052
# Shear Modulus (GPa) = 19.96378 30.68333 25.32356
#
# Velocity S-wave (km/s) = 2.81786 3.49341 3.17366
# Velocity P-wave (km/s) = 4.63891 5.78101 5.24116
#
# Compressibility (1/GPa) = 0.03638139
#
# Stress axis : x y z
#
# Youngs Moduli (GPa) = 84.30849 92.86902 32.05502
#
# Poissons Ratio (x) = 0.30457 0.20556
# Poissons Ratio (y) = 0.27650 -0.03110
# Poissons Ratio (z) = 0.54064 -0.09010
#
# Static dielectric constant tensor:
#      x y z
#    x 2.288780 -0.039840 0.268130 
#    y -0.039840 2.068530 -0.023320 
#    z 0.268130 -0.023320 2.171510 
# 
# From -- ./inp_files/474772.got.cif
#   From: 2010.05.17/outbox.cif.g08.bks.cpg/sg2_238_cif.got.tgz:474772.got - 2010.06.03 11:33:40.
