data_PCOD9020368
_publ_section_title
;
Structure prediction by ZEFSAII (Michael W. Deem and Ramdas Pophale) SiO2 
 PCOD9020368
Probable space group: P -1
;
_chemical_formula_sum "Si O2"
_cell_formula_units_Z 14
_cell_length_a 17.215618
_cell_length_b 8.572908
_cell_length_c 9.228407
_cell_angle_alpha 128.131623
_cell_angle_beta 103.123082
_cell_angle_gamma 39.053392
_cell_volume 580.847634
_symmetry_space_group_name_H-M "P -1"
_symmetry_group_IT_number 2
_symmetry_cell_setting 'triclinic'
loop_
_space_group_symop_operation_xyz
x,y,z
-x,-y,-z
loop_
_atom_site_type_symbol
_atom_site_label
_atom_site_fract_x
_atom_site_fract_y
_atom_site_fract_z
Si Si1 0.029244 0.756191 0.230480
Si Si2 0.413728 0.615351 0.825592
Si Si3 0.242000 0.285765 0.293718
Si Si4 0.140170 0.444301 0.664525
Si Si5 0.216101 0.033354 0.726180
Si Si6 0.140162 0.817800 0.082759
Si Si7 0.548204 0.698938 0.068704
O O1 0.109172 0.631078 0.342535
O O2 0.049337 0.896512 0.212515
O O3 0.872995 0.985523 0.313259
O O4 0.123457 0.390921 0.978352
O O5 0.443362 0.362497 0.789733
O O6 0.363895 0.704098 0.690114
O O7 0.534591 0.526160 0.867561
O O8 0.282950 0.987680 0.071649
O O9 0.209518 0.317103 0.464308
O O10 0.386460 0.116370 0.224612
O O11 0.212345 0.130970 0.618876
O O12 0.157303 0.624035 0.850083
O O13 0.965599 0.783138 0.777135
O O14 0.301392 0.518403 0.033128
#
# Coordination Sequence:
#
# PCOD9020368 Si02
#       7
#     2   2   2   2   2   2   2
#     4   9  19  34  56  82 111 145 182 225 275 321
#     4   8  18  36  60  80 108 149 185 221 274 327
#     4   9  19  37  56  81 113 142 188 225 269 325
#     4  10  22  35  56  86 110 143 188 227 273 322
#     4   9  18  34  57  82 109 144 186 225 266 333
#     4  10  22  36  56  83 113 146 183 222 280 332
#     4   9  19  36  60  79 112 147 183 222 276 333
#
# _framework density 24.102706000000001
#
# number of rings (size 3 to 8) (size 9 to 14) (size 15 to 20)
#    0.857    2.000    0.000    0.000   10.000    2.286 
#    0.000    0.714    0.000    0.000    0.000    0.000 
#    0.000    0.000    0.000    0.000    0.000    0.000 
#
# Total GULP energy -78058.803904 kJ/mol
# GULP energy per Si atom -5575.628850 kJ/mol
# Density = 2.404785 g / cm^3
# Si number density = 24.102706 Si / 1000 Ang^3
#
#
#
# Elastic Constant Matrix: (Units=GPa)
#
#
# Indices 1 2 3 4 5 6 
#
# 1 87.9211 51.9046 22.4218 -10.5722 -10.0148 -21.3788
# 2 51.9046 157.6073 30.6746 -28.7197 -13.9523 -16.3121
# 3 22.4218 30.6746 86.2509 -18.1381 -19.2258 1.5335
# 4 -10.5722 -28.7197 -18.1381 36.6543 3.4327 -8.8229
# 5 -10.0148 -13.9523 -19.2258 3.4327 7.4267 1.6770
# 6 -21.3788 -16.3121 1.5335 -8.8229 1.6770 24.1031
#
#
#
# Elastic Compliance Matrix: (Units=1/GPa)
#
#
# Indices 1 2 3 4 5 6 
#
# 1 0.019266 -0.001962 0.000542 0.006834 0.016687 0.017067
# 2 -0.001962 0.010442 0.002472 0.008925 0.017618 0.007211
# 3 0.000542 0.002472 0.030481 0.009145 0.080516 -0.002039
# 4 0.006834 0.008925 0.009145 0.044978 0.022908 0.026390
# 5 0.016687 0.017618 0.080516 0.022908 0.387413 0.003033
# 6 0.017067 0.007211 -0.002039 0.026390 0.003033 0.071085
#
#
# Mechanical properties :
#
#
# Convention : Reuss Voigt Hill
#
# Bulk Modulus (GPa) = 16.05268 60.19793 38.12530
# Shear Modulus (GPa) = 8.58628 28.75536 18.67082
#
# Velocity S-wave (km/s) = 1.88947 3.45778 2.78625
# Velocity P-wave (km/s) = 3.38153 6.40090 5.11890
#
# Compressibility (1/GPa) = 0.06229491
#
# Stress axis : x y z
#
# Youngs Moduli (GPa) = 51.90505 95.76683 32.80754
#
# Poissons Ratio (x) = 0.18785 -0.01780
# Poissons Ratio (y) = 0.10181 -0.08110
# Poissons Ratio (z) = -0.02816 -0.23675
#
# Static dielectric constant tensor:
#      x y z
#    x 1.945730 0.013310 0.043750 
#    y 0.013310 2.032810 0.055130 
#    z 0.043750 0.055130 1.954350 
# 
# From -- ./inp_files/325282.got.cif
#   From: 2010.05.17/outbox.cif.g08.bks.cpg/sg2_163_cif.got.tgz:325282.got - 2010.06.03 11:33:40.
