data_PCOD9020418
_publ_section_title
;
Structure prediction by ZEFSAII (Michael W. Deem and Ramdas Pophale) SiO2 
 PCOD9020418
Probable space group: P -1
;
_chemical_formula_sum "Si O2"
_cell_formula_units_Z 16
_cell_length_a 5.443732
_cell_length_b 22.423695
_cell_length_c 13.208508
_cell_angle_alpha 156.079012
_cell_angle_beta 106.660989
_cell_angle_gamma 75.855717
_cell_volume 625.669203
_symmetry_space_group_name_H-M "P -1"
_symmetry_group_IT_number 2
_symmetry_cell_setting 'triclinic'
loop_
_space_group_symop_operation_xyz
x,y,z
-x,-y,-z
loop_
_atom_site_type_symbol
_atom_site_label
_atom_site_fract_x
_atom_site_fract_y
_atom_site_fract_z
Si Si1 0.449577 0.855128 0.202822
Si Si2 0.073573 0.040893 0.687478
Si Si3 0.636646 0.439170 0.154657
Si Si4 0.461619 0.321992 0.308572
Si Si5 0.869883 0.510009 0.608553
Si Si6 0.396030 0.313225 0.610453
Si Si7 0.261365 0.091637 0.077929
Si Si8 0.958696 0.175950 0.471918
O O1 0.637154 0.892580 0.189236
O O2 0.146884 0.851786 0.134464
O O3 0.500000 0.000000 0.500000
O O4 0.490771 0.715061 0.062637
O O5 0.044514 0.898017 0.532777
O O6 0.000000 0.000000 0.500000
O O7 0.569427 0.556516 0.416273
O O8 0.587970 0.517969 0.164986
O O9 0.943478 0.428317 0.187548
O O10 0.766057 0.344696 0.365500
O O11 0.349576 0.382290 0.283991
O O12 0.342368 0.176096 0.115912
O O13 0.000000 0.500000 0.500000
O O14 0.244586 0.218460 0.356583
O O15 0.687336 0.257380 0.560318
O O16 0.210796 0.275732 0.626096
O O17 0.500000 0.000000 0.000000
O O18 0.050623 0.966413 0.826625
#
# Coordination Sequence:
#
# PCOD9020418 Si02
#       8
#     2   2   2   2   2   2   2   2
#     4  10  23  42  67  94 123 157 207 269 341 380
#     4  10  23  43  68  94 125 156 209 278 331 381
#     4  10  22  35  62  85 124 170 205 264 320 380
#     4   9  19  35  51  84 126 163 214 255 303 373
#     4   9  19  33  51  81 121 162 210 253 303 365
#     4  10  23  39  59  93 131 170 215 252 304 389
#     4   9  20  35  55  85 129 176 207 253 295 372
#     4  11  22  40  63  92 125 174 216 256 313 374
#
# _framework density 25.572616
#
# number of rings (size 3 to 8) (size 9 to 14) (size 15 to 20)
#    0.000    2.250    0.000    1.125    8.750    2.000 
#    6.750    0.000    0.000   18.000    0.000    0.000 
#    0.000    0.000    0.000    0.000    0.000    0.000 
#
# Total GULP energy -89295.666179 kJ/mol
# GULP energy per Si atom -5580.979136 kJ/mol
# Density = 2.551441 g / cm^3
# Si number density = 25.572616 Si / 1000 Ang^3
#
#
#
# Elastic Constant Matrix: (Units=GPa)
#
#
# Indices 1 2 3 4 5 6 
#
# 1 127.5330 48.4449 31.0104 29.1073 30.4385 20.3970
# 2 48.4449 142.0741 43.2922 49.5428 5.1516 13.6308
# 3 31.0104 43.2922 107.0670 40.8698 8.4100 12.7010
# 4 29.1073 49.5428 40.8698 53.4486 11.7514 10.3331
# 5 30.4385 5.1516 8.4100 11.7514 23.8199 11.8582
# 6 20.3970 13.6308 12.7010 10.3331 11.8582 38.2392
#
#
#
# Elastic Compliance Matrix: (Units=1/GPa)
#
#
# Indices 1 2 3 4 5 6 
#
# 1 0.013277 -0.003806 -0.001342 0.000921 -0.015813 -0.000625
# 2 -0.003806 0.011846 -0.000218 -0.010206 0.008392 -0.001964
# 3 -0.001342 -0.000218 0.013503 -0.009613 0.002698 -0.001931
# 4 0.000921 -0.010206 -0.009613 0.038133 -0.014681 0.000588
# 5 -0.015813 0.008392 0.002698 -0.014681 0.073821 -0.014378
# 6 -0.000625 -0.001964 -0.001931 0.000588 -0.014378 0.032126
#
#
# Mechanical properties :
#
#
# Convention : Reuss Voigt Hill
#
# Bulk Modulus (GPa) = 35.84916 69.12989 52.48953
# Shear Modulus (GPa) = 24.66261 40.02997 32.34629
#
# Velocity S-wave (km/s) = 3.10887 3.96074 3.56037
# Velocity P-wave (km/s) = 5.18997 6.92878 6.12143
#
# Compressibility (1/GPa) = 0.02789465
#
# Stress axis : x y z
#
# Youngs Moduli (GPa) = 75.31859 84.41644 74.05726
#
# Poissons Ratio (x) = 0.32131 0.09938
# Poissons Ratio (y) = 0.28668 0.01611
# Poissons Ratio (z) = 0.10107 0.01837
#
# Static dielectric constant tensor:
#      x y z
#    x 2.031970 -0.185910 0.666560 
#    y -0.185910 1.957070 0.226510 
#    z 0.666560 0.226510 0.904360 
# 
# From -- ./inp_files/485659.got.cif
#   From: 2010.05.17/outbox.cif.g08.bks.cpg/sg2_243_cif.got.tgz:485659.got - 2010.06.03 11:33:40.
