data_PCOD9020863
_publ_section_title
;
Structure prediction by ZEFSAII (Michael W. Deem and Ramdas Pophale) SiO2 
 PCOD9020863
Probable space group: P -1
;
_chemical_formula_sum "Si O2"
_cell_formula_units_Z 14
_cell_length_a 9.182699
_cell_length_b 12.411804
_cell_length_c 7.230049
_cell_angle_alpha 70.708570
_cell_angle_beta 130.247485
_cell_angle_gamma 106.854210
_cell_volume 590.283924
_symmetry_space_group_name_H-M "P -1"
_symmetry_group_IT_number 2
_symmetry_cell_setting 'triclinic'
loop_
_space_group_symop_operation_xyz
x,y,z
-x,-y,-z
loop_
_atom_site_type_symbol
_atom_site_label
_atom_site_fract_x
_atom_site_fract_y
_atom_site_fract_z
Si Si1 0.334785 0.214211 0.416722
Si Si2 0.352924 0.908982 0.038681
Si Si3 0.950280 0.288541 0.109071
Si Si4 0.349549 0.333232 0.984090
Si Si5 0.061197 0.744891 0.323411
Si Si6 0.253447 0.586663 0.854051
Si Si7 0.270036 0.987973 0.301630
O O1 0.506798 0.174748 0.699637
O O2 0.215655 0.098754 0.300281
O O3 0.413906 0.283746 0.261192
O O4 0.173417 0.281490 0.340484
O O5 0.185468 0.822363 0.859770
O O6 0.245368 0.978325 0.066776
O O7 0.500000 0.000000 0.000000
O O8 0.932328 0.284102 0.874262
O O9 0.866053 0.396395 0.070036
O O10 0.277977 0.456835 0.895969
O O11 0.162293 0.254693 0.809771
O O12 0.530897 0.349884 0.990974
O O13 0.148694 0.649382 0.570100
O O14 0.175993 0.869190 0.373246
O O15 0.500000 0.000000 0.500000
#
# Coordination Sequence:
#
# PCOD9020863 Si02
#       7
#     2   2   2   2   2   2   2
#     4  10  22  42  61  90 127 164 207 252 320 369
#     4  10  22  37  60  94 125 158 208 256 306 377
#     4  10  24  40  61  94 125 165 208 259 311 372
#     4  10  23  41  67  91 123 169 212 257 315 374
#     4  10  22  42  64  93 127 165 208 256 317 375
#     4  11  23  43  65  92 127 165 214 264 308 365
#     4   9  19  38  64  86 124 167 193 257 313 366
#
# _framework density 23.717400000000001
#
# number of rings (size 3 to 8) (size 9 to 14) (size 15 to 20)
#    0.000    2.000    0.000    3.000    6.000    9.143 
#    2.571    6.429    0.000    0.000    0.000    0.000 
#    0.000    0.000    0.000    0.000    0.000    0.000 
#
# Total GULP energy -78301.526685 kJ/mol
# GULP energy per Si atom -5592.966192 kJ/mol
# Density = 2.366342 g / cm^3
# Si number density = 23.717400 Si / 1000 Ang^3
#
#
#
# Elastic Constant Matrix: (Units=GPa)
#
#
# Indices 1 2 3 4 5 6 
#
# 1 87.4392 23.2367 16.8218 4.5174 17.7417 -2.6732
# 2 23.2367 44.7884 15.8501 -8.4864 4.4995 14.2757
# 3 16.8218 15.8501 79.5784 -15.2508 7.5323 7.3484
# 4 4.5174 -8.4864 -15.2508 30.9202 9.2971 6.4404
# 5 17.7417 4.4995 7.5323 9.2971 42.1629 -1.3772
# 6 -2.6732 14.2757 7.3484 6.4404 -1.3772 48.7032
#
#
#
# Elastic Compliance Matrix: (Units=1/GPa)
#
#
# Indices 1 2 3 4 5 6 
#
# 1 0.015670 -0.009495 -0.002697 -0.006138 -0.003590 0.004760
# 2 -0.009495 0.034431 -0.000736 0.013977 -0.003036 -0.012436
# 3 -0.002697 -0.000736 0.015929 0.010027 -0.003966 -0.003774
# 4 -0.006138 0.013977 0.010027 0.048184 -0.011738 -0.012650
# 5 -0.003590 -0.003036 -0.003966 -0.011738 0.028968 0.003663
# 6 0.004760 -0.012436 -0.003774 -0.012650 0.003663 0.026785
#
#
# Mechanical properties :
#
#
# Convention : Reuss Voigt Hill
#
# Bulk Modulus (GPa) = 24.89265 35.95814 30.42540
# Shear Modulus (GPa) = 23.89894 34.75042 29.32468
#
# Velocity S-wave (km/s) = 3.17780 3.83193 3.52009
# Velocity P-wave (km/s) = 4.89723 5.89680 5.42011
#
# Compressibility (1/GPa) = 0.04017250
#
# Stress axis : x y z
#
# Youngs Moduli (GPa) = 63.81797 29.04361 62.78027
#
# Poissons Ratio (x) = 0.27576 0.16934
# Poissons Ratio (y) = 0.60593 0.04623
# Poissons Ratio (z) = 0.17214 0.02139
#
# Static dielectric constant tensor:
#      x y z
#    x 1.917910 -0.013380 -0.009940 
#    y -0.013380 1.947510 0.034530 
#    z -0.009940 0.034530 1.909490 
# 
# From -- ./inp_files/185500.got.cif
#   From: 2010.05.17/outbox.cif.g08.bks.cpg/sg2_93_cif.got.tgz:185500.got - 2010.06.03 11:33:40.
