data_PCOD9020034
_publ_section_title
;
Structure prediction by ZEFSAII (Michael W. Deem and Ramdas Pophale) SiO2 
 PCOD9020034
Probable space group: P -1
;
_chemical_formula_sum "Si O2"
_cell_formula_units_Z 15
_cell_length_a 7.098721
_cell_length_b 10.987848
_cell_length_c 11.859896
_cell_angle_alpha 111.562006
_cell_angle_beta 75.941218
_cell_angle_gamma 61.772039
_cell_volume 652.660533
_symmetry_space_group_name_H-M "P -1"
_symmetry_group_IT_number 2
_symmetry_cell_setting 'triclinic'
loop_
_space_group_symop_operation_xyz
x,y,z
-x,-y,-z
loop_
_atom_site_type_symbol
_atom_site_label
_atom_site_fract_x
_atom_site_fract_y
_atom_site_fract_z
Si Si1 0.938525 0.198163 0.687554
Si Si2 0.541906 0.909599 0.082835
Si Si3 0.990798 0.795796 0.676815
Si Si4 0.928298 0.293001 0.101618
Si Si5 0.603152 0.321687 0.977989
Si Si6 0.904521 0.579104 0.293046
Si Si7 0.000000 0.500000 0.500000
Si Si8 0.328123 0.823751 0.482661
O O1 0.989182 0.330167 0.735293
O O2 0.833737 0.192306 0.818890
O O3 0.735999 0.238773 0.637907
O O4 0.190386 0.019671 0.553217
O O5 0.550620 0.747836 0.017538
O O6 0.302153 0.046194 0.238524
O O7 0.818008 0.839518 0.049745
O O8 0.500000 0.000000 0.000000
O O9 0.042553 0.761638 0.791264
O O10 0.035702 0.643732 0.550465
O O11 0.185704 0.815372 0.603438
O O12 0.893314 0.464143 0.168819
O O13 0.702671 0.315258 0.084033
O O14 0.500000 0.500000 0.000000
O O15 0.619591 0.715011 0.422719
O O16 0.056601 0.475407 0.346329
#
# Coordination Sequence:
#
# PCOD9020034 Si02
#       8
#     2   2   2   2   2   2   1   2
#     4  11  24  42  66  97 137 169 222 272 336 402
#     4  10  23  46  69  97 136 177 225 280 328 393
#     4  10  21  46  67 100 130 172 223 280 329 394
#     4  10  25  43  68  98 133 176 226 271 333 394
#     4  12  25  44  69 101 137 181 224 275 335 400
#     4  11  23  43  64 100 132 176 217 275 332 399
#     4  10  22  40  66  96 134 166 222 266 334 394
#     4  11  23  43  68  97 133 172 220 273 338 398
#
# _framework density 22.982851
#
# number of rings (size 3 to 8) (size 9 to 14) (size 15 to 20)
#    0.000    1.333    2.667    2.000    0.000    8.533 
#   12.000    0.000    0.000    0.000    0.000    0.000 
#    0.000    0.000    0.000    0.000    0.000    0.000 
#
# Total GULP energy -83568.033991 kJ/mol
# GULP energy per Si atom -5571.202266 kJ/mol
# Density = 2.293054 g / cm^3
# Si number density = 22.982851 Si / 1000 Ang^3
#
#
#
# Elastic Constant Matrix: (Units=GPa)
#
#
# Indices 1 2 3 4 5 6 
#
# 1 48.6818 10.3578 12.5159 -13.9498 -6.0654 10.7821
# 2 10.3578 43.8374 -4.1807 -1.5170 0.4876 15.4142
# 3 12.5159 -4.1807 61.4657 -9.0359 -3.1801 -8.5028
# 4 -13.9498 -1.5170 -9.0359 15.9526 -2.8683 -3.3460
# 5 -6.0654 0.4876 -3.1801 -2.8683 31.8969 -3.7781
# 6 10.7821 15.4142 -8.5028 -3.3460 -3.7781 30.0040
#
#
#
# Elastic Compliance Matrix: (Units=1/GPa)
#
#
# Indices 1 2 3 4 5 6 
#
# 1 0.032174 -0.004942 -0.003599 0.025645 0.007400 -0.006251
# 2 -0.004942 0.028767 0.000101 -0.005087 -0.003483 -0.013980
# 3 -0.003599 0.000101 0.019887 0.010483 0.003241 0.008454
# 4 0.025645 -0.005087 0.010483 0.095254 0.015626 0.008959
# 5 0.007400 -0.003483 0.003241 0.015626 0.035278 0.006233
# 6 -0.006251 -0.013980 0.008454 0.008959 0.006233 0.046937
#
#
# Mechanical properties :
#
#
# Convention : Reuss Voigt Hill
#
# Bulk Modulus (GPa) = 15.63785 21.26344 18.45065
# Shear Modulus (GPa) = 16.86375 24.59015 20.72695
#
# Velocity S-wave (km/s) = 2.71173 3.27453 3.00633
# Velocity P-wave (km/s) = 4.07720 4.85476 4.48287
#
# Compressibility (1/GPa) = 0.06394741
#
# Stress axis : x y z
#
# Youngs Moduli (GPa) = 31.08146 34.76159 50.28343
#
# Poissons Ratio (x) = 0.17179 0.18099
# Poissons Ratio (y) = 0.15361 -0.00508
# Poissons Ratio (z) = 0.11187 -0.00351
#
# Static dielectric constant tensor:
#      x y z
#    x 1.811720 -0.009890 -0.006470 
#    y -0.009890 1.953600 0.036770 
#    z -0.006470 0.036770 1.874620 
# 
# From -- ./inp_files/83428.got.cif
#   From: 2010.05.17/outbox.cif.g08.bks.cpg/sg2_42_cif.got.tgz:83428.got - 2010.06.03 11:33:40.
