data_PCOD9020892
_publ_section_title
;
Structure prediction by ZEFSAII (Michael W. Deem and Ramdas Pophale) SiO2 
 PCOD9020892
Probable space group: P -1
;
_chemical_formula_sum "Si O2"
_cell_formula_units_Z 16
_cell_length_a 12.565981
_cell_length_b 14.124846
_cell_length_c 5.836719
_cell_angle_alpha 98.645159
_cell_angle_beta 80.249988
_cell_angle_gamma 144.883735
_cell_volume 587.196536
_symmetry_space_group_name_H-M "P -1"
_symmetry_group_IT_number 2
_symmetry_cell_setting 'triclinic'
loop_
_space_group_symop_operation_xyz
x,y,z
-x,-y,-z
loop_
_atom_site_type_symbol
_atom_site_label
_atom_site_fract_x
_atom_site_fract_y
_atom_site_fract_z
Si Si1 0.450321 0.578334 0.041544
Si Si2 0.069741 0.202055 0.555952
Si Si3 0.329382 0.989315 0.979445
Si Si4 0.074844 0.410811 0.091066
Si Si5 0.074166 0.429262 0.599070
Si Si6 0.580164 0.665105 0.526055
Si Si7 0.644661 0.106829 0.683742
Si Si8 0.918919 0.047205 0.056628
O O1 0.230254 0.438704 0.055311
O O2 0.516936 0.660088 0.301372
O O3 0.500000 0.500000 0.000000
O O4 0.528430 0.668916 0.796272
O O5 0.204187 0.206296 0.512597
O O6 0.976874 0.125640 0.314365
O O7 0.135792 0.361428 0.574317
O O8 0.976573 0.128322 0.812352
O O9 0.142996 0.786632 0.909520
O O10 0.289173 0.061669 0.913928
O O11 0.534983 0.101115 0.882935
O O12 0.339178 0.986949 0.246874
O O13 0.121234 0.495568 0.347392
O O14 0.116079 0.496011 0.867033
O O15 0.852788 0.277978 0.612949
O O16 0.500000 0.500000 0.500000
O O17 0.500000 0.000000 0.500000
O O18 0.000000 0.000000 0.000000
#
# Coordination Sequence:
#
# PCOD9020892 Si02
#       8
#     2   2   2   2   2   2   2   2
#     4  10  18  27  40  68  95 128 167 192 242 309
#     4  12  20  38  52  72 104 141 177 217 259 298
#     4  10  21  31  50  71  99 140 174 209 262 299
#     4  11  18  29  45  67 103 137 165 196 247 317
#     4  11  18  29  49  70  95 137 169 198 259 312
#     4  10  20  28  48  72  97 130 171 203 259 314
#     4  10  17  31  48  73  97 129 175 210 263 318
#     4  12  25  38  53  73 100 148 195 214 240 293
#
# _framework density 27.248116
#
# number of rings (size 3 to 8) (size 9 to 14) (size 15 to 20)
#    0.000    1.250    5.000    4.875    0.000    0.000 
#    0.000    0.000    0.000    0.000    0.000    0.000 
#    0.000    0.000    0.000  123.750    0.000    0.000 
#
# Total GULP energy -89080.490968 kJ/mol
# GULP energy per Si atom -5567.530685 kJ/mol
# Density = 2.718610 g / cm^3
# Si number density = 27.248116 Si / 1000 Ang^3
#
#
#
# Elastic Constant Matrix: (Units=GPa)
#
#
# Indices 1 2 3 4 5 6 
#
# 1 87.0498 30.6883 49.3713 6.7641 21.6668 40.3210
# 2 30.6883 44.9794 44.8344 -5.4365 12.0691 20.8298
# 3 49.3713 44.8344 288.1200 3.6404 48.8246 -1.4269
# 4 6.7641 -5.4365 3.6404 38.6631 14.5401 1.4826
# 5 21.6668 12.0691 48.8246 14.5401 55.1754 1.6266
# 6 40.3210 20.8298 -1.4269 1.4826 1.6266 55.8811
#
#
#
# Elastic Compliance Matrix: (Units=1/GPa)
#
#
# Indices 1 2 3 4 5 6 
#
# 1 0.022609 -0.005720 -0.002240 -0.002268 -0.004633 -0.014043
# 2 -0.005720 0.037092 -0.004262 0.008520 -0.004048 -0.009916
# 3 -0.002240 -0.004262 0.005002 0.000235 -0.002777 0.003407
# 4 -0.002268 0.008520 0.000235 0.031012 -0.009292 -0.002086
# 5 -0.004633 -0.004048 -0.002777 -0.009292 0.025609 0.004282
# 6 -0.014043 -0.009916 0.003407 -0.002086 0.004282 0.031742
#
#
# Mechanical properties :
#
#
# Convention : Reuss Voigt Hill
#
# Bulk Modulus (GPa) = 24.83965 74.43747 49.63856
# Shear Modulus (GPa) = 26.18760 49.62761 37.90761
#
# Velocity S-wave (km/s) = 3.10349 4.27233 3.73393
# Velocity P-wave (km/s) = 4.68808 7.19129 6.07012
#
# Compressibility (1/GPa) = 0.04025822
#
# Stress axis : x y z
#
# Youngs Moduli (GPa) = 44.23041 26.96004 199.90582
#
# Poissons Ratio (x) = 0.15422 0.44774
# Poissons Ratio (y) = 0.25301 0.85208
# Poissons Ratio (z) = 0.09907 0.11491
#
# Static dielectric constant tensor:
#      x y z
#    x 1.876610 -0.450480 0.176730 
#    y -0.450480 1.688450 0.365210 
#    z 0.176730 0.365210 1.780620 
# 
# From -- ./inp_files/80696.got.cif
#   From: 2010.05.17/outbox.cif.g08.bks.cpg/sg2_41_cif.got.tgz:80696.got - 2010.06.03 11:33:40.
