data_PCOD9020547
_publ_section_title
;
Structure prediction by ZEFSAII (Michael W. Deem and Ramdas Pophale) SiO2 
 PCOD9020547
Probable space group: P -1
;
_chemical_formula_sum "Si O2"
_cell_formula_units_Z 12
_cell_length_a 9.869460
_cell_length_b 9.705863
_cell_length_c 8.366454
_cell_angle_alpha 91.452441
_cell_angle_beta 102.133254
_cell_angle_gamma 133.280483
_cell_volume 554.016621
_symmetry_space_group_name_H-M "P -1"
_symmetry_group_IT_number 2
_symmetry_cell_setting 'triclinic'
loop_
_space_group_symop_operation_xyz
x,y,z
-x,-y,-z
loop_
_atom_site_type_symbol
_atom_site_label
_atom_site_fract_x
_atom_site_fract_y
_atom_site_fract_z
Si Si1 0.503637 0.177939 0.141867
Si Si2 0.023697 0.677241 0.465776
Si Si3 0.471977 0.644312 0.147424
Si Si4 0.898283 0.531206 0.098063
Si Si5 0.400986 0.508447 0.621590
Si Si6 0.545405 0.959157 0.343375
O O1 0.733024 0.333789 0.153488
O O2 0.494991 0.277062 0.291231
O O3 0.452516 0.990496 0.182263
O O4 0.420143 0.196524 0.965596
O O5 0.033453 0.690223 0.273806
O O6 0.826022 0.616426 0.465545
O O7 0.000000 0.500000 0.500000
O O8 0.218780 0.874536 0.598065
O O9 0.574514 0.577822 0.224528
O O10 0.467472 0.751184 0.293806
O O11 0.246198 0.465769 0.031395
O O12 0.000000 0.500000 0.000000
O O13 0.500000 0.500000 0.500000
O O14 0.500000 0.000000 0.500000
#
# Coordination Sequence:
#
# PCOD9020547 Si02
#       6
#     2   2   2   2   2   2
#     4   9  21  37  60  86 119 163 204 240 298 368
#     4  11  22  39  61  91 121 158 210 250 292 376
#     4  10  22  36  60  86 124 159 197 251 310 345
#     4   9  19  34  61  86 119 155 210 243 296 357
#     4  11  22  38  65  90 122 162 204 254 306 357
#     4  12  22  38  64  92 126 159 201 256 308 355
#
# _framework density 21.66
#
# number of rings (size 3 to 8) (size 9 to 14) (size 15 to 20)
#    1.000    0.667    3.333    3.000    2.333    0.667 
#    0.000    0.000    0.000    2.000    0.000    0.000 
#    0.000    0.000    0.000    0.000    0.000    0.000 
#
# Total GULP energy -66916.011236 kJ/mol
# GULP energy per Si atom -5576.334270 kJ/mol
# Density = 2.161070 g / cm^3
# Si number density = 21.660000 Si / 1000 Ang^3
#
#
#
# Elastic Constant Matrix: (Units=GPa)
#
#
# Indices 1 2 3 4 5 6 
#
# 1 139.4998 14.6475 40.5893 -5.0422 -0.6252 -7.8140
# 2 14.6475 38.9631 11.2251 2.2778 17.1623 -18.6605
# 3 40.5893 11.2251 97.1494 6.9599 8.9705 -3.4227
# 4 -5.0422 2.2778 6.9599 28.5908 -11.4588 0.4601
# 5 -0.6252 17.1623 8.9705 -11.4588 55.1123 -2.1391
# 6 -7.8140 -18.6605 -3.4227 0.4601 -2.1391 25.3482
#
#
#
# Elastic Compliance Matrix: (Units=1/GPa)
#
#
# Indices 1 2 3 4 5 6 
#
# 1 0.008797 -0.003874 -0.003772 0.003871 0.002706 -0.000491
# 2 -0.003874 0.053529 -0.000735 -0.012479 -0.017758 0.036841
# 3 -0.003772 -0.000735 0.012558 -0.004809 -0.002864 -0.000163
# 4 0.003871 -0.012479 -0.004809 0.043327 0.013399 -0.008298
# 5 0.002706 -0.017758 -0.002864 0.013399 0.026545 -0.010629
# 6 -0.000491 0.036841 -0.000163 -0.008298 -0.010629 0.065652
#
#
# Mechanical properties :
#
#
# Convention : Reuss Voigt Hill
#
# Bulk Modulus (GPa) = 17.20519 45.39290 31.29905
# Shear Modulus (GPa) = 20.28034 35.75364 28.01699
#
# Velocity S-wave (km/s) = 3.06323 4.06726 3.60041
# Velocity P-wave (km/s) = 4.52457 6.56196 5.63609
#
# Compressibility (1/GPa) = 0.05812199
#
# Stress axis : x y z
#
# Youngs Moduli (GPa) = 113.67015 18.68150 79.63227
#
# Poissons Ratio (x) = 0.07237 0.30041
# Poissons Ratio (y) = 0.44033 0.05851
# Poissons Ratio (z) = 0.42881 0.01373
#
# Static dielectric constant tensor:
#      x y z
#    x 1.778120 0.018040 -0.013570 
#    y 0.018040 1.785290 -0.011880 
#    z -0.013570 -0.011880 1.922000 
# 
# From -- ./inp_files/155035.got.cif
#   From: 2010.05.17/outbox.cif.g08.bks.cpg/sg2_78_cif.got.tgz:155035.got - 2010.06.03 11:33:40.
