data_PCOD9020709
_publ_section_title
;
Structure prediction by ZEFSAII (Michael W. Deem and Ramdas Pophale) SiO2 
 PCOD9020709
Probable space group: P -1
;
_chemical_formula_sum "Si O2"
_cell_formula_units_Z 16
_cell_length_a 14.638020
_cell_length_b 9.032123
_cell_length_c 9.334037
_cell_angle_alpha 103.452601
_cell_angle_beta 40.181312
_cell_angle_gamma 92.829254
_cell_volume 758.009860
_symmetry_space_group_name_H-M "P -1"
_symmetry_group_IT_number 2
_symmetry_cell_setting 'triclinic'
loop_
_space_group_symop_operation_xyz
x,y,z
-x,-y,-z
loop_
_atom_site_type_symbol
_atom_site_label
_atom_site_fract_x
_atom_site_fract_y
_atom_site_fract_z
Si Si1 0.830066 0.897482 0.292925
Si Si2 0.084322 0.205669 0.129656
Si Si3 0.576757 0.131971 0.500214
Si Si4 0.130370 0.533731 0.451111
Si Si5 0.331135 0.397410 0.938324
Si Si6 0.707609 0.345475 0.183957
Si Si7 0.058031 0.932483 0.263078
Si Si8 0.157375 0.441452 0.725012
O O1 0.776973 0.737771 0.355673
O O2 0.921450 0.933163 0.324840
O O3 0.710166 0.039958 0.412602
O O4 0.934511 0.846577 0.020285
O O5 0.930695 0.287056 0.397414
O O6 0.144436 0.055707 0.119017
O O7 0.197738 0.320808 0.021752
O O8 0.466626 0.256268 0.753941
O O9 0.620861 0.228560 0.335281
O O10 0.500000 0.000000 0.500000
O O11 0.142087 0.454116 0.574723
O O12 0.000000 0.500000 0.500000
O O13 0.273061 0.479895 0.174797
O O14 0.363143 0.525036 0.816572
O O15 0.754198 0.441519 0.282998
O O16 0.842524 0.238621 0.912485
O O17 0.000000 0.000000 0.500000
O O18 0.000000 0.500000 0.000000
#
# Coordination Sequence:
#
# PCOD9020709 Si02
#       8
#     2   2   2   2   2   2   2   2
#     4  12  24  41  68  99 135 177 224 268 341 396
#     4  11  20  41  66  96 135 170 221 282 340 390
#     4  12  25  47  69  93 138 184 232 271 321 416
#     4  10  22  36  67  98 136 171 218 284 340 385
#     4  11  23  43  68  98 131 180 226 276 332 395
#     4  12  23  43  73  99 128 180 230 279 333 404
#     4  12  26  38  64 106 142 169 219 285 353 397
#     4  12  21  40  68 102 134 167 224 280 335 404
#
# _framework density 21.107904000000001
#
# number of rings (size 3 to 8) (size 9 to 14) (size 15 to 20)
#    0.000    0.500    6.250    2.250    5.250    0.000 
#    0.000    1.250    2.750    0.000    0.000    0.000 
#    0.000    0.000    0.000    0.000    0.000    0.000 
#
# Total GULP energy -89397.973920 kJ/mol
# GULP energy per Si atom -5587.373370 kJ/mol
# Density = 2.105986 g / cm^3
# Si number density = 21.107904 Si / 1000 Ang^3
#
#
#
# Elastic Constant Matrix: (Units=GPa)
#
#
# Indices 1 2 3 4 5 6 
#
# 1 74.6503 30.4120 55.5074 12.7192 27.9373 -1.3907
# 2 30.4120 141.9812 46.5521 7.8460 1.0951 -6.6025
# 3 55.5074 46.5521 129.7184 31.1985 21.2581 -2.9540
# 4 12.7192 7.8460 31.1985 48.9916 -5.9696 -8.9060
# 5 27.9373 1.0951 21.2581 -5.9696 39.7059 1.7320
# 6 -1.3907 -6.6025 -2.9540 -8.9060 1.7320 33.1459
#
#
#
# Elastic Compliance Matrix: (Units=1/GPa)
#
#
# Indices 1 2 3 4 5 6 
#
# 1 0.025861 -0.003083 -0.006516 -0.003994 -0.015206 -0.000388
# 2 -0.003083 0.008556 -0.002778 0.001944 0.003640 0.001660
# 3 -0.006516 -0.002778 0.013872 -0.007414 -0.003820 -0.001383
# 4 -0.003994 0.001944 -0.007414 0.028366 0.010702 0.006622
# 5 -0.015206 0.003640 -0.003820 0.010702 0.039413 0.000563
# 6 -0.000388 0.001660 -0.001383 0.006622 0.000563 0.032110
#
#
# Mechanical properties :
#
#
# Convention : Reuss Voigt Hill
#
# Bulk Modulus (GPa) = 42.48927 67.92144 55.20535
# Shear Modulus (GPa) = 27.65849 38.62724 33.14286
#
# Velocity S-wave (km/s) = 3.62379 4.28248 3.96683
# Velocity P-wave (km/s) = 6.13860 7.53000 6.86962
#
# Compressibility (1/GPa) = 0.02353536
#
# Stress axis : x y z
#
# Youngs Moduli (GPa) = 38.66861 116.87815 72.08951
#
# Poissons Ratio (x) = 0.36033 0.46973
# Poissons Ratio (y) = 0.11921 0.20024
# Poissons Ratio (z) = 0.25196 0.32464
#
# Static dielectric constant tensor:
#      x y z
#    x 1.840300 -0.001180 0.012940 
#    y -0.001180 1.831590 -0.011740 
#    z 0.012940 -0.011740 1.800870 
# 
# From -- ./inp_files/298643.got.cif
#   From: 2010.05.17/outbox.cif.g08.bks.cpg/sg2_150_cif.got.tgz:298643.got - 2010.06.03 11:33:40.
