data_PCOD9020747
_publ_section_title
;
Structure prediction by ZEFSAII (Michael W. Deem and Ramdas Pophale) SiO2 
 PCOD9020747
Probable space group: P -1
;
_chemical_formula_sum "Si O2"
_cell_formula_units_Z 14
_cell_length_a 11.863980
_cell_length_b 12.033078
_cell_length_c 6.083877
_cell_angle_alpha 106.904091
_cell_angle_beta 128.489014
_cell_angle_gamma 58.065349
_cell_volume 575.969837
_symmetry_space_group_name_H-M "P -1"
_symmetry_group_IT_number 2
_symmetry_cell_setting 'triclinic'
loop_
_space_group_symop_operation_xyz
x,y,z
-x,-y,-z
loop_
_atom_site_type_symbol
_atom_site_label
_atom_site_fract_x
_atom_site_fract_y
_atom_site_fract_z
Si Si1 0.622745 0.538351 0.291518
Si Si2 0.739360 0.078453 0.655495
Si Si3 0.395675 0.228113 0.345677
Si Si4 0.185963 0.400195 0.810552
Si Si5 0.195955 0.711784 0.382775
Si Si6 0.940830 0.680578 0.774351
Si Si7 0.047905 0.893562 0.688990
O O1 0.551580 0.683569 0.385511
O O2 0.749372 0.535053 0.259490
O O3 0.691311 0.440782 0.525688
O O4 0.500000 0.500000 0.000000
O O5 0.559730 0.092053 0.455041
O O6 0.724098 0.198636 0.549395
O O7 0.879625 0.944433 0.647425
O O8 0.818141 0.096658 0.986988
O O9 0.228234 0.244141 0.256336
O O10 0.333278 0.301430 0.080807
O O11 0.111133 0.320181 0.540812
O O12 0.046417 0.521194 0.843389
O O13 0.120924 0.761117 0.562235
O O14 0.063159 0.729806 0.047757
O O15 0.000000 0.000000 0.500000
#
# Coordination Sequence:
#
# PCOD9020747 Si02
#       7
#     2   2   2   2   2   2   2
#     4  11  23  33  55  92 120 148 195 241 282 340
#     4  10  22  40  64  86 112 153 188 245 296 338
#     4  11  22  38  57  85 123 153 192 235 287 340
#     4  10  22  37  55  79 128 164 190 223 286 344
#     4  11  22  36  61  87 116 150 198 236 283 346
#     4  10  23  36  55  85 118 164 194 227 280 349
#     4   9  21  41  63  86 113 145 195 241 297 344
#
# _framework density 24.306827999999999
#
# number of rings (size 3 to 8) (size 9 to 14) (size 15 to 20)
#    0.000    1.714    1.429    2.143    8.000    4.571 
#    0.000    0.714    0.000    8.571    0.000    0.000 
#    0.000    0.000    0.000    0.000    0.000    0.000 
#
# Total GULP energy -78235.838361 kJ/mol
# GULP energy per Si atom -5588.274169 kJ/mol
# Density = 2.425150 g / cm^3
# Si number density = 24.306828 Si / 1000 Ang^3
#
#
#
# Elastic Constant Matrix: (Units=GPa)
#
#
# Indices 1 2 3 4 5 6 
#
# 1 84.0648 10.6847 23.9746 -11.9559 3.7758 -6.9485
# 2 10.6847 37.3660 5.9667 -10.9803 2.5660 -21.6081
# 3 23.9746 5.9667 118.7453 -9.8075 10.6284 -15.3650
# 4 -11.9559 -10.9803 -9.8075 49.1395 -1.5137 6.2492
# 5 3.7758 2.5660 10.6284 -1.5137 38.5794 -6.1138
# 6 -6.9485 -21.6081 -15.3650 6.2492 -6.1138 38.3882
#
#
#
# Elastic Compliance Matrix: (Units=1/GPa)
#
#
# Indices 1 2 3 4 5 6 
#
# 1 0.013243 -0.003205 -0.002398 0.002113 -0.000464 -0.000785
# 2 -0.003205 0.042612 0.001956 0.006194 0.000879 0.023320
# 3 -0.002398 0.001956 0.009592 0.001200 -0.001854 0.004016
# 4 0.002113 0.006194 0.001200 0.022399 0.000042 0.000710
# 5 -0.000464 0.000879 -0.001854 0.000042 0.027049 0.003970
# 6 -0.000785 0.023320 0.004016 0.000710 0.003970 0.041158
#
#
# Mechanical properties :
#
#
# Convention : Reuss Voigt Hill
#
# Bulk Modulus (GPa) = 17.19597 35.71423 26.45510
# Shear Modulus (GPa) = 27.36257 38.52476 32.94366
#
# Velocity S-wave (km/s) = 3.35881 3.98544 3.68547
# Velocity P-wave (km/s) = 4.70447 5.99194 5.38681
#
# Compressibility (1/GPa) = 0.05815314
#
# Stress axis : x y z
#
# Youngs Moduli (GPa) = 75.50940 23.46777 104.25336
#
# Poissons Ratio (x) = 0.07521 0.25003
# Poissons Ratio (y) = 0.24200 -0.20395
# Poissons Ratio (z) = 0.18109 -0.04591
#
# Static dielectric constant tensor:
#      x y z
#    x 2.024040 -0.048960 -0.015440 
#    y -0.048960 1.970750 -0.003710 
#    z -0.015440 -0.003710 1.896030 
# 
# From -- ./inp_files/63955.got.cif
#   From: 2010.05.17/outbox.cif.g08.bks.cpg/sg2_32_cif.got.tgz:63955.got - 2010.06.03 11:33:40.
