data_PCOD9020753
_publ_section_title
;
Structure prediction by ZEFSAII (Michael W. Deem and Ramdas Pophale) SiO2 
 PCOD9020753
Probable space group: P -1
;
_chemical_formula_sum "Si O2"
_cell_formula_units_Z 16
_cell_length_a 9.475440
_cell_length_b 21.132290
_cell_length_c 18.417632
_cell_angle_alpha 161.159197
_cell_angle_beta 137.389485
_cell_angle_gamma 40.392076
_cell_volume 769.740756
_symmetry_space_group_name_H-M "P -1"
_symmetry_group_IT_number 2
_symmetry_cell_setting 'triclinic'
loop_
_space_group_symop_operation_xyz
x,y,z
-x,-y,-z
loop_
_atom_site_type_symbol
_atom_site_label
_atom_site_fract_x
_atom_site_fract_y
_atom_site_fract_z
Si Si1 0.109989 0.269722 0.519790
Si Si2 0.335151 0.887890 0.284545
Si Si3 0.414682 0.976330 0.829719
Si Si4 0.029100 0.691532 0.035998
Si Si5 0.355282 0.733703 0.685553
Si Si6 0.906071 0.274176 0.732335
Si Si7 0.650769 0.712588 0.094904
Si Si8 0.507464 0.109573 0.390372
O O1 0.061747 0.473687 0.772327
O O2 0.318598 0.243006 0.516685
O O3 0.890738 0.267556 0.393266
O O4 0.165381 0.067048 0.370545
O O5 0.478202 0.722150 0.102699
O O6 0.500000 0.000000 0.500000
O O7 0.225655 0.777725 0.180476
O O8 0.370885 0.820448 0.703858
O O9 0.532448 0.857374 0.673949
O O10 0.558150 0.110426 0.064024
O O11 0.190554 0.141455 0.895388
O O12 0.041766 0.677873 0.112959
O O13 0.500000 0.500000 0.500000
O O14 0.748478 0.133509 0.521032
O O15 0.142210 0.215206 0.719925
O O16 0.757966 0.479508 0.860920
O O17 0.532604 0.873699 0.164521
#
# Coordination Sequence:
#
# PCOD9020753 Si02
#       8
#     2   2   2   2   2   2   2   2
#     4  11  24  41  67  93 131 169 213 268 324 375
#     4  11  23  37  59  93 132 172 212 256 314 376
#     4  11  25  42  71  94 121 166 219 271 322 382
#     4  12  22  40  65  95 127 175 217 257 315 385
#     4  11  24  48  70  96 121 164 222 277 322 381
#     4  11  23  37  61  92 137 171 215 251 312 383
#     4  10  22  37  55  88 132 172 207 254 302 378
#     4  11  24  42  61  97 132 169 206 266 320 379
#
# _framework density 20.786218999999999
#
# number of rings (size 3 to 8) (size 9 to 14) (size 15 to 20)
#    0.000    1.000    3.750    3.375    1.750    5.000 
#    0.000    0.625    0.000    0.000    0.000    0.000 
#    0.000    0.000    0.000    0.000    0.000    0.000 
#
# Total GULP energy -89368.816764 kJ/mol
# GULP energy per Si atom -5585.551048 kJ/mol
# Density = 2.073891 g / cm^3
# Si number density = 20.786219 Si / 1000 Ang^3
#
#
#
# Elastic Constant Matrix: (Units=GPa)
#
#
# Indices 1 2 3 4 5 6 
#
# 1 87.3206 12.3577 23.8719 3.6460 -3.5646 6.2038
# 2 12.3577 76.9591 14.3365 7.3150 -7.7708 -4.3703
# 3 23.8719 14.3365 70.9088 5.9943 2.7619 2.9868
# 4 3.6460 7.3150 5.9943 36.4217 -0.5987 0.4276
# 5 -3.5646 -7.7708 2.7619 -0.5987 28.4572 -5.6952
# 6 6.2038 -4.3703 2.9868 0.4276 -5.6952 30.2788
#
#
#
# Elastic Compliance Matrix: (Units=1/GPa)
#
#
# Indices 1 2 3 4 5 6 
#
# 1 0.012957 -0.001304 -0.004025 -0.000327 0.001208 -0.002214
# 2 -0.001304 0.014600 -0.002651 -0.002329 0.004744 0.003561
# 3 -0.004025 -0.002651 0.016343 -0.001787 -0.003201 -0.001747
# 4 -0.000327 -0.002329 -0.001787 0.028256 -0.000008 -0.000493
# 5 0.001208 0.004744 -0.003201 -0.000008 0.038498 0.007994
# 6 -0.002214 0.003561 -0.001747 -0.000493 0.007994 0.035677
#
#
# Mechanical properties :
#
#
# Convention : Reuss Voigt Hill
#
# Bulk Modulus (GPa) = 35.78905 37.36897 36.57901
# Shear Modulus (GPa) = 29.13708 31.33972 30.23840
#
# Velocity S-wave (km/s) = 3.74806 3.88714 3.81823
# Velocity P-wave (km/s) = 5.99880 6.17765 6.08888
#
# Compressibility (1/GPa) = 0.02794151
#
# Stress axis : x y z
#
# Youngs Moduli (GPa) = 77.17803 68.49445 61.18904
#
# Poissons Ratio (x) = 0.08929 0.24626
# Poissons Ratio (y) = 0.10061 0.16220
# Poissons Ratio (z) = 0.31061 0.18157
#
# Static dielectric constant tensor:
#      x y z
#    x 1.754720 -0.002290 -0.018710 
#    y -0.002290 1.875750 0.013550 
#    z -0.018710 0.013550 1.774720 
# 
# From -- ./inp_files/218494.got.cif
#   From: 2010.05.17/outbox.cif.g08.bks.cpg/sg2_110_cif.got.tgz:218494.got - 2010.06.03 11:33:40.
