data_PCOD9020386
_publ_section_title
;
Structure prediction by ZEFSAII (Michael W. Deem and Ramdas Pophale) SiO2 
 PCOD9020386
Probable space group: P -1
;
_chemical_formula_sum "Si O2"
_cell_formula_units_Z 14
_cell_length_a 5.973656
_cell_length_b 21.566181
_cell_length_c 9.376001
_cell_angle_alpha 141.162530
_cell_angle_beta 124.053076
_cell_angle_gamma 78.013720
_cell_volume 563.651195
_symmetry_space_group_name_H-M "P -1"
_symmetry_group_IT_number 2
_symmetry_cell_setting 'triclinic'
loop_
_space_group_symop_operation_xyz
x,y,z
-x,-y,-z
loop_
_atom_site_type_symbol
_atom_site_label
_atom_site_fract_x
_atom_site_fract_y
_atom_site_fract_z
Si Si1 0.810649 0.342546 0.308244
Si Si2 0.628455 0.804903 0.348663
Si Si3 0.764460 0.979538 0.132893
Si Si4 0.609391 0.456661 0.104502
Si Si5 0.124106 0.473056 0.141366
Si Si6 0.513776 0.013723 0.359653
Si Si7 0.079816 0.185790 0.251938
O O1 0.710015 0.410027 0.506610
O O2 0.124362 0.437410 0.533310
O O3 0.922753 0.257462 0.264122
O O4 0.558479 0.278454 0.988645
O O5 0.738131 0.760831 0.445134
O O6 0.419285 0.862162 0.428324
O O7 0.925090 0.911370 0.591496
O O8 0.728368 0.977538 0.285877
O O9 0.734752 0.859331 0.862740
O O10 0.500000 0.000000 0.000000
O O11 0.344042 0.424441 0.070852
O O12 0.832387 0.408083 0.024220
O O13 0.500000 0.500000 0.000000
O O14 0.000000 0.500000 0.000000
O O15 0.500000 0.000000 0.500000
O O16 0.194750 0.933290 0.032803
#
# Coordination Sequence:
#
# PCOD9020386 Si02
#       7
#     2   2   2   2   2   2   2
#     4  10  22  35  58  90 114 152 198 255 300 358
#     4  11  22  38  56  84 119 150 205 250 296 352
#     4  11  21  38  60  76 116 174 195 240 305 357
#     4   8  16  34  58  86 113 152 193 234 303 375
#     4   8  16  34  58  86 113 152 193 234 303 375
#     4  11  21  39  53  78 114 158 202 237 291 353
#     4  11  22  38  56  84 119 150 205 250 296 352
#
# _framework density 24.838056000000002
#
# number of rings (size 3 to 8) (size 9 to 14) (size 15 to 20)
#    0.857    1.143    4.286    0.857    0.000    4.571 
#    0.000    0.000    0.000    1.714    0.000    0.000 
#    0.000    0.000    0.000    0.000    0.000    0.000 
#
# Total GULP energy -77965.597590 kJ/mol
# GULP energy per Si atom -5568.971256 kJ/mol
# Density = 2.478152 g / cm^3
# Si number density = 24.838056 Si / 1000 Ang^3
#
#
#
# Elastic Constant Matrix: (Units=GPa)
#
#
# Indices 1 2 3 4 5 6 
#
# 1 167.4049 41.6220 76.2370 2.0260 -37.7065 -8.6743
# 2 41.6220 95.5915 46.0511 -22.6190 -14.5330 -35.3650
# 3 76.2370 46.0511 212.1817 -27.1723 -14.9202 -23.1015
# 4 2.0260 -22.6190 -27.1723 39.6562 -2.7950 -0.8152
# 5 -37.7065 -14.5330 -14.9202 -2.7950 51.3476 8.7029
# 6 -8.6743 -35.3650 -23.1015 -0.8152 8.7029 29.7113
#
#
#
# Elastic Compliance Matrix: (Units=1/GPa)
#
#
# Indices 1 2 3 4 5 6 
#
# 1 0.010418 -0.007507 -0.003800 -0.007226 0.005852 -0.010761
# 2 -0.007507 0.031192 0.002613 0.020658 -0.001223 0.037892
# 3 -0.003800 0.002613 0.007177 0.006700 -0.000964 0.008047
# 4 -0.007226 0.020658 0.006700 0.042546 -0.000092 0.028883
# 5 0.005852 -0.001223 -0.000964 -0.000092 0.024439 -0.007658
# 6 -0.010761 0.037892 0.008047 0.028883 -0.007658 0.084911
#
#
# Mechanical properties :
#
#
# Convention : Reuss Voigt Hill
#
# Bulk Modulus (GPa) = 31.84752 89.22205 60.53478
# Shear Modulus (GPa) = 21.87804 44.89420 33.38612
#
# Velocity S-wave (km/s) = 2.97109 4.25606 3.67025
# Velocity P-wave (km/s) = 4.96183 7.75574 6.51042
#
# Compressibility (1/GPa) = 0.03139962
#
# Stress axis : x y z
#
# Youngs Moduli (GPa) = 95.98378 32.05945 139.32600
#
# Poissons Ratio (x) = 0.24068 0.52937
# Poissons Ratio (y) = 0.72057 -0.36399
# Poissons Ratio (z) = 0.36469 -0.08376
#
# Static dielectric constant tensor:
#      x y z
#    x 2.113230 0.099420 -0.018900 
#    y 0.099420 1.900780 0.072970 
#    z -0.018900 0.072970 1.981600 
# 
# From -- ./inp_files/143302.got.cif
#   From: 2010.05.17/outbox.cif.g08.bks.cpg/sg2_72_cif.got.tgz:143302.got - 2010.06.03 11:33:40.
