data_PCOD9020278
_publ_section_title
;
Structure prediction by ZEFSAII (Michael W. Deem and Ramdas Pophale) SiO2 
 PCOD9020278
Probable space group: P -1
;
_chemical_formula_sum "Si O2"
_cell_formula_units_Z 14
_cell_length_a 4.892839
_cell_length_b 5.047010
_cell_length_c 19.411913
_cell_angle_alpha 87.604013
_cell_angle_beta 83.847351
_cell_angle_gamma 96.253780
_cell_volume 473.070303
_symmetry_space_group_name_H-M "P -1"
_symmetry_group_IT_number 2
_symmetry_cell_setting 'triclinic'
loop_
_space_group_symop_operation_xyz
x,y,z
-x,-y,-z
loop_
_atom_site_type_symbol
_atom_site_label
_atom_site_fract_x
_atom_site_fract_y
_atom_site_fract_z
Si Si1 0.364280 0.802559 0.649958
Si Si2 0.318155 0.230076 0.480173
Si Si3 0.299467 0.225039 0.014883
Si Si4 0.054893 0.514513 0.249822
Si Si5 0.947953 0.711476 0.382911
Si Si6 0.581573 0.788824 0.840729
Si Si7 0.183796 0.241008 0.870580
O O1 0.658204 0.790846 0.604254
O O2 0.249155 0.644147 0.722986
O O3 0.172484 0.598879 0.608353
O O4 0.265009 0.093651 0.644491
O O5 0.500000 0.500000 0.500000
O O6 0.045090 0.215613 0.537267
O O7 0.500000 0.000000 0.500000
O O8 0.213447 0.196831 0.097543
O O9 0.500000 0.500000 0.000000
O O10 0.097793 0.216380 0.954075
O O11 0.500000 0.000000 0.000000
O O12 0.155620 0.688242 0.313056
O O13 0.034579 0.710582 0.183673
O O14 0.234123 0.279993 0.227878
O O15 0.377182 0.521255 0.861559
O O16 0.386345 0.023925 0.845403
#
# Coordination Sequence:
#
# PCOD9020278 Si02
#       7
#     2   2   2   2   2   2   2
#     4   8  16  26  45  71  99 129 169 205 245 303
#     4   8  12  24  40  66  94 126 168 202 236 296
#     4   8  16  35  52  71 100 134 172 211 246 303
#     4  10  22  32  56  78 110 132 172 214 262 308
#     4   8  16  26  45  71  99 129 169 205 245 303
#     4  10  22  36  55  77 105 138 173 212 259 305
#     4  10  22  36  55  77 105 138 173 212 259 305
#
# _framework density 29.593907000000002
#
# number of rings (size 3 to 8) (size 9 to 14) (size 15 to 20)
#    0.857    2.286    0.000    0.000    4.000    0.571 
#    0.000    0.000    0.000   10.286    0.000    8.000 
#    0.000    0.000    0.000    0.000    0.000    0.000 
#
# Total GULP energy -78167.908022 kJ/mol
# GULP energy per Si atom -5583.422002 kJ/mol
# Density = 2.952655 g / cm^3
# Si number density = 29.593907 Si / 1000 Ang^3
#
#
#
# Elastic Constant Matrix: (Units=GPa)
#
#
# Indices 1 2 3 4 5 6 
#
# 1 83.7566 44.4726 37.2517 2.1315 -10.8049 -22.2224
# 2 44.4726 219.6836 43.8603 6.7586 6.0931 7.9562
# 3 37.2517 43.8603 174.2156 8.0843 -19.3361 -18.2960
# 4 2.1315 6.7586 8.0843 59.3260 10.5029 -7.7170
# 5 -10.8049 6.0931 -19.3361 10.5029 47.2720 4.5726
# 6 -22.2224 7.9562 -18.2960 -7.7170 4.5726 33.3469
#
#
#
# Elastic Compliance Matrix: (Units=1/GPa)
#
#
# Indices 1 2 3 4 5 6 
#
# 1 0.018213 -0.003965 -0.001365 0.001097 0.002690 0.012219
# 2 -0.003965 0.005839 -0.001255 -0.000681 -0.001570 -0.004666
# 3 -0.001365 -0.001255 0.006959 -0.000879 0.002636 0.002643
# 4 0.001097 -0.000681 -0.000879 0.018532 -0.004655 0.005338
# 5 0.002690 -0.001570 0.002636 -0.004655 0.024159 -0.000777
# 6 0.012219 -0.004666 0.002643 0.005338 -0.000777 0.042036
#
#
# Mechanical properties :
#
#
# Convention : Reuss Voigt Hill
#
# Bulk Modulus (GPa) = 56.05368 80.98055 68.51712
# Shear Modulus (GPa) = 37.07689 51.46041 44.26865
#
# Velocity S-wave (km/s) = 3.54341 4.17452 3.87184
# Velocity P-wave (km/s) = 5.97688 7.11750 6.57198
#
# Compressibility (1/GPa) = 0.01784004
#
# Stress axis : x y z
#
# Youngs Moduli (GPa) = 54.90522 171.26992 143.70545
#
# Poissons Ratio (x) = 0.67915 0.19618
# Poissons Ratio (y) = 0.21772 0.18031
# Poissons Ratio (z) = 0.07496 0.21489
#
# Static dielectric constant tensor:
#      x y z
#    x 2.478420 0.118210 0.020200 
#    y 0.118210 2.166920 -0.004470 
#    z 0.020200 -0.004470 2.528570 
# 
# From -- ./inp_files/585695.got.cif
#   From: 2010.05.17/outbox.cif.g08.bks.cpg/sg2_293_cif.got.tgz:585695.got - 2010.06.03 11:33:40.
