data_PCOD9020024
_publ_section_title
;
Structure prediction by ZEFSAII (Michael W. Deem and Ramdas Pophale) SiO2 
 PCOD9020024
Probable space group: P -1
;
_chemical_formula_sum "Si O2"
_cell_formula_units_Z 12
_cell_length_a 9.896320
_cell_length_b 5.391352
_cell_length_c 8.631536
_cell_angle_alpha 75.547621
_cell_angle_beta 99.280462
_cell_angle_gamma 87.385981
_cell_volume 438.341434
_symmetry_space_group_name_H-M "P -1"
_symmetry_group_IT_number 2
_symmetry_cell_setting 'triclinic'
loop_
_space_group_symop_operation_xyz
x,y,z
-x,-y,-z
loop_
_atom_site_type_symbol
_atom_site_label
_atom_site_fract_x
_atom_site_fract_y
_atom_site_fract_z
Si Si1 0.140159 0.871154 0.346984
Si Si2 0.610759 0.786674 0.724607
Si Si3 0.979604 0.712399 0.093033
Si Si4 0.380945 0.265786 0.607973
Si Si5 0.684738 0.554716 0.102487
Si Si6 0.835936 0.091989 0.324494
O O1 0.178235 0.753508 0.539526
O O2 0.097041 0.660530 0.251681
O O3 0.256185 0.046142 0.284243
O O4 0.994500 0.041520 0.319261
O O5 0.483047 0.003559 0.667988
O O6 0.605362 0.631219 0.583018
O O7 0.617967 0.640878 0.913356
O O8 0.823871 0.700928 0.120130
O O9 0.000000 0.500000 0.000000
O O10 0.000000 0.000000 0.000000
O O11 0.229745 0.164996 0.601570
O O12 0.397710 0.393496 0.760049
O O13 0.745066 0.257211 0.158002
#
# Coordination Sequence:
#
# PCOD9020024 Si02
#       6
#     2   2   2   2   2   2
#     4  10  21  46  66 102 143 188 232 301 366 427
#     4  10  23  43  72  95 144 185 235 295 359 437
#     4  12  25  42  69 109 149 185 244 300 368 437
#     4  10  23  47  66  98 141 187 233 292 365 430
#     4  12  24  40  71 101 136 186 240 298 354 431
#     4  10  23  42  71 102 140 182 245 296 360 435
#
# _framework density 27.375923
#
# number of rings (size 3 to 8) (size 9 to 14) (size 15 to 20)
#    0.000    1.333    3.333    1.500    0.000    2.667 
#    0.000   10.833    0.000    0.000    0.000    0.000 
#    0.000    0.000    0.000    0.000    0.000    0.000 
#
# Total GULP energy -67226.743355 kJ/mol
# GULP energy per Si atom -5602.228613 kJ/mol
# Density = 2.731361 g / cm^3
# Si number density = 27.375923 Si / 1000 Ang^3
#
#
#
# Elastic Constant Matrix: (Units=GPa)
#
#
# Indices 1 2 3 4 5 6 
#
# 1 127.1413 25.3000 57.6734 10.2289 -16.2371 15.7747
# 2 25.3000 102.9068 67.9263 16.9029 -8.7159 -2.6507
# 3 57.6734 67.9263 254.7577 17.2919 2.0052 -10.0543
# 4 10.2289 16.9029 17.2919 65.2812 2.1411 7.8794
# 5 -16.2371 -8.7159 2.0052 2.1411 56.3579 0.8914
# 6 15.7747 -2.6507 -10.0543 7.8794 0.8914 36.5023
#
#
#
# Elastic Compliance Matrix: (Units=1/GPa)
#
#
# Indices 1 2 3 4 5 6 
#
# 1 0.010083 -0.000820 -0.002270 -0.000252 0.002948 -0.005059
# 2 -0.000820 0.012454 -0.002944 -0.002491 0.001874 0.000940
# 3 -0.002270 -0.002944 0.005366 -0.000550 -0.001317 0.002396
# 4 -0.000252 -0.002491 -0.000550 0.016639 -0.001011 -0.003790
# 5 0.002948 0.001874 -0.001317 -0.001011 0.018996 -0.001747
# 6 -0.005059 0.000940 0.002396 -0.003790 -0.001747 0.031171
#
#
# Mechanical properties :
#
#
# Convention : Reuss Voigt Hill
#
# Bulk Modulus (GPa) = 63.14419 87.40058 75.27238
# Shear Modulus (GPa) = 44.62107 53.88868 49.25488
#
# Velocity S-wave (km/s) = 4.04163 4.44156 4.24630
# Velocity P-wave (km/s) = 6.70040 7.63535 7.18310
#
# Compressibility (1/GPa) = 0.01583677
#
# Stress axis : x y z
#
# Youngs Moduli (GPa) = 99.18108 80.29338 186.35035
#
# Poissons Ratio (x) = 0.06582 0.42296
# Poissons Ratio (y) = 0.08131 0.54855
# Poissons Ratio (z) = 0.22511 0.23636
#
# Static dielectric constant tensor:
#      x y z
#    x 2.116550 -0.014360 -0.003480 
#    y -0.014360 2.145680 0.075400 
#    z -0.003480 0.075400 2.247620 
# 
# From -- ./inp_files/228140.got.cif
#   From: 2010.05.17/outbox.cif.g08.bks.cpg/sg2_115_cif.got.tgz:228140.got - 2010.06.03 11:33:40.
