data_PCOD9020142
_publ_section_title
;
Structure prediction by ZEFSAII (Michael W. Deem and Ramdas Pophale) SiO2 
 PCOD9020142
Probable space group: P -1
;
_chemical_formula_sum "Si O2"
_cell_formula_units_Z 16
_cell_length_a 14.867196
_cell_length_b 9.142926
_cell_length_c 9.271676
_cell_angle_alpha 36.197126
_cell_angle_beta 81.064364
_cell_angle_gamma 62.963672
_cell_volume 607.004713
_symmetry_space_group_name_H-M "P -1"
_symmetry_group_IT_number 2
_symmetry_cell_setting 'triclinic'
loop_
_space_group_symop_operation_xyz
x,y,z
-x,-y,-z
loop_
_atom_site_type_symbol
_atom_site_label
_atom_site_fract_x
_atom_site_fract_y
_atom_site_fract_z
Si Si1 0.480396 0.902562 0.234778
Si Si2 0.416374 0.402331 0.074425
Si Si3 0.979778 0.335339 0.321656
Si Si4 0.874137 0.467200 0.942509
Si Si5 0.759913 0.372163 0.829224
Si Si6 0.311611 0.775913 0.291498
Si Si7 0.943624 0.311462 0.670014
Si Si8 0.776039 0.106921 0.474130
O O1 0.364148 0.947892 0.198099
O O2 0.581567 0.557784 0.501188
O O3 0.474295 0.092572 0.220434
O O4 0.500000 0.000000 0.000000
O O5 0.356454 0.430838 0.217183
O O6 0.500000 0.500000 0.000000
O O7 0.319138 0.629274 0.807246
O O8 0.941944 0.273351 0.528160
O O9 0.904894 0.957423 0.528956
O O10 0.020835 0.561190 0.137596
O O11 0.895474 0.456365 0.115032
O O12 0.840802 0.266480 0.032061
O O13 0.773828 0.815403 0.669732
O O14 0.756572 0.142201 0.905072
O O15 0.817370 0.495819 0.616691
O O16 0.246573 0.790508 0.436771
O O17 0.000000 0.500000 0.500000
O O18 0.000000 0.000000 0.000000
#
# Coordination Sequence:
#
# PCOD9020142 Si02
#       8
#     2   2   2   2   2   2   2   2
#     4  11  24  49  73 105 155 206 277 341 428 492
#     4  12  27  46  79 119 166 216 280 363 432 519
#     4   9  21  46  82 113 168 219 277 352 426 515
#     4   9  21  45  77 114 164 215 286 346 424 512
#     4  12  27  45  74 120 155 222 279 345 437 505
#     4  11  26  45  74 110 151 215 272 342 408 517
#     4  12  26  50  79 121 172 220 286 362 434 521
#     4  10  21  46  73 111 152 212 271 327 432 505
#
# _framework density 26.35894
#
# number of rings (size 3 to 8) (size 9 to 14) (size 15 to 20)
#    0.750    0.500    2.500    2.250    3.500    3.500 
#    4.500    1.875    0.000    0.000    0.000    0.000 
#    0.000    0.000    0.000    0.000    0.000    0.000 
#
# Total GULP energy -89334.612572 kJ/mol
# GULP energy per Si atom -5583.413286 kJ/mol
# Density = 2.629895 g / cm^3
# Si number density = 26.358940 Si / 1000 Ang^3
#
#
#
# Elastic Constant Matrix: (Units=GPa)
#
#
# Indices 1 2 3 4 5 6 
#
# 1 148.7596 84.9219 39.3275 16.4072 -22.0636 3.8640
# 2 84.9219 208.6569 53.5566 45.9227 -12.3003 1.1233
# 3 39.3275 53.5566 115.8154 26.2794 3.8925 -2.8170
# 4 16.4072 45.9227 26.2794 54.3128 -4.1262 -9.6110
# 5 -22.0636 -12.3003 3.8925 -4.1262 48.7660 7.1543
# 6 3.8640 1.1233 -2.8170 -9.6110 7.1543 54.9213
#
#
#
# Elastic Compliance Matrix: (Units=1/GPa)
#
#
# Indices 1 2 3 4 5 6 
#
# 1 0.009728 -0.003414 -0.002131 0.001094 0.003957 -0.001048
# 2 -0.003414 0.007607 -0.001268 -0.004927 0.000186 -0.000867
# 3 -0.002131 -0.001268 0.010870 -0.003661 -0.002523 0.000422
# 4 0.001094 -0.004927 -0.003661 0.024813 0.001051 0.004041
# 5 0.003957 0.000186 -0.002523 0.001051 0.023108 -0.003238
# 6 -0.001048 -0.000867 0.000422 0.004041 -0.003238 0.019450
#
#
# Mechanical properties :
#
#
# Convention : Reuss Voigt Hill
#
# Bulk Modulus (GPa) = 68.59308 92.09375 80.34341
# Shear Modulus (GPa) = 43.83503 51.29507 47.56505
#
# Velocity S-wave (km/s) = 4.08242 4.41616 4.25256
# Velocity P-wave (km/s) = 6.94987 7.81137 7.39318
#
# Compressibility (1/GPa) = 0.01457873
#
# Stress axis : x y z
#
# Youngs Moduli (GPa) = 102.79477 131.44958 91.99417
#
# Poissons Ratio (x) = 0.44880 0.19607
# Poissons Ratio (y) = 0.35096 0.11665
# Poissons Ratio (z) = 0.21909 0.16668
#
# Static dielectric constant tensor:
#      x y z
#    x 2.321330 -0.013280 -0.164300 
#    y -0.013280 2.142300 -0.043790 
#    z -0.164300 -0.043790 2.257510 
# 
# From -- ./inp_files/297269.got.cif
#   From: 2010.05.17/outbox.cif.g08.bks.cpg/sg2_149_cif.got.tgz:297269.got - 2010.06.03 11:33:40.
