data_PCOD9020812
_publ_section_title
;
Structure prediction by ZEFSAII (Michael W. Deem and Ramdas Pophale) SiO2 
 PCOD9020812
Probable space group: P -1
;
_chemical_formula_sum "Si O2"
_cell_formula_units_Z 16
_cell_length_a 30.523631
_cell_length_b 5.658401
_cell_length_c 9.772147
_cell_angle_alpha 105.375273
_cell_angle_beta 31.818245
_cell_angle_gamma 88.377245
_cell_volume 743.600690
_symmetry_space_group_name_H-M "P -1"
_symmetry_group_IT_number 2
_symmetry_cell_setting 'triclinic'
loop_
_space_group_symop_operation_xyz
x,y,z
-x,-y,-z
loop_
_atom_site_type_symbol
_atom_site_label
_atom_site_fract_x
_atom_site_fract_y
_atom_site_fract_z
Si Si1 0.269578 0.813770 0.239564
Si Si2 0.736737 0.199457 0.429098
Si Si3 0.540039 0.221956 0.945303
Si Si4 0.265200 0.492712 0.767167
Si Si5 0.789130 0.945485 0.834447
Si Si6 0.111594 0.332488 0.206680
Si Si7 0.461538 0.767555 0.741273
Si Si8 0.365205 0.216417 0.731196
O O1 0.246660 0.775188 0.450568
O O2 0.189531 0.020851 0.374868
O O3 0.347610 0.918157 0.061918
O O4 0.319774 0.510152 0.982218
O O5 0.655544 0.105264 0.618988
O O6 0.701371 0.474613 0.467633
O O7 0.834440 0.967621 0.061632
O O8 0.500000 0.500000 0.000000
O O9 0.510019 0.339802 0.196529
O O10 0.500000 0.000000 0.000000
O O11 0.337228 0.270481 0.653553
O O12 0.168799 0.477246 0.014774
O O13 0.236704 0.777026 0.969668
O O14 0.864585 0.704704 0.698831
O O15 0.690634 0.936881 0.093411
O O16 0.000000 0.500000 0.500000
O O17 0.500000 0.500000 0.500000
O O18 0.520350 0.929520 0.581675
#
# Coordination Sequence:
#
# PCOD9020812 Si02
#       8
#     2   2   2   2   2   2   2   2
#     4   9  19  36  49  82 116 156 198 243 307 360
#     4  10  22  37  59  87 123 161 198 260 312 370
#     4  11  25  41  62  93 135 175 221 267 324 380
#     4   9  19  35  60  81 115 146 200 247 311 366
#     4   9  19  34  57  81 112 152 193 248 307 368
#     4  10  22  40  64  90 111 150 206 259 320 380
#     4   9  19  37  53  83 121 167 218 257 305 371
#     4   9  17  33  56  77 109 156 204 243 293 359
#
# _framework density 21.516922000000001
#
# number of rings (size 3 to 8) (size 9 to 14) (size 15 to 20)
#    0.000    2.500    0.000    0.750    7.000    4.500 
#   11.250    0.625    0.000    7.500    0.000    0.000 
#    0.000    0.000    0.000    0.000    0.000    0.000 
#
# Total GULP energy -89141.167152 kJ/mol
# GULP energy per Si atom -5571.322947 kJ/mol
# Density = 2.146795 g / cm^3
# Si number density = 21.516922 Si / 1000 Ang^3
#
#
#
# Elastic Constant Matrix: (Units=GPa)
#
#
# Indices 1 2 3 4 5 6 
#
# 1 144.4990 37.4132 52.2729 -24.6161 50.6821 -26.6758
# 2 37.4132 58.0819 7.9535 -22.1561 15.4474 -9.6111
# 3 52.2729 7.9535 71.2663 -6.9935 12.6858 -15.2271
# 4 -24.6161 -22.1561 -6.9935 25.2937 -3.2569 9.2773
# 5 50.6821 15.4474 12.6858 -3.2569 42.6336 -15.4446
# 6 -26.6758 -9.6111 -15.2271 9.2773 -15.4446 39.7969
#
#
#
# Elastic Compliance Matrix: (Units=1/GPa)
#
#
# Indices 1 2 3 4 5 6 
#
# 1 0.019612 -0.001290 -0.009804 0.013318 -0.019487 -0.001584
# 2 -0.001290 0.028936 0.001065 0.024169 -0.008258 -0.002308
# 3 -0.009804 0.001065 0.020617 -0.003910 0.006675 0.005076
# 4 0.013318 0.024169 -0.003910 0.074384 -0.022363 -0.012751
# 5 -0.019487 -0.008258 0.006675 -0.022363 0.050358 0.012254
# 6 -0.001584 -0.002308 0.005076 -0.012751 0.012254 0.033179
#
#
# Mechanical properties :
#
#
# Convention : Reuss Voigt Hill
#
# Bulk Modulus (GPa) = 20.36330 52.12516 36.24423
# Shear Modulus (GPa) = 18.97442 33.29200 26.13321
#
# Velocity S-wave (km/s) = 2.97280 3.93777 3.48881
# Velocity P-wave (km/s) = 4.61170 6.70466 5.75414
#
# Compressibility (1/GPa) = 0.04910796
#
# Stress axis : x y z
#
# Youngs Moduli (GPa) = 50.98841 34.55913 48.50379
#
# Poissons Ratio (x) = 0.04457 0.47554
# Poissons Ratio (y) = 0.06576 -0.05167
# Poissons Ratio (z) = 0.49990 -0.03682
#
# Static dielectric constant tensor:
#      x y z
#    x 1.844180 -0.041960 0.028860 
#    y -0.041960 1.874830 0.001760 
#    z 0.028860 0.001760 1.804830 
# 
# From -- ./inp_files/51021.got.cif
#   From: 2010.05.17/outbox.cif.g08.bks.cpg/sg2_26_cif.got.tgz:51021.got - 2010.06.03 11:33:40.
