data_PCOD9020259
_publ_section_title
;
Structure prediction by ZEFSAII (Michael W. Deem and Ramdas Pophale) SiO2 
 PCOD9020259
Probable space group: P -1
;
_chemical_formula_sum "Si O2"
_cell_formula_units_Z 14
_cell_length_a 16.066078
_cell_length_b 8.389950
_cell_length_c 5.241148
_cell_angle_alpha 95.498654
_cell_angle_beta 81.298784
_cell_angle_gamma 52.807076
_cell_volume 540.341065
_symmetry_space_group_name_H-M "P -1"
_symmetry_group_IT_number 2
_symmetry_cell_setting 'triclinic'
loop_
_space_group_symop_operation_xyz
x,y,z
-x,-y,-z
loop_
_atom_site_type_symbol
_atom_site_label
_atom_site_fract_x
_atom_site_fract_y
_atom_site_fract_z
Si Si1 0.191877 0.849205 0.996401
Si Si2 0.171230 0.357075 0.469813
Si Si3 0.444150 0.993912 0.775350
Si Si4 0.271837 0.918925 0.485664
Si Si5 0.492555 0.693248 0.082225
Si Si6 0.952988 0.688642 0.861383
Si Si7 0.708414 0.583717 0.215577
O O1 0.269851 0.815749 0.724789
O O2 0.196076 0.650773 0.948808
O O3 0.230152 0.859971 0.260198
O O4 0.085805 0.084811 0.023942
O O5 0.147004 0.287043 0.214847
O O6 0.260072 0.386416 0.510963
O O7 0.056030 0.579692 0.607410
O O8 0.197856 0.164914 0.594674
O O9 0.399349 0.381954 0.826974
O O10 0.323918 0.208823 0.868049
O O11 0.500000 0.000000 0.500000
O O12 0.500000 0.000000 0.000000
O O13 0.386942 0.850933 0.329628
O O14 0.467574 0.787931 0.821115
O O15 0.500000 0.500000 0.000000
O O16 0.000000 0.500000 0.000000
#
# Coordination Sequence:
#
# PCOD9020259 Si02
#       7
#     2   2   2   2   2   2   2
#     4  11  25  46  74 108 147 193 252 311 377 451
#     4  10  24  43  76 104 141 192 248 316 379 451
#     4  10  26  46  68 103 151 201 246 306 366 431
#     4  11  25  45  73 107 146 203 252 295 376 451
#     4  11  25  47  76 108 159 209 253 301 372 454
#     4  10  21  48  75 102 138 193 250 311 392 455
#     4  11  26  44  70 112 152 191 251 313 369 444
#
# _framework density 25.909559999999999
#
# number of rings (size 3 to 8) (size 9 to 14) (size 15 to 20)
#    0.000    1.429    2.857    0.000    8.000    1.143 
#    5.143    0.714    0.000    0.000    0.000    0.000 
#    0.000    0.000    0.000    0.000    0.000    0.000 
#
# Total GULP energy -77970.306073 kJ/mol
# GULP energy per Si atom -5569.307577 kJ/mol
# Density = 2.585059 g / cm^3
# Si number density = 25.909560 Si / 1000 Ang^3
#
#
#
# Elastic Constant Matrix: (Units=GPa)
#
#
# Indices 1 2 3 4 5 6 
#
# 1 83.4168 32.0708 31.6439 -3.0062 13.9315 -9.5335
# 2 32.0708 216.5931 62.0368 22.2126 3.9814 4.8782
# 3 31.6439 62.0368 116.4298 -4.4423 15.8987 5.0787
# 4 -3.0062 22.2126 -4.4423 53.7649 -2.7560 -0.6824
# 5 13.9315 3.9814 15.8987 -2.7560 58.7295 2.4399
# 6 -9.5335 4.8782 5.0787 -0.6824 2.4399 30.1891
#
#
#
# Elastic Compliance Matrix: (Units=1/GPa)
#
#
# Indices 1 2 3 4 5 6 
#
# 1 0.014894 -0.001523 -0.003062 0.001139 -0.002785 0.005716
# 2 -0.001523 0.005975 -0.002919 -0.002775 0.000661 -0.001071
# 3 -0.003062 -0.002919 0.011415 0.001848 -0.001987 -0.002213
# 4 0.001139 -0.002775 0.001848 0.019990 0.000317 0.000923
# 5 -0.002785 0.000661 -0.001987 0.000317 0.018284 -0.002123
# 6 0.005716 -0.001071 -0.002213 0.000923 -0.002123 0.035667
#
#
# Mechanical properties :
#
#
# Convention : Reuss Voigt Hill
#
# Bulk Modulus (GPa) = 57.88323 74.21585 66.04954
# Shear Modulus (GPa) = 39.37221 47.91593 43.64407
#
# Velocity S-wave (km/s) = 3.90244 4.30508 4.10869
# Velocity P-wave (km/s) = 6.53409 7.30876 6.93225
#
# Compressibility (1/GPa) = 0.01727616
#
# Stress axis : x y z
#
# Youngs Moduli (GPa) = 67.13905 167.36258 87.60399
#
# Poissons Ratio (x) = 0.25482 0.26828
# Poissons Ratio (y) = 0.10222 0.25573
# Poissons Ratio (z) = 0.20561 0.48856
#
# Static dielectric constant tensor:
#      x y z
#    x 2.094980 0.053050 -0.003650 
#    y 0.053050 2.421300 0.083180 
#    z -0.003650 0.083180 2.250060 
# 
# From -- ./inp_files/117395.got.cif
#   From: 2010.05.17/outbox.cif.g08.bks.cpg/sg2_59_cif.got.tgz:117395.got - 2010.06.03 11:33:40.
