data_PCOD9020643
_publ_section_title
;
Structure prediction by ZEFSAII (Michael W. Deem and Ramdas Pophale) SiO2 
 PCOD9020643
Probable space group: P -1
;
_chemical_formula_sum "Si O2"
_cell_formula_units_Z 14
_cell_length_a 13.590189
_cell_length_b 15.224359
_cell_length_c 9.579065
_cell_angle_alpha 38.230619
_cell_angle_beta 141.302062
_cell_angle_gamma 150.715209
_cell_volume 569.410462
_symmetry_space_group_name_H-M "P -1"
_symmetry_group_IT_number 2
_symmetry_cell_setting 'triclinic'
loop_
_space_group_symop_operation_xyz
x,y,z
-x,-y,-z
loop_
_atom_site_type_symbol
_atom_site_label
_atom_site_fract_x
_atom_site_fract_y
_atom_site_fract_z
Si Si1 0.646832 0.750878 0.368242
Si Si2 0.628271 0.671120 0.133058
Si Si3 0.039532 0.822710 0.741699
Si Si4 0.466019 0.665098 0.687345
Si Si5 0.406291 0.964682 0.592964
Si Si6 0.086715 0.983061 0.283785
Si Si7 0.338666 0.784980 0.029118
O O1 0.583828 0.655846 0.265705
O O2 0.802632 0.727470 0.637898
O O3 0.799224 0.983447 0.231385
O O4 0.440352 0.692740 0.286668
O O5 0.659199 0.529376 0.289897
O O6 0.460158 0.637250 0.882759
O O7 0.855694 0.885996 0.101074
O O8 0.117213 0.707883 0.946583
O O9 0.064801 0.905065 0.512073
O O10 0.717577 0.790453 0.776451
O O11 0.445461 0.819970 0.443827
O O12 0.361244 0.819977 0.841635
O O13 0.500000 0.000000 0.500000
O O14 0.182545 0.909005 0.397066
O O15 0.500000 0.000000 0.000000
#
# Coordination Sequence:
#
# PCOD9020643 Si02
#       7
#     2   2   2   2   2   2   2
#     4   9  16  26  50  75  93 128 177 195 251 310
#     4  10  17  31  47  75  95 137 163 207 258 304
#     4   8  15  29  45  75  96 124 167 211 240 299
#     4   9  19  29  48  69 105 125 171 208 249 306
#     4   9  17  30  47  72  98 132 171 212 250 303
#     4   8  17  30  49  66 100 131 162 204 258 292
#     4   9  16  28  48  72 100 133 166 209 257 299
#
# _framework density 24.586834
#
# number of rings (size 3 to 8) (size 9 to 14) (size 15 to 20)
#    0.857    2.286    0.000    1.286    0.000    0.000 
#    0.000    1.429    0.000    1.714    0.000   14.000 
#    0.000    0.000    0.000    0.000    0.000    0.000 
#
# Total GULP energy -77948.896468 kJ/mol
# GULP energy per Si atom -5567.778319 kJ/mol
# Density = 2.453087 g / cm^3
# Si number density = 24.586834 Si / 1000 Ang^3
#
#
#
# Elastic Constant Matrix: (Units=GPa)
#
#
# Indices 1 2 3 4 5 6 
#
# 1 117.9907 31.9857 30.8348 14.2954 27.7717 -18.5302
# 2 31.9857 77.5060 17.2888 -3.9080 4.7957 -11.4518
# 3 30.8348 17.2888 82.1767 11.9425 19.9916 3.7039
# 4 14.2954 -3.9080 11.9425 24.5343 -0.8933 -0.7989
# 5 27.7717 4.7957 19.9916 -0.8933 49.5421 3.9138
# 6 -18.5302 -11.4518 3.7039 -0.7989 3.9138 35.4023
#
#
#
# Elastic Compliance Matrix: (Units=1/GPa)
#
#
# Indices 1 2 3 4 5 6 
#
# 1 0.013802 -0.004301 -0.001629 -0.007985 -0.007331 0.006633
# 2 -0.004301 0.016148 -0.003452 0.006942 0.002109 0.003257
# 3 -0.001629 -0.003452 0.016009 -0.007685 -0.005094 -0.003254
# 4 -0.007985 0.006942 -0.007685 0.050518 0.007884 -0.000862
# 5 -0.007331 0.002109 -0.005094 0.007884 0.026715 -0.005398
# 6 0.006633 0.003257 -0.003254 -0.000862 -0.005398 0.033690
#
#
# Mechanical properties :
#
#
# Convention : Reuss Voigt Hill
#
# Bulk Modulus (GPa) = 36.77203 48.65467 42.71335
# Shear Modulus (GPa) = 27.06941 35.06668 31.06805
#
# Velocity S-wave (km/s) = 3.32169 3.78065 3.55858
# Velocity P-wave (km/s) = 5.44977 6.23616 5.85618
#
# Compressibility (1/GPa) = 0.02719458
#
# Stress axis : x y z
#
# Youngs Moduli (GPa) = 72.45481 61.92695 62.46417
#
# Poissons Ratio (x) = 0.26637 0.10175
# Poissons Ratio (y) = 0.31165 0.21562
# Poissons Ratio (z) = 0.11802 0.21377
#
# Static dielectric constant tensor:
#      x y z
#    x 2.023730 0.008600 0.010820 
#    y 0.008600 1.969540 0.033030 
#    z 0.010820 0.033030 2.049790 
# 
# From -- ./inp_files/454535.got.cif
#   From: 2010.05.17/outbox.cif.g08.bks.cpg/sg2_228_cif.got.tgz:454535.got - 2010.06.03 11:33:40.
