data_PCOD9020962
_publ_section_title
;
Structure prediction by ZEFSAII (Michael W. Deem and Ramdas Pophale) SiO2 
 PCOD9020962
Probable space group: P -1
;
_chemical_formula_sum "Si O2"
_cell_formula_units_Z 16
_cell_length_a 10.650610
_cell_length_b 8.361171
_cell_length_c 21.595146
_cell_angle_alpha 101.289900
_cell_angle_beta 149.650351
_cell_angle_gamma 97.396270
_cell_volume 761.763387
_symmetry_space_group_name_H-M "P -1"
_symmetry_group_IT_number 2
_symmetry_cell_setting 'triclinic'
loop_
_space_group_symop_operation_xyz
x,y,z
-x,-y,-z
loop_
_atom_site_type_symbol
_atom_site_label
_atom_site_fract_x
_atom_site_fract_y
_atom_site_fract_z
Si Si1 0.667304 0.184501 0.228156
Si Si2 0.561347 0.842971 0.538190
Si Si3 0.778100 0.365795 0.496901
Si Si4 0.139346 0.883013 0.819968
Si Si5 0.711166 0.447572 0.832252
Si Si6 0.452230 0.018359 0.706228
Si Si7 0.682062 0.518023 0.688079
Si Si8 0.879597 0.837830 0.991485
O O1 0.845023 0.163011 0.248465
O O2 0.344641 0.135782 0.062496
O O3 0.894406 0.421470 0.359888
O O4 0.593828 0.045331 0.246090
O O5 0.311116 0.705216 0.475189
O O6 0.500802 0.689212 0.445540
O O7 0.907561 0.949167 0.722440
O O8 0.500000 0.000000 0.500000
O O9 0.528169 0.408621 0.376967
O O10 0.751791 0.187199 0.435074
O O11 0.949697 0.688981 0.769915
O O12 0.500000 0.000000 0.000000
O O13 0.437635 0.206567 0.704409
O O14 0.797131 0.492691 0.800168
O O15 0.675347 0.613602 0.857360
O O16 0.000000 0.500000 0.000000
O O17 0.805727 0.109723 0.842512
O O18 0.000000 0.000000 0.000000
#
# Coordination Sequence:
#
# PCOD9020962 Si02
#       8
#     2   2   2   2   2   2   2   2
#     4  11  21  41  60  94 129 164 231 267 320 400
#     4  11  23  45  68  96 136 175 222 276 343 401
#     4  11  21  41  66  94 122 177 230 265 326 405
#     4  11  25  41  70 102 128 176 225 278 327 404
#     4  10  22  40  61  96 130 168 217 276 337 387
#     4  10  22  37  63  91 130 171 212 278 336 383
#     4  11  21  43  67  90 131 176 224 268 330 411
#     4   9  20  37  62  86 122 171 212 262 319 396
#
# _framework density 21.003895
#
# number of rings (size 3 to 8) (size 9 to 14) (size 15 to 20)
#    0.000    1.500    2.500    3.375    8.750    0.000 
#    2.250    1.875    0.000    0.000    0.000    0.000 
#    0.000    0.000    0.000    0.000    0.000    0.000 
#
# Total GULP energy -89207.637201 kJ/mol
# GULP energy per Si atom -5575.477325 kJ/mol
# Density = 2.095609 g / cm^3
# Si number density = 21.003895 Si / 1000 Ang^3
#
#
#
# Elastic Constant Matrix: (Units=GPa)
#
#
# Indices 1 2 3 4 5 6 
#
# 1 84.2792 40.7801 19.1753 -10.9924 6.0070 14.1817
# 2 40.7801 131.6870 35.4981 3.8903 3.3866 3.0854
# 3 19.1753 35.4981 74.6786 -4.9655 14.3349 1.4398
# 4 -10.9924 3.8903 -4.9655 28.8134 2.0975 -10.7337
# 5 6.0070 3.3866 14.3349 2.0975 39.8771 -0.2979
# 6 14.1817 3.0854 1.4398 -10.7337 -0.2979 30.4403
#
#
#
# Elastic Compliance Matrix: (Units=1/GPa)
#
#
# Indices 1 2 3 4 5 6 
#
# 1 0.015994 -0.004613 -0.001136 0.004695 -0.001896 -0.005293
# 2 -0.004613 0.010250 -0.004254 -0.004025 0.001565 -0.000093
# 3 -0.001136 -0.004254 0.017060 0.004075 -0.005803 0.001534
# 4 0.004695 -0.004025 0.004075 0.042922 -0.003990 0.013124
# 5 -0.001896 0.001565 -0.005803 -0.003990 0.027525 -0.000138
# 6 -0.005293 -0.000093 0.001534 0.013124 -0.000138 0.039880
#
#
# Mechanical properties :
#
#
# Convention : Reuss Voigt Hill
#
# Bulk Modulus (GPa) = 42.92188 53.50576 48.21382
# Shear Modulus (GPa) = 27.56309 32.83890 30.20099
#
# Velocity S-wave (km/s) = 3.62648 3.95836 3.79605
# Velocity P-wave (km/s) = 6.16560 6.81330 6.49753
#
# Compressibility (1/GPa) = 0.02329814
#
# Stress axis : x y z
#
# Youngs Moduli (GPa) = 62.52418 97.56366 58.61721
#
# Poissons Ratio (x) = 0.45002 0.06659
# Poissons Ratio (y) = 0.28840 0.24936
# Poissons Ratio (z) = 0.07103 0.41503
#
# Static dielectric constant tensor:
#      x y z
#    x 1.760190 -0.057100 -0.007340 
#    y -0.057100 1.794930 -0.019690 
#    z -0.007340 -0.019690 1.845660 
# 
# From -- ./inp_files/609844.got.cif
#   From: 2010.05.17/outbox.cif.g08.bks.cpg/sg2_305_cif.got.tgz:609844.got - 2010.06.03 11:33:40.
