data_PCOD9020833
_publ_section_title
;
Structure prediction by ZEFSAII (Michael W. Deem and Ramdas Pophale) SiO2 
 PCOD9020833
Probable space group: P -1
;
_chemical_formula_sum "Si O2"
_cell_formula_units_Z 10
_cell_length_a 11.462148
_cell_length_b 6.516489
_cell_length_c 7.146955
_cell_angle_alpha 117.285968
_cell_angle_beta 51.302302
_cell_angle_gamma 108.495561
_cell_volume 369.909136
_symmetry_space_group_name_H-M "P -1"
_symmetry_group_IT_number 2
_symmetry_cell_setting 'triclinic'
loop_
_space_group_symop_operation_xyz
x,y,z
-x,-y,-z
loop_
_atom_site_type_symbol
_atom_site_label
_atom_site_fract_x
_atom_site_fract_y
_atom_site_fract_z
Si Si1 0.060395 0.443050 0.120856
Si Si2 0.765336 0.414946 0.660342
Si Si3 0.342324 0.088661 0.110312
Si Si4 0.290285 0.230704 0.606904
Si Si5 0.628375 0.239400 0.384219
O O1 0.918256 0.425574 0.390545
O O2 0.680287 0.499370 0.378184
O O3 0.000000 0.500000 0.000000
O O4 0.155360 0.220918 0.884426
O O5 0.670011 0.647556 0.840106
O O6 0.671437 0.227096 0.554186
O O7 0.819156 0.398780 0.813504
O O8 0.247510 0.101144 0.402285
O O9 0.500000 0.000000 0.000000
O O10 0.302810 0.927388 0.907510
O O11 0.450902 0.202510 0.527175
#
# Coordination Sequence:
#
# PCOD9020833 Si02
#       5
#     2   2   2   2   2
#     4  11  20  39  60  77 116 153 180 227 280 325
#     4  10  22  37  60  82 110 150 185 226 277 327
#     4   9  17  34  58  84 114 141 178 236 276 319
#     4   9  18  34  58  81 111 148 180 227 279 320
#     4   9  17  34  58  84 108 141 189 229 269 328
#
# _framework density 27.033664000000002
#
# number of rings (size 3 to 8) (size 9 to 14) (size 15 to 20)
#    0.000    2.400    4.000    1.200    0.000    0.800 
#    0.000   14.000    0.000    0.000    0.000    0.000 
#    0.000    0.000    0.000    0.000    0.000    0.000 
#
# Total GULP energy -55841.973417 kJ/mol
# GULP energy per Si atom -5584.197342 kJ/mol
# Density = 2.697213 g / cm^3
# Si number density = 27.033664 Si / 1000 Ang^3
#
#
#
# Elastic Constant Matrix: (Units=GPa)
#
#
# Indices 1 2 3 4 5 6 
#
# 1 218.1606 49.6313 81.8092 3.8396 50.3329 -25.5481
# 2 49.6313 68.7324 27.6264 -1.0576 5.4221 -16.2263
# 3 81.8092 27.6264 206.2710 0.9273 39.0044 -2.6540
# 4 3.8396 -1.0576 0.9273 31.3496 8.5092 18.2388
# 5 50.3329 5.4221 39.0044 8.5092 75.0635 -9.8430
# 6 -25.5481 -16.2263 -2.6540 18.2388 -9.8430 35.4958
#
#
#
# Elastic Compliance Matrix: (Units=1/GPa)
#
#
# Indices 1 2 3 4 5 6 
#
# 1 0.007186 -0.003329 -0.001807 -0.002511 -0.002827 0.004022
# 2 -0.003329 0.019876 -0.001915 -0.006233 0.003919 0.010836
# 3 -0.001807 -0.001915 0.006285 0.003104 -0.002802 -0.004078
# 4 -0.002511 -0.006233 0.003104 0.055662 -0.010501 -0.035938
# 5 -0.002827 0.003919 -0.002802 -0.010501 0.018917 0.010189
# 6 0.004022 0.010836 -0.004078 -0.035938 0.010189 0.057007
#
#
# Mechanical properties :
#
#
# Convention : Reuss Voigt Hill
#
# Bulk Modulus (GPa) = 51.96242 90.14419 71.05331
# Shear Modulus (GPa) = 26.96146 50.65493 38.80820
#
# Velocity S-wave (km/s) = 3.16148 4.33341 3.79298
# Velocity P-wave (km/s) = 5.70874 7.64561 6.74704
#
# Compressibility (1/GPa) = 0.01924468
#
# Stress axis : x y z
#
# Youngs Moduli (GPa) = 139.15884 50.31161 159.12132
#
# Poissons Ratio (x) = 0.16749 0.28746
# Poissons Ratio (y) = 0.46327 0.30478
# Poissons Ratio (z) = 0.25139 0.09637
#
# Static dielectric constant tensor:
#      x y z
#    x 2.124280 -0.056490 -0.059140 
#    y -0.056490 2.301920 0.073740 
#    z -0.059140 0.073740 2.136570 
# 
# From -- ./inp_files/246230.got.cif
#   From: 2010.05.17/outbox.cif.g08.bks.cpg/sg2_124_cif.got.tgz:246230.got - 2010.06.03 11:33:40.
