data_PCOD9020485
_publ_section_title
;
Structure prediction by ZEFSAII (Michael W. Deem and Ramdas Pophale) SiO2 
 PCOD9020485
Probable space group: P -1
;
_chemical_formula_sum "Si O2"
_cell_formula_units_Z 16
_cell_length_a 6.329481
_cell_length_b 14.804449
_cell_length_c 9.025798
_cell_angle_alpha 103.062473
_cell_angle_beta 60.478425
_cell_angle_gamma 101.990800
_cell_volume 712.259936
_symmetry_space_group_name_H-M "P -1"
_symmetry_group_IT_number 2
_symmetry_cell_setting 'triclinic'
loop_
_space_group_symop_operation_xyz
x,y,z
-x,-y,-z
loop_
_atom_site_type_symbol
_atom_site_label
_atom_site_fract_x
_atom_site_fract_y
_atom_site_fract_z
Si Si1 0.379207 0.501793 0.381574
Si Si2 0.130567 0.306784 0.398968
Si Si3 0.970079 0.145540 0.189737
Si Si4 0.374074 0.763424 0.842807
Si Si5 0.783350 0.419228 0.027425
Si Si6 0.237357 0.960590 0.487997
Si Si7 0.325915 0.676126 0.282512
Si Si8 0.447655 0.152588 0.873120
O O1 0.500000 0.500000 0.500000
O O2 0.155620 0.419246 0.427675
O O3 0.548829 0.462194 0.184818
O O4 0.364220 0.607713 0.378849
O O5 0.393419 0.273887 0.330645
O O6 0.061896 0.252266 0.250560
O O7 0.917039 0.276427 0.576858
O O8 0.728467 0.158235 0.188490
O O9 0.907763 0.090988 0.341969
O O10 0.174226 0.111367 0.997996
O O11 0.192058 0.671386 0.913301
O O12 0.446555 0.808040 0.992625
O O13 0.736594 0.385609 0.864129
O O14 0.000000 0.500000 0.000000
O O15 0.370230 0.910565 0.290593
O O16 0.500000 0.000000 0.500000
O O17 0.000000 0.000000 0.500000
O O18 0.544181 0.756142 0.202227
#
# Coordination Sequence:
#
# PCOD9020485 Si02
#       8
#     2   2   2   2   2   2   2   2
#     4  11  24  37  59  96 138 196 250 303 361 421
#     4  10  22  40  66  97 144 188 250 295 362 426
#     4  11  25  48  78 106 149 193 238 316 367 460
#     4   9  23  42  70 101 143 194 241 298 368 434
#     4  10  22  36  56  94 136 188 246 297 354 422
#     4  12  31  54  84 119 151 194 246 315 393 472
#     4  11  22  41  65  95 142 190 243 303 357 440
#     4  10  25  48  73 113 144 196 242 298 384 450
#
# _framework density 22.463712000000001
#
# number of rings (size 3 to 8) (size 9 to 14) (size 15 to 20)
#    0.000    1.500    1.250    2.250   12.250    1.000 
#    2.250    0.000    0.000    0.000    0.000    0.000 
#    0.000    0.000    0.000    0.000    0.000    0.000 
#
# Total GULP energy -89134.703462 kJ/mol
# GULP energy per Si atom -5570.918966 kJ/mol
# Density = 2.241258 g / cm^3
# Si number density = 22.463712 Si / 1000 Ang^3
#
#
#
# Elastic Constant Matrix: (Units=GPa)
#
#
# Indices 1 2 3 4 5 6 
#
# 1 76.3078 55.4123 49.5454 -16.0169 -5.6323 -20.0724
# 2 55.4123 70.5163 43.8991 -20.6815 -4.7773 -25.3263
# 3 49.5454 43.8991 152.8909 -1.4170 -28.0631 -18.7838
# 4 -16.0169 -20.6815 -1.4170 42.2227 -2.6556 6.5910
# 5 -5.6323 -4.7773 -28.0631 -2.6556 34.1775 -4.3676
# 6 -20.0724 -25.3263 -18.7838 6.5910 -4.3676 35.4887
#
#
#
# Elastic Compliance Matrix: (Units=1/GPa)
#
#
# Indices 1 2 3 4 5 6 
#
# 1 0.032387 -0.022807 -0.004251 0.000974 -0.001336 -0.000553
# 2 -0.022807 0.041563 -0.002201 0.009599 0.002799 0.014159
# 3 -0.004251 -0.002201 0.010273 -0.002309 0.007609 0.002827
# 4 0.000974 0.009599 -0.002309 0.028629 0.001972 0.001105
# 5 -0.001336 0.002799 0.007609 0.001972 0.037040 0.009461
# 6 -0.000553 0.014159 0.002827 0.001105 0.009461 0.040425
#
#
# Mechanical properties :
#
#
# Convention : Reuss Voigt Hill
#
# Bulk Modulus (GPa) = 38.90304 66.38096 52.64200
# Shear Modulus (GPa) = 19.42479 32.43499 25.92989
#
# Velocity S-wave (km/s) = 2.94380 3.80397 3.40119
# Velocity P-wave (km/s) = 5.37684 6.99343 6.23772
#
# Compressibility (1/GPa) = 0.02570493
#
# Stress axis : x y z
#
# Youngs Moduli (GPa) = 30.87662 24.05967 97.34651
#
# Poissons Ratio (x) = 0.54873 0.41381
# Poissons Ratio (y) = 0.70421 0.21425
# Poissons Ratio (z) = 0.13125 0.05295
#
# Static dielectric constant tensor:
#      x y z
#    x 1.829030 -0.042470 -0.013670 
#    y -0.042470 1.897820 -0.000530 
#    z -0.013670 -0.000530 1.792430 
# 
# From -- ./inp_files/135474.got.cif
#   From: 2010.05.17/outbox.cif.g08.bks.cpg/sg2_68_cif.got.tgz:135474.got - 2010.06.03 11:33:40.
