data_PCOD9020519
_publ_section_title
;
Structure prediction by ZEFSAII (Michael W. Deem and Ramdas Pophale) SiO2 
 PCOD9020519
Probable space group: P -1
;
_chemical_formula_sum "Si O2"
_cell_formula_units_Z 16
_cell_length_a 5.268423
_cell_length_b 14.381399
_cell_length_c 13.059598
_cell_angle_alpha 90.006435
_cell_angle_beta 100.535420
_cell_angle_gamma 125.724054
_cell_volume 782.652515
_symmetry_space_group_name_H-M "P -1"
_symmetry_group_IT_number 2
_symmetry_cell_setting 'triclinic'
loop_
_space_group_symop_operation_xyz
x,y,z
-x,-y,-z
loop_
_atom_site_type_symbol
_atom_site_label
_atom_site_fract_x
_atom_site_fract_y
_atom_site_fract_z
Si Si1 0.554040 0.904347 0.038533
Si Si2 0.878347 0.026308 0.792671
Si Si3 0.648530 0.683659 0.461075
Si Si4 0.165257 0.081348 0.607810
Si Si5 0.802278 0.209319 0.774706
Si Si6 0.675045 0.200149 0.190313
Si Si7 0.064741 0.416806 0.652084
Si Si8 0.604915 0.686836 0.701530
O O1 0.362548 0.827802 0.125632
O O2 0.920519 0.977331 0.103064
O O3 0.443612 0.817447 0.935451
O O4 0.500000 0.000000 0.000000
O O5 0.002405 0.157952 0.795140
O O6 0.958766 0.004244 0.688713
O O7 0.504271 0.932393 0.784878
O O8 0.818180 0.805478 0.415321
O O9 0.811941 0.624870 0.430302
O O10 0.667624 0.706272 0.583769
O O11 0.271058 0.607049 0.404082
O O12 0.527684 0.134689 0.667845
O O13 0.000000 0.000000 0.500000
O O14 0.993396 0.338258 0.747030
O O15 0.535658 0.251852 0.252388
O O16 0.054191 0.269328 0.225368
O O17 0.337187 0.549986 0.693490
#
# Coordination Sequence:
#
# PCOD9020519 Si02
#       8
#     2   2   2   2   2   2   2   2
#     4  11  23  42  67  94 127 170 217 265 326 398
#     4  11  22  40  64  92 130 168 210 260 326 401
#     4  11  22  41  67  95 127 178 216 255 317 395
#     4  10  22  36  58  97 137 164 202 265 328 382
#     4  10  23  40  65  94 122 176 213 257 318 397
#     4  12  26  41  65  98 130 163 218 276 333 365
#     4  11  23  46  67  92 130 175 223 255 314 392
#     4  12  26  43  65  97 131 170 218 276 313 374
#
# _framework density 20.443299
#
# number of rings (size 3 to 8) (size 9 to 14) (size 15 to 20)
#    0.000    1.000    2.500    4.125    5.250    1.500 
#    0.000    1.250    0.000    0.000    0.000    0.000 
#    0.000    0.000    0.000    0.000    0.000    0.000 
#
# Total GULP energy -89332.078347 kJ/mol
# GULP energy per Si atom -5583.254897 kJ/mol
# Density = 2.039677 g / cm^3
# Si number density = 20.443299 Si / 1000 Ang^3
#
#
#
# Elastic Constant Matrix: (Units=GPa)
#
#
# Indices 1 2 3 4 5 6 
#
# 1 65.2307 19.2147 28.1876 -0.2894 -15.6039 7.2335
# 2 19.2147 88.1704 50.9467 2.6412 -6.1124 11.3500
# 3 28.1876 50.9467 130.7673 -7.3883 -9.2484 11.0798
# 4 -0.2894 2.6412 -7.3883 27.6494 2.4166 2.3717
# 5 -15.6039 -6.1124 -9.2484 2.4166 23.8158 1.5407
# 6 7.2335 11.3500 11.0798 2.3717 1.5407 30.9951
#
#
#
# Elastic Compliance Matrix: (Units=1/GPa)
#
#
# Indices 1 2 3 4 5 6 
#
# 1 0.020255 -0.001518 -0.002656 -0.001098 0.012203 -0.003744
# 2 -0.001518 0.015422 -0.005475 -0.002795 0.001327 -0.003188
# 3 -0.002656 -0.005475 0.010729 0.003424 0.000771 -0.001511
# 4 -0.001098 -0.002795 0.003424 0.037896 -0.003780 -0.002656
# 5 0.012203 0.001327 0.000771 -0.003780 0.051388 -0.005875
# 6 -0.003744 -0.003188 -0.001511 -0.002656 -0.005875 0.035340
#
#
# Mechanical properties :
#
#
# Convention : Reuss Voigt Hill
#
# Bulk Modulus (GPa) = 36.89167 53.42961 45.16064
# Shear Modulus (GPa) = 25.07971 28.88002 26.97987
#
# Velocity S-wave (km/s) = 3.50636 3.76265 3.63677
# Velocity P-wave (km/s) = 5.87178 6.71334 6.30661
#
# Compressibility (1/GPa) = 0.02710639
#
# Stress axis : x y z
#
# Youngs Moduli (GPa) = 49.37126 64.84108 93.20666
#
# Poissons Ratio (x) = 0.09845 0.24758
# Poissons Ratio (y) = 0.07497 0.51032
# Poissons Ratio (z) = 0.13114 0.35501
#
# Static dielectric constant tensor:
#      x y z
#    x 1.808660 -0.018090 -0.059150 
#    y -0.018090 1.726380 -0.015350 
#    z -0.059150 -0.015350 1.752390 
# 
# From -- ./inp_files/66881.got.cif
#   From: 2010.05.17/outbox.cif.g08.bks.cpg/sg2_34_cif.got.tgz:66881.got - 2010.06.03 11:33:40.
