data_PCOD9020552
_publ_section_title
;
Structure prediction by ZEFSAII (Michael W. Deem and Ramdas Pophale) SiO2 
 PCOD9020552
Probable space group: P -1
;
_chemical_formula_sum "Si O2"
_cell_formula_units_Z 16
_cell_length_a 9.249659
_cell_length_b 17.263574
_cell_length_c 7.817450
_cell_angle_alpha 144.826176
_cell_angle_beta 105.498391
_cell_angle_gamma 61.851073
_cell_volume 616.575778
_symmetry_space_group_name_H-M "P -1"
_symmetry_group_IT_number 2
_symmetry_cell_setting 'triclinic'
loop_
_space_group_symop_operation_xyz
x,y,z
-x,-y,-z
loop_
_atom_site_type_symbol
_atom_site_label
_atom_site_fract_x
_atom_site_fract_y
_atom_site_fract_z
Si Si1 0.599795 0.322744 0.363684
Si Si2 0.620576 0.195856 0.787922
Si Si3 0.954919 0.401234 0.070272
Si Si4 0.759024 0.575002 0.650433
Si Si5 0.565660 0.940728 0.183413
Si Si6 0.637968 0.528168 0.978733
Si Si7 0.926623 0.106480 0.502477
Si Si8 0.287809 0.965539 0.926916
O O1 0.411524 0.441267 0.462420
O O2 0.701007 0.399711 0.620524
O O3 0.600370 0.212531 0.317130
O O4 0.676524 0.226520 0.044707
O O5 0.606488 0.041763 0.512351
O O6 0.740432 0.203600 0.693855
O O7 0.445028 0.322040 0.890007
O O8 0.882924 0.449404 0.327609
O O9 0.113760 0.435218 0.176842
O O10 0.793928 0.510129 0.106421
O O11 0.997347 0.228105 0.725368
O O12 0.665919 0.760637 0.924888
O O13 0.654468 0.967442 0.091094
O O14 0.365424 0.014524 0.203414
O O15 0.500000 0.500000 0.000000
O O16 0.891016 0.026166 0.179865
O O17 0.000000 0.000000 0.500000
#
# Coordination Sequence:
#
# PCOD9020552 Si02
#       8
#     2   2   2   2   2   2   2   2
#     4  11  21  39  60  88 124 154 197 244 301 360
#     4  11  23  36  61  91 117 159 195 244 305 353
#     4  11  21  36  61  92 115 152 203 247 292 338
#     4  10  22  36  60  90 120 152 196 251 294 344
#     4   9  19  36  57  85 117 150 204 244 283 343
#     4  12  20  38  65  89 116 156 206 248 282 352
#     4  11  21  39  62  88 119 154 203 252 291 347
#     4   9  18  33  58  82 110 153 197 240 278 348
#
# _framework density 25.949771999999999
#
# number of rings (size 3 to 8) (size 9 to 14) (size 15 to 20)
#    0.000    1.500    3.750    2.625    5.250    2.000 
#    0.000    1.250    2.750    0.000    0.000    0.000 
#    0.000    0.000    0.000    0.000    0.000    0.000 
#
# Total GULP energy -89114.535780 kJ/mol
# GULP energy per Si atom -5569.658486 kJ/mol
# Density = 2.589071 g / cm^3
# Si number density = 25.949772 Si / 1000 Ang^3
#
#
#
# Elastic Constant Matrix: (Units=GPa)
#
#
# Indices 1 2 3 4 5 6 
#
# 1 85.6024 25.4349 13.5982 -10.8698 22.9445 -4.8280
# 2 25.4349 127.9333 18.0692 -18.1580 15.3144 -20.4751
# 3 13.5982 18.0692 105.9883 -23.3086 26.4078 -0.2313
# 4 -10.8698 -18.1580 -23.3086 55.5691 -3.7433 14.3436
# 5 22.9445 15.3144 26.4078 -3.7433 36.4378 -10.2364
# 6 -4.8280 -20.4751 -0.2313 14.3436 -10.2364 41.4512
#
#
#
# Elastic Compliance Matrix: (Units=1/GPa)
#
#
# Indices 1 2 3 4 5 6 
#
# 1 0.014990 -0.002006 0.001625 0.002991 -0.010254 -0.002803
# 2 -0.002006 0.009198 -0.000809 0.001273 -0.000860 0.003652
# 3 0.001625 -0.000809 0.013550 0.006293 -0.011290 -0.005100
# 4 0.002991 0.001273 0.006293 0.023444 -0.007055 -0.008842
# 5 -0.010254 -0.000860 -0.011290 -0.007055 0.045059 0.011887
# 6 -0.002803 0.003652 -0.005100 -0.008842 0.011887 0.031569
#
#
# Mechanical properties :
#
#
# Convention : Reuss Voigt Hill
#
# Bulk Modulus (GPa) = 28.28126 48.19207 38.23666
# Shear Modulus (GPa) = 32.90006 44.18642 38.54324
#
# Velocity S-wave (km/s) = 3.56453 4.13094 3.85814
# Velocity P-wave (km/s) = 5.27857 6.43152 5.88336
#
# Compressibility (1/GPa) = 0.03535911
#
# Stress axis : x y z
#
# Youngs Moduli (GPa) = 66.71089 108.72152 73.79927
#
# Poissons Ratio (x) = 0.21814 -0.11996
# Poissons Ratio (y) = 0.13385 0.05967
# Poissons Ratio (z) = -0.10843 0.08790
#
# Static dielectric constant tensor:
#      x y z
#    x 2.213490 0.026090 -0.038370 
#    y 0.026090 2.072400 -0.014100 
#    z -0.038370 -0.014100 2.144500 
# 
# From -- ./inp_files/268804.got.cif
#   From: 2010.05.17/outbox.cif.g08.bks.cpg/sg2_135_cif.got.tgz:268804.got - 2010.06.03 11:33:40.
