data_PCOD9020433
_publ_section_title
;
Structure prediction by ZEFSAII (Michael W. Deem and Ramdas Pophale) SiO2 
 PCOD9020433
Probable space group: P -1
;
_chemical_formula_sum "Si O2"
_cell_formula_units_Z 16
_cell_length_a 11.439814
_cell_length_b 11.490786
_cell_length_c 9.072535
_cell_angle_alpha 51.541708
_cell_angle_beta 76.644226
_cell_angle_gamma 48.540215
_cell_volume 665.832607
_symmetry_space_group_name_H-M "P -1"
_symmetry_group_IT_number 2
_symmetry_cell_setting 'triclinic'
loop_
_space_group_symop_operation_xyz
x,y,z
-x,-y,-z
loop_
_atom_site_type_symbol
_atom_site_label
_atom_site_fract_x
_atom_site_fract_y
_atom_site_fract_z
Si Si1 0.014847 0.355739 0.227057
Si Si2 0.521129 0.120378 0.294109
Si Si3 0.925420 0.186079 0.768746
Si Si4 0.351173 0.149530 0.816372
Si Si5 0.692818 0.492994 0.372861
Si Si6 0.180262 0.962645 0.607126
Si Si7 0.017758 0.570343 0.287413
Si Si8 0.622325 0.480179 0.095772
O O1 0.841419 0.444532 0.272652
O O2 0.103273 0.378396 0.310756
O O3 0.111674 0.118649 0.367980
O O4 0.000000 0.500000 0.000000
O O5 0.642830 0.122431 0.346197
O O6 0.500000 0.000000 0.500000
O O7 0.609592 0.980450 0.234600
O O8 0.376124 0.352120 0.097899
O O9 0.899475 0.345707 0.761916
O O10 0.767538 0.308997 0.609250
O O11 0.065994 0.094372 0.676902
O O12 0.000000 0.000000 0.000000
O O13 0.357163 0.323482 0.658129
O O14 0.172122 0.248970 0.849629
O O15 0.500000 0.000000 0.000000
O O16 0.576104 0.533283 0.242978
O O17 0.212625 0.758895 0.754101
O O18 0.000000 0.500000 0.500000
O O19 0.500000 0.500000 0.000000
#
# Coordination Sequence:
#
# PCOD9020433 Si02
#       8
#     2   2   2   2   2   2   2   2
#     4  10  22  35  65  97 125 164 216 277 326 385
#     4  11  23  38  67  95 120 174 228 262 324 395
#     4  11  23  39  66  99 125 178 218 267 333 404
#     4  11  20  37  68  91 125 169 217 276 328 375
#     4  10  22  40  62  98 129 167 224 270 328 399
#     4  10  22  42  61  87 138 165 208 271 337 378
#     4  11  19  41  63  91 132 167 215 279 329 383
#     4  10  23  42  62  87 135 177 208 267 338 390
#
# _framework density 24.030063999999999
#
# number of rings (size 3 to 8) (size 9 to 14) (size 15 to 20)
#    0.000    1.500    6.250    0.000    1.750    5.000 
#    0.000    1.250    0.000    5.250    0.000    0.000 
#    0.000    0.000    0.000    0.000    0.000    0.000 
#
# Total GULP energy -89095.196364 kJ/mol
# GULP energy per Si atom -5568.449773 kJ/mol
# Density = 2.397537 g / cm^3
# Si number density = 24.030064 Si / 1000 Ang^3
#
#
#
# Elastic Constant Matrix: (Units=GPa)
#
#
# Indices 1 2 3 4 5 6 
#
# 1 62.5372 10.7144 32.7168 2.4195 17.6709 15.6529
# 2 10.7144 62.2873 31.3076 -29.3707 -10.3151 21.4495
# 3 32.7168 31.3076 212.7044 -30.4851 3.9295 6.7538
# 4 2.4195 -29.3707 -30.4851 38.6008 4.4383 2.6355
# 5 17.6709 -10.3151 3.9295 4.4383 30.4388 3.7898
# 6 15.6529 21.4495 6.7538 2.6355 3.7898 35.4085
#
#
#
# Elastic Compliance Matrix: (Units=1/GPa)
#
#
# Indices 1 2 3 4 5 6 
#
# 1 0.024368 -0.007515 -0.003413 -0.008023 -0.014659 -0.003402
# 2 -0.007515 0.049208 -0.000033 0.037794 0.019438 -0.031374
# 3 -0.003413 -0.000033 0.005910 0.004798 0.000509 -0.000010
# 4 -0.008023 0.037794 0.004798 0.059412 0.011408 -0.025906
# 5 -0.014659 0.019438 0.000509 0.011408 0.047633 -0.011339
# 6 -0.003402 -0.031374 -0.000010 -0.025906 -0.011339 0.051895
#
#
# Mechanical properties :
#
#
# Convention : Reuss Voigt Hill
#
# Bulk Modulus (GPa) = 17.37239 54.11185 35.74212
# Shear Modulus (GPa) = 17.88675 38.40896 28.14786
#
# Velocity S-wave (km/s) = 2.73124 4.00230 3.42623
# Velocity P-wave (km/s) = 4.14624 6.62761 5.52795
#
# Compressibility (1/GPa) = 0.05756260
#
# Stress axis : x y z
#
# Youngs Moduli (GPa) = 41.03767 20.32183 169.21039
#
# Poissons Ratio (x) = 0.15273 0.57751
# Poissons Ratio (y) = 0.30842 0.00562
# Poissons Ratio (z) = 0.14006 0.00067
#
# Static dielectric constant tensor:
#      x y z
#    x 1.977810 -0.017500 0.045710 
#    y -0.017500 1.966140 -0.050970 
#    z 0.045710 -0.050970 2.009980 
# 
# From -- ./inp_files/282091.got.cif
#   From: 2010.05.17/outbox.cif.g08.bks.cpg/sg2_142_cif.got.tgz:282091.got - 2010.06.03 11:33:40.
