data_PCOD9020620
_publ_section_title
;
Structure prediction by ZEFSAII (Michael W. Deem and Ramdas Pophale) SiO2 
 PCOD9020620
Probable space group: P -1
;
_chemical_formula_sum "Si O2"
_cell_formula_units_Z 16
_cell_length_a 5.354121
_cell_length_b 27.415490
_cell_length_c 17.977292
_cell_angle_alpha 19.086203
_cell_angle_beta 74.246187
_cell_angle_gamma 82.693221
_cell_volume 757.009146
_symmetry_space_group_name_H-M "P -1"
_symmetry_group_IT_number 2
_symmetry_cell_setting 'triclinic'
loop_
_space_group_symop_operation_xyz
x,y,z
-x,-y,-z
loop_
_atom_site_type_symbol
_atom_site_label
_atom_site_fract_x
_atom_site_fract_y
_atom_site_fract_z
Si Si1 0.269438 0.861754 0.499089
Si Si2 0.712048 0.382477 0.603190
Si Si3 0.700268 0.685996 0.707774
Si Si4 0.896930 0.878310 0.282590
Si Si5 0.827112 0.869950 0.971561
Si Si6 0.316286 0.026920 0.409013
Si Si7 0.198257 0.720743 0.088855
Si Si8 0.294424 0.909213 0.079836
O O1 0.508741 0.791091 0.573389
O O2 0.961410 0.743352 0.661486
O O3 0.312088 0.031686 0.208646
O O4 0.258105 0.894144 0.540214
O O5 0.752527 0.343764 0.741723
O O6 0.727706 0.244924 0.744155
O O7 0.936253 0.562107 0.304657
O O8 0.369164 0.320322 0.719275
O O9 0.831505 0.722196 0.562584
O O10 0.500000 0.500000 0.000000
O O11 0.999195 0.852536 0.230593
O O12 0.094519 0.028786 0.103662
O O13 0.651882 0.939418 0.197471
O O14 0.083008 0.859560 0.918381
O O15 0.500000 0.000000 0.500000
O O16 0.526773 0.197767 0.104327
O O17 0.000000 0.000000 0.500000
O O18 0.500000 0.000000 0.000000
#
# Coordination Sequence:
#
# PCOD9020620 Si02
#       8
#     2   2   2   2   2   2   2   2
#     4  11  23  43  73  98 128 184 235 279 341 416
#     4  11  22  39  66  95 139 172 228 282 353 396
#     4  11  24  44  70 102 136 175 234 292 341 398
#     4  10  22  36  63  94 130 177 228 271 340 410
#     4  11  19  39  69  98 134 174 237 281 336 423
#     4  12  25  46  69  98 135 180 237 283 342 420
#     4  11  24  41  65 100 133 177 230 288 346 405
#     4  11  21  39  61  95 134 179 222 272 338 424
#
# _framework density 21.135808000000001
#
# number of rings (size 3 to 8) (size 9 to 14) (size 15 to 20)
#    0.000    1.000    3.750    4.500    1.750    0.000 
#    4.500    0.000    0.000    0.000    0.000    0.000 
#    0.000    0.000    0.000    0.000    0.000    0.000 
#
# Total GULP energy -89103.638259 kJ/mol
# GULP energy per Si atom -5568.977391 kJ/mol
# Density = 2.108770 g / cm^3
# Si number density = 21.135808 Si / 1000 Ang^3
#
#
#
# Elastic Constant Matrix: (Units=GPa)
#
#
# Indices 1 2 3 4 5 6 
#
# 1 81.0199 25.1341 18.0801 8.0232 -5.9095 5.3570
# 2 25.1341 106.6773 26.0783 16.3773 0.9166 3.1716
# 3 18.0801 26.0783 129.8078 -2.8160 -31.6178 7.5546
# 4 8.0232 16.3773 -2.8160 25.6272 1.3579 -2.3411
# 5 -5.9095 0.9166 -31.6178 1.3579 36.2707 3.4732
# 6 5.3570 3.1716 7.5546 -2.3411 3.4732 48.5520
#
#
#
# Elastic Compliance Matrix: (Units=1/GPa)
#
#
# Indices 1 2 3 4 5 6 
#
# 1 0.013874 -0.002529 -0.000985 -0.003063 0.001722 -0.001483
# 2 -0.002529 0.011759 -0.002864 -0.006898 -0.002932 -0.000166
# 3 -0.000985 -0.002864 0.010902 0.002655 0.009503 -0.001952
# 4 -0.003063 -0.006898 0.002655 0.044908 0.000065 0.002536
# 5 0.001722 -0.002932 0.009503 0.000065 0.036599 -0.004092
# 6 -0.001483 -0.000166 -0.001952 0.002536 -0.004092 0.021490
#
#
# Mechanical properties :
#
#
# Convention : Reuss Voigt Hill
#
# Bulk Modulus (GPa) = 42.05289 50.67667 46.36478
# Shear Modulus (GPa) = 31.20834 38.63750 34.92292
#
# Velocity S-wave (km/s) = 3.84678 4.28022 4.06927
# Velocity P-wave (km/s) = 6.29841 6.96102 6.63799
#
# Compressibility (1/GPa) = 0.02377958
#
# Stress axis : x y z
#
# Youngs Moduli (GPa) = 72.07807 85.04054 91.72407
#
# Poissons Ratio (x) = 0.21503 0.09035
# Poissons Ratio (y) = 0.18225 0.26272
# Poissons Ratio (z) = 0.07100 0.24358
#
# Static dielectric constant tensor:
#      x y z
#    x 1.988480 -0.047750 -0.064450 
#    y -0.047750 1.860920 0.042210 
#    z -0.064450 0.042210 1.822510 
# 
# From -- ./inp_files/551367.got.cif
#   From: 2010.05.17/outbox.cif.g08.bks.cpg/sg2_276_cif.got.tgz:551367.got - 2010.06.03 11:33:40.
