data_PCOD9020767
_publ_section_title
;
Structure prediction by ZEFSAII (Michael W. Deem and Ramdas Pophale) SiO2 
 PCOD9020767
Probable space group: P -1
;
_chemical_formula_sum "Si O2"
_cell_formula_units_Z 12
_cell_length_a 18.518993
_cell_length_b 20.650258
_cell_length_c 5.582880
_cell_angle_alpha 106.413654
_cell_angle_beta 115.402786
_cell_angle_gamma 19.548262
_cell_volume 590.702313
_symmetry_space_group_name_H-M "P -1"
_symmetry_group_IT_number 2
_symmetry_cell_setting 'triclinic'
loop_
_space_group_symop_operation_xyz
x,y,z
-x,-y,-z
loop_
_atom_site_type_symbol
_atom_site_label
_atom_site_fract_x
_atom_site_fract_y
_atom_site_fract_z
Si Si1 0.222411 0.751481 0.316950
Si Si2 0.071160 0.028327 0.371894
Si Si3 0.260846 0.335542 0.549557
Si Si4 0.558843 0.147364 0.392760
Si Si5 0.386039 0.025073 0.981354
Si Si6 0.001983 0.409018 0.148519
O O1 0.500000 0.500000 0.500000
O O2 0.065764 0.855805 0.442858
O O3 0.200493 0.850759 0.375304
O O4 0.107172 0.822908 0.965491
O O5 0.278453 0.920063 0.521975
O O6 0.491038 0.192816 0.621250
O O7 0.054315 0.548044 0.601628
O O8 0.132902 0.377598 0.262151
O O9 0.386368 0.191095 0.782320
O O10 0.686455 0.975720 0.307184
O O11 0.271508 0.381496 0.135757
O O12 0.180269 0.212009 0.075880
O O13 0.500000 0.000000 0.000000
#
# Coordination Sequence:
#
# PCOD9020767 Si02
#       6
#     2   2   2   2   2   2
#     4  10  22  47  76  99 135 179 211 273 353 423
#     4  10  24  43  71 106 138 168 224 280 337 411
#     4  10  22  37  59  82 123 175 218 272 319 370
#     4  11  24  39  60  92 130 163 215 278 321 385
#     4  11  23  37  56  85 121 172 227 266 316 378
#     4  10  22  37  57  82 119 172 219 258 319 379
#
# _framework density 20.314803000000001
#
# number of rings (size 3 to 8) (size 9 to 14) (size 15 to 20)
#    0.000    1.667    1.667    1.500    9.333    1.333 
#    0.000    0.000    0.000    0.000    0.000    0.000 
#    0.000    0.000    0.000    0.000    0.000    0.000 
#
# Total GULP energy -66828.220210 kJ/mol
# GULP energy per Si atom -5569.018351 kJ/mol
# Density = 2.026857 g / cm^3
# Si number density = 20.314803 Si / 1000 Ang^3
#
#
#
# Elastic Constant Matrix: (Units=GPa)
#
#
# Indices 1 2 3 4 5 6 
#
# 1 147.0036 40.7641 34.6619 -0.3236 9.1565 -34.2393
# 2 40.7641 130.8309 19.8153 10.6442 7.2774 -5.7783
# 3 34.6619 19.8153 58.5320 -7.1317 -13.0755 -2.9731
# 4 -0.3236 10.6442 -7.1317 32.9201 -0.9354 -6.7747
# 5 9.1565 7.2774 -13.0755 -0.9354 28.4277 -2.7082
# 6 -34.2393 -5.7783 -2.9731 -6.7747 -2.7082 24.6283
#
#
#
# Elastic Compliance Matrix: (Units=1/GPa)
#
#
# Indices 1 2 3 4 5 6 
#
# 1 0.013600 -0.002291 -0.007234 0.002793 -0.005345 0.017677
# 2 -0.002291 0.009283 -0.003284 -0.004460 -0.003584 -0.003024
# 3 -0.007234 -0.003284 0.026404 0.006265 0.015116 -0.004254
# 4 0.002793 -0.004460 0.006265 0.036286 0.005670 0.014198
# 5 -0.005345 -0.003584 0.015116 0.005670 0.044961 0.000056
# 6 0.017677 -0.003024 -0.004254 0.014198 0.000056 0.067867
#
#
# Mechanical properties :
#
#
# Convention : Reuss Voigt Hill
#
# Bulk Modulus (GPa) = 42.24725 58.53878 50.39301
# Shear Modulus (GPa) = 21.56021 33.27024 27.41523
#
# Velocity S-wave (km/s) = 3.26130 4.05128 3.67757
# Velocity P-wave (km/s) = 5.91801 7.12476 6.54924
#
# Compressibility (1/GPa) = 0.02367018
#
# Stress axis : x y z
#
# Youngs Moduli (GPa) = 73.53042 107.72147 37.87273
#
# Poissons Ratio (x) = 0.24679 0.27397
# Poissons Ratio (y) = 0.16846 0.12436
# Poissons Ratio (z) = 0.53192 0.35371
#
# Static dielectric constant tensor:
#      x y z
#    x 1.748220 -0.042620 -0.099370 
#    y -0.042620 1.784930 0.137310 
#    z -0.099370 0.137310 1.959540 
# 
# From -- ./inp_files/42570.got.cif
#   From: 2010.05.17/outbox.cif.g08.bks.cpg/sg2_22_cif.got.tgz:42570.got - 2010.06.03 11:33:40.
