data_PCOD9020814
_publ_section_title
;
Structure prediction by ZEFSAII (Michael W. Deem and Ramdas Pophale) SiO2 
 PCOD9020814
Probable space group: P -1
;
_chemical_formula_sum "Si O2"
_cell_formula_units_Z 14
_cell_length_a 5.263461
_cell_length_b 11.940232
_cell_length_c 10.939101
_cell_angle_alpha 100.569902
_cell_angle_beta 72.832897
_cell_angle_gamma 85.370044
_cell_volume 639.023213
_symmetry_space_group_name_H-M "P -1"
_symmetry_group_IT_number 2
_symmetry_cell_setting 'triclinic'
loop_
_space_group_symop_operation_xyz
x,y,z
-x,-y,-z
loop_
_atom_site_type_symbol
_atom_site_label
_atom_site_fract_x
_atom_site_fract_y
_atom_site_fract_z
Si Si1 0.797192 0.349132 0.974350
Si Si2 0.757915 0.949523 0.088021
Si Si3 0.773284 0.784344 0.607718
Si Si4 0.642895 0.589363 0.164263
Si Si5 0.441218 0.964141 0.364870
Si Si6 0.629150 0.268633 0.561604
Si Si7 0.546447 0.815756 0.899486
O O1 0.584315 0.375456 0.899157
O O2 0.094643 0.347989 0.879862
O O3 0.744882 0.454977 0.098457
O O4 0.711261 0.238653 0.031338
O O5 0.711205 0.943276 0.238377
O O6 0.523578 0.054795 0.113111
O O7 0.712427 0.834586 0.000922
O O8 0.000000 0.000000 0.000000
O O9 0.555236 0.755171 0.533142
O O10 0.692928 0.751858 0.750045
O O11 0.070083 0.724786 0.522350
O O12 0.762416 0.924515 0.629702
O O13 0.513458 0.623515 0.320019
O O14 0.345723 0.840374 0.369281
O O15 0.500000 0.000000 0.500000
#
# Coordination Sequence:
#
# PCOD9020814 Si02
#       7
#     2   2   2   2   2   2   2
#     4  10  22  40  64  90 119 158 197 259 312 352
#     4  10  22  37  59  88 123 157 208 247 296 378
#     4  10  23  37  57  86 120 161 197 247 295 373
#     4  10  22  40  63  92 119 150 211 256 300 363
#     4   9  20  36  56  86 117 161 199 245 300 355
#     4  11  21  38  59  85 119 158 203 246 302 350
#     4  10  23  38  58  86 123 161 199 247 313 357
#
# _framework density 21.908439000000001
#
# number of rings (size 3 to 8) (size 9 to 14) (size 15 to 20)
#    0.000    2.000    0.000    2.143   10.000    0.000 
#    5.143    1.429    0.000    0.000    0.000    0.000 
#    0.000    0.000    0.000    0.000    0.000    0.000 
#
# Total GULP energy -78068.543445 kJ/mol
# GULP energy per Si atom -5576.324532 kJ/mol
# Density = 2.185857 g / cm^3
# Si number density = 21.908439 Si / 1000 Ang^3
#
#
#
# Elastic Constant Matrix: (Units=GPa)
#
#
# Indices 1 2 3 4 5 6 
#
# 1 112.1004 15.9760 58.2592 -2.4475 -22.2947 21.0186
# 2 15.9760 26.2141 7.6274 -0.7668 14.3297 13.9351
# 3 58.2592 7.6274 181.6287 -2.0733 -10.2645 17.0851
# 4 -2.4475 -0.7668 -2.0733 25.2094 2.1790 -6.6943
# 5 -22.2947 14.3297 -10.2645 2.1790 24.2948 -2.4699
# 6 21.0186 13.9351 17.0851 -6.6943 -2.4699 26.0412
#
#
#
# Elastic Compliance Matrix: (Units=1/GPa)
#
#
# Indices 1 2 3 4 5 6 
#
# 1 0.028123 -0.056453 -0.004860 -0.000152 0.058715 0.016228
# 2 -0.056453 0.233148 0.006967 -0.008630 -0.196239 -0.104599
# 3 -0.004860 0.006967 0.006894 -0.000502 -0.006124 -0.005039
# 4 -0.000152 -0.008630 -0.000502 0.043512 0.002513 0.016494
# 5 0.058715 -0.196239 -0.006124 0.002513 0.216395 0.082808
# 6 0.016228 -0.104599 -0.005039 0.016494 0.082808 0.096675
#
#
# Mechanical properties :
#
#
# Convention : Reuss Voigt Hill
#
# Bulk Modulus (GPa) = 6.27059 53.74093 30.00576
# Shear Modulus (GPa) = 6.35650 30.98111 18.66880
#
# Velocity S-wave (km/s) = 1.70520 3.76456 2.92229
# Velocity P-wave (km/s) = 2.59717 6.59385 5.01120
#
# Compressibility (1/GPa) = 0.15947474
#
# Stress axis : x y z
#
# Youngs Moduli (GPa) = 35.55800 4.28912 145.04908
#
# Poissons Ratio (x) = 0.24213 0.70496
# Poissons Ratio (y) = 2.00734 -1.01062
# Poissons Ratio (z) = 0.17282 -0.02988
#
# Static dielectric constant tensor:
#      x y z
#    x 1.836110 -0.048560 0.024870 
#    y -0.048560 1.845580 -0.031410 
#    z 0.024870 -0.031410 1.912860 
# 
# From -- ./inp_files/38072.got.cif
#   From: 2010.05.17/outbox.cif.g08.bks.cpg/sg2_20_cif.got.tgz:38072.got - 2010.06.03 11:33:40.
