data_PCOD9020296
_publ_section_title
;
Structure prediction by ZEFSAII (Michael W. Deem and Ramdas Pophale) SiO2 
 PCOD9020296
Probable space group: P -1
;
_chemical_formula_sum "Si O2"
_cell_formula_units_Z 14
_cell_length_a 12.749934
_cell_length_b 21.315781
_cell_length_c 13.964819
_cell_angle_alpha 23.038610
_cell_angle_beta 29.870754
_cell_angle_gamma 42.519944
_cell_volume 702.648040
_symmetry_space_group_name_H-M "P -1"
_symmetry_group_IT_number 2
_symmetry_cell_setting 'triclinic'
loop_
_space_group_symop_operation_xyz
x,y,z
-x,-y,-z
loop_
_atom_site_type_symbol
_atom_site_label
_atom_site_fract_x
_atom_site_fract_y
_atom_site_fract_z
Si Si1 0.553017 0.075582 0.957758
Si Si2 0.014815 0.657301 0.700349
Si Si3 0.841868 0.826078 0.911912
Si Si4 0.887961 0.467530 0.402842
Si Si5 0.274090 0.362873 0.337253
Si Si6 0.570823 0.604081 0.028807
Si Si7 0.356614 0.229227 0.648304
O O1 0.806660 0.183655 0.617933
O O2 0.392617 0.190538 0.932139
O O3 0.500000 0.000000 0.000000
O O4 0.514498 0.904896 0.288828
O O5 0.108739 0.632925 0.555797
O O6 0.000000 0.500000 0.000000
O O7 0.766661 0.657744 0.875227
O O8 0.915587 0.659484 0.078801
O O9 0.803849 0.835693 0.042703
O O10 0.000000 0.000000 0.500000
O O11 0.659555 0.397940 0.740017
O O12 0.084144 0.444472 0.346069
O O13 0.222331 0.247966 0.633916
O O14 0.500000 0.500000 0.000000
O O15 0.341262 0.292011 0.284181
O O16 0.520532 0.407932 0.308152
#
# Coordination Sequence:
#
# PCOD9020296 Si02
#       7
#     2   2   2   2   2   2   2
#     4  10  22  39  56  85 120 149 196 240 294 362
#     4  11  22  36  62  83 116 165 191 238 301 349
#     4  10  22  33  57  88 123 156 181 251 301 334
#     4  10  22  39  56  90 123 144 211 242 280 368
#     4   9  19  35  64  87 114 159 197 250 292 330
#     4   9  20  38  60  86 115 156 193 249 294 336
#     4   9  19  38  59  87 117 152 203 239 292 350
#
# _framework density 19.924627000000001
#
# number of rings (size 3 to 8) (size 9 to 14) (size 15 to 20)
#    0.000    2.286    0.000    2.571   10.000    7.429 
#    0.000    2.857    0.000    1.714    0.000    0.000 
#    0.000    0.000    0.000    0.000    0.000    0.000 
#
# Total GULP energy -77966.537804 kJ/mol
# GULP energy per Si atom -5569.038415 kJ/mol
# Density = 1.987928 g / cm^3
# Si number density = 19.924627 Si / 1000 Ang^3
#
#
#
# Elastic Constant Matrix: (Units=GPa)
#
#
# Indices 1 2 3 4 5 6 
#
# 1 126.5878 41.5297 48.6891 8.5715 -7.8950 -27.9354
# 2 41.5297 85.5322 30.3392 11.2604 -5.1295 -24.1181
# 3 48.6891 30.3392 77.0809 14.8020 -4.5462 -5.2837
# 4 8.5715 11.2604 14.8020 35.1000 -1.1121 -2.1200
# 5 -7.8950 -5.1295 -4.5462 -1.1121 40.4367 5.4516
# 6 -27.9354 -24.1181 -5.2837 -2.1200 5.4516 27.3854
#
#
#
# Elastic Compliance Matrix: (Units=1/GPa)
#
#
# Indices 1 2 3 4 5 6 
#
# 1 0.013657 -0.000637 -0.007713 0.000846 0.000135 0.011921
# 2 -0.000637 0.018224 -0.005318 -0.002600 -0.000404 0.014253
# 3 -0.007713 -0.005318 0.020441 -0.005552 0.001216 -0.009280
# 4 0.000846 -0.002600 -0.005552 0.031457 0.000087 -0.000080
# 5 0.000135 -0.000404 0.001216 0.000087 0.025526 -0.005058
# 6 0.011921 0.014253 -0.009280 -0.000080 -0.005058 0.060439
#
#
# Mechanical properties :
#
#
# Convention : Reuss Voigt Hill
#
# Bulk Modulus (GPa) = 40.02413 58.92411 49.47412
# Shear Modulus (GPa) = 24.34149 31.82727 28.08438
#
# Velocity S-wave (km/s) = 3.49904 4.00106 3.75845
# Velocity P-wave (km/s) = 6.03786 7.14020 6.61204
#
# Compressibility (1/GPa) = 0.02498493
#
# Stress axis : x y z
#
# Youngs Moduli (GPa) = 73.22097 54.87141 48.92184
#
# Poissons Ratio (x) = 0.03496 0.37736
# Poissons Ratio (y) = 0.04665 0.26018
# Poissons Ratio (z) = 0.56479 0.29182
#
# Static dielectric constant tensor:
#      x y z
#    x 1.731030 -0.012060 0.039020 
#    y -0.012060 1.794370 -0.004710 
#    z 0.039020 -0.004710 1.784520 
# 
# From -- ./inp_files/274046.got.cif
#   From: 2010.05.17/outbox.cif.g08.bks.cpg/sg2_138_cif.got.tgz:274046.got - 2010.06.03 11:33:40.
