data_PCOD9020432
_publ_section_title
;
Structure prediction by ZEFSAII (Michael W. Deem and Ramdas Pophale) SiO2 
 PCOD9020432
Probable space group: P -1
;
_chemical_formula_sum "Si O2"
_cell_formula_units_Z 15
_cell_length_a 5.525208
_cell_length_b 16.546870
_cell_length_c 8.107007
_cell_angle_alpha 100.017210
_cell_angle_beta 112.729543
_cell_angle_gamma 67.291961
_cell_volume 630.362028
_symmetry_space_group_name_H-M "P -1"
_symmetry_group_IT_number 2
_symmetry_cell_setting 'triclinic'
loop_
_space_group_symop_operation_xyz
x,y,z
-x,-y,-z
loop_
_atom_site_type_symbol
_atom_site_label
_atom_site_fract_x
_atom_site_fract_y
_atom_site_fract_z
Si Si1 0.225088 0.493590 0.835840
Si Si2 0.478994 0.974232 0.174328
Si Si3 0.922955 0.640363 0.009378
Si Si4 0.000000 0.000000 0.500000
Si Si5 0.459197 0.783995 0.093023
Si Si6 0.464825 0.660303 0.328103
Si Si7 0.632213 0.187211 0.418168
Si Si8 0.062366 0.148787 0.213391
O O1 0.320159 0.439622 0.671644
O O2 0.004463 0.591523 0.836929
O O3 0.500000 0.500000 0.000000
O O4 0.129063 0.429852 0.904775
O O5 0.501826 0.875098 0.151196
O O6 0.189731 0.043531 0.191488
O O7 0.721510 0.989789 0.347414
O O8 0.500000 0.000000 0.000000
O O9 0.646414 0.725089 0.975137
O O10 0.181900 0.659252 0.166662
O O11 0.805474 0.104137 0.548727
O O12 0.561390 0.724876 0.259674
O O13 0.132555 0.806091 0.975367
O O14 0.400460 0.715240 0.496900
O O15 0.324554 0.180692 0.312439
O O16 0.844969 0.165242 0.311577
#
# Coordination Sequence:
#
# PCOD9020432 Si02
#       8
#     2   2   2   1   2   2   2   2
#     4   8  16  34  57  97 126 157 201 277 328 386
#     4  11  25  45  68  96 135 182 228 283 336 392
#     4   9  18  34  62  94 127 155 213 273 328 385
#     4  10  24  40  66  90 132 170 230 276 334 388
#     4  11  23  38  67  92 124 172 227 268 327 404
#     4  10  22  35  65  97 122 168 219 272 326 398
#     4  11  26  42  63  92 132 174 218 275 336 392
#     4  11  27  44  61  92 136 178 217 277 332 390
#
# _framework density 23.795849
#
# number of rings (size 3 to 8) (size 9 to 14) (size 15 to 20)
#    0.000    1.867    0.000    2.800   13.067    1.067 
#    0.000    0.000    0.000    1.600    0.000    0.000 
#    0.000    0.000    0.000    0.000    0.000    0.000 
#
# Total GULP energy -83570.136069 kJ/mol
# GULP energy per Si atom -5571.342405 kJ/mol
# Density = 2.374169 g / cm^3
# Si number density = 23.795849 Si / 1000 Ang^3
#
#
#
# Elastic Constant Matrix: (Units=GPa)
#
#
# Indices 1 2 3 4 5 6 
#
# 1 101.5371 50.1198 29.3665 17.2721 5.5906 -9.9751
# 2 50.1198 122.8426 55.4636 46.2588 6.3069 -32.5175
# 3 29.3665 55.4636 43.7501 27.8962 11.7366 -18.9100
# 4 17.2721 46.2588 27.8962 43.5268 -3.3265 -2.9868
# 5 5.5906 6.3069 11.7366 -3.3265 30.0067 0.4668
# 6 -9.9751 -32.5175 -18.9100 -2.9868 0.4668 51.9471
#
#
#
# Elastic Compliance Matrix: (Units=1/GPa)
#
#
# Indices 1 2 3 4 5 6 
#
# 1 0.013124 -0.004253 -0.008039 0.004433 0.002129 -0.002833
# 2 -0.004253 0.024067 -0.016371 -0.012835 0.000597 0.007546
# 3 -0.008039 -0.016371 0.093519 -0.040747 -0.036472 0.020237
# 4 0.004433 -0.012835 -0.040747 0.061592 0.024928 -0.018698
# 5 0.002129 0.000597 -0.036472 0.024928 0.050012 -0.011510
# 6 -0.002833 0.007546 0.020237 -0.018698 -0.011510 0.029825
#
#
# Mechanical properties :
#
#
# Convention : Reuss Voigt Hill
#
# Bulk Modulus (GPa) = 13.62711 59.78105 36.70408
# Shear Modulus (GPa) = 14.12723 33.97478 24.05100
#
# Velocity S-wave (km/s) = 2.43921 3.78267 3.18264
# Velocity P-wave (km/s) = 3.69758 6.65245 5.38179
#
# Compressibility (1/GPa) = 0.07338314
#
# Stress axis : x y z
#
# Youngs Moduli (GPa) = 76.19875 41.55003 10.69302
#
# Poissons Ratio (x) = 0.17673 0.08597
# Poissons Ratio (y) = 0.32411 0.17505
# Poissons Ratio (z) = 0.61259 0.68020
#
# Static dielectric constant tensor:
#      x y z
#    x 2.071430 0.020100 -0.056620 
#    y 0.020100 1.995450 0.028150 
#    z -0.056620 0.028150 1.937590 
# 
# From -- ./inp_files/106194.got.cif
#   From: 2010.05.17/outbox.cif.g08.bks.cpg/sg2_54_cif.got.tgz:106194.got - 2010.06.03 11:33:40.
