data_PCOD9020633
_publ_section_title
;
Structure prediction by ZEFSAII (Michael W. Deem and Ramdas Pophale) SiO2 
 PCOD9020633
Probable space group: P -1
;
_chemical_formula_sum "Si O2"
_cell_formula_units_Z 15
_cell_length_a 6.048224
_cell_length_b 8.330262
_cell_length_c 18.263910
_cell_angle_alpha 107.418070
_cell_angle_beta 54.318545
_cell_angle_gamma 77.220868
_cell_volume 613.166731
_symmetry_space_group_name_H-M "P -1"
_symmetry_group_IT_number 2
_symmetry_cell_setting 'triclinic'
loop_
_space_group_symop_operation_xyz
x,y,z
-x,-y,-z
loop_
_atom_site_type_symbol
_atom_site_label
_atom_site_fract_x
_atom_site_fract_y
_atom_site_fract_z
Si Si1 0.997565 0.027143 0.916536
Si Si2 0.500000 0.000000 0.500000
Si Si3 0.359445 0.550485 0.370281
Si Si4 0.002761 0.607477 0.088313
Si Si5 0.098003 0.316494 0.151699
Si Si6 0.719041 0.740543 0.738183
Si Si7 0.398142 0.866057 0.342838
Si Si8 0.823436 0.225250 0.425917
O O1 0.843032 0.901847 0.900807
O O2 0.371314 0.912036 0.809596
O O3 0.876038 0.243609 0.937499
O O4 0.000000 0.000000 0.000000
O O5 0.520570 0.880295 0.401273
O O6 0.398829 0.864065 0.546454
O O7 0.721799 0.442112 0.258204
O O8 0.204758 0.429783 0.356576
O O9 0.206354 0.752467 0.380870
O O10 0.337995 0.585784 0.465450
O O11 0.165919 0.424633 0.088079
O O12 0.669133 0.747349 0.214228
O O13 0.000000 0.500000 0.000000
O O14 0.284184 0.322376 0.187167
O O15 0.009882 0.776932 0.681657
O O16 0.138832 0.073781 0.390310
#
# Coordination Sequence:
#
# PCOD9020633 Si02
#       8
#     2   1   2   2   2   2   2   2
#     4  11  23  46  71  94 138 179 225 289 344 400
#     4  10  22  36  64 100 132 168 220 278 326 402
#     4   9  21  39  62  93 137 177 214 284 338 400
#     4  11  22  44  72  95 136 184 224 285 346 397
#     4  10  24  42  64 103 134 174 230 282 340 408
#     4  11  24  42  67  99 135 175 229 283 334 418
#     4  10  22  41  66  97 133 177 228 274 342 411
#     4  11  22  39  65  96 134 180 223 272 343 407
#
# _framework density 24.463166999999999
#
# number of rings (size 3 to 8) (size 9 to 14) (size 15 to 20)
#    0.000    1.600    2.667    2.000    1.867    7.467 
#    0.000    0.667    0.000    0.000    0.000    0.000 
#    0.000    0.000    0.000    0.000    0.000    0.000 
#
# Total GULP energy -83530.882970 kJ/mol
# GULP energy per Si atom -5568.725531 kJ/mol
# Density = 2.440749 g / cm^3
# Si number density = 24.463167 Si / 1000 Ang^3
#
#
#
# Elastic Constant Matrix: (Units=GPa)
#
#
# Indices 1 2 3 4 5 6 
#
# 1 26.8253 31.5647 24.1562 6.1432 -2.4569 5.4051
# 2 31.5647 156.7206 42.2506 -21.4008 3.1006 21.7078
# 3 24.1562 42.2506 122.1533 -8.5022 -3.9249 15.1997
# 4 6.1432 -21.4008 -8.5022 34.8985 4.4628 8.4909
# 5 -2.4569 3.1006 -3.9249 4.4628 37.4840 0.2464
# 6 5.4051 21.7078 15.1997 8.4909 0.2464 31.1923
#
#
#
# Elastic Compliance Matrix: (Units=1/GPa)
#
#
# Indices 1 2 3 4 5 6 
#
# 1 0.075295 -0.018434 -0.012268 -0.032204 0.008915 0.014455
# 2 -0.018434 0.013337 0.001274 0.014837 -0.003874 -0.010716
# 3 -0.012268 0.001274 0.011454 0.007342 -0.000543 -0.006336
# 4 -0.032204 0.014837 0.007342 0.051743 -0.008583 -0.022340
# 5 0.008915 -0.003874 -0.000543 -0.008583 0.028525 0.003527
# 6 0.014455 -0.010716 -0.006336 -0.022340 0.003527 0.046153
#
#
# Mechanical properties :
#
#
# Convention : Reuss Voigt Hill
#
# Bulk Modulus (GPa) = 24.25384 55.73802 39.99593
# Shear Modulus (GPa) = 16.71654 34.56349 25.64002
#
# Velocity S-wave (km/s) = 2.61690 3.76291 3.24096
# Velocity P-wave (km/s) = 4.36656 6.45858 5.51272
#
# Compressibility (1/GPa) = 0.04123059
#
# Stress axis : x y z
#
# Youngs Moduli (GPa) = 13.28118 74.97930 87.30723
#
# Poissons Ratio (x) = 1.38215 1.07105
# Poissons Ratio (y) = 0.24482 -0.11122
# Poissons Ratio (z) = 0.16293 -0.09552
#
# Static dielectric constant tensor:
#      x y z
#    x 1.962280 -0.043970 -0.044890 
#    y -0.043970 1.997170 0.034100 
#    z -0.044890 0.034100 1.972610 
# 
# From -- ./inp_files/547346.got.cif
#   From: 2010.05.17/outbox.cif.g08.bks.cpg/sg2_274_cif.got.tgz:547346.got - 2010.06.03 11:33:40.
