data_PCOD9020023
_publ_section_title
;
Structure prediction by ZEFSAII (Michael W. Deem and Ramdas Pophale) SiO2 
 PCOD9020023
Probable space group: P -1
;
_chemical_formula_sum "Si O2"
_cell_formula_units_Z 12
_cell_length_a 21.595645
_cell_length_b 10.262648
_cell_length_c 11.574720
_cell_angle_alpha 40.637413
_cell_angle_beta 158.094938
_cell_angle_gamma 146.671388
_cell_volume 524.153083
_symmetry_space_group_name_H-M "P -1"
_symmetry_group_IT_number 2
_symmetry_cell_setting 'triclinic'
loop_
_space_group_symop_operation_xyz
x,y,z
-x,-y,-z
loop_
_atom_site_type_symbol
_atom_site_label
_atom_site_fract_x
_atom_site_fract_y
_atom_site_fract_z
Si Si1 0.563748 0.479478 0.309988
Si Si2 0.768283 0.812934 0.226333
Si Si3 0.830641 0.917189 0.603770
Si Si4 0.065814 0.635317 0.644997
Si Si5 0.842998 0.171313 0.692666
Si Si6 0.410715 0.868314 0.246712
O O1 0.698523 0.618712 0.338424
O O2 0.620491 0.690963 0.355482
O O3 0.613119 0.303011 0.575221
O O4 0.339097 0.333228 0.977237
O O5 0.000000 0.000000 0.500000
O O6 0.668045 0.964165 0.971476
O O7 0.816890 0.033466 0.619567
O O8 0.912405 0.117687 0.511871
O O9 0.982706 0.834651 0.937954
O O10 0.000000 0.500000 0.500000
O O11 0.915935 0.442381 0.607445
O O12 0.279643 0.712248 0.014607
O O13 0.639147 0.031227 0.500509
#
# Coordination Sequence:
#
# PCOD9020023 Si02
#       6
#     2   2   2   2   2   2
#     4  11  25  47  70 103 131 177 232 280 338 401
#     4  11  28  50  68  96 133 181 230 287 341 392
#     4  10  21  46  66 102 142 178 218 272 342 400
#     4  10  22  42  64  99 141 181 221 266 329 401
#     4  10  24  42  69 102 142 177 219 274 334 410
#     4  12  25  44  70 104 131 179 230 274 340 402
#
# _framework density 22.894075000000001
#
# number of rings (size 3 to 8) (size 9 to 14) (size 15 to 20)
#    0.000    1.333    3.333    0.500    2.333    8.000 
#    3.000    0.000    0.000    0.000    0.000    0.000 
#    0.000    0.000    0.000    0.000    0.000    0.000 
#
# Total GULP energy -67130.185518 kJ/mol
# GULP energy per Si atom -5594.182126 kJ/mol
# Density = 2.284197 g / cm^3
# Si number density = 22.894075 Si / 1000 Ang^3
#
#
#
# Elastic Constant Matrix: (Units=GPa)
#
#
# Indices 1 2 3 4 5 6 
#
# 1 39.8580 51.9420 56.2841 -8.2265 4.7416 14.8659
# 2 51.9420 182.8796 91.4069 -10.2425 -2.5742 32.5481
# 3 56.2841 91.4069 143.5900 11.7388 -13.3687 11.0193
# 4 -8.2265 -10.2425 11.7388 58.5209 2.7632 -12.8825
# 5 4.7416 -2.5742 -13.3687 2.7632 43.9280 1.1292
# 6 14.8659 32.5481 11.0193 -12.8825 1.1292 36.2220
#
#
#
# Elastic Compliance Matrix: (Units=1/GPa)
#
#
# Indices 1 2 3 4 5 6 
#
# 1 0.095970 -0.005494 -0.036343 0.017230 -0.022399 -0.016568
# 2 -0.005494 0.009884 -0.003765 0.000542 0.000129 -0.005293
# 3 -0.036343 -0.003765 0.024979 -0.009828 0.011747 0.006838
# 4 0.017230 0.000542 -0.009828 0.022690 -0.006341 0.003699
# 5 -0.022399 0.000129 0.011747 -0.006341 0.029103 0.002341
# 6 -0.016568 -0.005293 0.006838 0.003699 0.002341 0.038326
#
#
# Mechanical properties :
#
#
# Convention : Reuss Voigt Hill
#
# Bulk Modulus (GPa) = 25.23414 85.06596 55.15005
# Shear Modulus (GPa) = 15.36732 38.84714 27.10723
#
# Velocity S-wave (km/s) = 2.59363 4.12372 3.44470
# Velocity P-wave (km/s) = 4.47385 7.74018 6.32162
#
# Compressibility (1/GPa) = 0.03962885
#
# Stress axis : x y z
#
# Youngs Moduli (GPa) = 10.41996 101.16884 40.03393
#
# Poissons Ratio (x) = 0.55585 1.45495
# Poissons Ratio (y) = 0.05725 0.15072
# Poissons Ratio (z) = 0.37869 0.38087
#
# Static dielectric constant tensor:
#      x y z
#    x 1.860540 -0.035900 -0.053130 
#    y -0.035900 1.848160 0.019200 
#    z -0.053130 0.019200 1.827750 
# 
# From -- ./inp_files/104771.got.cif
#   From: 2010.05.17/outbox.cif.g08.bks.cpg/sg2_53_cif.got.tgz:104771.got - 2010.06.03 11:33:40.
