data_PCOD9020169
_publ_section_title
;
Structure prediction by ZEFSAII (Michael W. Deem and Ramdas Pophale) SiO2 
 PCOD9020169
Probable space group: P -1
;
_chemical_formula_sum "Si O2"
_cell_formula_units_Z 16
_cell_length_a 16.725416
_cell_length_b 5.450919
_cell_length_c 10.826538
_cell_angle_alpha 52.531235
_cell_angle_beta 57.116545
_cell_angle_gamma 59.608052
_cell_volume 634.631447
_symmetry_space_group_name_H-M "P -1"
_symmetry_group_IT_number 2
_symmetry_cell_setting 'triclinic'
loop_
_space_group_symop_operation_xyz
x,y,z
-x,-y,-z
loop_
_atom_site_type_symbol
_atom_site_label
_atom_site_fract_x
_atom_site_fract_y
_atom_site_fract_z
Si Si1 0.551713 0.781023 0.860554
Si Si2 0.452947 0.210109 0.596724
Si Si3 0.049292 0.930701 0.345801
Si Si4 0.151099 0.314458 0.981275
Si Si5 0.230766 0.352685 0.321656
Si Si6 0.739211 0.935362 0.249726
Si Si7 0.860574 0.006480 0.344026
Si Si8 0.687166 0.641554 0.004225
O O1 0.655409 0.684548 0.727036
O O2 0.593797 0.835093 0.944811
O O3 0.477129 0.031068 0.762196
O O4 0.500000 0.500000 0.000000
O O5 0.500000 0.500000 0.500000
O O6 0.335728 0.279020 0.650065
O O7 0.500000 0.000000 0.500000
O O8 0.148767 0.648165 0.355084
O O9 0.971519 0.841658 0.342892
O O10 0.000000 0.000000 0.500000
O O11 0.074388 0.236570 0.164462
O O12 0.167613 0.110993 0.905480
O O13 0.136677 0.671964 0.830466
O O14 0.259675 0.198873 0.988037
O O15 0.199603 0.022270 0.471050
O O16 0.232294 0.430439 0.151315
O O17 0.792558 0.855959 0.358982
O O18 0.677067 0.305946 0.171058
#
# Coordination Sequence:
#
# PCOD9020169 Si02
#       8
#     2   2   2   2   2   2   2   2
#     4  10  21  46  77 107 147 202 257 311 396 457
#     4  12  28  49  76 118 160 204 264 323 393 474
#     4  12  26  47  74 106 144 200 259 313 384 466
#     4  11  24  46  70 107 142 193 250 310 379 466
#     4  10  22  46  69 102 146 187 244 319 371 455
#     4  11  24  45  73 105 155 197 248 319 386 458
#     4  11  26  44  72 103 149 192 248 307 393 446
#     4   9  21  44  72  99 148 189 254 302 383 443
#
# _framework density 25.211482
#
# number of rings (size 3 to 8) (size 9 to 14) (size 15 to 20)
#    0.750    0.500    2.500    2.250    7.000    0.500 
#    6.750    1.250    0.000    0.000    0.000    0.000 
#    0.000    0.000    0.000    0.000    0.000    0.000 
#
# Total GULP energy -89242.278572 kJ/mol
# GULP energy per Si atom -5577.642411 kJ/mol
# Density = 2.515410 g / cm^3
# Si number density = 25.211482 Si / 1000 Ang^3
#
#
#
# Elastic Constant Matrix: (Units=GPa)
#
#
# Indices 1 2 3 4 5 6 
#
# 1 170.8284 19.1117 34.5087 -9.0116 0.9765 -4.8893
# 2 19.1117 49.2822 23.6897 7.5676 -1.2687 -8.1641
# 3 34.5087 23.6897 154.4370 -22.6284 -19.7429 -7.1644
# 4 -9.0116 7.5676 -22.6284 45.8287 -3.1149 -4.3771
# 5 0.9765 -1.2687 -19.7429 -3.1149 50.5101 1.0673
# 6 -4.8893 -8.1641 -7.1644 -4.3771 1.0673 35.7458
#
#
#
# Elastic Compliance Matrix: (Units=1/GPa)
#
#
# Indices 1 2 3 4 5 6 
#
# 1 0.006361 -0.002124 -0.000980 0.001116 -0.000498 0.000340
# 2 -0.002124 0.024724 -0.004261 -0.006344 -0.001474 0.003769
# 3 -0.000980 -0.004261 0.008605 0.005111 0.003567 0.001137
# 4 0.001116 -0.006344 0.005111 0.026110 0.003367 0.002825
# 5 -0.000498 -0.001474 0.003567 0.003367 0.021371 0.000084
# 6 0.000340 0.003769 0.001137 0.002825 0.000084 0.029454
#
#
# Mechanical properties :
#
#
# Convention : Reuss Voigt Hill
#
# Bulk Modulus (GPa) = 40.06302 58.79644 49.42973
# Shear Modulus (GPa) = 35.79773 46.23275 41.01524
#
# Velocity S-wave (km/s) = 3.77224 4.28693 4.03780
# Velocity P-wave (km/s) = 5.90748 6.91922 6.43327
#
# Compressibility (1/GPa) = 0.02496067
#
# Stress axis : x y z
#
# Youngs Moduli (GPa) = 157.21262 40.44678 116.20796
#
# Poissons Ratio (x) = 0.08589 0.11387
# Poissons Ratio (y) = 0.33386 0.49518
# Poissons Ratio (z) = 0.15404 0.17235
#
# Static dielectric constant tensor:
#      x y z
#    x 1.993690 -0.022680 -0.023560 
#    y -0.022680 2.129080 -0.015150 
#    z -0.023560 -0.015150 2.005220 
# 
# From -- ./inp_files/459395.got.cif
#   From: 2010.05.17/outbox.cif.g08.bks.cpg/sg2_230_cif.got.tgz:459395.got - 2010.06.03 11:33:40.
