data_PCOD9020390
_publ_section_title
;
Structure prediction by ZEFSAII (Michael W. Deem and Ramdas Pophale) SiO2 
 PCOD9020390
Probable space group: P -1
;
_chemical_formula_sum "Si O2"
_cell_formula_units_Z 16
_cell_length_a 10.165229
_cell_length_b 18.066710
_cell_length_c 13.411179
_cell_angle_alpha 31.441892
_cell_angle_beta 125.749019
_cell_angle_gamma 144.501692
_cell_volume 694.767581
_symmetry_space_group_name_H-M "P -1"
_symmetry_group_IT_number 2
_symmetry_cell_setting 'triclinic'
loop_
_space_group_symop_operation_xyz
x,y,z
-x,-y,-z
loop_
_atom_site_type_symbol
_atom_site_label
_atom_site_fract_x
_atom_site_fract_y
_atom_site_fract_z
Si Si1 0.926930 0.498843 0.314356
Si Si2 0.679456 0.854841 0.029228
Si Si3 0.251597 0.331100 0.022655
Si Si4 0.226228 0.750279 0.973948
Si Si5 0.040817 0.196073 0.291951
Si Si6 0.403167 0.400825 0.390831
Si Si7 0.393904 0.784275 0.333372
Si Si8 0.023771 0.066245 0.766180
O O1 0.728848 0.275741 0.541913
O O2 0.172263 0.652934 0.309925
O O3 0.795423 0.566528 0.185558
O O4 0.014925 0.540266 0.190879
O O5 0.623059 0.650601 0.222248
O O6 0.808416 0.942197 0.093860
O O7 0.419055 0.756989 0.019926
O O8 0.868342 0.032062 0.826176
O O9 0.068138 0.234214 0.142770
O O10 0.177240 0.139021 0.157000
O O11 0.500000 0.500000 0.000000
O O12 0.145943 0.794490 0.791498
O O13 0.397365 0.963284 0.873325
O O14 0.267281 0.362367 0.274188
O O15 0.000000 0.000000 0.500000
O O16 0.487860 0.293795 0.539003
O O17 0.205497 0.274327 0.538578
#
# Coordination Sequence:
#
# PCOD9020390 Si02
#       8
#     2   2   2   2   2   2   2   2
#     4  10  22  35  58  97 123 157 213 267 316 373
#     4  11  26  42  63  94 131 174 216 254 321 385
#     4  11  21  38  67  94 127 165 212 271 325 372
#     4  11  23  40  61  90 130 168 207 269 317 369
#     4  11  21  40  66  93 122 162 217 263 319 378
#     4  12  23  42  68  94 128 173 212 261 323 381
#     4  11  21  37  65  91 126 162 214 269 319 370
#     4  11  23  42  65  91 131 172 215 259 314 392
#
# _framework density 23.029284000000001
#
# number of rings (size 3 to 8) (size 9 to 14) (size 15 to 20)
#    0.000    1.000    2.500    5.250    0.000    4.500 
#    0.000    0.625    0.000    0.000    0.000    0.000 
#    0.000    0.000    0.000    0.000    0.000    0.000 
#
# Total GULP energy -89222.944761 kJ/mol
# GULP energy per Si atom -5576.434048 kJ/mol
# Density = 2.297687 g / cm^3
# Si number density = 23.029284 Si / 1000 Ang^3
#
#
#
# Elastic Constant Matrix: (Units=GPa)
#
#
# Indices 1 2 3 4 5 6 
#
# 1 68.0895 8.0666 31.9538 2.8597 -6.7368 12.9143
# 2 8.0666 108.8910 6.2610 3.4252 10.1052 7.7267
# 3 31.9538 6.2610 68.6872 2.3495 -28.3271 -2.8384
# 4 2.8597 3.4252 2.3495 37.2016 2.2402 1.7574
# 5 -6.7368 10.1052 -28.3271 2.2402 40.6819 5.1879
# 6 12.9143 7.7267 -2.8384 1.7574 5.1879 32.1628
#
#
#
# Elastic Compliance Matrix: (Units=1/GPa)
#
#
# Indices 1 2 3 4 5 6 
#
# 1 0.021676 0.000069 -0.011921 -0.000272 -0.003542 -0.009186
# 2 0.000069 0.009855 -0.002651 -0.000411 -0.004010 -0.001960
# 3 -0.011921 -0.002651 0.027851 -0.001898 0.017524 0.005159
# 4 -0.000272 -0.000411 -0.001898 0.027266 -0.002635 -0.001024
# 5 -0.003542 -0.004010 0.017524 -0.002635 0.037591 -0.001988
# 6 -0.009186 -0.001960 0.005159 -0.001024 -0.001988 0.036083
#
#
# Mechanical properties :
#
#
# Convention : Reuss Voigt Hill
#
# Bulk Modulus (GPa) = 32.92088 37.58117 35.25103
# Shear Modulus (GPa) = 25.06835 35.30169 30.18502
#
# Velocity S-wave (km/s) = 3.30289 3.91948 3.62432
# Velocity P-wave (km/s) = 5.37324 6.06938 5.73189
#
# Compressibility (1/GPa) = 0.03037586
#
# Stress axis : x y z
#
# Youngs Moduli (GPa) = 46.13349 101.47205 35.90487
#
# Poissons Ratio (x) = -0.00698 0.42803
# Poissons Ratio (y) = -0.00317 0.09518
# Poissons Ratio (z) = 0.54997 0.26899
#
# Static dielectric constant tensor:
#      x y z
#    x 3.342260 1.252360 1.178310 
#    y 1.252360 3.187120 1.349090 
#    z 1.178310 1.349090 3.221080 
# 
# From -- ./inp_files/524056.got.cif
#   From: 2010.05.17/outbox.cif.g08.bks.cpg/sg2_263_cif.got.tgz:524056.got - 2010.06.03 11:33:40.
