data_PCOD9020058
_publ_section_title
;
Structure prediction by ZEFSAII (Michael W. Deem and Ramdas Pophale) SiO2 
 PCOD9020058
Probable space group: P -1
;
_chemical_formula_sum "Si O2"
_cell_formula_units_Z 13
_cell_length_a 5.100003
_cell_length_b 7.362118
_cell_length_c 18.938344
_cell_angle_alpha 81.032344
_cell_angle_beta 86.092776
_cell_angle_gamma 137.221284
_cell_volume 459.035543
_symmetry_space_group_name_H-M "P -1"
_symmetry_group_IT_number 2
_symmetry_cell_setting 'triclinic'
loop_
_space_group_symop_operation_xyz
x,y,z
-x,-y,-z
loop_
_atom_site_type_symbol
_atom_site_label
_atom_site_fract_x
_atom_site_fract_y
_atom_site_fract_z
Si Si1 0.423402 0.111788 0.641320
Si Si2 0.528978 0.720526 0.513988
Si Si3 0.361255 0.165204 0.107884
Si Si4 0.463797 0.163025 0.909107
Si Si5 0.667904 0.715877 0.236084
Si Si6 0.500000 0.500000 0.000000
Si Si7 0.506520 0.266257 0.327710
O O1 0.606975 0.223354 0.552347
O O2 0.538090 0.314602 0.688190
O O3 0.338501 0.638761 0.599648
O O4 0.957387 0.917566 0.651251
O O5 0.500000 0.500000 0.500000
O O6 0.000000 0.000000 0.500000
O O7 0.115922 0.030190 0.193356
O O8 0.434407 0.996614 0.094132
O O9 0.687018 0.492641 0.071490
O O10 0.037077 0.108356 0.065773
O O11 0.556676 0.328163 0.826154
O O12 0.602135 0.360524 0.958808
O O13 0.710336 0.522818 0.258658
O O14 0.534328 0.069453 0.319220
#
# Coordination Sequence:
#
# PCOD9020058 Si02
#       7
#     2   2   2   2   2   1   2
#     4  11  25  42  68  97 136 182 230 283 349 408
#     4  10  21  46  68 105 141 193 244 300 352 427
#     4  10  26  43  65  97 130 165 222 271 329 415
#     4  10  26  43  65  97 130 165 222 271 329 415
#     4  10  26  42  66  98 136 170 228 276 346 402
#     4  12  24  46  72  92 132 176 212 274 348 392
#     4  11  25  42  68  97 136 182 230 283 349 408
#
# _framework density 28.320246000000001
#
# number of rings (size 3 to 8) (size 9 to 14) (size 15 to 20)
#    0.923    0.615    1.538    1.385    6.462    2.462 
#    0.000    3.077    0.000    0.000    0.000    0.000 
#    0.000    0.000    0.000    0.000    0.000    0.000 
#
# Total GULP energy -72659.087284 kJ/mol
# GULP energy per Si atom -5589.160560 kJ/mol
# Density = 2.825579 g / cm^3
# Si number density = 28.320246 Si / 1000 Ang^3
#
#
#
# Elastic Constant Matrix: (Units=GPa)
#
#
# Indices 1 2 3 4 5 6 
#
# 1 130.4181 56.0400 37.1343 -4.5300 -13.5645 -40.1695
# 2 56.0400 130.3715 37.7236 -3.0592 11.0566 -39.2604
# 3 37.1343 37.7236 151.0663 -19.9196 7.6948 -15.9939
# 4 -4.5300 -3.0592 -19.9196 55.2271 -15.1484 10.3248
# 5 -13.5645 11.0566 7.6948 -15.1484 42.7860 -3.9104
# 6 -40.1695 -39.2604 -15.9939 10.3248 -3.9104 64.3937
#
#
#
# Elastic Compliance Matrix: (Units=1/GPa)
#
#
# Indices 1 2 3 4 5 6 
#
# 1 0.011844 -0.003560 -0.001677 0.000799 0.005718 0.005020
# 2 -0.003560 0.011261 -0.001552 -0.002176 -0.004132 0.004358
# 3 -0.001677 -0.001552 0.007726 0.002469 -0.000693 -0.000511
# 4 0.000799 -0.002176 0.002469 0.021670 0.007750 -0.003219
# 5 0.005718 -0.004132 -0.000693 0.007750 0.029250 0.001410
# 6 0.005020 0.004358 -0.000511 -0.003219 0.001410 0.021793
#
#
# Mechanical properties :
#
#
# Convention : Reuss Voigt Hill
#
# Bulk Modulus (GPa) = 57.96050 74.85019 66.40534
# Shear Modulus (GPa) = 40.69253 51.21190 45.95221
#
# Velocity S-wave (km/s) = 3.79472 4.25704 4.03251
# Velocity P-wave (km/s) = 6.30162 7.11692 6.72164
#
# Compressibility (1/GPa) = 0.01725313
#
# Stress axis : x y z
#
# Youngs Moduli (GPa) = 84.43395 88.79831 129.43256
#
# Poissons Ratio (x) = 0.31614 0.21701
# Poissons Ratio (y) = 0.30060 0.20090
# Poissons Ratio (z) = 0.14156 0.13783
#
# Static dielectric constant tensor:
#      x y z
#    x 2.306100 0.265590 -0.048820 
#    y 0.265590 2.602620 -0.297200 
#    z -0.048820 -0.297200 2.372850 
# 
# From -- ./inp_files/580320.got.cif
#   From: 2010.05.17/outbox.cif.g08.bks.cpg/sg2_291_cif.got.tgz:580320.got - 2010.06.03 11:33:40.
