data_PCOD9020823
_publ_section_title
;
Structure prediction by ZEFSAII (Michael W. Deem and Ramdas Pophale) SiO2 
 PCOD9020823
Probable space group: P -1
;
_chemical_formula_sum "Si O2"
_cell_formula_units_Z 16
_cell_length_a 15.762648
_cell_length_b 12.587384
_cell_length_c 5.530927
_cell_angle_alpha 96.393317
_cell_angle_beta 129.507205
_cell_angle_gamma 57.861180
_cell_volume 672.243899
_symmetry_space_group_name_H-M "P -1"
_symmetry_group_IT_number 2
_symmetry_cell_setting 'triclinic'
loop_
_space_group_symop_operation_xyz
x,y,z
-x,-y,-z
loop_
_atom_site_type_symbol
_atom_site_label
_atom_site_fract_x
_atom_site_fract_y
_atom_site_fract_z
Si Si1 0.284358 0.287915 0.122837
Si Si2 0.782107 0.578065 0.460475
Si Si3 0.516256 0.365247 0.045799
Si Si4 0.075682 0.126098 0.264403
Si Si5 0.421328 0.770848 0.376190
Si Si6 0.064079 0.709740 0.539490
Si Si7 0.105099 0.893661 0.463521
Si Si8 0.243043 0.087408 0.162146
O O1 0.201823 0.378723 0.233954
O O2 0.424585 0.272287 0.356131
O O3 0.319190 0.144603 0.208015
O O4 0.215512 0.345183 0.750318
O O5 0.888039 0.423360 0.539542
O O6 0.632340 0.606744 0.203973
O O7 0.589493 0.296579 0.419474
O O8 0.500000 0.500000 0.000000
O O9 0.591591 0.275215 0.921629
O O10 0.193313 0.128706 0.358129
O O11 0.960754 0.269584 0.215366
O O12 0.159492 0.975622 0.491040
O O13 0.978355 0.115626 0.903905
O O14 0.319461 0.930719 0.246777
O O15 0.161117 0.753260 0.658269
O O16 0.904571 0.826924 0.215511
O O17 0.000000 0.000000 0.500000
#
# Coordination Sequence:
#
# PCOD9020823 Si02
#       8
#     2   2   2   2   2   2   2   2
#     4  10  24  44  65  88 124 171 216 271 314 367
#     4  10  24  43  64  90 128 170 215 256 322 382
#     4  10  22  45  69  97 124 164 212 260 313 380
#     4   9  19  35  54  85 125 158 205 252 311 379
#     4  10  23  43  68  95 126 161 214 266 320 373
#     4  10  22  37  59  91 129 168 207 258 321 387
#     4   8  16  35  54  78 121 160 200 250 307 372
#     4  11  24  38  63  94 125 164 214 267 317 374
#
# _framework density 23.800888
#
# number of rings (size 3 to 8) (size 9 to 14) (size 15 to 20)
#    0.000    2.250    0.000    0.750    7.000    2.000 
#   11.250    3.750    0.000    0.000    0.000    0.000 
#    0.000    0.000    0.000    0.000    0.000    0.000 
#
# Total GULP energy -89123.524637 kJ/mol
# GULP energy per Si atom -5570.220290 kJ/mol
# Density = 2.374672 g / cm^3
# Si number density = 23.800888 Si / 1000 Ang^3
#
#
#
# Elastic Constant Matrix: (Units=GPa)
#
#
# Indices 1 2 3 4 5 6 
#
# 1 103.6821 56.5256 32.4513 1.7301 -42.9564 14.5682
# 2 56.5256 157.5453 46.8251 -7.5886 -30.0484 -17.0175
# 3 32.4513 46.8251 53.1449 9.5592 -27.9073 -14.2354
# 4 1.7301 -7.5886 9.5592 22.4359 5.6235 -8.8165
# 5 -42.9564 -30.0484 -27.9073 5.6235 27.5626 -6.5628
# 6 14.5682 -17.0175 -14.2354 -8.8165 -6.5628 43.7741
#
#
#
# Elastic Compliance Matrix: (Units=1/GPa)
#
#
# Indices 1 2 3 4 5 6 
#
# 1 -0.105571 0.031809 -0.238072 0.206489 -0.425443 -0.052116
# 2 0.031809 0.000255 0.062027 -0.053771 0.127920 0.018033
# 3 -0.238072 0.062027 -0.400282 0.383810 -0.803682 -0.070016
# 4 0.206489 -0.053771 0.383810 -0.303995 0.733825 0.083982
# 5 -0.425443 0.127920 -0.803682 0.733825 -1.485278 -0.144920
# 6 -0.052116 0.018033 -0.070016 0.083982 -0.144920 0.019618
#
#
# Mechanical properties :
#
#
# Convention : Reuss Voigt Hill
#
# Bulk Modulus (GPa) = -1.25934 65.10845 31.92456
# Shear Modulus (GPa) = -2.22077 30.65922 14.21922
#
# Velocity S-wave (km/s) = -0.96700 3.59298 2.44688
# Velocity P-wave (km/s) = 1.33306 6.68038 4.62874
#
# Compressibility (1/GPa) = -0.79406913
#
# Stress axis : x y z
#
# Youngs Moduli (GPa) = -9.47233 3922.74391 -2.49824
#
# Poissons Ratio (x) = -124.77886 -0.59476
# Poissons Ratio (y) = 0.30131 0.15496
# Poissons Ratio (z) = -2.25509 -243.31644
#
# Static dielectric constant tensor:
#      x y z
#    x 2.050470 -0.011140 -0.253180 
#    y -0.011140 1.906240 0.048150 
#    z -0.253180 0.048150 2.195270 
# 
# From -- ./inp_files/95053.got.cif
#   From: 2010.05.17/outbox.cif.g08.bks.cpg/sg2_48_cif.got.tgz:95053.got - 2010.06.03 11:33:40.
