data_PCOD9020255
_publ_section_title
;
Structure prediction by ZEFSAII (Michael W. Deem and Ramdas Pophale) SiO2 
 PCOD9020255
Probable space group: P -1
;
_chemical_formula_sum "Si O2"
_cell_formula_units_Z 12
_cell_length_a 13.751416
_cell_length_b 7.731096
_cell_length_c 11.309690
_cell_angle_alpha 67.988283
_cell_angle_beta 30.557049
_cell_angle_gamma 86.959000
_cell_volume 464.781531
_symmetry_space_group_name_H-M "P -1"
_symmetry_group_IT_number 2
_symmetry_cell_setting 'triclinic'
loop_
_space_group_symop_operation_xyz
x,y,z
-x,-y,-z
loop_
_atom_site_type_symbol
_atom_site_label
_atom_site_fract_x
_atom_site_fract_y
_atom_site_fract_z
Si Si1 0.700654 0.836799 0.582324
Si Si2 0.185298 0.554396 0.098197
Si Si3 0.041575 0.854898 0.403023
Si Si4 0.284470 0.513748 0.744241
Si Si5 0.100167 0.318423 0.753772
Si Si6 0.570427 0.163649 0.680292
O O1 0.836311 0.772523 0.543536
O O2 0.817384 0.836717 0.335633
O O3 0.703038 0.042215 0.586962
O O4 0.427711 0.667554 0.882833
O O5 0.996677 0.356736 0.431270
O O6 0.115133 0.721222 0.084455
O O7 0.209482 0.465995 0.969076
O O8 0.000000 0.000000 0.500000
O O9 0.302253 0.007925 0.038864
O O10 0.500000 0.500000 0.500000
O O11 0.084985 0.338652 0.905837
O O12 0.386559 0.763522 0.521891
O O13 0.304880 0.590599 0.448754
#
# Coordination Sequence:
#
# PCOD9020255 Si02
#       6
#     2   2   2   2   2   2
#     4  12  25  46  73 108 139 188 236 291 349 420
#     4  12  24  44  73 104 144 186 234 290 352 416
#     4  12  26  46  74 105 143 187 236 292 352 418
#     4  10  21  48  74 102 141 189 230 289 353 415
#     4  10  24  46  75 103 143 184 234 291 350 417
#     4  10  26  46  71 105 142 181 238 284 352 412
#
# _framework density 25.818583
#
# number of rings (size 3 to 8) (size 9 to 14) (size 15 to 20)
#    1.000    0.000    1.667    5.000    0.000    7.333 
#    0.000    1.667    0.000    0.000    0.000    0.000 
#    0.000    0.000    0.000    0.000    0.000    0.000 
#
# Total GULP energy -67079.038147 kJ/mol
# GULP energy per Si atom -5589.919846 kJ/mol
# Density = 2.575982 g / cm^3
# Si number density = 25.818583 Si / 1000 Ang^3
#
#
#
# Elastic Constant Matrix: (Units=GPa)
#
#
# Indices 1 2 3 4 5 6 
#
# 1 126.4495 25.0403 60.3624 -3.2714 -15.3143 5.7439
# 2 25.0403 113.0847 53.3109 26.0204 -2.3138 3.8208
# 3 60.3624 53.3109 165.2096 8.9144 -10.4198 4.8232
# 4 -3.2714 26.0204 8.9144 37.2044 -3.8638 -7.6941
# 5 -15.3143 -2.3138 -10.4198 -3.8638 33.2967 7.5336
# 6 5.7439 3.8208 4.8232 -7.6941 7.5336 46.3149
#
#
#
# Elastic Compliance Matrix: (Units=1/GPa)
#
#
# Indices 1 2 3 4 5 6 
#
# 1 0.010329 -0.001297 -0.003209 0.002803 0.004222 -0.001061
# 2 -0.001297 0.012666 -0.003174 -0.008718 -0.001317 -0.001788
# 3 -0.003209 -0.003174 0.008325 -0.000032 0.000989 -0.000373
# 4 0.002803 -0.008718 -0.000032 0.034743 0.003441 0.005587
# 5 0.004222 -0.001317 0.000989 0.003441 0.033825 -0.005448
# 6 -0.001061 -0.001788 -0.000373 0.005587 -0.005448 0.023724
#
#
# Mechanical properties :
#
#
# Convention : Reuss Voigt Hill
#
# Bulk Modulus (GPa) = 62.65894 75.79680 69.22787
# Shear Modulus (GPa) = 34.65222 41.09855 37.87539
#
# Velocity S-wave (km/s) = 3.66750 3.99409 3.83427
# Velocity P-wave (km/s) = 6.50044 7.11980 6.81716
#
# Compressibility (1/GPa) = 0.01595941
#
# Stress axis : x y z
#
# Youngs Moduli (GPa) = 96.81275 78.95291 120.12527
#
# Poissons Ratio (x) = 0.10240 0.38554
# Poissons Ratio (y) = 0.12557 0.38123
# Poissons Ratio (z) = 0.31072 0.25057
#
# Static dielectric constant tensor:
#      x y z
#    x 2.096460 0.033110 0.026320 
#    y 0.033110 2.080830 -0.033980 
#    z 0.026320 -0.033980 1.999020 
# 
# From -- ./inp_files/445726.got.cif
#   From: 2010.05.17/outbox.cif.g08.bks.cpg/sg2_223_cif.got.tgz:445726.got - 2010.06.03 11:33:40.
