data_PCOD9020641
_publ_section_title
;
Structure prediction by ZEFSAII (Michael W. Deem and Ramdas Pophale) SiO2 
 PCOD9020641
Probable space group: P -1
;
_chemical_formula_sum "Si O2"
_cell_formula_units_Z 15
_cell_length_a 13.052467
_cell_length_b 9.401902
_cell_length_c 16.562977
_cell_angle_alpha 54.072300
_cell_angle_beta 148.519285
_cell_angle_gamma 141.409727
_cell_volume 641.880393
_symmetry_space_group_name_H-M "P -1"
_symmetry_group_IT_number 2
_symmetry_cell_setting 'triclinic'
loop_
_space_group_symop_operation_xyz
x,y,z
-x,-y,-z
loop_
_atom_site_type_symbol
_atom_site_label
_atom_site_fract_x
_atom_site_fract_y
_atom_site_fract_z
Si Si1 0.607495 0.543903 0.823287
Si Si2 0.583081 0.294422 0.189289
Si Si3 0.152065 0.874564 0.153201
Si Si4 0.783076 0.765582 0.693809
Si Si5 0.764028 0.464613 0.643602
Si Si6 0.637330 0.744448 0.107888
Si Si7 0.122211 0.489035 0.469616
Si Si8 0.500000 0.000000 0.500000
O O1 0.725022 0.624588 0.784580
O O2 0.488216 0.305579 0.870669
O O3 0.342987 0.501665 0.653252
O O4 0.854220 0.754100 0.973599
O O5 0.613107 0.520567 0.149728
O O6 0.843730 0.343977 0.371534
O O7 0.344376 0.062136 0.152013
O O8 0.534938 0.258219 0.073271
O O9 0.137650 0.653735 0.211089
O O10 0.287829 0.976246 0.298031
O O11 0.761497 0.616352 0.655434
O O12 0.534908 0.753880 0.519877
O O13 0.063765 0.021821 0.786364
O O14 0.911775 0.600985 0.615373
O O15 0.250192 0.755231 0.455337
#
# Coordination Sequence:
#
# PCOD9020641 Si02
#       8
#     2   2   2   2   2   2   2   1
#     4  11  24  43  67  98 136 174 232 265 346 389
#     4  11  25  42  65 102 142 171 229 273 342 403
#     4  11  23  43  65 100 134 179 217 286 328 412
#     4  10  22  47  68 100 130 185 221 286 327 402
#     4   9  22  44  70  93 139 172 233 270 344 394
#     4  11  24  42  67  99 138 178 225 282 329 405
#     4  10  23  40  64 100 129 179 220 279 334 405
#     4  10  22  36  64  86 130 172 216 262 342 380
#
# _framework density 23.368839999999999
#
# number of rings (size 3 to 8) (size 9 to 14) (size 15 to 20)
#    0.000    1.600    1.333    2.400    7.467    3.733 
#    2.400    3.333    0.000    0.000    0.000    0.000 
#    0.000    0.000    0.000    0.000    0.000    0.000 
#
# Total GULP energy -83549.276004 kJ/mol
# GULP energy per Si atom -5569.951734 kJ/mol
# Density = 2.331565 g / cm^3
# Si number density = 23.368840 Si / 1000 Ang^3
#
#
#
# Elastic Constant Matrix: (Units=GPa)
#
#
# Indices 1 2 3 4 5 6 
#
# 1 61.3868 33.3504 58.0188 -4.8682 0.3996 32.4105
# 2 33.3504 77.9384 46.1918 -2.5030 -5.8124 43.9738
# 3 58.0188 46.1918 165.2160 3.3966 5.7267 25.2125
# 4 -4.8682 -2.5030 3.3966 37.1474 21.3225 0.3300
# 5 0.3996 -5.8124 5.7267 21.3225 32.9608 -2.6651
# 6 32.4105 43.9738 25.2125 0.3300 -2.6651 38.0642
#
#
#
# Elastic Compliance Matrix: (Units=1/GPa)
#
#
# Indices 1 2 3 4 5 6 
#
# 1 0.049790 0.017005 -0.014070 0.014532 -0.008884 -0.053468
# 2 0.017005 0.046223 -0.009657 0.006528 0.000427 -0.061508
# 3 -0.014070 -0.009657 0.011376 -0.003795 0.000212 0.015650
# 4 0.014532 0.006528 -0.003795 0.047363 -0.030619 -0.019955
# 5 -0.008884 0.000427 0.000212 -0.030619 0.051164 0.010779
# 6 -0.053468 -0.061508 0.015650 -0.019955 0.010779 0.133417
#
#
# Mechanical properties :
#
#
# Convention : Reuss Voigt Hill
#
# Bulk Modulus (GPa) = 10.64473 64.40704 37.52588
# Shear Modulus (GPa) = 13.01767 32.76651 22.89209
#
# Velocity S-wave (km/s) = 2.36276 3.74859 3.13325
# Velocity P-wave (km/s) = 3.46532 6.80858 5.40209
#
# Compressibility (1/GPa) = 0.09394316
#
# Stress axis : x y z
#
# Youngs Moduli (GPa) = 20.08444 21.63432 87.90168
#
# Poissons Ratio (x) = -0.36789 1.23681
# Poissons Ratio (y) = -0.34153 0.84890
# Poissons Ratio (z) = 0.28260 0.20893
#
# Static dielectric constant tensor:
#      x y z
#    x 1.980120 -0.059030 0.029590 
#    y -0.059030 1.886850 -0.052100 
#    z 0.029590 -0.052100 1.920800 
# 
# From -- ./inp_files/493224.got.cif
#   From: 2010.05.17/outbox.cif.g08.bks.cpg/sg2_247_cif.got.tgz:493224.got - 2010.06.03 11:33:40.
