data_PCOD9020355
_publ_section_title
;
Structure prediction by ZEFSAII (Michael W. Deem and Ramdas Pophale) SiO2 
 PCOD9020355
Probable space group: P -1
;
_chemical_formula_sum "Si O2"
_cell_formula_units_Z 13
_cell_length_a 10.984960
_cell_length_b 11.927063
_cell_length_c 10.505076
_cell_angle_alpha 118.019403
_cell_angle_beta 123.137654
_cell_angle_gamma 22.875493
_cell_volume 445.578952
_symmetry_space_group_name_H-M "P -1"
_symmetry_group_IT_number 2
_symmetry_cell_setting 'triclinic'
loop_
_space_group_symop_operation_xyz
x,y,z
-x,-y,-z
loop_
_atom_site_type_symbol
_atom_site_label
_atom_site_fract_x
_atom_site_fract_y
_atom_site_fract_z
Si Si1 0.600980 0.756735 0.641688
Si Si2 0.000000 0.000000 0.500000
Si Si3 0.661836 0.685183 0.920704
Si Si4 0.467691 0.682629 0.128591
Si Si5 0.238153 0.290507 0.643251
Si Si6 0.478856 0.457068 0.639955
Si Si7 0.967764 0.825776 0.012840
O O1 0.484816 0.821679 0.753332
O O2 0.592765 0.630989 0.496263
O O3 0.980404 0.504352 0.726060
O O4 0.395757 0.028637 0.602669
O O5 0.166451 0.787280 0.601154
O O6 0.216460 0.747396 0.386340
O O7 0.387143 0.948081 0.006447
O O8 0.000000 0.500000 0.000000
O O9 0.783850 0.447541 0.897359
O O10 0.499944 0.803133 0.256949
O O11 0.434105 0.622979 0.203516
O O12 0.196488 0.909506 0.982584
O O13 0.822331 0.371081 0.101674
O O14 0.000000 0.500000 0.500000
#
# Coordination Sequence:
#
# PCOD9020355 Si02
#       7
#     2   1   2   2   2   2   2
#     4  12  24  38  61  90 128 169 206 245 297 364
#     4  10  24  42  62  92 122 150 202 260 320 396
#     4  11  21  38  56  82 126 171 216 246 277 347
#     4  11  21  37  60  86 126 160 201 251 296 373
#     4  12  23  34  52  91 129 164 197 233 295 369
#     4  11  23  41  65  93 120 156 200 257 330 360
#     4  10  22  35  54  82 114 166 210 240 287 335
#
# _framework density 29.175528
#
# number of rings (size 3 to 8) (size 9 to 14) (size 15 to 20)
#    0.000    0.923    1.538    7.385    2.154    0.000 
#    0.000    0.000    0.000    0.000    0.000   75.385 
#    0.000    0.000    0.000    0.000    0.000    0.000 
#
# Total GULP energy -72518.284838 kJ/mol
# GULP energy per Si atom -5578.329603 kJ/mol
# Density = 2.910912 g / cm^3
# Si number density = 29.175528 Si / 1000 Ang^3
#
#
#
# Elastic Constant Matrix: (Units=GPa)
#
#
# Indices 1 2 3 4 5 6 
#
# 1 92.6519 44.4684 36.3890 -17.2506 -21.7570 36.5983
# 2 44.4684 263.2128 69.0491 -30.6833 -14.2109 29.7626
# 3 36.3890 69.0491 136.2297 -19.2363 -35.0980 18.6212
# 4 -17.2506 -30.6833 -19.2363 49.7627 -0.1855 -21.3093
# 5 -21.7570 -14.2109 -35.0980 -0.1855 47.6358 11.7874
# 6 36.5983 29.7626 18.6212 -21.3093 11.7874 59.9465
#
#
#
# Elastic Compliance Matrix: (Units=1/GPa)
#
#
# Indices 1 2 3 4 5 6 
#
# 1 0.019614 -0.001162 0.000494 0.000388 0.012405 -0.013852
# 2 -0.001162 0.004701 -0.001907 0.001594 -0.000433 -0.000381
# 3 0.000494 -0.001907 0.011269 0.001660 0.008963 -0.004028
# 4 0.000388 0.001594 0.001660 0.024983 0.000166 0.007304
# 5 0.012405 -0.000433 0.008963 0.000166 0.037451 -0.017448
# 6 -0.013852 -0.000381 -0.004028 0.007304 -0.017448 0.032606
#
#
# Mechanical properties :
#
#
# Convention : Reuss Voigt Hill
#
# Bulk Modulus (GPa) = 32.85691 87.98970 60.42330
# Shear Modulus (GPa) = 34.26559 54.28152 44.27355
#
# Velocity S-wave (km/s) = 3.43076 4.31805 3.89972
# Velocity P-wave (km/s) = 5.19420 7.42192 6.40565
#
# Compressibility (1/GPa) = 0.03043500
#
# Stress axis : x y z
#
# Youngs Moduli (GPa) = 50.98462 212.70932 88.73636
#
# Poissons Ratio (x) = 0.24715 -0.04384
# Poissons Ratio (y) = 0.05924 0.16921
# Poissons Ratio (z) = -0.02519 0.40561
#
# Static dielectric constant tensor:
#      x y z
#    x 2.593720 -0.178950 0.181080 
#    y -0.178950 2.162350 -0.124200 
#    z 0.181080 -0.124200 2.523950 
# 
# From -- ./inp_files/424754.got.cif
#   From: 2010.05.17/outbox.cif.g08.bks.cpg/sg2_213_cif.got.tgz:424754.got - 2010.06.03 11:33:40.
