data_PCOD9020361
_publ_section_title
;
Structure prediction by ZEFSAII (Michael W. Deem and Ramdas Pophale) SiO2 
 PCOD9020361
Probable space group: P -1
;
_chemical_formula_sum "Si O2"
_cell_formula_units_Z 16
_cell_length_a 17.326319
_cell_length_b 19.860806
_cell_length_c 12.052445
_cell_angle_alpha 137.674424
_cell_angle_beta 31.452137
_cell_angle_gamma 158.188898
_cell_volume 773.803761
_symmetry_space_group_name_H-M "P -1"
_symmetry_group_IT_number 2
_symmetry_cell_setting 'triclinic'
loop_
_space_group_symop_operation_xyz
x,y,z
-x,-y,-z
loop_
_atom_site_type_symbol
_atom_site_label
_atom_site_fract_x
_atom_site_fract_y
_atom_site_fract_z
Si Si1 0.261423 0.874882 0.331061
Si Si2 0.064016 0.437817 0.207246
Si Si3 0.388604 0.432668 0.799901
Si Si4 0.227715 0.715494 0.843981
Si Si5 0.847350 0.791793 0.818598
Si Si6 0.196194 0.486869 0.698904
Si Si7 0.693779 0.211256 0.595888
Si Si8 0.103396 0.945879 0.934935
O O1 0.299617 0.853198 0.381528
O O2 0.095891 0.884436 0.556780
O O3 0.064460 0.688289 0.276030
O O4 0.551329 0.068684 0.154563
O O5 0.832101 0.329307 0.267803
O O6 0.920140 0.319371 0.353968
O O7 0.226912 0.632115 0.269231
O O8 0.263746 0.465398 0.950603
O O9 0.576060 0.574002 0.848707
O O10 0.588712 0.480769 0.536707
O O11 0.121889 0.214227 0.892844
O O12 0.322443 0.663744 0.715923
O O13 0.943320 0.577710 0.089585
O O14 0.944409 0.838477 0.883103
O O15 0.816266 0.891463 0.956212
O O16 0.385997 0.044428 0.718953
#
# Coordination Sequence:
#
# PCOD9020361 Si02
#       8
#     2   2   2   2   2   2   2   2
#     4  11  21  40  64  90 120 156 201 247 298 358
#     4  11  23  40  62  87 126 159 195 249 301 354
#     4  11  22  39  59  85 120 159 195 248 297 351
#     4  11  22  42  66  88 119 160 201 253 294 351
#     4  10  22  35  55  88 121 155 196 242 295 358
#     4  10  24  41  63  92 119 155 207 249 298 347
#     4  11  23  39  61  92 121 159 200 242 300 365
#     4  11  21  37  57  85 122 159 198 238 295 362
#
# _framework density 20.677077000000001
#
# number of rings (size 3 to 8) (size 9 to 14) (size 15 to 20)
#    0.000    1.250    2.500    3.750    0.000    4.000 
#    0.000    0.000    0.000    1.500    0.000    0.000 
#    0.000    0.000    0.000    0.000    0.000    0.000 
#
# Total GULP energy -89393.937585 kJ/mol
# GULP energy per Si atom -5587.121099 kJ/mol
# Density = 2.063002 g / cm^3
# Si number density = 20.677077 Si / 1000 Ang^3
#
#
#
# Elastic Constant Matrix: (Units=GPa)
#
#
# Indices 1 2 3 4 5 6 
#
# 1 67.1418 15.8897 18.5088 -3.9440 -1.8808 -7.8599
# 2 15.8897 79.1536 13.1158 -8.5644 -0.2001 -18.6369
# 3 18.5088 13.1158 78.9856 5.2602 -16.6569 -20.8901
# 4 -3.9440 -8.5644 5.2602 30.8050 0.4966 -2.7880
# 5 -1.8808 -0.2001 -16.6569 0.4966 29.8430 -0.5815
# 6 -7.8599 -18.6369 -20.8901 -2.7880 -0.5815 26.5879
#
#
#
# Elastic Compliance Matrix: (Units=1/GPa)
#
#
# Indices 1 2 3 4 5 6 
#
# 1 0.016644 -0.002364 -0.003741 0.002178 -0.001081 0.000529
# 2 -0.002364 0.016349 0.000755 0.005183 0.000528 0.011910
# 3 -0.003741 0.000755 0.019931 -0.002490 0.011229 0.015067
# 4 0.002178 0.005183 -0.002490 0.035175 -0.001687 0.005972
# 5 -0.001081 0.000528 0.011229 -0.001687 0.039926 0.009569
# 6 0.000529 0.011910 0.015067 0.005972 0.009569 0.058790
#
#
# Mechanical properties :
#
#
# Convention : Reuss Voigt Hill
#
# Bulk Modulus (GPa) = 23.68276 35.58995 29.63635
# Shear Modulus (GPa) = 23.63075 29.29828 26.46451
#
# Velocity S-wave (km/s) = 3.38427 3.76832 3.58145
# Velocity P-wave (km/s) = 5.17200 6.01525 5.60949
#
# Compressibility (1/GPa) = 0.04222482
#
# Stress axis : x y z
#
# Youngs Moduli (GPa) = 60.08142 61.16430 50.17432
#
# Poissons Ratio (x) = 0.14459 0.18769
# Poissons Ratio (y) = 0.14203 -0.03789
# Poissons Ratio (z) = 0.22475 -0.04618
#
# Static dielectric constant tensor:
#      x y z
#    x 1.711810 0.007140 -0.012590 
#    y 0.007140 1.747140 0.011150 
#    z -0.012590 0.011150 1.737710 
# 
# From -- ./inp_files/272196.got.cif
#   From: 2010.05.17/outbox.cif.g08.bks.cpg/sg2_137_cif.got.tgz:272196.got - 2010.06.03 11:33:40.
