data_PCOD9020115
_publ_section_title
;
Structure prediction by ZEFSAII (Michael W. Deem and Ramdas Pophale) SiO2 
 PCOD9020115
Probable space group: P -1
;
_chemical_formula_sum "Si O2"
_cell_formula_units_Z 13
_cell_length_a 18.343722
_cell_length_b 9.518286
_cell_length_c 5.989421
_cell_angle_alpha 82.445211
_cell_angle_beta 70.614032
_cell_angle_gamma 31.605933
_cell_volume 492.200926
_symmetry_space_group_name_H-M "P -1"
_symmetry_group_IT_number 2
_symmetry_cell_setting 'triclinic'
loop_
_space_group_symop_operation_xyz
x,y,z
-x,-y,-z
loop_
_atom_site_type_symbol
_atom_site_label
_atom_site_fract_x
_atom_site_fract_y
_atom_site_fract_z
Si Si1 0.963611 0.624556 0.254781
Si Si2 0.140181 0.599426 0.949117
Si Si3 0.704384 0.181706 0.681606
Si Si4 0.887249 0.119320 0.784267
Si Si5 0.435141 0.816543 0.826628
Si Si6 0.500000 0.000000 0.000000
Si Si7 0.263040 0.236190 0.523361
O O1 0.899283 0.577421 0.435411
O O2 0.825353 0.943846 0.420318
O O3 0.000000 0.500000 0.000000
O O4 0.104652 0.511859 0.130700
O O5 0.234458 0.417371 0.671918
O O6 0.206660 0.603589 0.060276
O O7 0.982374 0.903380 0.937735
O O8 0.788784 0.153082 0.772605
O O9 0.564364 0.500645 0.677087
O O10 0.648371 0.137668 0.896773
O O11 0.000000 0.000000 0.500000
O O12 0.330594 0.015804 0.677139
O O13 0.496038 0.870597 0.843258
O O14 0.387477 0.084527 0.253812
#
# Coordination Sequence:
#
# PCOD9020115 Si02
#       7
#     2   2   2   2   2   1   2
#     4  10  21  46  71 103 146 187 244 303 364 436
#     4  10  24  43  70 109 144 190 248 301 376 428
#     4  11  24  49  73 110 150 198 250 297 376 449
#     4  11  23  42  71 107 145 193 237 312 365 442
#     4  11  27  46  73 108 149 201 244 304 364 444
#     4  12  26  48  68 108 146 194 248 300 364 440
#     4  11  25  47  72 107 148 194 245 308 368 443
#
# _framework density 26.411975999999999
#
# number of rings (size 3 to 8) (size 9 to 14) (size 15 to 20)
#    0.000    1.231    3.077    1.385    4.308    0.615 
#    2.769    3.077    0.000    0.000    0.000    0.000 
#    0.000    0.000    0.000    0.000    0.000    0.000 
#
# Total GULP energy -72401.114399 kJ/mol
# GULP energy per Si atom -5569.316492 kJ/mol
# Density = 2.635186 g / cm^3
# Si number density = 26.411976 Si / 1000 Ang^3
#
#
#
# Elastic Constant Matrix: (Units=GPa)
#
#
# Indices 1 2 3 4 5 6 
#
# 1 199.7550 17.0342 24.3429 1.5992 -9.0735 36.7199
# 2 17.0342 67.7714 11.2163 -7.8817 6.5955 7.3691
# 3 24.3429 11.2163 149.5157 20.4175 -24.8924 24.9952
# 4 1.5992 -7.8817 20.4175 53.9731 13.5236 14.0915
# 5 -9.0735 6.5955 -24.8924 13.5236 42.2895 12.8307
# 6 36.7199 7.3691 24.9952 14.0915 12.8307 38.5406
#
#
#
# Elastic Compliance Matrix: (Units=1/GPa)
#
#
# Indices 1 2 3 4 5 6 
#
# 1 0.006819 -0.001454 0.001301 0.000116 0.005089 -0.008799
# 2 -0.001454 0.016754 -0.002788 0.005052 -0.006249 0.000224
# 3 0.001301 -0.002788 0.010986 -0.004958 0.011783 -0.009941
# 4 0.000116 0.005052 -0.004958 0.024659 -0.010546 -0.003365
# 5 0.005089 -0.006249 0.011783 -0.010546 0.042579 -0.021614
# 6 -0.008799 0.000224 -0.009941 -0.003365 -0.021614 0.049161
#
#
# Mechanical properties :
#
#
# Convention : Reuss Voigt Hill
#
# Bulk Modulus (GPa) = 34.87017 58.02544 46.44781
# Shear Modulus (GPa) = 30.04831 51.25721 40.65276
#
# Velocity S-wave (km/s) = 3.37661 4.41009 3.92749
# Velocity P-wave (km/s) = 5.33226 6.92452 6.17989
#
# Compressibility (1/GPa) = 0.02867781
#
# Stress axis : x y z
#
# Youngs Moduli (GPa) = 146.64164 59.68815 91.02317
#
# Poissons Ratio (x) = 0.08681 -0.11845
# Poissons Ratio (y) = 0.21327 0.25374
# Poissons Ratio (z) = -0.19082 0.16639
#
# Static dielectric constant tensor:
#      x y z
#    x 2.183950 -0.164260 0.050660 
#    y -0.164260 2.515350 -0.034300 
#    z 0.050660 -0.034300 1.971750 
# 
# From -- ./inp_files/103794.got.cif
#   From: 2010.05.17/outbox.cif.g08.bks.cpg/sg2_52_cif.got.tgz:103794.got - 2010.06.03 11:33:40.
