data_PCOD9020598
_publ_section_title
;
Structure prediction by ZEFSAII (Michael W. Deem and Ramdas Pophale) SiO2 
 PCOD9020598
Probable space group: P -1
;
_chemical_formula_sum "Si O2"
_cell_formula_units_Z 12
_cell_length_a 8.451280
_cell_length_b 19.188518
_cell_length_c 11.457153
_cell_angle_alpha 38.914698
_cell_angle_beta 127.837504
_cell_angle_gamma 147.053418
_cell_volume 630.479763
_symmetry_space_group_name_H-M "P -1"
_symmetry_group_IT_number 2
_symmetry_cell_setting 'triclinic'
loop_
_space_group_symop_operation_xyz
x,y,z
-x,-y,-z
loop_
_atom_site_type_symbol
_atom_site_label
_atom_site_fract_x
_atom_site_fract_y
_atom_site_fract_z
Si Si1 0.774949 0.003869 0.429495
Si Si2 0.117837 0.290681 0.394721
Si Si3 0.947991 0.020867 0.816279
Si Si4 0.569983 0.568343 0.074838
Si Si5 0.203906 0.920397 0.913809
Si Si6 0.620790 0.256614 0.220798
O O1 0.933404 0.149676 0.398803
O O2 0.511057 0.843659 0.587916
O O3 0.706297 0.033198 0.240220
O O4 0.000000 0.000000 0.500000
O O5 0.431667 0.436924 0.285917
O O6 0.944612 0.337141 0.261842
O O7 0.083031 0.196667 0.614968
O O8 0.603548 0.878492 0.806277
O O9 0.100442 0.993447 0.833201
O O10 0.000000 0.000000 0.000000
O O11 0.916883 0.726685 0.041560
O O12 0.500000 0.500000 0.000000
O O13 0.420442 0.628724 0.942982
O O14 0.500000 0.000000 0.000000
#
# Coordination Sequence:
#
# PCOD9020598 Si02
#       6
#     2   2   2   2   2   2
#     4  11  17  38  62  87 116 160 211 248 284 359
#     4  11  21  37  64  89 120 156 206 251 299 352
#     4  10  22  38  59  88 125 160 197 244 302 361
#     4  11  21  40  64  91 122 154 204 259 298 351
#     4  11  24  38  61  90 122 158 206 247 299 360
#     4  10  22  36  62  93 117 157 208 246 297 363
#
# _framework density 19.033124000000001
#
# number of rings (size 3 to 8) (size 9 to 14) (size 15 to 20)
#    0.000    1.333    6.667    2.500    4.667    0.000 
#    0.000    4.167    3.667    0.000    0.000    0.000 
#    0.000    0.000    0.000    0.000    0.000    0.000 
#
# Total GULP energy -66887.183644 kJ/mol
# GULP energy per Si atom -5573.931970 kJ/mol
# Density = 1.898980 g / cm^3
# Si number density = 19.033124 Si / 1000 Ang^3
#
#
#
# Elastic Constant Matrix: (Units=GPa)
#
#
# Indices 1 2 3 4 5 6 
#
# 1 56.7106 28.8431 23.2996 -0.0539 -13.6694 5.6909
# 2 28.8431 73.5713 55.1392 2.5183 -9.3762 19.9838
# 3 23.2996 55.1392 126.8736 0.8695 -35.3537 5.4441
# 4 -0.0539 2.5183 0.8695 32.0754 -2.4785 1.0721
# 5 -13.6694 -9.3762 -35.3537 -2.4785 43.9319 -0.1801
# 6 5.6909 19.9838 5.4441 1.0721 -0.1801 27.1915
#
#
#
# Elastic Compliance Matrix: (Units=1/GPa)
#
#
# Indices 1 2 3 4 5 6 
#
# 1 0.023596 -0.010660 0.002088 0.001265 0.006828 0.002473
# 2 -0.010660 0.031682 -0.013021 -0.002095 -0.007227 -0.018411
# 3 0.002088 -0.013021 0.015888 0.001226 0.010750 0.005974
# 4 0.001265 -0.002095 0.001226 0.031526 0.002711 -0.000195
# 5 0.006828 -0.007227 0.010750 0.002711 0.032156 0.001836
# 6 0.002473 -0.018411 0.005974 -0.000195 0.001836 0.048613
#
#
# Mechanical properties :
#
#
# Convention : Reuss Voigt Hill
#
# Bulk Modulus (GPa) = 35.74074 52.41326 44.07700
# Shear Modulus (GPa) = 21.18873 30.63131 25.91002
#
# Velocity S-wave (km/s) = 3.34017 4.01605 3.69360
# Velocity P-wave (km/s) = 5.80470 7.00732 6.43417
#
# Compressibility (1/GPa) = 0.02797928
#
# Stress axis : x y z
#
# Youngs Moduli (GPa) = 42.37930 31.56400 62.94045
#
# Poissons Ratio (x) = 0.33648 -0.13139
# Poissons Ratio (y) = 0.45178 0.81953
# Poissons Ratio (z) = -0.08847 0.41098
#
# Static dielectric constant tensor:
#      x y z
#    x 1.644770 0.020030 0.103720 
#    y 0.020030 1.638280 -0.047100 
#    z 0.103720 -0.047100 1.520600 
# 
# From -- ./inp_files/146693.got.cif
#   From: 2010.05.17/outbox.cif.g08.bks.cpg/sg2_74_cif.got.tgz:146693.got - 2010.06.03 11:33:40.
