data_PCOD9020280
_publ_section_title
;
Structure prediction by ZEFSAII (Michael W. Deem and Ramdas Pophale) SiO2 
 PCOD9020280
Probable space group: P -1
;
_chemical_formula_sum "Si O2"
_cell_formula_units_Z 15
_cell_length_a 10.614802
_cell_length_b 8.992426
_cell_length_c 8.129153
_cell_angle_alpha 111.385230
_cell_angle_beta 99.075391
_cell_angle_gamma 113.628716
_cell_volume 618.529157
_symmetry_space_group_name_H-M "P -1"
_symmetry_group_IT_number 2
_symmetry_cell_setting 'triclinic'
loop_
_space_group_symop_operation_xyz
x,y,z
-x,-y,-z
loop_
_atom_site_type_symbol
_atom_site_label
_atom_site_fract_x
_atom_site_fract_y
_atom_site_fract_z
Si Si1 0.091680 0.278591 0.006326
Si Si2 0.597741 0.714795 0.104245
Si Si3 0.057000 0.879150 0.751859
Si Si4 0.629262 0.334814 0.714921
Si Si5 0.212374 0.225828 0.538730
Si Si6 0.798604 0.139789 0.739155
Si Si7 0.351337 0.002850 0.995380
Si Si8 0.500000 0.500000 0.500000
O O1 0.247158 0.464856 0.108822
O O2 0.080679 0.079877 0.892173
O O3 0.033642 0.256497 0.172861
O O4 0.969404 0.283175 0.867341
O O5 0.499662 0.773038 0.219681
O O6 0.739434 0.753594 0.254419
O O7 0.608764 0.786894 0.949721
O O8 0.500000 0.500000 0.000000
O O9 0.219074 0.901929 0.793595
O O10 0.949751 0.806901 0.544896
O O11 0.713288 0.222485 0.657233
O O12 0.555218 0.375288 0.562613
O O13 0.338705 0.389571 0.523551
O O14 0.208138 0.039253 0.408614
O O15 0.720026 0.073624 0.875074
O O16 0.500000 0.000000 0.000000
#
# Coordination Sequence:
#
# PCOD9020280 Si02
#       8
#     2   2   2   2   2   2   2   1
#     4   9  17  33  62  96 119 156 205 266 312 356
#     4  11  25  39  60  90 125 167 211 256 313 377
#     4   9  18  35  64  88 125 163 208 256 311 369
#     4  11  20  38  58  94 125 161 206 256 311 369
#     4  10  22  41  62  97 116 164 215 263 313 363
#     4  10  22  38  66  91 125 161 210 263 312 368
#     4  11  22  41  58  92 129 172 200 251 313 382
#     4  10  22  32  58  86 128 150 202 264 300 356
#
# _framework density 24.251079000000001
#
# number of rings (size 3 to 8) (size 9 to 14) (size 15 to 20)
#    0.000    1.867    2.667    2.000    3.733    2.667 
#    0.000    0.000    0.000    0.800    0.000    0.000 
#    0.000    0.000    0.000    0.000    0.000    0.000 
#
# Total GULP energy -83599.544911 kJ/mol
# GULP energy per Si atom -5573.302994 kJ/mol
# Density = 2.419588 g / cm^3
# Si number density = 24.251079 Si / 1000 Ang^3
#
#
#
# Elastic Constant Matrix: (Units=GPa)
#
#
# Indices 1 2 3 4 5 6 
#
# 1 135.0102 29.7257 37.2620 -15.2357 46.2326 0.0539
# 2 29.7257 94.4440 12.3678 -22.7322 13.5252 3.9880
# 3 37.2620 12.3678 68.3375 -7.5759 29.5285 -7.0480
# 4 -15.2357 -22.7322 -7.5759 29.9630 -2.8249 13.6689
# 5 46.2326 13.5252 29.5285 -2.8249 39.3263 -7.8458
# 6 0.0539 3.9880 -7.0480 13.6689 -7.8458 47.6873
#
#
#
# Elastic Compliance Matrix: (Units=1/GPa)
#
#
# Indices 1 2 3 4 5 6 
#
# 1 0.014154 0.000157 0.000034 0.008060 -0.017170 -0.005159
# 2 0.000157 0.014881 0.000752 0.013759 -0.006092 -0.006080
# 3 0.000034 0.000752 0.022197 0.005072 -0.016801 -0.001000
# 4 0.008060 0.013759 0.005072 0.056415 -0.017858 -0.019519
# 5 -0.017170 -0.006092 -0.016801 -0.017858 0.061698 0.013315
# 6 -0.005159 -0.006080 -0.001000 -0.019519 0.013315 0.029122
#
#
# Mechanical properties :
#
#
# Convention : Reuss Voigt Hill
#
# Bulk Modulus (GPa) = 18.82557 50.72252 34.77405
# Shear Modulus (GPa) = 23.33324 37.95775 30.64549
#
# Velocity S-wave (km/s) = 3.10522 3.96055 3.55868
# Velocity P-wave (km/s) = 4.54271 6.47114 5.59070
#
# Compressibility (1/GPa) = 0.05311923
#
# Stress axis : x y z
#
# Youngs Moduli (GPa) = 70.65183 67.19852 45.05024
#
# Poissons Ratio (x) = -0.01057 -0.00155
# Poissons Ratio (y) = -0.01112 -0.03386
# Poissons Ratio (z) = -0.00243 -0.05051
#
# Static dielectric constant tensor:
#      x y z
#    x 2.027910 0.035100 -0.021150 
#    y 0.035100 1.975090 0.055460 
#    z -0.021150 0.055460 2.023490 
# 
# From -- ./inp_files/245156.got.cif
#   From: 2010.05.17/outbox.cif.g08.bks.cpg/sg2_123_cif.got.tgz:245156.got - 2010.06.03 11:33:40.
