data_PCOD9020192
_publ_section_title
;
Structure prediction by ZEFSAII (Michael W. Deem and Ramdas Pophale) SiO2 
 PCOD9020192
Probable space group: P -1
;
_chemical_formula_sum "Si O2"
_cell_formula_units_Z 16
_cell_length_a 11.953002
_cell_length_b 12.126684
_cell_length_c 8.065193
_cell_angle_alpha 76.290082
_cell_angle_beta 144.921483
_cell_angle_gamma 109.587750
_cell_volume 631.463795
_symmetry_space_group_name_H-M "P -1"
_symmetry_group_IT_number 2
_symmetry_cell_setting 'triclinic'
loop_
_space_group_symop_operation_xyz
x,y,z
-x,-y,-z
loop_
_atom_site_type_symbol
_atom_site_label
_atom_site_fract_x
_atom_site_fract_y
_atom_site_fract_z
Si Si1 0.099601 0.862009 0.542224
Si Si2 0.525981 0.113276 0.166067
Si Si3 0.596357 0.232223 0.540835
Si Si4 0.024165 0.813285 0.841055
Si Si5 0.645724 0.681823 0.271635
Si Si6 0.215079 0.050970 0.078341
Si Si7 0.420900 0.451315 0.245169
Si Si8 0.930939 0.617167 0.357234
O O1 0.317890 0.939069 0.729740
O O2 0.030280 0.868309 0.643435
O O3 0.111656 0.728901 0.574595
O O4 0.928814 0.878832 0.205129
O O5 0.650444 0.184174 0.447693
O O6 0.355443 0.028448 0.101446
O O7 0.432885 0.206668 0.921524
O O8 0.387265 0.134291 0.371018
O O9 0.539001 0.352370 0.389394
O O10 0.786434 0.243260 0.886632
O O11 0.805923 0.723482 0.602027
O O12 0.071715 0.922809 0.987289
O O13 0.476099 0.567149 0.156567
O O14 0.768399 0.638334 0.287674
O O15 0.500000 0.500000 0.500000
O O16 0.185770 0.390898 0.955444
O O17 0.000000 0.500000 0.500000
#
# Coordination Sequence:
#
# PCOD9020192 Si02
#       8
#     2   2   2   2   2   2   2   2
#     4  11  22  40  69  99 124 174 223 262 327 388
#     4  10  22  42  66  94 130 174 212 265 324 396
#     4  10  23  44  62  94 133 173 212 269 337 378
#     4  11  23  42  69  96 133 171 217 279 321 385
#     4  11  24  44  63  99 132 174 219 271 325 394
#     4  10  21  47  67  93 137 171 219 268 328 386
#     4  12  26  42  64  94 137 172 215 280 326 388
#     4  11  22  40  67  93 129 174 217 263 328 396
#
# _framework density 25.337952999999999
#
# number of rings (size 3 to 8) (size 9 to 14) (size 15 to 20)
#    0.750    0.500    5.000    1.875    7.000    2.000 
#    0.000    0.625    0.000    0.000    0.000    0.000 
#    0.000    0.000    0.000    0.000    0.000    0.000 
#
# Total GULP energy -89337.957823 kJ/mol
# GULP energy per Si atom -5583.622364 kJ/mol
# Density = 2.528028 g / cm^3
# Si number density = 25.337953 Si / 1000 Ang^3
#
#
#
# Elastic Constant Matrix: (Units=GPa)
#
#
# Indices 1 2 3 4 5 6 
#
# 1 40.1229 -24.4827 -8.6770 10.9479 1.6007 -4.5029
# 2 -24.4827 92.4524 21.5925 5.5921 1.0939 -1.0902
# 3 -8.6770 21.5925 162.5837 -5.7087 8.4874 0.1283
# 4 10.9479 5.5921 -5.7087 50.5411 -2.2439 7.6351
# 5 1.6007 1.0939 8.4874 -2.2439 31.3527 3.1327
# 6 -4.5029 -1.0902 0.1283 7.6351 3.1327 25.6744
#
#
#
# Elastic Compliance Matrix: (Units=1/GPa)
#
#
# Indices 1 2 3 4 5 6 
#
# 1 0.035297 0.010057 0.000384 -0.010436 -0.004024 0.010210
# 2 0.010057 0.014152 -0.001436 -0.004553 -0.001333 0.003889
# 3 0.000384 -0.001436 0.006475 0.000740 -0.001665 -0.000043
# 4 -0.010436 -0.004553 0.000740 0.024229 0.003187 -0.009621
# 5 -0.004024 -0.001333 -0.001665 0.003187 0.033403 -0.005777
# 6 0.010210 0.003889 -0.000043 -0.009621 -0.005777 0.044471
#
#
# Mechanical properties :
#
#
# Convention : Reuss Voigt Hill
#
# Bulk Modulus (GPa) = 13.52588 30.22498 21.87543
# Shear Modulus (GPa) = 30.36511 41.96204 36.16358
#
# Velocity S-wave (km/s) = 3.46555 4.07393 3.78199
# Velocity P-wave (km/s) = 4.62203 5.83814 5.26531
#
# Compressibility (1/GPa) = 0.07393232
#
# Stress axis : x y z
#
# Youngs Moduli (GPa) = 28.33109 70.66154 154.44456
#
# Poissons Ratio (x) = -0.71062 -0.05926
# Poissons Ratio (y) = -0.28492 0.22180
# Poissons Ratio (z) = -0.01087 0.10148
#
# Static dielectric constant tensor:
#      x y z
#    x 2.152470 -0.170080 0.048270 
#    y -0.170080 2.362020 -0.073990 
#    z 0.048270 -0.073990 2.011610 
# 
# From -- ./inp_files/307221.got.cif
#   From: 2010.05.17/outbox.cif.g08.bks.cpg/sg2_154_cif.got.tgz:307221.got - 2010.06.03 11:33:40.
