data_PCOD9020808
_publ_section_title
;
Structure prediction by ZEFSAII (Michael W. Deem and Ramdas Pophale) SiO2 
 PCOD9020808
Probable space group: P -1
;
_chemical_formula_sum "Si O2"
_cell_formula_units_Z 14
_cell_length_a 11.458973
_cell_length_b 20.792312
_cell_length_c 6.665752
_cell_angle_alpha 43.956689
_cell_angle_beta 120.745283
_cell_angle_gamma 147.276168
_cell_volume 576.769586
_symmetry_space_group_name_H-M "P -1"
_symmetry_group_IT_number 2
_symmetry_cell_setting 'triclinic'
loop_
_space_group_symop_operation_xyz
x,y,z
-x,-y,-z
loop_
_atom_site_type_symbol
_atom_site_label
_atom_site_fract_x
_atom_site_fract_y
_atom_site_fract_z
Si Si1 0.890818 0.847358 0.827283
Si Si2 0.403317 0.255415 0.830304
Si Si3 0.650928 0.204374 0.186651
Si Si4 0.819111 0.042809 0.830223
Si Si5 0.102663 0.437609 0.809703
Si Si6 0.105744 0.616517 0.644783
Si Si7 0.244414 0.324463 0.302045
O O1 0.788093 0.734615 0.811760
O O2 0.703981 0.775721 0.983620
O O3 0.000000 0.000000 0.500000
O O4 0.082072 0.891802 0.009379
O O5 0.430233 0.365506 0.488535
O O6 0.600058 0.288496 0.947966
O O7 0.227413 0.093179 0.924288
O O8 0.720658 0.226531 0.430310
O O9 0.414437 0.040358 0.260774
O O10 0.859144 0.294976 0.023505
O O11 0.016220 0.179567 0.548818
O O12 0.197028 0.586913 0.638613
O O13 0.049714 0.410787 0.585789
O O14 0.255529 0.439765 0.027504
O O15 0.000000 0.500000 0.000000
#
# Coordination Sequence:
#
# PCOD9020808 Si02
#       7
#     2   2   2   2   2   2   2
#     4  11  15  29  51  75 114 155 178 203 257 324
#     4   9  19  33  54  81 111 147 182 214 261 323
#     4   9  19  37  59  79 109 145 184 218 275 322
#     4   9  19  32  52  84 112 146 179 213 262 323
#     4  10  22  37  59  83 103 142 187 231 273 325
#     4   9  20  41  61  73 103 145 187 228 282 323
#     4  11  20  33  54  86 118 142 182 220 263 324
#
# _framework density 24.273122000000001
#
# number of rings (size 3 to 8) (size 9 to 14) (size 15 to 20)
#    0.857    1.429    2.857    0.857    0.000    8.571 
#    0.000    2.143    0.000    8.571    0.000    0.000 
#    0.000    0.000    0.000    0.000    0.000    0.000 
#
# Total GULP energy -78112.230230 kJ/mol
# GULP energy per Si atom -5579.445016 kJ/mol
# Density = 2.421788 g / cm^3
# Si number density = 24.273122 Si / 1000 Ang^3
#
#
#
# Elastic Constant Matrix: (Units=GPa)
#
#
# Indices 1 2 3 4 5 6 
#
# 1 38.5248 21.9022 48.6649 12.6687 14.2951 7.4338
# 2 21.9022 81.5855 30.0858 25.4563 -10.5654 11.6676
# 3 48.6649 30.0858 123.6126 31.2675 10.7474 3.7484
# 4 12.6687 25.4563 31.2675 43.8021 -2.1720 -1.5460
# 5 14.2951 -10.5654 10.7474 -2.1720 49.4999 3.0929
# 6 7.4338 11.6676 3.7484 -1.5460 3.0929 32.5571
#
#
#
# Elastic Compliance Matrix: (Units=1/GPa)
#
#
# Indices 1 2 3 4 5 6 
#
# 1 0.068636 -0.011834 -0.023079 0.002419 -0.016789 -0.007064
# 2 -0.011834 0.019256 0.001765 -0.008871 0.007099 -0.005498
# 3 -0.023079 0.001765 0.018279 -0.007200 0.002636 0.001940
# 4 0.002419 -0.008871 -0.007200 0.032606 0.000090 0.004995
# 5 -0.016789 0.007099 0.002636 0.000090 0.026090 -0.001488
# 6 -0.007064 -0.005498 0.001940 0.004995 -0.001488 0.034454
#
#
# Mechanical properties :
#
#
# Convention : Reuss Voigt Hill
#
# Bulk Modulus (GPa) = 25.07718 49.44763 37.26240
# Shear Modulus (GPa) = 17.92704 34.70983 26.31844
#
# Velocity S-wave (km/s) = 2.72059 3.78560 3.29639
# Velocity P-wave (km/s) = 4.49694 6.28675 5.46561
#
# Compressibility (1/GPa) = 0.03987690
#
# Stress axis : x y z
#
# Youngs Moduli (GPa) = 14.56965 51.93119 54.70679
#
# Poissons Ratio (x) = 0.61454 1.26257
# Poissons Ratio (y) = 0.17241 -0.09658
# Poissons Ratio (z) = 0.33625 -0.09168
#
# Static dielectric constant tensor:
#      x y z
#    x 1.959770 -0.016770 0.073170 
#    y -0.016770 2.003400 -0.047580 
#    z 0.073170 -0.047580 1.987970 
# 
# From -- ./inp_files/82991.got.cif
#   From: 2010.05.17/outbox.cif.g08.bks.cpg/sg2_42_cif.got.tgz:82991.got - 2010.06.03 11:33:40.
