data_PCOD9020239
_publ_section_title
;
Structure prediction by ZEFSAII (Michael W. Deem and Ramdas Pophale) SiO2 
 PCOD9020239
Probable space group: P -1
;
_chemical_formula_sum "Si O2"
_cell_formula_units_Z 14
_cell_length_a 14.266946
_cell_length_b 13.941530
_cell_length_c 4.953612
_cell_angle_alpha 92.799652
_cell_angle_beta 77.391265
_cell_angle_gamma 34.314827
_cell_volume 492.794547
_symmetry_space_group_name_H-M "P -1"
_symmetry_group_IT_number 2
_symmetry_cell_setting 'triclinic'
loop_
_space_group_symop_operation_xyz
x,y,z
-x,-y,-z
loop_
_atom_site_type_symbol
_atom_site_label
_atom_site_fract_x
_atom_site_fract_y
_atom_site_fract_z
Si Si1 0.500000 0.000000 0.000000
Si Si2 0.302950 0.312259 0.394483
Si Si3 0.497872 0.704015 0.422037
Si Si4 0.960634 0.310785 0.642693
Si Si5 0.657462 0.416283 0.707417
Si Si6 0.255403 0.930004 0.095410
Si Si7 0.000000 0.000000 0.500000
Si Si8 0.839879 0.717651 0.170256
O O1 0.318569 0.146719 0.930452
O O2 0.532798 0.851925 0.937955
O O3 0.361188 0.329005 0.608045
O O4 0.128989 0.516482 0.407470
O O5 0.274065 0.224985 0.487232
O O6 0.580648 0.541165 0.512536
O O7 0.428126 0.760386 0.168884
O O8 0.321988 0.884239 0.743941
O O9 0.796168 0.372787 0.777866
O O10 0.058254 0.270250 0.838385
O O11 0.120709 0.125115 0.337943
O O12 0.806902 0.207777 0.502793
O O13 0.500000 0.500000 0.000000
O O14 0.128982 0.943835 0.191537
O O15 0.000000 0.500000 0.000000
#
# Coordination Sequence:
#
# PCOD9020239 Si02
#       8
#     1   2   2   2   2   2   1   2
#     4  12  26  44  74 102 152 192 264 310 400 466
#     4  11  26  44  70 106 145 204 250 324 386 469
#     4  11  26  46  76 108 156 198 262 320 394 474
#     4  10  24  46  70 110 150 200 261 326 397 469
#     4  10  21  47  77 112 153 206 257 330 395 480
#     4  11  25  46  74 110 151 202 259 325 394 471
#     4  10  22  46  74 112 150 204 258 326 398 470
#     4  12  26  47  75 108 152 201 258 330 387 482
#
# _framework density 28.409407000000002
#
# number of rings (size 3 to 8) (size 9 to 14) (size 15 to 20)
#    0.000    1.143    2.857    1.714    4.000    2.286 
#    0.000    5.714    0.000    0.000    0.000    0.000 
#    0.000    0.000    0.000    0.000    0.000    0.000 
#
# Total GULP energy -78023.540296 kJ/mol
# GULP energy per Si atom -5573.110021 kJ/mol
# Density = 2.834475 g / cm^3
# Si number density = 28.409407 Si / 1000 Ang^3
#
#
#
# Elastic Constant Matrix: (Units=GPa)
#
#
# Indices 1 2 3 4 5 6 
#
# 1 141.8222 35.5990 40.3110 -12.9702 0.3416 -18.3319
# 2 35.5990 222.6202 37.7430 11.0725 1.8303 7.1308
# 3 40.3110 37.7430 81.1792 -16.4357 -10.8047 -4.4663
# 4 -12.9702 11.0725 -16.4357 50.7792 -3.0864 5.7286
# 5 0.3416 1.8303 -10.8047 -3.0864 40.7839 10.9271
# 6 -18.3319 7.1308 -4.4663 5.7286 10.9271 49.1041
#
#
#
# Elastic Compliance Matrix: (Units=1/GPa)
#
#
# Indices 1 2 3 4 5 6 
#
# 1 0.008907 -0.000884 -0.003943 0.000684 -0.001952 0.003450
# 2 -0.000884 0.005213 -0.002579 -0.002148 -0.000835 -0.000885
# 3 -0.003943 -0.002579 0.017277 0.005643 0.005532 -0.001416
# 4 0.000684 -0.002148 0.005643 0.022679 0.003957 -0.002446
# 5 -0.001952 -0.000835 0.005532 0.003957 0.028170 -0.006835
# 6 0.003450 -0.000885 -0.001416 -0.002446 -0.006835 0.023459
#
#
# Mechanical properties :
#
#
# Convention : Reuss Voigt Hill
#
# Bulk Modulus (GPa) = 60.30432 74.76974 67.53703
# Shear Modulus (GPa) = 39.66824 50.26468 44.96646
#
# Velocity S-wave (km/s) = 3.74077 4.21086 3.98276
# Velocity P-wave (km/s) = 6.31908 7.07231 6.70628
#
# Compressibility (1/GPa) = 0.01658256
#
# Stress axis : x y z
#
# Youngs Moduli (GPa) = 112.27096 191.83880 57.88117
#
# Poissons Ratio (x) = 0.16962 0.22825
# Poissons Ratio (y) = 0.09927 0.14929
# Poissons Ratio (z) = 0.44274 0.49481
#
# Static dielectric constant tensor:
#      x y z
#    x 2.275960 0.115920 0.089090 
#    y 0.115920 2.103670 -0.032580 
#    z 0.089090 -0.032580 1.824530 
# 
# From -- ./inp_files/98076.got.cif
#   From: 2010.05.17/outbox.cif.g08.bks.cpg/sg2_50_cif.got.tgz:98076.got - 2010.06.03 11:33:40.
