data_PCOD9020181
_publ_section_title
;
Structure prediction by ZEFSAII (Michael W. Deem and Ramdas Pophale) SiO2 
 PCOD9020181
Probable space group: P -1
;
_chemical_formula_sum "Si O2"
_cell_formula_units_Z 16
_cell_length_a 28.682966
_cell_length_b 5.945436
_cell_length_c 25.642829
_cell_angle_alpha 61.151118
_cell_angle_beta 9.842978
_cell_angle_gamma 61.370818
_cell_volume 654.569804
_symmetry_space_group_name_H-M "P -1"
_symmetry_group_IT_number 2
_symmetry_cell_setting 'triclinic'
loop_
_space_group_symop_operation_xyz
x,y,z
-x,-y,-z
loop_
_atom_site_type_symbol
_atom_site_label
_atom_site_fract_x
_atom_site_fract_y
_atom_site_fract_z
Si Si1 0.333612 0.331079 0.774485
Si Si2 0.113928 0.524486 0.285149
Si Si3 0.917196 0.911439 0.307654
Si Si4 0.393001 0.524810 0.323496
Si Si5 0.879354 0.288117 0.115124
Si Si6 0.915334 0.017023 0.416091
Si Si7 0.537917 0.309259 0.928567
Si Si8 0.453513 0.295080 0.756845
O O1 0.579888 0.253698 0.473661
O O2 0.149864 0.544502 0.924004
O O3 0.422740 0.438280 0.720290
O O4 0.176762 0.074543 0.991452
O O5 0.969066 0.802855 0.423702
O O6 0.869278 0.351053 0.552268
O O7 0.331711 0.585837 0.992548
O O8 0.304942 0.425425 0.132734
O O9 0.886663 0.625090 0.355883
O O10 0.853964 0.897382 0.440302
O O11 0.671650 0.064185 0.532630
O O12 0.428513 0.551957 0.342393
O O13 0.336952 0.785633 0.323401
O O14 0.000000 0.500000 0.000000
O O15 0.000000 0.000000 0.000000
O O16 0.187874 0.168705 0.087912
O O17 0.500000 0.500000 0.000000
O O18 0.500000 0.000000 0.000000
#
# Coordination Sequence:
#
# PCOD9020181 Si02
#       8
#     2   2   2   2   2   2   2   2
#     4  10  24  48  75 105 147 204 253 332 397 479
#     4  12  27  51  84 113 165 214 272 338 402 479
#     4  10  21  47  61 113 153 195 247 311 396 484
#     4  11  25  43  75 112 160 202 250 316 405 489
#     4  11  26  55  76 106 142 199 278 325 403 460
#     4  10  24  43  68 109 153 202 250 308 396 482
#     4  12  31  57  84 121 161 218 283 342 399 463
#     4  10  22  43  67 110 155 190 252 309 397 485
#
# _framework density 24.443536000000002
#
# number of rings (size 3 to 8) (size 9 to 14) (size 15 to 20)
#    0.000    1.250    1.250    2.250    7.000    2.000 
#   29.250    0.000    0.000    0.000    0.000    0.000 
#    0.000    0.000    0.000    0.000    0.000    0.000 
#
# Total GULP energy -89276.005027 kJ/mol
# GULP energy per Si atom -5579.750314 kJ/mol
# Density = 2.438790 g / cm^3
# Si number density = 24.443536 Si / 1000 Ang^3
#
#
#
# Elastic Constant Matrix: (Units=GPa)
#
#
# Indices 1 2 3 4 5 6 
#
# 1 123.4039 86.7776 23.9181 7.3986 -27.8474 -22.3642
# 2 86.7776 148.1312 43.8813 8.0901 -10.3858 4.9098
# 3 23.9181 43.8813 87.3451 -0.4992 -6.7362 1.2615
# 4 7.3986 8.0901 -0.4992 33.4283 -2.1390 -6.9281
# 5 -27.8474 -10.3858 -6.7362 -2.1390 40.5842 3.9169
# 6 -22.3642 4.9098 1.2615 -6.9281 3.9169 31.4502
#
#
#
# Elastic Compliance Matrix: (Units=1/GPa)
#
#
# Indices 1 2 3 4 5 6 
#
# 1 0.023219 -0.013938 0.001249 0.002656 0.010989 0.017853
# 2 -0.013938 0.016598 -0.004757 -0.003929 -0.005103 -0.012542
# 3 0.001249 -0.004757 0.013632 0.001440 0.001866 0.001169
# 4 0.002656 -0.003929 0.001440 0.032354 0.001860 0.009340
# 5 0.010989 -0.005103 0.001866 0.001860 0.030789 0.005111
# 6 0.017853 -0.012542 0.001169 0.009340 0.005111 0.047824
#
#
# Mechanical properties :
#
#
# Convention : Reuss Voigt Hill
#
# Bulk Modulus (GPa) = 53.88867 74.22603 64.05735
# Shear Modulus (GPa) = 24.33188 34.71276 29.52232
#
# Velocity S-wave (km/s) = 3.15847 3.77254 3.47908
# Velocity P-wave (km/s) = 5.94939 7.02910 6.51167
#
# Compressibility (1/GPa) = 0.01855678
#
# Stress axis : x y z
#
# Youngs Moduli (GPa) = 43.06830 60.24953 73.35887
#
# Poissons Ratio (x) = 0.83978 -0.09164
# Poissons Ratio (y) = 0.60030 0.34893
# Poissons Ratio (z) = -0.05380 0.28658
#
# Static dielectric constant tensor:
#      x y z
#    x 1.986540 0.015980 -0.026130 
#    y 0.015980 2.025460 0.001860 
#    z -0.026130 0.001860 1.956970 
# 
# From -- ./inp_files/621433.got.cif
#   From: 2010.05.17/outbox.cif.g08.bks.cpg/sg2_311_cif.got.tgz:621433.got - 2010.06.03 11:33:40.
