data_PCOD9020967
_publ_section_title
;
Structure prediction by ZEFSAII (Michael W. Deem and Ramdas Pophale) SiO2 
 PCOD9020967
Probable space group: P -1
;
_chemical_formula_sum "Si O2"
_cell_formula_units_Z 14
_cell_length_a 18.304166
_cell_length_b 10.844143
_cell_length_c 9.091217
_cell_angle_alpha 75.605306
_cell_angle_beta 47.529871
_cell_angle_gamma 37.597927
_cell_volume 626.481266
_symmetry_space_group_name_H-M "P -1"
_symmetry_group_IT_number 2
_symmetry_cell_setting 'triclinic'
loop_
_space_group_symop_operation_xyz
x,y,z
-x,-y,-z
loop_
_atom_site_type_symbol
_atom_site_label
_atom_site_fract_x
_atom_site_fract_y
_atom_site_fract_z
Si Si1 0.196171 0.105778 0.041673
Si Si2 0.915633 0.311586 0.883845
Si Si3 0.568676 0.907331 0.261417
Si Si4 0.265431 0.058252 0.642161
Si Si5 0.562108 0.534769 0.788582
Si Si6 0.910956 0.247183 0.568227
Si Si7 0.633116 0.462144 0.398588
O O1 0.022206 0.239155 0.336707
O O2 0.334846 0.066018 0.923641
O O3 0.137649 0.211371 0.923343
O O4 0.352966 0.812671 0.917338
O O5 0.909195 0.282743 0.730948
O O6 0.134735 0.117592 0.694927
O O7 0.756531 0.603075 0.055914
O O8 0.832217 0.283861 0.094897
O O9 0.500000 0.000000 0.500000
O O10 0.356685 0.083944 0.437221
O O11 0.474463 0.757611 0.503299
O O12 0.689386 0.490495 0.723885
O O13 0.689843 0.363919 0.518228
O O14 0.500000 0.500000 0.000000
O O15 0.000000 0.000000 0.500000
O O16 0.500000 0.500000 0.500000
#
# Coordination Sequence:
#
# PCOD9020967 Si02
#       7
#     2   2   2   2   2   2   2
#     4  10  22  41  66  93 123 169 211 260 329 380
#     4  11  24  41  64  98 131 165 216 269 314 385
#     4   9  21  43  69  95 125 160 216 272 326 378
#     4   9  21  40  65  97 124 160 215 268 318 379
#     4  11  22  41  62  86 130 169 209 260 316 376
#     4  12  26  40  61  92 135 175 211 254 320 387
#     4  10  22  37  63  93 124 168 215 262 315 374
#
# _framework density 22.347038000000001
#
# number of rings (size 3 to 8) (size 9 to 14) (size 15 to 20)
#    0.000    1.714    1.429    2.571    4.000    6.857 
#    0.000    1.429    0.000    0.000    0.000    0.000 
#    0.000    0.000    0.000    0.000    0.000    0.000 
#
# Total GULP energy -77959.392054 kJ/mol
# GULP energy per Si atom -5568.528004 kJ/mol
# Density = 2.229617 g / cm^3
# Si number density = 22.347038 Si / 1000 Ang^3
#
#
#
# Elastic Constant Matrix: (Units=GPa)
#
#
# Indices 1 2 3 4 5 6 
#
# 1 146.2413 21.9251 73.0397 -24.8496 -15.4244 -20.8445
# 2 21.9251 39.4464 23.0943 -9.4862 11.9806 1.6762
# 3 73.0397 23.0943 146.2875 -39.5798 -28.7740 -3.9634
# 4 -24.8496 -9.4862 -39.5798 37.5303 16.5259 -3.1723
# 5 -15.4244 11.9806 -28.7740 16.5259 45.2725 -1.3675
# 6 -20.8445 1.6762 -3.9634 -3.1723 -1.3675 40.7716
#
#
#
# Elastic Compliance Matrix: (Units=1/GPa)
#
#
# Indices 1 2 3 4 5 6 
#
# 1 0.010527 -0.004132 -0.003613 0.001728 0.001916 0.005400
# 2 -0.004132 0.038812 -0.005313 0.009302 -0.018575 -0.004124
# 3 -0.003613 -0.005313 0.012474 0.006999 0.005558 0.000315
# 4 0.001728 0.009302 0.006999 0.043709 -0.013254 0.004138
# 5 0.001916 -0.018575 0.005558 -0.013254 0.036102 0.002463
# 6 0.005400 -0.004124 0.000315 0.004138 0.002463 0.027892
#
#
# Mechanical properties :
#
#
# Convention : Reuss Voigt Hill
#
# Bulk Modulus (GPa) = 28.01289 63.12149 45.56719
# Shear Modulus (GPa) = 24.09288 38.97594 31.53441
#
# Velocity S-wave (km/s) = 3.28704 4.18080 3.76057
# Velocity P-wave (km/s) = 5.19315 7.18420 6.26824
#
# Compressibility (1/GPa) = 0.03569785
#
# Stress axis : x y z
#
# Youngs Moduli (GPa) = 94.99009 25.76543 80.16610
#
# Poissons Ratio (x) = 0.10645 0.28966
# Poissons Ratio (y) = 0.39246 0.42591
# Poissons Ratio (z) = 0.34322 0.13689
#
# Static dielectric constant tensor:
#      x y z
#    x 1.841250 0.088300 0.033460 
#    y 0.088300 1.954600 0.026730 
#    z 0.033460 0.026730 1.992770 
# 
# From -- ./inp_files/90303.got.cif
#   From: 2010.05.17/outbox.cif.g08.bks.cpg/sg2_46_cif.got.tgz:90303.got - 2010.06.03 11:33:40.
