data_PCOD9020626
_publ_section_title
;
Structure prediction by ZEFSAII (Michael W. Deem and Ramdas Pophale) SiO2 
 PCOD9020626
Probable space group: P -1
;
_chemical_formula_sum "Si O2"
_cell_formula_units_Z 14
_cell_length_a 8.340742
_cell_length_b 12.930063
_cell_length_c 9.284333
_cell_angle_alpha 31.288901
_cell_angle_beta 80.909076
_cell_angle_gamma 75.821767
_cell_volume 501.553612
_symmetry_space_group_name_H-M "P -1"
_symmetry_group_IT_number 2
_symmetry_cell_setting 'triclinic'
loop_
_space_group_symop_operation_xyz
x,y,z
-x,-y,-z
loop_
_atom_site_type_symbol
_atom_site_label
_atom_site_fract_x
_atom_site_fract_y
_atom_site_fract_z
Si Si1 0.418648 0.646570 0.159426
Si Si2 0.997414 0.534193 0.674642
Si Si3 0.858060 0.972923 0.164372
Si Si4 0.747195 0.446014 0.007100
Si Si5 0.884125 0.905066 0.852997
Si Si6 0.654483 0.841089 0.727782
Si Si7 0.318621 0.711470 0.485318
O O1 0.332956 0.618958 0.049990
O O2 0.509366 0.410860 0.463199
O O3 0.292202 0.827593 0.045448
O O4 0.578961 0.737030 0.995565
O O5 0.164126 0.618236 0.563458
O O6 0.936575 0.435325 0.945130
O O7 0.047169 0.326179 0.823663
O O8 0.851893 0.735254 0.428003
O O9 0.958655 0.988421 0.281639
O O10 0.000000 0.000000 0.000000
O O11 0.694517 0.678157 0.790095
O O12 0.690034 0.333467 0.287228
O O13 0.806764 0.910361 0.698836
O O14 0.734975 0.043962 0.802875
O O15 0.500000 0.000000 0.500000
#
# Coordination Sequence:
#
# PCOD9020626 Si02
#       7
#     2   2   2   2   2   2   2
#     4  11  21  40  61  95 131 164 218 271 305 384
#     4  11  22  41  64  93 130 165 222 259 318 394
#     4  11  27  47  68  90 121 172 231 285 323 360
#     4  11  20  35  60  98 133 175 196 249 319 397
#     4  11  22  43  65  94 135 174 213 262 313 391
#     4  11  21  36  63 100 139 171 205 247 324 400
#     4  10  22  36  63  95 139 163 206 250 324 394
#
# _framework density 27.913266
#
# number of rings (size 3 to 8) (size 9 to 14) (size 15 to 20)
#    0.000    1.143    4.286    4.714    0.000    1.143 
#    0.000    3.571    0.000    0.000    0.000    0.000 
#    0.000    0.000    0.000    0.000    0.000    0.000 
#
# Total GULP energy -78121.391737 kJ/mol
# GULP energy per Si atom -5580.099410 kJ/mol
# Density = 2.784973 g / cm^3
# Si number density = 27.913266 Si / 1000 Ang^3
#
#
#
# Elastic Constant Matrix: (Units=GPa)
#
#
# Indices 1 2 3 4 5 6 
#
# 1 41.3537 42.8631 25.0796 -5.2824 10.7523 -4.0841
# 2 42.8631 189.4404 71.4755 -58.0557 12.3823 -34.5209
# 3 25.0796 71.4755 164.5119 -69.5179 41.5741 -20.7156
# 4 -5.2824 -58.0557 -69.5179 68.2573 -17.1624 8.7033
# 5 10.7523 12.3823 41.5741 -17.1624 48.5803 -15.5410
# 6 -4.0841 -34.5209 -20.7156 8.7033 -15.5410 50.8623
#
#
#
# Elastic Compliance Matrix: (Units=1/GPa)
#
#
# Indices 1 2 3 4 5 6 
#
# 1 0.039493 -0.011868 -0.005558 -0.013825 -0.008172 -0.007279
# 2 -0.011868 0.011789 0.000565 0.010025 0.004943 0.007073
# 3 -0.005558 0.000565 0.013409 0.012093 -0.005599 0.001619
# 4 -0.013825 0.010025 0.012093 0.034753 0.004353 0.006003
# 5 -0.008172 0.004943 -0.005599 0.004353 0.030323 0.008938
# 6 -0.007279 0.007073 0.001619 0.006003 0.008938 0.026240
#
#
# Mechanical properties :
#
#
# Convention : Reuss Voigt Hill
#
# Bulk Modulus (GPa) = 32.28838 74.90473 53.59656
# Shear Modulus (GPa) = 24.99353 50.59916 37.79635
#
# Velocity S-wave (km/s) = 2.99557 4.26223 3.68375
# Velocity P-wave (km/s) = 4.85356 7.14949 6.11033
#
# Compressibility (1/GPa) = 0.03097089
#
# Stress axis : x y z
#
# Youngs Moduli (GPa) = 25.32073 84.82642 74.57411
#
# Poissons Ratio (x) = 1.00671 0.41446
# Poissons Ratio (y) = 0.30050 -0.04215
# Poissons Ratio (z) = 0.14073 -0.04795
#
# Static dielectric constant tensor:
#      x y z
#    x 2.161210 0.058840 0.057940 
#    y 0.058840 2.315160 0.022860 
#    z 0.057940 0.022860 2.396760 
# 
# From -- ./inp_files/187015.got.cif
#   From: 2010.05.17/outbox.cif.g08.bks.cpg/sg2_94_cif.got.tgz:187015.got - 2010.06.03 11:33:40.
