data_PCOD9020568
_publ_section_title
;
Structure prediction by ZEFSAII (Michael W. Deem and Ramdas Pophale) SiO2 
 PCOD9020568
Probable space group: P -1
;
_chemical_formula_sum "Si O2"
_cell_formula_units_Z 14
_cell_length_a 9.082590
_cell_length_b 11.836378
_cell_length_c 7.747975
_cell_angle_alpha 91.031130
_cell_angle_beta 87.688033
_cell_angle_gamma 50.684094
_cell_volume 642.873057
_symmetry_space_group_name_H-M "P -1"
_symmetry_group_IT_number 2
_symmetry_cell_setting 'triclinic'
loop_
_space_group_symop_operation_xyz
x,y,z
-x,-y,-z
loop_
_atom_site_type_symbol
_atom_site_label
_atom_site_fract_x
_atom_site_fract_y
_atom_site_fract_z
Si Si1 0.554171 0.511156 0.234436
Si Si2 0.271958 0.841728 0.310066
Si Si3 0.438914 0.350635 0.435651
Si Si4 0.449885 0.892621 0.004196
Si Si5 0.184208 0.375765 0.183363
Si Si6 0.079635 0.043361 0.848426
Si Si7 0.920810 0.355521 0.996230
O O1 0.370258 0.680328 0.219161
O O2 0.499102 0.411827 0.289201
O O3 0.641008 0.531505 0.401697
O O4 0.708078 0.436950 0.075713
O O5 0.376418 0.795864 0.487802
O O6 0.046101 0.932987 0.308702
O O7 0.345467 0.906856 0.185944
O O8 0.284514 0.342138 0.361954
O O9 0.643903 0.729624 0.963308
O O10 0.306456 0.930524 0.856071
O O11 0.500000 0.000000 0.000000
O O12 0.040929 0.343493 0.153823
O O13 0.083398 0.541165 0.138867
O O14 0.020410 0.198440 0.908506
O O15 0.000000 0.000000 0.000000
#
# Coordination Sequence:
#
# PCOD9020568 Si02
#       7
#     2   2   2   2   2   2   2
#     4   9  19  36  59  89 114 149 193 246 285 338
#     4   9  19  39  57  83 115 152 188 239 290 337
#     4   9  20  37  58  86 120 149 190 241 298 339
#     4  11  21  40  59  86 119 155 193 239 290 346
#     4  11  22  37  61  90 117 152 197 239 290 347
#     4  10  22  36  61  84 117 150 196 239 288 339
#     4  11  22  36  61  92 113 151 201 242 283 343
#
# _framework density 21.777239000000002
#
# number of rings (size 3 to 8) (size 9 to 14) (size 15 to 20)
#    0.857    1.143    2.857    0.857    4.000    1.714 
#    0.000    2.857    0.000    0.000    0.000    0.000 
#    0.000    0.000    0.000    0.000    0.000    0.000 
#
# Total GULP energy -78104.455342 kJ/mol
# GULP energy per Si atom -5578.889667 kJ/mol
# Density = 2.172767 g / cm^3
# Si number density = 21.777239 Si / 1000 Ang^3
#
#
#
# Elastic Constant Matrix: (Units=GPa)
#
#
# Indices 1 2 3 4 5 6 
#
# 1 96.7400 22.9272 37.6951 -17.7979 27.3551 -0.0030
# 2 22.9272 63.7369 9.7043 -17.5602 -0.1542 7.2055
# 3 37.6951 9.7043 68.6864 -11.5813 26.6725 11.3236
# 4 -17.7979 -17.5602 -11.5813 28.8316 -4.7644 1.0663
# 5 27.3551 -0.1542 26.6725 -4.7644 40.2832 -4.8003
# 6 -0.0030 7.2055 11.3236 1.0663 -4.8003 38.7032
#
#
#
# Elastic Compliance Matrix: (Units=1/GPa)
#
#
# Indices 1 2 3 4 5 6 
#
# 1 0.015956 -0.003965 -0.005013 0.004238 -0.006883 0.001236
# 2 -0.003965 0.020492 0.000479 0.010911 0.003286 -0.003849
# 3 -0.005013 0.000479 0.024924 0.005308 -0.013567 -0.009211
# 4 0.004238 0.010911 0.005308 0.046015 -0.001509 -0.005039
# 5 -0.006883 0.003286 -0.013567 -0.001509 0.039301 0.008273
# 6 0.001236 -0.003849 -0.009211 -0.005039 0.008273 0.030414
#
#
# Mechanical properties :
#
#
# Convention : Reuss Voigt Hill
#
# Bulk Modulus (GPa) = 22.53550 41.09074 31.81312
# Shear Modulus (GPa) = 23.93599 32.15271 28.04435
#
# Velocity S-wave (km/s) = 3.31891 3.84661 3.59246
# Velocity P-wave (km/s) = 5.00575 6.21596 5.64339
#
# Compressibility (1/GPa) = 0.04437443
#
# Stress axis : x y z
#
# Youngs Moduli (GPa) = 62.67255 48.79961 40.12214
#
# Poissons Ratio (x) = 0.19350 0.20112
# Poissons Ratio (y) = 0.24850 -0.01923
# Poissons Ratio (z) = 0.31416 -0.02338
#
# Static dielectric constant tensor:
#      x y z
#    x 1.754040 -0.015950 0.082420 
#    y -0.015950 1.785990 -0.004130 
#    z 0.082420 -0.004130 1.808800 
# 
# From -- ./inp_files/177739.got.cif
#   From: 2010.05.17/outbox.cif.g08.bks.cpg/sg2_89_cif.got.tgz:177739.got - 2010.06.03 11:33:40.
