data_PCOD9020167
_publ_section_title
;
Structure prediction by ZEFSAII (Michael W. Deem and Ramdas Pophale) SiO2 
 PCOD9020167
Probable space group: P -1
;
_chemical_formula_sum "Si O2"
_cell_formula_units_Z 16
_cell_length_a 7.077748
_cell_length_b 19.410259
_cell_length_c 8.676367
_cell_angle_alpha 48.030931
_cell_angle_beta 80.784766
_cell_angle_gamma 60.267263
_cell_volume 741.907672
_symmetry_space_group_name_H-M "P -1"
_symmetry_group_IT_number 2
_symmetry_cell_setting 'triclinic'
loop_
_space_group_symop_operation_xyz
x,y,z
-x,-y,-z
loop_
_atom_site_type_symbol
_atom_site_label
_atom_site_fract_x
_atom_site_fract_y
_atom_site_fract_z
Si Si1 0.089517 0.228880 0.761494
Si Si2 0.539277 0.969780 0.791142
Si Si3 0.397531 0.217264 0.158758
Si Si4 0.160677 0.327962 0.313878
Si Si5 0.209008 0.906653 0.516531
Si Si6 0.986075 0.596888 0.255274
Si Si7 0.274531 0.501487 0.049418
Si Si8 0.016217 0.091834 0.767620
O O1 0.185822 0.273217 0.554285
O O2 0.972936 0.322899 0.764307
O O3 0.940326 0.193673 0.738901
O O4 0.294579 0.118782 0.972808
O O5 0.559411 0.891785 0.764977
O O6 0.642214 0.043386 0.631096
O O7 0.279747 0.039335 0.771056
O O8 0.232196 0.247528 0.280754
O O9 0.634005 0.189790 0.240701
O O10 0.264270 0.320022 0.907989
O O11 0.306815 0.383466 0.206131
O O12 0.904408 0.423874 0.170947
O O13 0.122375 0.877883 0.418256
O O14 0.000000 0.000000 0.500000
O O15 0.000000 0.500000 0.500000
O O16 0.154191 0.548017 0.161038
O O17 0.500000 0.500000 0.000000
O O18 0.000000 0.000000 0.000000
#
# Coordination Sequence:
#
# PCOD9020167 Si02
#       8
#     2   2   2   2   2   2   2   2
#     4  11  23  42  73  99 140 194 231 286 364 426
#     4  11  24  46  65  98 148 183 236 299 351 416
#     4  10  23  41  70 103 136 191 231 286 362 420
#     4  10  22  41  68  98 141 177 232 286 359 418
#     4  12  25  44  69  99 143 188 240 296 347 425
#     4  10  21  46  77 100 143 189 234 296 364 430
#     4  10  22  45  69 100 135 180 232 301 349 417
#     4  12  26  44  67 101 143 186 240 293 350 423
#
# _framework density 21.566026999999998
#
# number of rings (size 3 to 8) (size 9 to 14) (size 15 to 20)
#    0.000    1.250    3.750    1.500    3.500    1.000 
#    6.750    1.875    0.000    0.000    0.000    0.000 
#    0.000    0.000    0.000    0.000    0.000    0.000 
#
# Total GULP energy -89463.600022 kJ/mol
# GULP energy per Si atom -5591.475001 kJ/mol
# Density = 2.151694 g / cm^3
# Si number density = 21.566027 Si / 1000 Ang^3
#
#
#
# Elastic Constant Matrix: (Units=GPa)
#
#
# Indices 1 2 3 4 5 6 
#
# 1 125.1739 40.7175 45.3452 3.0757 0.9569 11.6886
# 2 40.7175 113.6947 31.2735 7.0444 7.8404 25.8745
# 3 45.3452 31.2735 122.6790 -1.1309 8.4175 9.2604
# 4 3.0757 7.0444 -1.1309 28.5161 8.5527 4.6808
# 5 0.9569 7.8404 8.4175 8.5527 35.2868 14.0522
# 6 11.6886 25.8745 9.2604 4.6808 14.0522 38.5485
#
#
#
# Elastic Compliance Matrix: (Units=1/GPa)
#
#
# Indices 1 2 3 4 5 6 
#
# 1 0.010058 -0.002560 -0.003107 -0.000904 0.001691 -0.001092
# 2 -0.002560 0.011770 -0.001623 -0.001877 0.001038 -0.006885
# 3 -0.003107 -0.001623 0.009875 0.001817 -0.002489 0.000346
# 4 -0.000904 -0.001877 0.001817 0.038508 -0.009242 -0.000209
# 5 0.001691 0.001038 -0.002489 -0.009242 0.035905 -0.012578
# 6 -0.001092 -0.006885 0.000346 -0.000209 -0.012578 0.035421
#
#
# Mechanical properties :
#
#
# Convention : Reuss Voigt Hill
#
# Bulk Modulus (GPa) = 58.39919 66.24666 62.32292
# Shear Modulus (GPa) = 30.89743 36.75104 33.82424
#
# Velocity S-wave (km/s) = 3.78920 4.13257 3.96460
# Velocity P-wave (km/s) = 6.80309 7.31817 7.06533
#
# Compressibility (1/GPa) = 0.01712353
#
# Stress axis : x y z
#
# Youngs Moduli (GPa) = 99.41963 84.96028 101.26505
#
# Poissons Ratio (x) = 0.21746 0.31466
# Poissons Ratio (y) = 0.25447 0.16438
# Poissons Ratio (z) = 0.30892 0.13791
#
# Static dielectric constant tensor:
#      x y z
#    x 1.545400 0.023740 0.089020 
#    y 0.023740 1.809790 0.000700 
#    z 0.089020 0.000700 1.802470 
# 
# From -- ./inp_files/141127.got.cif
#   From: 2010.05.17/outbox.cif.g08.bks.cpg/sg2_71_cif.got.tgz:141127.got - 2010.06.03 11:33:40.
