data_PCOD9020548
_publ_section_title
;
Structure prediction by ZEFSAII (Michael W. Deem and Ramdas Pophale) SiO2 
 PCOD9020548
Probable space group: P -1
;
_chemical_formula_sum "Si O2"
_cell_formula_units_Z 13
_cell_length_a 14.967715
_cell_length_b 14.086712
_cell_length_c 10.101749
_cell_angle_alpha 124.325418
_cell_angle_beta 123.096482
_cell_angle_gamma 20.667859
_cell_volume 619.588760
_symmetry_space_group_name_H-M "P -1"
_symmetry_group_IT_number 2
_symmetry_cell_setting 'triclinic'
loop_
_space_group_symop_operation_xyz
x,y,z
-x,-y,-z
loop_
_atom_site_type_symbol
_atom_site_label
_atom_site_fract_x
_atom_site_fract_y
_atom_site_fract_z
Si Si1 0.277407 0.068307 0.294887
Si Si2 0.749265 0.287988 0.949200
Si Si3 0.256700 0.320692 0.074484
Si Si4 0.000000 0.500000 0.500000
Si Si5 0.241004 0.449538 0.885423
Si Si6 0.287635 0.882941 0.373667
Si Si7 0.186586 0.513253 0.447586
O O1 0.269064 0.168028 0.482404
O O2 0.252593 0.970204 0.265870
O O3 0.998484 0.377111 0.249611
O O4 0.496932 0.852449 0.198961
O O5 0.768545 0.405666 0.035987
O O6 0.735220 0.230610 0.755406
O O7 0.500000 0.500000 0.000000
O O8 0.000000 0.000000 0.000000
O O9 0.240102 0.423190 0.017708
O O10 0.247081 0.393694 0.263887
O O11 0.000000 0.500000 0.000000
O O12 0.500000 0.000000 0.000000
O O13 0.147385 0.455220 0.483057
O O14 0.570397 0.644862 0.450435
O O15 0.066869 0.158901 0.497553
#
# Coordination Sequence:
#
# PCOD9020548 Si02
#       7
#     2   2   2   1   2   2   2
#     4  11  22  37  62  95 128 163 209 269 321 386
#     4  12  22  40  67  98 129 168 213 273 329 382
#     4  12  26  45  67  91 131 177 220 262 314 393
#     4  10  22  36  60  86 126 162 208 256 330 370
#     4  12  23  41  65  94 127 167 222 259 323 382
#     4  11  22  39  62  94 131 160 207 275 325 377
#     4  11  24  40  61  93 128 171 212 266 324 377
#
# _framework density 20.981656999999998
#
# number of rings (size 3 to 8) (size 9 to 14) (size 15 to 20)
#    0.000    0.615    3.077    6.462    0.000    6.769 
#    0.000    1.538    0.000    0.000    0.000    0.000 
#    0.000    0.000    0.000    0.000    0.000    0.000 
#
# Total GULP energy -72448.157266 kJ/mol
# GULP energy per Si atom -5572.935174 kJ/mol
# Density = 2.093390 g / cm^3
# Si number density = 20.981657 Si / 1000 Ang^3
#
#
#
# Elastic Constant Matrix: (Units=GPa)
#
#
# Indices 1 2 3 4 5 6 
#
# 1 89.3726 52.6297 34.5851 6.0770 6.9998 -4.0715
# 2 52.6297 166.8294 45.8000 22.3029 2.8739 -27.7194
# 3 34.5851 45.8000 109.5423 15.7332 -1.0688 -14.6734
# 4 6.0770 22.3029 15.7332 41.7058 -0.7926 3.1623
# 5 6.9998 2.8739 -1.0688 -0.7926 43.5493 -1.4767
# 6 -4.0715 -27.7194 -14.6734 3.1623 -1.4767 30.6497
#
#
#
# Elastic Compliance Matrix: (Units=1/GPa)
#
#
# Indices 1 2 3 4 5 6 
#
# 1 0.015280 -0.004750 -0.003736 0.002010 -0.002346 -0.004375
# 2 -0.004750 0.009724 -0.000753 -0.004849 0.000297 0.008318
# 3 -0.003736 -0.000753 0.011853 -0.003880 0.001038 0.004948
# 4 0.002010 -0.004849 -0.003880 0.028419 0.000117 -0.008903
# 5 -0.002346 0.000297 0.001038 0.000117 0.023401 0.001569
# 6 -0.004375 0.008318 0.004948 -0.008903 0.001569 0.042932
#
#
# Mechanical properties :
#
#
# Convention : Reuss Voigt Hill
#
# Bulk Modulus (GPa) = 54.40444 70.19711 62.30078
# Shear Modulus (GPa) = 32.00773 38.69625 35.35199
#
# Velocity S-wave (km/s) = 3.91001 4.29918 4.10921
# Velocity P-wave (km/s) = 6.80956 7.62712 7.22991
#
# Compressibility (1/GPa) = 0.01838085
#
# Stress axis : x y z
#
# Youngs Moduli (GPa) = 65.44647 102.83324 84.36477
#
# Poissons Ratio (x) = 0.48845 0.31517
# Poissons Ratio (y) = 0.31086 0.06349
# Poissons Ratio (z) = 0.24450 0.07739
#
# Static dielectric constant tensor:
#      x y z
#    x 1.759030 -0.027430 0.074380 
#    y -0.027430 1.769660 -0.145450 
#    z 0.074380 -0.145450 1.782240 
# 
# From -- ./inp_files/314000.got.cif
#   From: 2010.05.17/outbox.cif.g08.bks.cpg/sg2_157_cif.got.tgz:314000.got - 2010.06.03 11:33:40.
