data_PCOD9020618
_publ_section_title
;
Structure prediction by ZEFSAII (Michael W. Deem and Ramdas Pophale) SiO2 
 PCOD9020618
Probable space group: P -1
;
_chemical_formula_sum "Si O2"
_cell_formula_units_Z 14
_cell_length_a 28.732979
_cell_length_b 15.575263
_cell_length_c 22.900864
_cell_angle_alpha 157.261204
_cell_angle_beta 170.401364
_cell_angle_gamma 22.824403
_cell_volume 648.342968
_symmetry_space_group_name_H-M "P -1"
_symmetry_group_IT_number 2
_symmetry_cell_setting 'triclinic'
loop_
_space_group_symop_operation_xyz
x,y,z
-x,-y,-z
loop_
_atom_site_type_symbol
_atom_site_label
_atom_site_fract_x
_atom_site_fract_y
_atom_site_fract_z
Si Si1 0.302605 0.205039 0.531126
Si Si2 0.269214 0.701843 0.193592
Si Si3 0.681681 0.160731 0.858699
Si Si4 0.837041 0.013843 0.577995
Si Si5 0.960065 0.517700 0.391726
Si Si6 0.297258 0.372754 0.131727
Si Si7 0.879609 0.557759 0.823098
O O1 0.539357 0.218130 0.782527
O O2 0.226681 0.391775 0.604983
O O3 0.344133 0.953140 0.452128
O O4 0.015032 0.249627 0.164980
O O5 0.230787 0.533703 0.093861
O O6 0.545983 0.574282 0.422375
O O7 0.500000 0.000000 0.500000
O O8 0.705944 0.375124 0.983062
O O9 0.112557 0.214798 0.541149
O O10 0.023041 0.202148 0.912409
O O11 0.986595 0.949215 0.786117
O O12 0.505419 0.128979 0.232012
O O13 0.000000 0.500000 0.500000
O O14 0.500000 0.500000 0.500000
O O15 0.024372 0.390945 0.846755
O O16 0.000000 0.500000 0.000000
#
# Coordination Sequence:
#
# PCOD9020618 Si02
#       7
#     2   2   2   2   2   2   2
#     4  11  25  38  65  95 130 172 207 268 327 379
#     4  11  22  39  62  99 127 156 222 270 310 375
#     4  11  23  40  67  95 130 170 214 265 317 384
#     4  10  22  42  61  95 129 162 212 263 322 374
#     4  10  25  42  60  92 137 169 211 266 321 387
#     4  10  22  36  63  93 126 167 215 267 315 368
#     4  11  21  37  63  98 119 167 216 264 309 376
#
# _framework density 21.593509999999998
#
# number of rings (size 3 to 8) (size 9 to 14) (size 15 to 20)
#    0.000    1.429    4.286    1.714   12.000    2.286 
#    2.571    1.429    0.000    1.714    0.000    0.000 
#    0.000    0.000    0.000    0.000    0.000    0.000 
#
# Total GULP energy -77945.876812 kJ/mol
# GULP energy per Si atom -5567.562629 kJ/mol
# Density = 2.154436 g / cm^3
# Si number density = 21.593510 Si / 1000 Ang^3
#
#
#
# Elastic Constant Matrix: (Units=GPa)
#
#
# Indices 1 2 3 4 5 6 
#
# 1 127.7973 45.5801 29.1487 -21.6286 21.5393 -13.4736
# 2 45.5801 110.6785 24.9604 -19.7748 3.5850 -13.7161
# 3 29.1487 24.9604 70.6167 -17.4831 17.5088 -2.4539
# 4 -21.6286 -19.7748 -17.4831 42.6641 -8.0433 1.6005
# 5 21.5393 3.5850 17.5088 -8.0433 39.3424 -12.2873
# 6 -13.4736 -13.7161 -2.4539 1.6005 -12.2873 31.0420
#
#
#
# Elastic Compliance Matrix: (Units=1/GPa)
#
#
# Indices 1 2 3 4 5 6 
#
# 1 0.010554 -0.003260 -0.001607 0.002404 -0.003847 0.001366
# 2 -0.003260 0.012175 -0.003018 0.003377 0.004357 0.005276
# 3 -0.001607 -0.003018 0.018639 0.004159 -0.007452 -0.003722
# 4 0.002404 0.003377 0.004159 0.028424 0.003165 0.002651
# 5 -0.003847 0.004357 -0.007452 0.003165 0.035299 0.013476
# 6 0.001366 0.005276 -0.003722 0.002651 0.013476 0.040042
#
#
# Mechanical properties :
#
#
# Convention : Reuss Voigt Hill
#
# Bulk Modulus (GPa) = 39.06949 56.49675 47.78312
# Shear Modulus (GPa) = 29.50949 36.56992 33.03971
#
# Velocity S-wave (km/s) = 3.70075 4.11975 3.91586
# Velocity P-wave (km/s) = 6.03268 6.98931 6.52854
#
# Compressibility (1/GPa) = 0.02559542
#
# Stress axis : x y z
#
# Youngs Moduli (GPa) = 94.75403 82.13782 53.64977
#
# Poissons Ratio (x) = 0.26780 0.08623
# Poissons Ratio (y) = 0.30893 0.16194
# Poissons Ratio (z) = 0.15230 0.24793
#
# Static dielectric constant tensor:
#      x y z
#    x 2.000810 0.076210 0.117180 
#    y 0.076210 2.000790 0.034780 
#    z 0.117180 0.034780 1.913180 
# 
# From -- ./inp_files/614544.got.cif
#   From: 2010.05.17/outbox.cif.g08.bks.cpg/sg2_308_cif.got.tgz:614544.got - 2010.06.03 11:33:40.
