data_PCOD9020816
_publ_section_title
;
Structure prediction by ZEFSAII (Michael W. Deem and Ramdas Pophale) SiO2 
 PCOD9020816
Probable space group: P -1
;
_chemical_formula_sum "Si O2"
_cell_formula_units_Z 10
_cell_length_a 7.840709
_cell_length_b 13.906090
_cell_length_c 5.297981
_cell_angle_alpha 77.608368
_cell_angle_beta 60.778650
_cell_angle_gamma 97.587574
_cell_volume 473.018637
_symmetry_space_group_name_H-M "P -1"
_symmetry_group_IT_number 2
_symmetry_cell_setting 'triclinic'
loop_
_space_group_symop_operation_xyz
x,y,z
-x,-y,-z
loop_
_atom_site_type_symbol
_atom_site_label
_atom_site_fract_x
_atom_site_fract_y
_atom_site_fract_z
Si Si1 0.368676 0.965328 0.358694
Si Si2 0.910917 0.379802 0.162895
Si Si3 0.436111 0.776407 0.627758
Si Si4 0.883067 0.909327 0.319483
Si Si5 0.106103 0.738585 0.254433
O O1 0.200924 0.026917 0.445938
O O2 0.500000 0.000000 0.500000
O O3 0.319279 0.844222 0.509240
O O4 0.500000 0.000000 0.000000
O O5 0.952261 0.339846 0.429192
O O6 0.663752 0.338615 0.330651
O O7 0.983244 0.320735 0.909278
O O8 0.000000 0.500000 0.000000
O O9 0.674288 0.829654 0.409867
O O10 0.345568 0.774566 0.978437
O O11 0.028144 0.837708 0.306383
O O12 0.000000 0.000000 0.000000
#
# Coordination Sequence:
#
# PCOD9020816 Si02
#       5
#     2   2   2   2   2
#     4  10  22  37  59  88 129 167 199 244 311 368
#     4  10  22  44  67  86 124 166 211 269 322 364
#     4   9  23  38  63  91 130 164 210 250 318 367
#     4  11  21  41  65  98 132 169 208 258 306 385
#     4  10  23  40  65  95 123 164 217 255 315 382
#
# _framework density 21.140816000000001
#
# number of rings (size 3 to 8) (size 9 to 14) (size 15 to 20)
#    1.200    0.800    2.000    0.600    5.600    3.200 
#    0.000    8.000    0.000    0.000    0.000    0.000 
#    0.000    0.000    0.000    0.000    0.000    0.000 
#
# Total GULP energy -55691.998713 kJ/mol
# GULP energy per Si atom -5569.199871 kJ/mol
# Density = 2.109270 g / cm^3
# Si number density = 21.140816 Si / 1000 Ang^3
#
#
#
# Elastic Constant Matrix: (Units=GPa)
#
#
# Indices 1 2 3 4 5 6 
#
# 1 82.7785 24.2314 47.9096 -16.2969 -4.1401 1.8458
# 2 24.2314 109.0600 76.7672 -37.1015 -1.7866 8.8074
# 3 47.9096 76.7672 182.2926 -16.0641 23.8802 -7.8828
# 4 -16.2969 -37.1015 -16.0641 48.7217 1.3285 -3.0163
# 5 -4.1401 -1.7866 23.8802 1.3285 44.9327 -7.8326
# 6 1.8458 8.8074 -7.8828 -3.0163 -7.8326 30.1253
#
#
#
# Elastic Compliance Matrix: (Units=1/GPa)
#
#
# Indices 1 2 3 4 5 6 
#
# 1 0.015606 0.001875 -0.005025 0.004804 0.003806 -0.001349
# 2 0.001875 0.019215 -0.008290 0.012067 0.004000 -0.005653
# 3 -0.005025 -0.008290 0.010861 -0.004027 -0.005808 0.003660
# 4 0.004804 0.012067 -0.004027 0.029854 0.001939 -0.001383
# 5 0.003806 0.004000 -0.005808 0.001939 0.026521 0.004167
# 6 -0.001349 -0.005653 0.003660 -0.001383 0.004167 0.036833
#
#
# Mechanical properties :
#
#
# Convention : Reuss Voigt Hill
#
# Bulk Modulus (GPa) = 43.85293 74.66085 59.25689
# Shear Modulus (GPa) = 29.52106 39.77079 34.64592
#
# Velocity S-wave (km/s) = 3.74090 4.34202 4.05262
# Velocity P-wave (km/s) = 6.28072 7.78012 7.07028
#
# Compressibility (1/GPa) = 0.02280350
#
# Stress axis : x y z
#
# Youngs Moduli (GPa) = 64.07868 52.04255 92.06887
#
# Poissons Ratio (x) = -0.09757 0.46261
# Poissons Ratio (y) = -0.12014 0.76323
# Poissons Ratio (z) = 0.32197 0.43142
#
# Static dielectric constant tensor:
#      x y z
#    x 1.937430 0.091970 0.004820 
#    y 0.091970 1.846480 0.045420 
#    z 0.004820 0.045420 1.805660 
# 
# From -- ./inp_files/29573.got.cif
#   From: 2010.05.17/outbox.cif.g08.bks.cpg/sg2_15_cif.got.tgz:29573.got - 2010.06.03 11:33:40.
