data_PCOD9020399
_publ_section_title
;
Structure prediction by ZEFSAII (Michael W. Deem and Ramdas Pophale) SiO2 
 PCOD9020399
Probable space group: P -1
;
_chemical_formula_sum "Si O2"
_cell_formula_units_Z 14
_cell_length_a 12.438403
_cell_length_b 7.289325
_cell_length_c 16.298164
_cell_angle_alpha 48.190588
_cell_angle_beta 31.556537
_cell_angle_gamma 55.883446
_cell_volume 576.328712
_symmetry_space_group_name_H-M "P -1"
_symmetry_group_IT_number 2
_symmetry_cell_setting 'triclinic'
loop_
_space_group_symop_operation_xyz
x,y,z
-x,-y,-z
loop_
_atom_site_type_symbol
_atom_site_label
_atom_site_fract_x
_atom_site_fract_y
_atom_site_fract_z
Si Si1 0.990717 0.218035 0.116617
Si Si2 0.139135 0.247899 0.747904
Si Si3 0.434122 0.755277 0.565797
Si Si4 0.099641 0.535529 0.303939
Si Si5 0.435266 0.326024 0.826840
Si Si6 0.855509 0.128070 0.666230
Si Si7 0.778335 0.558355 0.912607
O O1 0.805764 0.199820 0.309227
O O2 0.923816 0.033747 0.142618
O O3 0.000000 0.500000 0.000000
O O4 0.225956 0.163885 0.001549
O O5 0.098828 0.365124 0.647650
O O6 0.970273 0.393194 0.864663
O O7 0.376113 0.275142 0.611365
O O8 0.440961 0.524268 0.691750
O O9 0.500000 0.000000 0.500000
O O10 0.146627 0.714550 0.294969
O O11 0.265271 0.532787 0.124156
O O12 0.039929 0.263490 0.456387
O O13 0.641775 0.177661 0.743904
O O14 0.396801 0.456069 0.901388
O O15 0.858259 0.838950 0.766183
#
# Coordination Sequence:
#
# PCOD9020399 Si02
#       7
#     2   2   2   2   2   2   2
#     4   9  19  35  60  85 112 153 198 246 299 343
#     4   9  18  38  58  84 119 155 192 243 292 345
#     4   9  18  37  63  81 111 159 202 244 297 350
#     4   9  21  36  60  83 125 156 200 232 288 356
#     4  11  20  36  58  89 120 159 191 246 300 346
#     4  11  20  38  59  88 124 166 193 227 298 363
#     4  10  22  35  59  91 127 147 199 244 288 355
#
# _framework density 24.291692999999999
#
# number of rings (size 3 to 8) (size 9 to 14) (size 15 to 20)
#    0.857    1.429    1.429    1.714    0.000    0.571 
#    2.571    7.143    3.143    0.000    0.000    0.000 
#    0.000    0.000    0.000    0.000    0.000    0.000 
#
# Total GULP energy -78094.460854 kJ/mol
# GULP energy per Si atom -5578.175775 kJ/mol
# Density = 2.423640 g / cm^3
# Si number density = 24.291693 Si / 1000 Ang^3
#
#
#
# Elastic Constant Matrix: (Units=GPa)
#
#
# Indices 1 2 3 4 5 6 
#
# 1 66.7734 1.0054 13.5963 -3.2312 -3.0587 4.1399
# 2 1.0054 108.6206 21.2108 -7.7802 0.7924 -11.3886
# 3 13.5963 21.2108 78.3065 11.2260 -15.6456 -14.4953
# 4 -3.2312 -7.7802 11.2260 39.2325 -6.4127 1.4782
# 5 -3.0587 0.7924 -15.6456 -6.4127 44.1031 4.3769
# 6 4.1399 -11.3886 -14.4953 1.4782 4.3769 21.0218
#
#
#
# Elastic Compliance Matrix: (Units=1/GPa)
#
#
# Indices 1 2 3 4 5 6 
#
# 1 0.016455 0.000242 -0.004432 0.003023 0.000651 -0.006513
# 2 0.000242 0.010317 -0.002739 0.002523 -0.001142 0.003713
# 3 -0.004432 -0.002739 0.018056 -0.005822 0.004171 0.011380
# 4 0.003023 0.002523 -0.005822 0.028588 0.002836 -0.005843
# 5 0.000651 -0.001142 0.004171 0.002836 0.024956 -0.003266
# 6 -0.006513 0.003713 0.011380 -0.005843 -0.003266 0.059802
#
#
# Mechanical properties :
#
#
# Convention : Reuss Voigt Hill
#
# Bulk Modulus (GPa) = 32.28841 36.14728 34.21784
# Shear Modulus (GPa) = 27.41894 35.39735 31.40814
#
# Velocity S-wave (km/s) = 3.36331 3.82144 3.59967
# Velocity P-wave (km/s) = 5.32948 5.86379 5.60301
#
# Compressibility (1/GPa) = 0.03097086
#
# Stress axis : x y z
#
# Youngs Moduli (GPa) = 60.77320 96.92356 55.38207
#
# Poissons Ratio (x) = -0.02345 0.24543
# Poissons Ratio (y) = -0.01470 0.15170
# Poissons Ratio (z) = 0.26932 0.26549
#
# Static dielectric constant tensor:
#      x y z
#    x 2.005380 0.003060 0.017000 
#    y 0.003060 1.938230 0.044190 
#    z 0.017000 0.044190 1.970690 
# 
# From -- ./inp_files/170242.got.cif
#   From: 2010.05.17/outbox.cif.g08.bks.cpg/sg2_86_cif.got.tgz:170242.got - 2010.06.03 11:33:40.
