data_PCOD9020165
_publ_section_title
;
Structure prediction by ZEFSAII (Michael W. Deem and Ramdas Pophale) SiO2 
 PCOD9020165
Probable space group: P -1
;
_chemical_formula_sum "Si O2"
_cell_formula_units_Z 16
_cell_length_a 8.228711
_cell_length_b 6.236121
_cell_length_c 14.424981
_cell_angle_alpha 79.348997
_cell_angle_beta 88.793723
_cell_angle_gamma 123.156580
_cell_volume 602.273041
_symmetry_space_group_name_H-M "P -1"
_symmetry_group_IT_number 2
_symmetry_cell_setting 'triclinic'
loop_
_space_group_symop_operation_xyz
x,y,z
-x,-y,-z
loop_
_atom_site_type_symbol
_atom_site_label
_atom_site_fract_x
_atom_site_fract_y
_atom_site_fract_z
Si Si1 0.950960 0.250102 0.429808
Si Si2 0.277674 0.740108 0.024878
Si Si3 0.820010 0.953002 0.634654
Si Si4 0.818537 0.965117 0.128545
Si Si5 0.399073 0.561228 0.413240
Si Si6 0.429576 0.584955 0.878448
Si Si7 0.838451 0.099250 0.828272
Si Si8 0.695480 0.143798 0.287460
O O1 0.827402 0.539275 0.555476
O O2 0.840652 0.322741 0.354003
O O3 0.988405 0.054510 0.386130
O O4 0.815948 0.091653 0.530738
O O5 0.197473 0.699039 0.134025
O O6 0.299577 0.550683 0.972596
O O7 0.500000 0.000000 0.000000
O O8 0.149696 0.823695 0.964076
O O9 0.641662 0.644921 0.652958
O O10 0.833859 0.093767 0.717641
O O11 0.614591 0.692447 0.128393
O O12 0.803778 0.074034 0.217155
O O13 0.972106 0.885893 0.140366
O O14 0.500000 0.500000 0.500000
O O15 0.526708 0.863985 0.356468
O O16 0.653548 0.807995 0.879304
O O17 0.376975 0.710998 0.785477
#
# Coordination Sequence:
#
# PCOD9020165 Si02
#       8
#     2   2   2   2   2   2   2   2
#     4   9  18  33  57  93 124 162 208 256 312 371
#     4   9  22  43  65  96 130 160 204 262 309 372
#     4   9  17  33  58  94 121 160 210 254 308 376
#     4  11  22  40  68  91 126 170 202 256 317 364
#     4  10  17  30  59  89 117 163 205 251 316 358
#     4  10  25  41  61  95 129 164 210 257 310 374
#     4  11  21  40  62  92 127 161 213 255 302 379
#     4  11  20  39  62  91 127 165 213 256 306 374
#
# _framework density 26.566026000000001
#
# number of rings (size 3 to 8) (size 9 to 14) (size 15 to 20)
#    0.750    1.250    2.500    1.125    0.000    3.500 
#    0.000    8.125    0.000    1.500    0.000    0.000 
#    0.000    0.000    0.000    0.000    0.000    0.000 
#
# Total GULP energy -89546.157712 kJ/mol
# GULP energy per Si atom -5596.634857 kJ/mol
# Density = 2.650556 g / cm^3
# Si number density = 26.566026 Si / 1000 Ang^3
#
#
#
# Elastic Constant Matrix: (Units=GPa)
#
#
# Indices 1 2 3 4 5 6 
#
# 1 80.3380 23.0056 27.9054 -13.5838 11.2640 13.3841
# 2 23.0056 110.0058 49.4568 -15.9059 4.9540 13.1788
# 3 27.9054 49.4568 158.9828 9.5947 7.2155 -8.3575
# 4 -13.5838 -15.9059 9.5947 30.7954 -4.1611 0.7474
# 5 11.2640 4.9540 7.2155 -4.1611 48.7705 -1.7797
# 6 13.3841 13.1788 -8.3575 0.7474 -1.7797 37.7126
#
#
#
# Elastic Compliance Matrix: (Units=1/GPa)
#
#
# Indices 1 2 3 4 5 6 
#
# 1 0.016717 0.000482 -0.003855 0.008612 -0.002870 -0.007262
# 2 0.000482 0.013270 -0.005054 0.008764 -0.000187 -0.006111
# 3 -0.003855 -0.005054 0.009283 -0.007387 -0.000406 0.005319
# 4 0.008612 0.008764 -0.007387 0.043525 0.001615 -0.008543
# 5 -0.002870 -0.000187 -0.000406 0.001615 0.021456 0.001974
# 6 -0.007262 -0.006111 0.005319 -0.008543 0.001974 0.032670
#
#
# Mechanical properties :
#
#
# Convention : Reuss Voigt Hill
#
# Bulk Modulus (GPa) = 44.61549 61.11803 52.86676
# Shear Modulus (GPa) = 31.00831 40.05296 35.53063
#
# Velocity S-wave (km/s) = 3.42016 3.88709 3.66108
# Velocity P-wave (km/s) = 5.69450 6.57282 6.14936
#
# Compressibility (1/GPa) = 0.02241374
#
# Stress axis : x y z
#
# Youngs Moduli (GPa) = 59.81968 75.36002 107.72611
#
# Poissons Ratio (x) = -0.03630 0.41532
# Poissons Ratio (y) = -0.02882 0.54447
# Poissons Ratio (z) = 0.23062 0.38088
#
# Static dielectric constant tensor:
#      x y z
#    x 2.086870 0.009770 -0.007080 
#    y 0.009770 2.088360 0.028230 
#    z -0.007080 0.028230 2.076890 
# 
# From -- ./inp_files/488416.got.cif
#   From: 2010.05.17/outbox.cif.g08.bks.cpg/sg2_245_cif.got.tgz:488416.got - 2010.06.03 11:33:40.
