data_PCOD9020186
_publ_section_title
;
Structure prediction by ZEFSAII (Michael W. Deem and Ramdas Pophale) SiO2 
 PCOD9020186
Probable space group: P -1
;
_chemical_formula_sum "Si O2"
_cell_formula_units_Z 16
_cell_length_a 18.258046
_cell_length_b 21.697509
_cell_length_c 12.145234
_cell_angle_alpha 29.514070
_cell_angle_beta 38.140334
_cell_angle_gamma 17.947149
_cell_volume 702.700232
_symmetry_space_group_name_H-M "P -1"
_symmetry_group_IT_number 2
_symmetry_cell_setting 'triclinic'
loop_
_space_group_symop_operation_xyz
x,y,z
-x,-y,-z
loop_
_atom_site_type_symbol
_atom_site_label
_atom_site_fract_x
_atom_site_fract_y
_atom_site_fract_z
Si Si1 0.556535 0.220350 0.648917
Si Si2 0.718647 0.535338 0.868162
Si Si3 0.637335 0.788871 0.759002
Si Si4 0.122346 0.480503 0.640731
Si Si5 0.199212 0.764607 0.294263
Si Si6 0.221298 0.173052 0.836372
Si Si7 0.901957 0.087403 0.355483
Si Si8 0.190900 0.995990 0.780198
O O1 0.351393 0.313526 0.702684
O O2 0.413371 0.464108 0.501608
O O3 0.708863 0.150948 0.481954
O O4 0.736559 0.978797 0.891234
O O5 0.699338 0.601965 0.913966
O O6 0.444884 0.814656 0.712824
O O7 0.947169 0.402542 0.756712
O O8 0.773338 0.339075 0.093549
O O9 0.899640 0.607493 0.763077
O O10 0.500000 0.000000 0.500000
O O11 0.441871 0.959940 0.820969
O O12 0.218068 0.303617 0.705924
O O13 0.980244 0.739707 0.374175
O O14 0.261165 0.830233 0.047956
O O15 0.114942 0.872006 0.349398
O O16 0.967605 0.921014 0.257270
O O17 0.000000 0.000000 0.500000
#
# Coordination Sequence:
#
# PCOD9020186 Si02
#       8
#     2   2   2   2   2   2   2   2
#     4  11  24  46  67 101 133 173 227 271 338 398
#     4  11  24  42  66  98 135 170 223 273 328 406
#     4  11  25  45  63  98 133 174 224 272 333 389
#     4  10  24  45  68  96 134 170 229 278 319 407
#     4  10  25  42  69  98 139 178 216 281 335 398
#     4  11  26  42  71  95 131 185 216 276 332 392
#     4  12  26  43  67 103 136 178 221 273 341 407
#     4  10  21  47  65 100 137 175 224 275 339 392
#
# _framework density 22.769310000000001
#
# number of rings (size 3 to 8) (size 9 to 14) (size 15 to 20)
#    0.000    1.250    3.750    0.375    3.500    6.500 
#    2.250    0.000    0.000    0.000    0.000    0.000 
#    0.000    0.000    0.000    0.000    0.000    0.000 
#
# Total GULP energy -89512.171047 kJ/mol
# GULP energy per Si atom -5594.510690 kJ/mol
# Density = 2.271749 g / cm^3
# Si number density = 22.769310 Si / 1000 Ang^3
#
#
#
# Elastic Constant Matrix: (Units=GPa)
#
#
# Indices 1 2 3 4 5 6 
#
# 1 58.4017 38.8758 26.0805 12.2614 -8.3177 -6.3459
# 2 38.8758 121.5852 7.4347 7.8045 2.4032 -5.2776
# 3 26.0805 7.4347 73.1291 -11.9185 -10.7933 19.5231
# 4 12.2614 7.8045 -11.9185 28.1218 -6.7378 -3.2935
# 5 -8.3177 2.4032 -10.7933 -6.7378 19.9437 4.5109
# 6 -6.3459 -5.2776 19.5231 -3.2935 4.5109 45.1323
#
#
#
# Elastic Compliance Matrix: (Units=1/GPa)
#
#
# Indices 1 2 3 4 5 6 
#
# 1 0.036578 -0.008584 -0.019235 -0.021325 -0.003878 0.011291
# 2 -0.008584 0.010928 0.001466 0.000369 -0.003947 -0.000142
# 3 -0.019235 0.001466 0.031996 0.024671 0.021229 -0.016695
# 4 -0.021325 0.000369 0.024671 0.060405 0.027528 -0.011971
# 5 -0.003878 -0.003947 0.021229 0.027528 0.073296 -0.015507
# 6 0.011291 -0.000142 -0.016695 -0.011971 -0.015507 0.031626
#
#
# Mechanical properties :
#
#
# Convention : Reuss Voigt Hill
#
# Bulk Modulus (GPa) = 37.31796 44.21090 40.76443
# Shear Modulus (GPa) = 16.31496 30.68788 23.50142
#
# Velocity S-wave (km/s) = 2.67972 3.67519 3.21620
# Velocity P-wave (km/s) = 5.09899 6.12114 5.63330
#
# Compressibility (1/GPa) = 0.02679675
#
# Stress axis : x y z
#
# Youngs Moduli (GPa) = 27.33875 91.50956 31.25346
#
# Poissons Ratio (x) = 0.78549 0.60115
# Poissons Ratio (y) = 0.23467 -0.04581
# Poissons Ratio (z) = 0.52586 -0.13413
#
# Static dielectric constant tensor:
#      x y z
#    x 1.850870 -0.045300 -0.026300 
#    y -0.045300 1.852520 0.024010 
#    z -0.026300 0.024010 1.842170 
# 
# From -- ./inp_files/467038.got.cif
#   From: 2010.05.17/outbox.cif.g08.bks.cpg/sg2_234_cif.got.tgz:467038.got - 2010.06.03 11:33:40.
