data_PCOD9020106
_publ_section_title
;
Structure prediction by ZEFSAII (Michael W. Deem and Ramdas Pophale) SiO2 
 PCOD9020106
Probable space group: P -1
;
_chemical_formula_sum "Si O2"
_cell_formula_units_Z 12
_cell_length_a 8.697221
_cell_length_b 10.003370
_cell_length_c 7.046834
_cell_angle_alpha 64.700766
_cell_angle_beta 94.072960
_cell_angle_gamma 109.230666
_cell_volume 521.605393
_symmetry_space_group_name_H-M "P -1"
_symmetry_group_IT_number 2
_symmetry_cell_setting 'triclinic'
loop_
_space_group_symop_operation_xyz
x,y,z
-x,-y,-z
loop_
_atom_site_type_symbol
_atom_site_label
_atom_site_fract_x
_atom_site_fract_y
_atom_site_fract_z
Si Si1 0.085814 0.746545 0.441609
Si Si2 0.804071 0.964610 0.504813
Si Si3 0.210118 0.303131 0.829584
Si Si4 0.667667 0.408644 0.594429
Si Si5 0.606504 0.904771 0.159266
Si Si6 0.194074 0.366435 0.215563
O O1 0.822318 0.633047 0.010505
O O2 0.977465 0.673591 0.662234
O O3 0.174991 0.635469 0.429072
O O4 0.954975 0.764180 0.266888
O O5 0.740121 0.779061 0.650154
O O6 0.785976 0.087373 0.583440
O O7 0.731360 0.994704 0.280107
O O8 0.000000 0.000000 0.500000
O O9 0.327281 0.448175 0.629362
O O10 0.291196 0.167477 0.930547
O O11 0.500000 0.000000 0.000000
O O12 0.691908 0.477023 0.768491
O O13 0.520703 0.249270 0.664003
#
# Coordination Sequence:
#
# PCOD9020106 Si02
#       6
#     2   2   2   2   2   2
#     4  10  23  44  73 104 145 185 237 294 342 422
#     4  10  21  46  70  99 142 186 235 286 343 420
#     4  11  23  45  76 100 143 192 235 287 354 423
#     4  11  25  45  68 105 149 180 232 301 350 414
#     4  12  27  46  71 109 144 184 237 295 359 415
#     4  10  22  41  75 101 136 190 240 273 359 419
#
# _framework density 23.005898999999999
#
# number of rings (size 3 to 8) (size 9 to 14) (size 15 to 20)
#    0.000    1.333    5.000    2.500    2.333    8.667 
#    0.000    0.000    0.000    0.000    0.000    0.000 
#    0.000    0.000    0.000    0.000    0.000    0.000 
#
# Total GULP energy -67084.725413 kJ/mol
# GULP energy per Si atom -5590.393784 kJ/mol
# Density = 2.295354 g / cm^3
# Si number density = 23.005899 Si / 1000 Ang^3
#
#
#
# Elastic Constant Matrix: (Units=GPa)
#
#
# Indices 1 2 3 4 5 6 
#
# 1 82.2005 49.8888 39.3292 10.1593 26.4425 -0.4099
# 2 49.8888 176.1503 59.6598 20.4767 9.5683 -1.5589
# 3 39.3292 59.6598 88.9311 11.9934 24.8843 -3.3877
# 4 10.1593 20.4767 11.9934 49.5259 -10.0781 0.8532
# 5 26.4425 9.5683 24.8843 -10.0781 30.3601 -4.4564
# 6 -0.4099 -1.5589 -3.3877 0.8532 -4.4564 39.4917
#
#
#
# Elastic Compliance Matrix: (Units=1/GPa)
#
#
# Indices 1 2 3 4 5 6 
#
# 1 0.022358 -0.004291 -0.000504 -0.006778 -0.020269 -0.002121
# 2 -0.004291 0.008387 -0.005158 -0.000267 0.005299 0.000448
# 3 -0.000504 -0.005158 0.020428 -0.006114 -0.016740 -0.000213
# 4 -0.006778 -0.000267 -0.006114 0.027267 0.020210 0.001086
# 5 -0.020269 0.005299 -0.016740 0.020210 0.070239 0.006052
# 6 -0.002121 0.000448 -0.000213 0.001086 0.006052 0.025959
#
#
# Mechanical properties :
#
#
# Convention : Reuss Voigt Hill
#
# Bulk Modulus (GPa) = 31.98317 71.67082 51.82700
# Shear Modulus (GPa) = 24.39417 37.10246 30.74832
#
# Velocity S-wave (km/s) = 3.25983 4.02025 3.65984
# Velocity P-wave (km/s) = 5.30103 7.26435 6.35892
#
# Compressibility (1/GPa) = 0.03126644
#
# Stress axis : x y z
#
# Youngs Moduli (GPa) = 44.72582 119.23906 48.95167
#
# Poissons Ratio (x) = 0.51171 0.02467
# Poissons Ratio (y) = 0.19194 0.25249
# Poissons Ratio (z) = 0.02254 0.61503
#
# Static dielectric constant tensor:
#      x y z
#    x 1.912770 0.009450 -0.007520 
#    y 0.009450 1.877830 -0.019440 
#    z -0.007520 -0.019440 1.879960 
# 
# From -- ./inp_files/377724.got.cif
#   From: 2010.05.17/outbox.cif.g08.bks.cpg/sg2_189_cif.got.tgz:377724.got - 2010.06.03 11:33:40.
