data_PCOD9020489
_publ_section_title
;
Structure prediction by ZEFSAII (Michael W. Deem and Ramdas Pophale) SiO2 
 PCOD9020489
Probable space group: P -1
;
_chemical_formula_sum "Si O2"
_cell_formula_units_Z 14
_cell_length_a 8.508778
_cell_length_b 15.319671
_cell_length_c 15.192282
_cell_angle_alpha 29.365542
_cell_angle_beta 143.363245
_cell_angle_gamma 145.606026
_cell_volume 523.181194
_symmetry_space_group_name_H-M "P -1"
_symmetry_group_IT_number 2
_symmetry_cell_setting 'triclinic'
loop_
_space_group_symop_operation_xyz
x,y,z
-x,-y,-z
loop_
_atom_site_type_symbol
_atom_site_label
_atom_site_fract_x
_atom_site_fract_y
_atom_site_fract_z
Si Si1 0.912752 0.592733 0.298109
Si Si2 0.606923 0.326858 0.703828
Si Si3 0.979828 0.058786 0.830739
Si Si4 0.706931 0.215494 0.213261
Si Si5 0.662942 0.590483 0.901941
Si Si6 0.162431 0.956394 0.407854
Si Si7 0.614752 0.091182 0.083698
O O1 0.117026 0.610453 0.291709
O O2 0.953225 0.795351 0.185052
O O3 0.000000 0.500000 0.500000
O O4 0.585826 0.456911 0.241533
O O5 0.500000 0.500000 0.500000
O O6 0.685344 0.257642 0.893544
O O7 0.365378 0.115001 0.745217
O O8 0.260233 0.013637 0.992488
O O9 0.645854 0.892915 0.832010
O O10 0.985343 0.153059 0.653682
O O11 0.868725 0.144405 0.421864
O O12 0.807244 0.446746 0.066240
O O13 0.736983 0.164468 0.170931
O O14 0.835794 0.825664 0.780303
O O15 0.500000 0.500000 0.000000
O O16 0.500000 0.000000 0.500000
#
# Coordination Sequence:
#
# PCOD9020489 Si02
#       7
#     2   2   2   2   2   2   2
#     4  12  24  40  72 103 131 169 228 277 327 391
#     4  11  26  42  61 100 139 173 220 276 328 390
#     4  11  20  40  68 101 126 171 221 277 325 385
#     4  11  21  38  64  96 132 166 217 270 332 388
#     4  12  23  37  63 104 132 167 212 280 338 384
#     4  10  22  36  57 101 141 159 204 277 339 382
#     4  11  23  43  69  94 132 178 221 271 331 390
#
# _framework density 26.759370000000001
#
# number of rings (size 3 to 8) (size 9 to 14) (size 15 to 20)
#    0.000    0.857    5.714    3.857    0.000    0.000 
#    0.000    0.000    0.000    6.000    7.429    0.000 
#    0.000    0.000    0.000    0.000    0.000    0.000 
#
# Total GULP energy -78398.832514 kJ/mol
# GULP energy per Si atom -5599.916608 kJ/mol
# Density = 2.669846 g / cm^3
# Si number density = 26.759370 Si / 1000 Ang^3
#
#
#
# Elastic Constant Matrix: (Units=GPa)
#
#
# Indices 1 2 3 4 5 6 
#
# 1 132.0128 29.0142 60.9847 -10.7166 -25.8069 -35.9412
# 2 29.0142 171.8331 67.2795 -5.1686 -10.0391 -16.0728
# 3 60.9847 67.2795 233.6436 4.0910 -21.4434 -27.6854
# 4 -10.7166 -5.1686 4.0910 67.4567 -21.0086 -11.4162
# 5 -25.8069 -10.0391 -21.4434 -21.0086 50.6115 0.9155
# 6 -35.9412 -16.0728 -27.6854 -11.4162 0.9155 48.8975
#
#
#
# Elastic Compliance Matrix: (Units=1/GPa)
#
#
# Indices 1 2 3 4 5 6 
#
# 1 0.013369 0.000045 -0.001592 0.006697 0.008744 0.010340
# 2 0.000045 0.006719 -0.001680 0.001240 0.001131 0.001559
# 3 -0.001592 -0.001680 0.005434 -0.000159 0.001068 0.001297
# 4 0.006697 0.001240 -0.000159 0.021539 0.012352 0.010037
# 5 0.008744 0.001131 0.001068 0.012352 0.029845 0.009728
# 6 0.010340 0.001559 0.001297 0.010037 0.009728 0.031459
#
#
# Mechanical properties :
#
#
# Convention : Reuss Voigt Hill
#
# Bulk Modulus (GPa) = 52.44288 94.67180 73.55734
# Shear Modulus (GPa) = 41.26347 58.74054 50.00201
#
# Velocity S-wave (km/s) = 3.93112 4.69031 4.32740
# Velocity P-wave (km/s) = 6.34393 8.04909 7.24683
#
# Compressibility (1/GPa) = 0.01906837
#
# Stress axis : x y z
#
# Youngs Moduli (GPa) = 74.80268 148.83570 184.03478
#
# Poissons Ratio (x) = -0.00677 0.29299
# Poissons Ratio (y) = -0.00340 0.30914
# Poissons Ratio (z) = 0.11909 0.25001
#
# Static dielectric constant tensor:
#      x y z
#    x 2.343240 0.244740 0.093870 
#    y 0.244740 2.230880 0.011650 
#    z 0.093870 0.011650 2.162990 
# 
# From -- ./inp_files/505181.got.cif
#   From: 2010.05.17/outbox.cif.g08.bks.cpg/sg2_253_cif.got.tgz:505181.got - 2010.06.03 11:33:40.
