data_PCOD9020412
_publ_section_title
;
Structure prediction by ZEFSAII (Michael W. Deem and Ramdas Pophale) SiO2 
 PCOD9020412
Probable space group: P -1
;
_chemical_formula_sum "Si O2"
_cell_formula_units_Z 12
_cell_length_a 9.175717
_cell_length_b 12.912808
_cell_length_c 14.578315
_cell_angle_alpha 151.103442
_cell_angle_beta 138.097085
_cell_angle_gamma 47.928088
_cell_volume 556.548369
_symmetry_space_group_name_H-M "P -1"
_symmetry_group_IT_number 2
_symmetry_cell_setting 'triclinic'
loop_
_space_group_symop_operation_xyz
x,y,z
-x,-y,-z
loop_
_atom_site_type_symbol
_atom_site_label
_atom_site_fract_x
_atom_site_fract_y
_atom_site_fract_z
Si Si1 0.684994 0.120644 0.621886
Si Si2 0.141261 0.580160 0.356385
Si Si3 0.723395 0.362633 0.011122
Si Si4 0.506546 0.023594 0.763537
Si Si5 0.949718 0.741253 0.206096
Si Si6 0.531600 0.805875 0.794862
O O1 0.753737 0.280637 0.858114
O O2 0.931090 0.087271 0.668819
O O3 0.500000 0.000000 0.500000
O O4 0.560900 0.128515 0.470938
O O5 0.304544 0.692927 0.587514
O O6 0.281142 0.368333 0.222524
O O7 0.071214 0.719090 0.343360
O O8 0.920382 0.506286 0.241526
O O9 0.679739 0.177684 0.919745
O O10 0.500000 0.500000 0.000000
O O11 0.298772 0.175918 0.822313
O O12 0.590482 0.889323 0.785880
O O13 0.000000 0.500000 0.000000
O O14 0.500000 0.000000 0.000000
#
# Coordination Sequence:
#
# PCOD9020412 Si02
#       6
#     2   2   2   2   2   2
#     4  10  22  35  61 100 131 161 210 280 331 384
#     4  11  24  42  66  95 137 169 223 273 328 390
#     4  11  22  42  65 103 134 163 216 286 336 387
#     4  11  23  40  66  96 132 174 223 267 334 398
#     4  12  20  37  68  96 126 171 218 275 332 387
#     4  11  26  44  65  94 134 183 226 264 326 400
#
# _framework density 21.561468000000001
#
# number of rings (size 3 to 8) (size 9 to 14) (size 15 to 20)
#    0.000    1.000    5.000    1.500    0.000    0.667 
#    3.000    0.833    0.000    0.000    0.000    0.000 
#    0.000    0.000    0.000    0.000    0.000    0.000 
#
# Total GULP energy -66804.389660 kJ/mol
# GULP energy per Si atom -5567.032472 kJ/mol
# Density = 2.151239 g / cm^3
# Si number density = 21.561468 Si / 1000 Ang^3
#
#
#
# Elastic Constant Matrix: (Units=GPa)
#
#
# Indices 1 2 3 4 5 6 
#
# 1 143.8168 27.5071 47.6214 3.0652 12.7055 10.2596
# 2 27.5071 64.6606 4.9029 3.3097 -4.8842 -10.1575
# 3 47.6214 4.9029 95.7581 5.4296 5.9224 -6.2113
# 4 3.0652 3.3097 5.4296 20.5645 -4.7573 0.9152
# 5 12.7055 -4.8842 5.9224 -4.7573 60.6103 2.0757
# 6 10.2596 -10.1575 -6.2113 0.9152 2.0757 33.1963
#
#
#
# Elastic Compliance Matrix: (Units=1/GPa)
#
#
# Indices 1 2 3 4 5 6 
#
# 1 0.010108 -0.004937 -0.005043 0.000447 -0.001801 -0.005478
# 2 -0.004937 0.018896 0.002023 -0.002744 0.001883 0.007644
# 3 -0.005043 0.002023 0.013387 -0.003443 -0.000523 0.004810
# 4 0.000447 -0.002744 -0.003443 0.051015 0.004139 -0.003287
# 5 -0.001801 0.001883 -0.000523 0.004139 0.017410 -0.000168
# 6 -0.005478 0.007644 0.004810 -0.003287 -0.000168 0.035157
#
#
# Mechanical properties :
#
#
# Convention : Reuss Voigt Hill
#
# Bulk Modulus (GPa) = 37.77068 51.58870 44.67969
# Shear Modulus (GPa) = 29.28894 37.82115 33.55505
#
# Velocity S-wave (km/s) = 3.68964 4.19275 3.94921
# Velocity P-wave (km/s) = 5.97553 6.88601 6.44686
#
# Compressibility (1/GPa) = 0.02647556
#
# Stress axis : x y z
#
# Youngs Moduli (GPa) = 98.93248 52.92215 74.69912
#
# Poissons Ratio (x) = 0.26128 0.37672
# Poissons Ratio (y) = 0.48843 -0.15109
# Poissons Ratio (z) = 0.49894 -0.10705
#
# Static dielectric constant tensor:
#      x y z
#    x 1.456800 0.162730 0.220370 
#    y 0.162730 1.708160 -0.021270 
#    z 0.220370 -0.021270 1.761080 
# 
# From -- ./inp_files/268418.got.cif
#   From: 2010.05.17/outbox.cif.g08.bks.cpg/sg2_135_cif.got.tgz:268418.got - 2010.06.03 11:33:40.
