data_PCOD9020705
_publ_section_title
;
Structure prediction by ZEFSAII (Michael W. Deem and Ramdas Pophale) SiO2 
 PCOD9020705
Probable space group: P -1
;
_chemical_formula_sum "Si O2"
_cell_formula_units_Z 16
_cell_length_a 10.075571
_cell_length_b 8.916770
_cell_length_c 14.416513
_cell_angle_alpha 94.267610
_cell_angle_beta 136.201670
_cell_angle_gamma 109.436936
_cell_volume 740.662137
_symmetry_space_group_name_H-M "P -1"
_symmetry_group_IT_number 2
_symmetry_cell_setting 'triclinic'
loop_
_space_group_symop_operation_xyz
x,y,z
-x,-y,-z
loop_
_atom_site_type_symbol
_atom_site_label
_atom_site_fract_x
_atom_site_fract_y
_atom_site_fract_z
Si Si1 0.085800 0.965772 0.246840
Si Si2 0.385940 0.955739 0.246131
Si Si3 0.863724 0.035982 0.508026
Si Si4 0.050494 0.439904 0.643336
Si Si5 0.698958 0.619212 0.682666
Si Si6 0.732115 0.569736 0.064776
Si Si7 0.103074 0.623854 0.968082
Si Si8 0.616780 0.375000 0.338056
O O1 0.266689 0.933040 0.284662
O O2 0.089381 0.978130 0.360922
O O3 0.844144 0.773717 0.092064
O O4 0.162121 0.164307 0.259373
O O5 0.587887 0.921290 0.353359
O O6 0.491947 0.161766 0.280711
O O7 0.216876 0.824978 0.074595
O O8 0.951000 0.242693 0.542303
O O9 0.000000 0.000000 0.500000
O O10 0.090119 0.417026 0.768014
O O11 0.289628 0.573521 0.716549
O O12 0.855059 0.476758 0.523928
O O13 0.500000 0.500000 0.500000
O O14 0.557530 0.579905 0.705933
O O15 0.893042 0.577911 0.792435
O O16 0.718447 0.421104 0.983610
O O17 0.500000 0.500000 0.000000
O O18 0.000000 0.500000 0.000000
#
# Coordination Sequence:
#
# PCOD9020705 Si02
#       8
#     2   2   2   2   2   2   2   2
#     4  10  23  45  66  96 136 177 229 280 336 404
#     4  10  22  41  65  96 133 178 226 279 341 392
#     4  10  22  36  67  97 133 178 229 271 333 406
#     4   9  20  39  61  94 131 171 222 266 339 402
#     4  11  26  43  71 101 132 177 234 280 338 395
#     4  11  25  44  66  95 137 183 217 275 352 403
#     4  12  27  44  68 101 136 173 233 279 334 413
#     4   9  20  40  66  93 131 176 215 283 333 396
#
# _framework density 21.602291000000001
#
# number of rings (size 3 to 8) (size 9 to 14) (size 15 to 20)
#    0.000    1.750    1.250    1.125    8.750    5.000 
#    2.250    1.250    0.000    0.000    0.000    0.000 
#    0.000    0.000    0.000    0.000    0.000    0.000 
#
# Total GULP energy -89228.929071 kJ/mol
# GULP energy per Si atom -5576.808067 kJ/mol
# Density = 2.155312 g / cm^3
# Si number density = 21.602291 Si / 1000 Ang^3
#
#
#
# Elastic Constant Matrix: (Units=GPa)
#
#
# Indices 1 2 3 4 5 6 
#
# 1 166.3930 39.3071 31.5944 9.5484 15.8814 -12.0326
# 2 39.3071 63.2003 17.4625 7.1540 11.9212 9.4702
# 3 31.5944 17.4625 66.6205 6.4960 0.9333 -10.4099
# 4 9.5484 7.1540 6.4960 26.3870 3.1305 8.6323
# 5 15.8814 11.9212 0.9333 3.1305 32.0206 1.6702
# 6 -12.0326 9.4702 -10.4099 8.6323 1.6702 32.7837
#
#
#
# Elastic Compliance Matrix: (Units=1/GPa)
#
#
# Indices 1 2 3 4 5 6 
#
# 1 0.008083 -0.004536 -0.001663 -0.002497 -0.002264 0.004522
# 2 -0.004536 0.022526 -0.005263 0.000673 -0.005541 -0.009738
# 3 -0.001663 -0.005263 0.018994 -0.005644 0.002349 0.008308
# 4 -0.002497 0.000673 -0.005644 0.045096 -0.002492 -0.014650
# 5 -0.002264 -0.005541 0.002349 -0.002492 0.034569 0.000411
# 6 0.004522 -0.009738 0.008308 -0.014650 0.000411 0.041450
#
#
# Mechanical properties :
#
#
# Convention : Reuss Voigt Hill
#
# Bulk Modulus (GPa) = 37.48110 52.54907 45.01509
# Shear Modulus (GPa) = 24.68689 32.09493 28.39091
#
# Velocity S-wave (km/s) = 3.38419 3.85868 3.62920
# Velocity P-wave (km/s) = 5.71476 6.65065 6.20039
#
# Compressibility (1/GPa) = 0.02668011
#
# Stress axis : x y z
#
# Youngs Moduli (GPa) = 123.70902 44.39261 52.64811
#
# Poissons Ratio (x) = 0.20136 0.08755
# Poissons Ratio (y) = 0.56114 0.27709
# Poissons Ratio (z) = 0.20571 0.23364
#
# Static dielectric constant tensor:
#      x y z
#    x 1.779630 0.006680 0.027830 
#    y 0.006680 1.758340 -0.030500 
#    z 0.027830 -0.030500 1.835490 
# 
# From -- ./inp_files/234065.got.cif
#   From: 2010.05.17/outbox.cif.g08.bks.cpg/sg2_118_cif.got.tgz:234065.got - 2010.06.03 11:33:40.
