data_PCOD9020653
_publ_section_title
;
Structure prediction by ZEFSAII (Michael W. Deem and Ramdas Pophale) SiO2 
 PCOD9020653
Probable space group: P -1
;
_chemical_formula_sum "Si O2"
_cell_formula_units_Z 14
_cell_length_a 13.010324
_cell_length_b 5.138536
_cell_length_c 21.869870
_cell_angle_alpha 83.375121
_cell_angle_beta 29.716117
_cell_angle_gamma 97.121737
_cell_volume 640.983245
_symmetry_space_group_name_H-M "P -1"
_symmetry_group_IT_number 2
_symmetry_cell_setting 'triclinic'
loop_
_space_group_symop_operation_xyz
x,y,z
-x,-y,-z
loop_
_atom_site_type_symbol
_atom_site_label
_atom_site_fract_x
_atom_site_fract_y
_atom_site_fract_z
Si Si1 0.331362 0.984605 0.143622
Si Si2 0.044464 0.348164 0.274204
Si Si3 0.353472 0.838590 0.905078
Si Si4 0.728264 0.650543 0.124195
Si Si5 0.919080 0.631938 0.214763
Si Si6 0.527579 0.891876 0.556113
Si Si7 0.810022 0.989813 0.189064
O O1 0.212568 0.194791 0.182650
O O2 0.477095 0.105108 0.126921
O O3 0.158258 0.635187 0.251319
O O4 0.500000 0.000000 0.000000
O O5 0.993603 0.509426 0.237947
O O6 0.799338 0.069151 0.425208
O O7 0.398415 0.671145 0.830054
O O8 0.359258 0.139157 0.870854
O O9 0.093792 0.633902 0.071677
O O10 0.712936 0.705965 0.201933
O O11 0.000602 0.779145 0.961019
O O12 0.946844 0.957928 0.179643
O O13 0.638555 0.453611 0.359194
O O14 0.391240 0.955706 0.679663
O O15 0.500000 0.000000 0.500000
#
# Coordination Sequence:
#
# PCOD9020653 Si02
#       7
#     2   2   2   2   2   2   2
#     4  12  25  42  66  89 127 171 215 265 313 365
#     4  11  26  39  62  96 129 168 208 253 321 384
#     4  11  22  39  64  92 125 159 217 267 310 362
#     4  10  23  38  65  96 126 165 212 260 316 368
#     4  10  22  36  64  92 134 162 201 256 322 380
#     4  10  23  38  62  92 136 166 207 249 323 387
#     4  10  22  38  63  94 134 167 204 255 324 379
#
# _framework density 21.841443000000002
#
# number of rings (size 3 to 8) (size 9 to 14) (size 15 to 20)
#    0.000    1.429    2.857    1.286   10.000    2.857 
#    0.000    0.000    0.000    5.143    0.000    0.000 
#    0.000    0.000    0.000    0.000    0.000    0.000 
#
# Total GULP energy -77989.386445 kJ/mol
# GULP energy per Si atom -5570.670460 kJ/mol
# Density = 2.179173 g / cm^3
# Si number density = 21.841443 Si / 1000 Ang^3
#
#
#
# Elastic Constant Matrix: (Units=GPa)
#
#
# Indices 1 2 3 4 5 6 
#
# 1 100.0359 24.1889 23.6046 6.3289 -5.0035 -10.3813
# 2 24.1889 95.7370 14.5074 4.5104 -13.8874 -0.1908
# 3 23.6046 14.5074 60.6329 4.7785 -3.4563 -6.9814
# 4 6.3289 4.5104 4.7785 31.8764 3.5482 2.6682
# 5 -5.0035 -13.8874 -3.4563 3.5482 28.2026 -0.5656
# 6 -10.3813 -0.1908 -6.9814 2.6682 -0.5656 42.7576
#
#
#
# Elastic Compliance Matrix: (Units=1/GPa)
#
#
# Indices 1 2 3 4 5 6 
#
# 1 0.011784 -0.002224 -0.003593 -0.001778 0.000826 0.002386
# 2 -0.002224 0.012141 -0.001663 -0.001598 0.005569 -0.000584
# 3 -0.003593 -0.001663 0.018799 -0.002196 0.001171 0.002342
# 4 -0.001778 -0.001598 -0.002196 0.033149 -0.005601 -0.002940
# 5 0.000826 0.005569 0.001171 -0.005601 0.039221 0.001285
# 6 0.002386 -0.000584 0.002342 -0.002940 0.001285 0.024547
#
#
# Mechanical properties :
#
#
# Convention : Reuss Voigt Hill
#
# Bulk Modulus (GPa) = 36.01928 42.33419 39.17673
# Shear Modulus (GPa) = 30.51461 33.50762 32.01112
#
# Velocity S-wave (km/s) = 3.74183 3.92105 3.83249
# Velocity P-wave (km/s) = 5.93258 6.31855 6.12860
#
# Compressibility (1/GPa) = 0.02776291
#
# Stress axis : x y z
#
# Youngs Moduli (GPa) = 84.86393 82.36352 53.19468
#
# Poissons Ratio (x) = 0.18321 0.19114
# Poissons Ratio (y) = 0.18877 0.08846
# Poissons Ratio (z) = 0.30493 0.13696
#
# Static dielectric constant tensor:
#      x y z
#    x 1.860780 -0.011760 -0.010870 
#    y -0.011760 1.948420 -0.047540 
#    z -0.010870 -0.047540 1.815140 
# 
# From -- ./inp_files/65867.got.cif
#   From: 2010.05.17/outbox.cif.g08.bks.cpg/sg2_33_cif.got.tgz:65867.got - 2010.06.03 11:33:40.
