data_PCOD9020376
_publ_section_title
;
Structure prediction by ZEFSAII (Michael W. Deem and Ramdas Pophale) SiO2 
 PCOD9020376
Probable space group: P -1
;
_chemical_formula_sum "Si O2"
_cell_formula_units_Z 14
_cell_length_a 14.865693
_cell_length_b 8.902091
_cell_length_c 6.369691
_cell_angle_alpha 64.671837
_cell_angle_beta 65.873985
_cell_angle_gamma 96.327977
_cell_volume 652.511256
_symmetry_space_group_name_H-M "P -1"
_symmetry_group_IT_number 2
_symmetry_cell_setting 'triclinic'
loop_
_space_group_symop_operation_xyz
x,y,z
-x,-y,-z
loop_
_atom_site_type_symbol
_atom_site_label
_atom_site_fract_x
_atom_site_fract_y
_atom_site_fract_z
Si Si1 0.770352 0.055589 0.622976
Si Si2 0.113516 0.005796 0.820332
Si Si3 0.390178 0.878353 0.577597
Si Si4 0.362883 0.303151 0.928547
Si Si5 0.232980 0.405785 0.354466
Si Si6 0.195309 0.726262 0.152609
Si Si7 0.410677 0.601720 0.377958
O O1 0.868091 0.040328 0.411176
O O2 0.678706 0.035031 0.550918
O O3 0.801975 0.226914 0.632511
O O4 0.713622 0.893426 0.928375
O O5 0.184155 0.216166 0.629782
O O6 0.140062 0.853200 0.017809
O O7 0.000000 0.000000 0.000000
O O8 0.409055 0.738866 0.480013
O O9 0.500000 0.000000 0.500000
O O10 0.309643 0.789596 0.893648
O O11 0.393430 0.417435 0.622357
O O12 0.478008 0.320336 0.892927
O O13 0.298500 0.375428 0.111837
O O14 0.155885 0.512150 0.294862
O O15 0.314881 0.544718 0.345314
#
# Coordination Sequence:
#
# PCOD9020376 Si02
#       7
#     2   2   2   2   2   2   2
#     4  10  22  41  63  88 125 166 204 254 317 367
#     4  10  25  46  66  95 123 152 212 274 322 380
#     4  11  23  35  58  92 130 168 209 253 292 364
#     4  10  22  35  57  88 126 169 206 255 296 361
#     4  11  22  40  66  88 125 170 205 259 316 366
#     4  11  22  41  65  92 126 167 211 254 314 374
#     4  11  21  36  57  89 127 168 215 247 293 367
#
# _framework density 21.455569000000001
#
# number of rings (size 3 to 8) (size 9 to 14) (size 15 to 20)
#    0.000    1.429    2.857    2.143    2.000    8.000 
#    0.000    0.714    0.000    0.000    0.000    0.000 
#    0.000    0.000    0.000    0.000    0.000    0.000 
#
# Total GULP energy -78024.461880 kJ/mol
# GULP energy per Si atom -5573.175849 kJ/mol
# Density = 2.140674 g / cm^3
# Si number density = 21.455569 Si / 1000 Ang^3
#
#
#
# Elastic Constant Matrix: (Units=GPa)
#
#
# Indices 1 2 3 4 5 6 
#
# 1 47.9880 22.3972 27.9808 2.8028 -9.0567 -26.5108
# 2 22.3972 101.0189 16.7838 9.4277 -10.5910 -22.1968
# 3 27.9808 16.7838 76.4216 -2.2365 -9.4109 -13.0118
# 4 2.8028 9.4277 -2.2365 24.1845 -8.8545 7.1821
# 5 -9.0567 -10.5910 -9.4109 -8.8545 26.5792 6.7529
# 6 -26.5108 -22.1968 -13.0118 7.1821 6.7529 28.7817
#
#
#
# Elastic Compliance Matrix: (Units=1/GPa)
#
#
# Indices 1 2 3 4 5 6 
#
# 1 0.065591 0.005387 -0.015813 -0.035330 -0.010316 0.068659
# 2 0.005387 0.014116 -0.002603 -0.012696 -0.002364 0.018394
# 3 -0.015813 -0.002603 0.018479 0.010806 0.006902 -0.012535
# 4 -0.035330 -0.012696 0.010806 0.081889 0.030535 -0.065048
# 5 -0.010316 -0.002364 0.006902 0.030535 0.052960 -0.028251
# 6 0.068659 0.018394 -0.012535 -0.065048 -0.028251 0.129365
#
#
# Mechanical properties :
#
#
# Convention : Reuss Voigt Hill
#
# Bulk Modulus (GPa) = 13.86438 39.97244 26.91841
# Shear Modulus (GPa) = 12.12120 26.46018 19.29069
#
# Velocity S-wave (km/s) = 2.37943 3.51558 3.00175
# Velocity P-wave (km/s) = 3.74498 5.92873 4.95857
#
# Compressibility (1/GPa) = 0.07212729
#
# Stress axis : x y z
#
# Youngs Moduli (GPa) = 15.24591 70.84122 54.11651
#
# Poissons Ratio (x) = -0.38160 0.85573
# Poissons Ratio (y) = -0.08213 0.14088
# Poissons Ratio (z) = 0.24108 0.18442
#
# Static dielectric constant tensor:
#      x y z
#    x 1.901850 -0.071840 0.064320 
#    y -0.071840 1.817500 -0.047180 
#    z 0.064320 -0.047180 1.757460 
# 
# From -- ./inp_files/31638.got.cif
#   From: 2010.05.17/outbox.cif.g08.bks.cpg/sg2_16_cif.got.tgz:31638.got - 2010.06.03 11:33:40.
