data_PCOD9020055
_publ_section_title
;
Structure prediction by ZEFSAII (Michael W. Deem and Ramdas Pophale) SiO2 
 PCOD9020055
Probable space group: P -1
;
_chemical_formula_sum "Si O2"
_cell_formula_units_Z 14
_cell_length_a 7.641141
_cell_length_b 9.996617
_cell_length_c 22.693925
_cell_angle_alpha 147.083421
_cell_angle_beta 115.635186
_cell_angle_gamma 87.329331
_cell_volume 648.147636
_symmetry_space_group_name_H-M "P -1"
_symmetry_group_IT_number 2
_symmetry_cell_setting 'triclinic'
loop_
_space_group_symop_operation_xyz
x,y,z
-x,-y,-z
loop_
_atom_site_type_symbol
_atom_site_label
_atom_site_fract_x
_atom_site_fract_y
_atom_site_fract_z
Si Si1 0.285160 0.974629 0.788836
Si Si2 0.696591 0.964833 0.600594
Si Si3 0.981370 0.767230 0.363079
Si Si4 0.577204 0.595032 0.143595
Si Si5 0.867512 0.543378 0.657430
Si Si6 0.541231 0.720609 0.680225
Si Si7 0.791942 0.284202 0.839760
O O1 0.237749 0.351187 0.759435
O O2 0.445037 0.856164 0.758593
O O3 0.009800 0.690808 0.670822
O O4 0.286910 0.123964 0.782664
O O5 0.407904 0.816195 0.517216
O O6 0.679514 0.661179 0.500087
O O7 0.881045 0.263858 0.781699
O O8 0.771415 0.046903 0.574249
O O9 0.957565 0.485269 0.287517
O O10 0.000000 0.000000 0.500000
O O11 0.369723 0.602610 0.145660
O O12 0.000000 0.500000 0.000000
O O13 0.430366 0.263642 0.963973
O O14 0.780883 0.743177 0.741597
O O15 0.622108 0.922256 0.707008
#
# Coordination Sequence:
#
# PCOD9020055 Si02
#       7
#     2   2   2   2   2   2   2
#     4  10  21  46  68 103 138 180 229 291 345 401
#     4  10  24  41  68 101 134 183 229 284 340 410
#     4  12  25  44  68  99 139 189 228 284 344 413
#     4  10  25  40  72 101 139 180 232 281 350 411
#     4  10  23  42  69  97 139 179 230 278 342 412
#     4   9  22  38  67  99 134 173 230 279 338 410
#     4  11  22  41  69 102 139 178 228 288 347 405
#
# _framework density 21.600017999999999
#
# number of rings (size 3 to 8) (size 9 to 14) (size 15 to 20)
#    0.857    0.857    0.000    3.429    8.000    0.571 
#    0.000    4.286    0.000    0.000    0.000    0.000 
#    0.000    0.000    0.000    0.000    0.000    0.000 
#
# Total GULP energy -78140.779266 kJ/mol
# GULP energy per Si atom -5581.484233 kJ/mol
# Density = 2.155085 g / cm^3
# Si number density = 21.600018 Si / 1000 Ang^3
#
#
#
# Elastic Constant Matrix: (Units=GPa)
#
#
# Indices 1 2 3 4 5 6 
#
# 1 150.2260 56.8188 28.1707 -5.7846 -25.7745 -14.1856
# 2 56.8188 96.5599 36.3301 -16.1762 -8.0255 -0.8804
# 3 28.1707 36.3301 39.0844 -18.3311 -12.1856 -0.6683
# 4 -5.7846 -16.1762 -18.3311 26.6128 5.3130 7.9208
# 5 -25.7745 -8.0255 -12.1856 5.3130 38.6671 -4.1028
# 6 -14.1856 -0.8804 -0.6683 7.9208 -4.1028 51.7252
#
#
#
# Elastic Compliance Matrix: (Units=1/GPa)
#
#
# Indices 1 2 3 4 5 6 
#
# 1 0.010509 -0.005351 -0.003298 -0.005672 0.006069 0.004098
# 2 -0.005351 0.018743 -0.014072 0.002054 -0.004607 -0.002010
# 3 -0.003298 -0.014072 0.057724 0.030088 0.008478 -0.004333
# 4 -0.005672 0.002054 0.030088 0.062295 -0.003595 -0.010956
# 5 0.006069 -0.004607 0.008478 -0.003595 0.032630 0.004834
# 6 0.004098 -0.002010 -0.004333 -0.010956 0.004834 0.022428
#
#
# Mechanical properties :
#
#
# Convention : Reuss Voigt Hill
#
# Bulk Modulus (GPa) = 24.07753 58.72329 41.40041
# Shear Modulus (GPa) = 18.96707 34.37107 26.66907
#
# Velocity S-wave (km/s) = 2.96650 3.99338 3.51761
# Velocity P-wave (km/s) = 4.78588 6.96480 5.97550
#
# Compressibility (1/GPa) = 0.04153251
#
# Stress axis : x y z
#
# Youngs Moduli (GPa) = 95.15680 53.35465 17.32388
#
# Poissons Ratio (x) = 0.28551 0.05714
# Poissons Ratio (y) = 0.50921 0.24378
# Poissons Ratio (z) = 0.31385 0.75080
#
# Static dielectric constant tensor:
#      x y z
#    x 1.809560 0.002190 0.048390 
#    y 0.002190 1.787870 0.006590 
#    z 0.048390 0.006590 1.834210 
# 
# From -- ./inp_files/607092.got.cif
#   From: 2010.05.17/outbox.cif.g08.bks.cpg/sg2_304_cif.got.tgz:607092.got - 2010.06.03 11:33:40.
