data_PCOD9020870
_publ_section_title
;
Structure prediction by ZEFSAII (Michael W. Deem and Ramdas Pophale) SiO2 
 PCOD9020870
Probable space group: P -1
;
_chemical_formula_sum "Si O2"
_cell_formula_units_Z 16
_cell_length_a 11.623061
_cell_length_b 11.541715
_cell_length_c 13.808793
_cell_angle_alpha 60.077136
_cell_angle_beta 149.488034
_cell_angle_gamma 132.686051
_cell_volume 673.075954
_symmetry_space_group_name_H-M "P -1"
_symmetry_group_IT_number 2
_symmetry_cell_setting 'triclinic'
loop_
_space_group_symop_operation_xyz
x,y,z
-x,-y,-z
loop_
_atom_site_type_symbol
_atom_site_label
_atom_site_fract_x
_atom_site_fract_y
_atom_site_fract_z
Si Si1 0.200965 0.677886 0.383367
Si Si2 0.051050 0.869990 0.633017
Si Si3 0.112745 0.033829 0.959206
Si Si4 0.557782 0.677596 0.470735
Si Si5 0.560171 0.097103 0.799413
Si Si6 0.170334 0.404055 0.571756
Si Si7 0.222652 0.890884 0.454254
Si Si8 0.634575 0.623091 0.957239
O O1 0.406186 0.679330 0.456040
O O2 0.069081 0.515005 0.418380
O O3 0.359345 0.833101 0.503042
O O4 0.950319 0.678257 0.155569
O O5 0.887505 0.804299 0.642270
O O6 0.887910 0.710742 0.513804
O O7 0.377506 0.973378 0.806395
O O8 0.000000 0.000000 0.500000
O O9 0.925370 0.044473 0.740651
O O10 0.370838 0.222166 0.081094
O O11 0.175078 0.906115 0.020797
O O12 0.000000 0.000000 0.000000
O O13 0.500000 0.500000 0.500000
O O14 0.431860 0.738493 0.270944
O O15 0.400984 0.006720 0.621840
O O16 0.472214 0.533199 0.779302
O O17 0.008463 0.276635 0.592337
O O18 0.500000 0.500000 0.000000
#
# Coordination Sequence:
#
# PCOD9020870 Si02
#       8
#     2   2   2   2   2   2   2   2
#     4  11  22  36  65  92 133 162 198 269 319 361
#     4   9  21  40  64  89 119 171 219 254 299 369
#     4  11  23  39  58  95 138 157 193 258 320 383
#     4  11  22  42  63  92 125 165 220 263 302 370
#     4  10  22  40  71  86 124 170 202 257 323 369
#     4  11  20  37  66  93 128 160 213 258 316 375
#     4  10  22  37  61 100 123 155 211 249 320 391
#     4  11  23  37  62  98 131 158 208 255 315 394
#
# _framework density 23.771462
#
# number of rings (size 3 to 8) (size 9 to 14) (size 15 to 20)
#    0.000    1.500    3.750    2.625    3.500    3.000 
#    0.000    0.625    5.500    7.500    0.000    0.000 
#    0.000    0.000    0.000    0.000    0.000    0.000 
#
# Total GULP energy -89338.751293 kJ/mol
# GULP energy per Si atom -5583.671956 kJ/mol
# Density = 2.371736 g / cm^3
# Si number density = 23.771462 Si / 1000 Ang^3
#
#
#
# Elastic Constant Matrix: (Units=GPa)
#
#
# Indices 1 2 3 4 5 6 
#
# 1 120.3069 22.0710 31.2827 -14.0631 22.8006 7.3943
# 2 22.0710 145.6050 27.2802 -27.7211 6.3963 2.2869
# 3 31.2827 27.2802 70.6771 -18.2314 -6.5432 -0.4064
# 4 -14.0631 -27.7211 -18.2314 35.8673 -7.0485 -0.0652
# 5 22.8006 6.3963 -6.5432 -7.0485 32.4700 -0.1239
# 6 7.3943 2.2869 -0.4064 -0.0652 -0.1239 50.5216
#
#
#
# Elastic Compliance Matrix: (Units=1/GPa)
#
#
# Indices 1 2 3 4 5 6 
#
# 1 0.011842 -0.000305 -0.006193 -0.000639 -0.009649 -0.001794
# 2 -0.000305 0.008279 -0.001765 0.005257 -0.000633 -0.000339
# 3 -0.006193 -0.001765 0.020896 0.008965 0.010858 0.001193
# 4 -0.000639 0.005257 0.008965 0.038115 0.009494 0.000000
# 5 -0.009649 -0.000633 0.010858 0.009494 0.041953 0.001643
# 6 -0.001794 -0.000339 0.001193 0.000000 0.001643 0.020085
#
#
# Mechanical properties :
#
#
# Convention : Reuss Voigt Hill
#
# Bulk Modulus (GPa) = 40.82947 55.31744 48.07346
# Shear Modulus (GPa) = 30.14605 40.83545 35.49075
#
# Velocity S-wave (km/s) = 3.56499 4.14917 3.86813
# Velocity P-wave (km/s) = 5.84454 6.80259 6.34168
#
# Compressibility (1/GPa) = 0.02449211
#
# Stress axis : x y z
#
# Youngs Moduli (GPa) = 84.44200 120.79148 47.85675
#
# Poissons Ratio (x) = 0.03678 0.29636
# Poissons Ratio (y) = 0.02571 0.08448
# Poissons Ratio (z) = 0.52292 0.21322
#
# Static dielectric constant tensor:
#      x y z
#    x 2.001040 0.022300 0.039870 
#    y 0.022300 1.957180 0.008260 
#    z 0.039870 0.008260 1.958470 
# 
# From -- ./inp_files/518877.got.cif
#   From: 2010.05.17/outbox.cif.g08.bks.cpg/sg2_260_cif.got.tgz:518877.got - 2010.06.03 11:33:40.
