data_PCOD9020518
_publ_section_title
;
Structure prediction by ZEFSAII (Michael W. Deem and Ramdas Pophale) SiO2 
 PCOD9020518
Probable space group: P -1
;
_chemical_formula_sum "Si O2"
_cell_formula_units_Z 16
_cell_length_a 6.653201
_cell_length_b 26.630209
_cell_length_c 11.201050
_cell_angle_alpha 148.492148
_cell_angle_beta 58.987184
_cell_angle_gamma 133.908357
_cell_volume 731.828923
_symmetry_space_group_name_H-M "P -1"
_symmetry_group_IT_number 2
_symmetry_cell_setting 'triclinic'
loop_
_space_group_symop_operation_xyz
x,y,z
-x,-y,-z
loop_
_atom_site_type_symbol
_atom_site_label
_atom_site_fract_x
_atom_site_fract_y
_atom_site_fract_z
Si Si1 0.410720 0.200615 0.643013
Si Si2 0.275259 0.181765 0.246743
Si Si3 0.058699 0.550607 0.717892
Si Si4 0.099072 0.684486 0.615966
Si Si5 0.661032 0.707708 0.934196
Si Si6 0.026025 0.331251 0.650068
Si Si7 0.431926 0.414914 0.042695
Si Si8 0.761294 0.985892 0.874157
O O1 0.267675 0.187460 0.787865
O O2 0.290537 0.081775 0.370256
O O3 0.754605 0.276402 0.708292
O O4 0.376855 0.293635 0.768618
O O5 0.611677 0.254910 0.274269
O O6 0.186780 0.267967 0.487619
O O7 0.240353 0.096374 0.190155
O O8 0.065998 0.106271 0.048832
O O9 0.000000 0.500000 0.500000
O O10 0.039029 0.451444 0.602878
O O11 0.821134 0.570093 0.873900
O O12 0.377493 0.663701 0.858719
O O13 0.122288 0.706281 0.511772
O O14 0.903834 0.721305 0.805878
O O15 0.587103 0.608364 0.855525
O O16 0.267141 0.470253 0.857643
O O17 0.500000 0.000000 0.000000
#
# Coordination Sequence:
#
# PCOD9020518 Si02
#       8
#     2   2   2   2   2   2   2   2
#     4  10  22  43  61  91 131 168 200 265 325 360
#     4  11  24  37  70  97 112 162 221 262 306 361
#     4  12  20  36  61  92 130 181 209 237 305 391
#     4  12  21  38  61  95 127 165 216 253 302 373
#     4  10  24  38  57  92 137 168 200 256 314 370
#     4  12  21  40  64  95 132 161 209 260 307 384
#     4  10  22  36  58  95 133 162 200 248 320 374
#     4  11  22  46  66  91 122 162 218 266 311 371
#
# _framework density 21.863033999999999
#
# number of rings (size 3 to 8) (size 9 to 14) (size 15 to 20)
#    0.750    0.250    6.250    1.500    0.000    1.000 
#    0.000    2.500    0.000    3.000    0.000    0.000 
#    0.000    0.000    0.000    0.000    0.000    0.000 
#
# Total GULP energy -89336.902549 kJ/mol
# GULP energy per Si atom -5583.556409 kJ/mol
# Density = 2.181327 g / cm^3
# Si number density = 21.863034 Si / 1000 Ang^3
#
#
#
# Elastic Constant Matrix: (Units=GPa)
#
#
# Indices 1 2 3 4 5 6 
#
# 1 101.7946 14.3825 41.2965 -17.0614 4.0355 15.6317
# 2 14.3825 27.5356 1.2199 -9.7646 -5.8833 10.9720
# 3 41.2965 1.2199 103.8633 -12.3880 -3.1363 15.4508
# 4 -17.0614 -9.7646 -12.3880 23.1894 5.7385 -11.5392
# 5 4.0355 -5.8833 -3.1363 5.7385 32.6473 5.3679
# 6 15.6317 10.9720 15.4508 -11.5392 5.3679 43.6955
#
#
#
# Elastic Compliance Matrix: (Units=1/GPa)
#
#
# Indices 1 2 3 4 5 6 
#
# 1 0.013801 -0.005858 -0.004859 0.006439 -0.004442 0.000498
# 2 -0.005858 0.049432 0.004949 0.011677 0.009729 -0.010178
# 3 -0.004859 0.004949 0.012434 0.002704 0.002792 -0.003530
# 4 0.006439 0.011677 0.002704 0.062943 -0.011442 0.011836
# 5 -0.004442 0.009729 0.002792 -0.011442 0.036754 -0.009378
# 6 0.000498 -0.010178 -0.003530 0.011836 -0.009378 0.030789
#
#
# Mechanical properties :
#
#
# Convention : Reuss Voigt Hill
#
# Bulk Modulus (GPa) = 15.59273 38.55458 27.07366
# Shear Modulus (GPa) = 20.91475 31.65942 26.28709
#
# Velocity S-wave (km/s) = 3.09629 3.80949 3.47126
# Velocity P-wave (km/s) = 4.46433 6.08461 5.33632
#
# Compressibility (1/GPa) = 0.06413243
#
# Stress axis : x y z
#
# Youngs Moduli (GPa) = 72.45660 20.22980 80.42621
#
# Poissons Ratio (x) = 0.11850 0.39078
# Poissons Ratio (y) = 0.42442 -0.39803
# Poissons Ratio (z) = 0.35206 -0.10012
#
# Static dielectric constant tensor:
#      x y z
#    x 1.803000 -0.008340 0.015790 
#    y -0.008340 1.847020 0.036550 
#    z 0.015790 0.036550 1.816590 
# 
# From -- ./inp_files/371461.got.cif
#   From: 2010.05.17/outbox.cif.g08.bks.cpg/sg2_186_cif.got.tgz:371461.got - 2010.06.03 11:33:40.
