data_PCOD9020972
_publ_section_title
;
Structure prediction by ZEFSAII (Michael W. Deem and Ramdas Pophale) SiO2 
 PCOD9020972
Probable space group: P -1
;
_chemical_formula_sum "Si O2"
_cell_formula_units_Z 14
_cell_length_a 24.938246
_cell_length_b 9.004394
_cell_length_c 6.850581
_cell_angle_alpha 54.673671
_cell_angle_beta 142.540823
_cell_angle_gamma 137.667103
_cell_volume 629.931461
_symmetry_space_group_name_H-M "P -1"
_symmetry_group_IT_number 2
_symmetry_cell_setting 'triclinic'
loop_
_space_group_symop_operation_xyz
x,y,z
-x,-y,-z
loop_
_atom_site_type_symbol
_atom_site_label
_atom_site_fract_x
_atom_site_fract_y
_atom_site_fract_z
Si Si1 0.162644 0.654917 0.680405
Si Si2 0.384421 0.415241 0.143540
Si Si3 0.007519 0.016955 0.738702
Si Si4 0.238614 0.354166 0.117290
Si Si5 0.404956 0.704969 0.642816
Si Si6 0.628359 0.939087 0.898688
Si Si7 0.033811 0.348168 0.864204
O O1 0.130270 0.570065 0.877752
O O2 0.055982 0.628591 0.320531
O O3 0.191137 0.492541 0.798423
O O4 0.267395 0.898264 0.795705
O O5 0.500000 0.500000 0.500000
O O6 0.300714 0.331382 0.140488
O O7 0.355391 0.220500 0.059918
O O8 0.390804 0.610000 0.890491
O O9 0.984713 0.177804 0.665455
O O10 0.133653 0.129028 0.061499
O O11 0.000000 0.000000 0.500000
O O12 0.936555 0.775545 0.808557
O O13 0.321054 0.504642 0.410635
O O14 0.523385 0.797069 0.836251
O O15 0.389546 0.902600 0.409789
#
# Coordination Sequence:
#
# PCOD9020972 Si02
#       7
#     2   2   2   2   2   2   2
#     4   9  20  41  65  87 122 167 207 251 310 373
#     4  12  25  40  65  96 128 165 209 260 311 368
#     4  10  22  37  63  94 122 157 208 255 306 371
#     4  10  23  42  59  95 126 160 208 259 308 368
#     4  10  23  45  62  90 131 164 210 257 308 378
#     4  10  22  41  67  90 124 171 206 253 317 369
#     4   9  20  41  63  85 124 165 201 254 314 360
#
# _framework density 22.224640000000001
#
# number of rings (size 3 to 8) (size 9 to 14) (size 15 to 20)
#    0.000    2.000    1.429    0.429    4.000    4.000 
#    2.571    6.429    0.000    0.000    0.000    0.000 
#    0.000    0.000    0.000    0.000    0.000    0.000 
#
# Total GULP energy -78205.493171 kJ/mol
# GULP energy per Si atom -5586.106655 kJ/mol
# Density = 2.217406 g / cm^3
# Si number density = 22.224640 Si / 1000 Ang^3
#
#
#
# Elastic Constant Matrix: (Units=GPa)
#
#
# Indices 1 2 3 4 5 6 
#
# 1 78.4225 -3.1381 13.8371 -2.4390 23.3515 -0.2803
# 2 -3.1381 43.9415 7.0982 3.6743 1.0986 15.2504
# 3 13.8371 7.0982 32.1942 -3.3379 -3.8234 5.1522
# 4 -2.4390 3.6743 -3.3379 29.2614 8.7649 6.6031
# 5 23.3515 1.0986 -3.8234 8.7649 38.4114 -1.4009
# 6 -0.2803 15.2504 5.1522 6.6031 -1.4009 31.6655
#
#
#
# Elastic Compliance Matrix: (Units=1/GPa)
#
#
# Indices 1 2 3 4 5 6 
#
# 1 0.018763 0.003364 -0.009735 0.004395 -0.013525 -0.001385
# 2 0.003364 0.028566 -0.006136 0.000098 -0.003967 -0.012925
# 3 -0.009735 -0.006136 0.038500 0.002362 0.009260 -0.003478
# 4 0.004395 0.000098 0.002362 0.040516 -0.012026 -0.009373
# 5 -0.013525 -0.003967 0.009260 -0.012026 0.038199 0.004482
# 6 -0.001385 -0.012925 -0.003478 -0.009373 0.004482 0.040511
#
#
# Mechanical properties :
#
#
# Convention : Reuss Voigt Hill
#
# Bulk Modulus (GPa) = 16.44378 21.12809 18.78594
# Shear Modulus (GPa) = 19.97280 28.98508 24.47894
#
# Velocity S-wave (km/s) = 3.00105 3.61527 3.32238
# Velocity P-wave (km/s) = 4.40719 5.19174 4.81547
#
# Compressibility (1/GPa) = 0.06081326
#
# Stress axis : x y z
#
# Youngs Moduli (GPa) = 53.29724 35.00690 25.97418
#
# Poissons Ratio (x) = -0.11776 0.25286
# Poissons Ratio (y) = -0.17928 0.15939
# Poissons Ratio (z) = 0.51884 0.21482
#
# Static dielectric constant tensor:
#      x y z
#    x 1.787620 -0.011010 0.000630 
#    y -0.011010 1.859840 0.005760 
#    z 0.000630 0.005760 1.874810 
# 
# From -- ./inp_files/122858.got.cif
#   From: 2010.05.17/outbox.cif.g08.bks.cpg/sg2_62_cif.got.tgz:122858.got - 2010.06.03 11:33:40.
