data_PCOD9020566
_publ_section_title
;
Structure prediction by ZEFSAII (Michael W. Deem and Ramdas Pophale) SiO2 
 PCOD9020566
Probable space group: P -1
;
_chemical_formula_sum "Si O2"
_cell_formula_units_Z 13
_cell_length_a 13.971017
_cell_length_b 15.594424
_cell_length_c 11.736312
_cell_angle_alpha 29.765878
_cell_angle_beta 139.076159
_cell_angle_gamma 154.924005
_cell_volume 532.268766
_symmetry_space_group_name_H-M "P -1"
_symmetry_group_IT_number 2
_symmetry_cell_setting 'triclinic'
loop_
_space_group_symop_operation_xyz
x,y,z
-x,-y,-z
loop_
_atom_site_type_symbol
_atom_site_label
_atom_site_fract_x
_atom_site_fract_y
_atom_site_fract_z
Si Si1 0.703809 0.555864 0.606773
Si Si2 0.992322 0.239057 0.897494
Si Si3 0.892226 0.032642 0.677114
Si Si4 0.329487 0.936569 0.728148
Si Si5 0.979326 0.666204 0.923575
Si Si6 0.500000 0.000000 0.000000
Si Si7 0.255243 0.830759 0.426481
O O1 0.500000 0.500000 0.500000
O O2 0.852187 0.685575 0.706051
O O3 0.870525 0.744255 0.435007
O O4 0.601873 0.275925 0.821530
O O5 0.756679 0.065456 0.819191
O O6 0.140922 0.539472 0.648797
O O7 0.983804 0.235861 0.030252
O O8 0.114787 0.170832 0.052860
O O9 0.707449 0.927629 0.536467
O O10 0.868398 0.152769 0.615188
O O11 0.574533 0.121877 0.784853
O O12 0.220453 0.851736 0.860202
O O13 0.172438 0.647319 0.860717
O O14 0.500000 0.000000 0.500000
#
# Coordination Sequence:
#
# PCOD9020566 Si02
#       7
#     2   2   2   2   2   1   2
#     4  10  24  39  64 106 142 176 225 271 339 427
#     4  11  25  45  76  94 138 186 225 298 354 389
#     4  11  24  45  69 100 137 178 230 288 336 415
#     4   9  19  37  63  97 137 172 218 269 332 418
#     4   9  19  39  63  94 135 178 217 267 339 412
#     4  10  22  36  60  98 146 182 212 266 338 408
#     4  11  27  51  70 100 131 180 244 291 348 412
#
# _framework density 24.423750999999999
#
# number of rings (size 3 to 8) (size 9 to 14) (size 15 to 20)
#    0.000    1.846    1.538    1.385    4.308    4.308 
#    2.769    0.000    0.000    0.000    0.000    0.000 
#    0.000    0.000    0.000    0.000    0.000    0.000 
#
# Total GULP energy -72506.170277 kJ/mol
# GULP energy per Si atom -5577.397714 kJ/mol
# Density = 2.436816 g / cm^3
# Si number density = 24.423751 Si / 1000 Ang^3
#
#
#
# Elastic Constant Matrix: (Units=GPa)
#
#
# Indices 1 2 3 4 5 6 
#
# 1 82.8067 21.3017 50.3112 27.8248 13.3264 -0.1558
# 2 21.3017 100.5553 52.4671 30.7278 10.1940 -9.3084
# 3 50.3112 52.4671 158.4250 21.6398 34.2216 -12.1212
# 4 27.8248 30.7278 21.6398 42.9173 -1.6039 0.4726
# 5 13.3264 10.1940 34.2216 -1.6039 33.6197 8.4777
# 6 -0.1558 -9.3084 -12.1212 0.4726 8.4777 28.9872
#
#
#
# Elastic Compliance Matrix: (Units=1/GPa)
#
#
# Indices 1 2 3 4 5 6 
#
# 1 0.018694 0.002338 -0.003960 -0.011987 -0.004864 0.000813
# 2 0.002338 0.015349 -0.002931 -0.011251 -0.004445 0.005199
# 3 -0.003960 -0.002931 0.011854 -0.001824 -0.011562 0.007405
# 4 -0.011987 -0.011251 -0.001824 0.040684 0.014303 -0.009286
# 5 -0.004864 -0.004445 -0.011562 0.014303 0.050868 -0.021398
# 6 0.000813 0.005199 0.007405 -0.009286 -0.021398 0.045678
#
#
# Mechanical properties :
#
#
# Convention : Reuss Voigt Hill
#
# Bulk Modulus (GPa) = 27.18181 65.54969 46.36575
# Shear Modulus (GPa) = 24.45036 35.61864 30.03450
#
# Velocity S-wave (km/s) = 3.16743 3.82299 3.51055
# Velocity P-wave (km/s) = 4.95280 6.81056 5.95458
#
# Compressibility (1/GPa) = 0.03678931
#
# Stress axis : x y z
#
# Youngs Moduli (GPa) = 53.49440 65.15227 84.36107
#
# Poissons Ratio (x) = -0.15232 0.33411
# Poissons Ratio (y) = -0.12507 0.24725
# Poissons Ratio (z) = 0.21186 0.19095
#
# Static dielectric constant tensor:
#      x y z
#    x 2.990010 0.974010 0.425770 
#    y 0.974010 3.127500 0.626690 
#    z 0.425770 0.626690 2.342810 
# 
# From -- ./inp_files/453553.got.cif
#   From: 2010.05.17/outbox.cif.g08.bks.cpg/sg2_227_cif.got.tgz:453553.got - 2010.06.03 11:33:40.
