data_PCOD9020763
_publ_section_title
;
Structure prediction by ZEFSAII (Michael W. Deem and Ramdas Pophale) SiO2 
 PCOD9020763
Probable space group: P -1
;
_chemical_formula_sum "Si O2"
_cell_formula_units_Z 14
_cell_length_a 12.475576
_cell_length_b 10.008124
_cell_length_c 8.357427
_cell_angle_alpha 44.523289
_cell_angle_beta 103.034802
_cell_angle_gamma 119.805693
_cell_volume 620.500843
_symmetry_space_group_name_H-M "P -1"
_symmetry_group_IT_number 2
_symmetry_cell_setting 'triclinic'
loop_
_space_group_symop_operation_xyz
x,y,z
-x,-y,-z
loop_
_atom_site_type_symbol
_atom_site_label
_atom_site_fract_x
_atom_site_fract_y
_atom_site_fract_z
Si Si1 0.649794 0.077339 0.842389
Si Si2 0.576234 0.372609 0.730905
Si Si3 0.945239 0.660949 0.290208
Si Si4 0.688104 0.581833 0.912697
Si Si5 0.639170 0.419358 0.374477
Si Si6 0.904444 0.476973 0.122127
Si Si7 0.155979 0.931242 0.324494
O O1 0.669387 0.264136 0.818649
O O2 0.595616 0.162908 0.604742
O O3 0.764996 0.067768 0.806545
O O4 0.551968 0.845874 0.079152
O O5 0.621200 0.529919 0.763758
O O6 0.584942 0.471739 0.471321
O O7 0.018780 0.862000 0.262663
O O8 0.000000 0.500000 0.500000
O O9 0.792988 0.551456 0.334140
O O10 0.973250 0.679500 0.096055
O O11 0.769540 0.837050 0.763197
O O12 0.609961 0.472897 0.143423
O O13 0.782742 0.484118 0.014837
O O14 0.860007 0.255423 0.397492
O O15 0.000000 0.500000 0.000000
#
# Coordination Sequence:
#
# PCOD9020763 Si02
#       7
#     2   2   2   2   2   2   2
#     4   9  18  40  62  82 118 156 200 240 293 345
#     4   9  20  38  64  85 116 159 196 249 284 345
#     4   9  16  34  59  76 116 155 176 238 294 335
#     4  11  23  38  62  88 120 155 195 243 300 340
#     4   9  18  38  57  86 114 150 199 232 285 358
#     4  10  22  37  56  90 119 150 203 235 282 369
#     4  11  22  39  59  89 118 158 190 242 303 342
#
# _framework density 22.562419999999999
#
# number of rings (size 3 to 8) (size 9 to 14) (size 15 to 20)
#    0.857    1.429    4.286    0.000    6.000    4.000 
#    2.571    0.714    0.000    0.000    0.000    0.000 
#    0.000    0.000    0.000    0.000    0.000    0.000 
#
# Total GULP energy -77992.768452 kJ/mol
# GULP energy per Si atom -5570.912032 kJ/mol
# Density = 2.251107 g / cm^3
# Si number density = 22.562420 Si / 1000 Ang^3
#
#
#
# Elastic Constant Matrix: (Units=GPa)
#
#
# Indices 1 2 3 4 5 6 
#
# 1 91.1418 16.5279 46.9082 20.7958 -32.2517 -12.8754
# 2 16.5279 135.8297 71.3906 19.9764 -7.0817 -13.3637
# 3 46.9082 71.3906 121.1479 8.3891 -10.0440 -12.0145
# 4 20.7958 19.9764 8.3891 36.1897 -6.4991 8.5945
# 5 -32.2517 -7.0817 -10.0440 -6.4991 43.1108 12.2765
# 6 -12.8754 -13.3637 -12.0145 8.5945 12.2765 19.9193
#
#
#
# Elastic Compliance Matrix: (Units=1/GPa)
#
#
# Indices 1 2 3 4 5 6 
#
# 1 0.024773 0.006992 -0.010048 -0.017781 0.010073 0.016107
# 2 0.006992 0.014778 -0.008974 -0.014000 -0.001009 0.015684
# 3 -0.010048 -0.008974 0.016272 0.007405 -0.002917 -0.004098
# 4 -0.017781 -0.014000 0.007405 0.055898 0.007391 -0.045093
# 5 0.010073 -0.001009 -0.002917 0.007391 0.037293 -0.022099
# 6 0.016107 0.015684 -0.004098 -0.045093 -0.022099 0.101739
#
#
# Mechanical properties :
#
#
# Convention : Reuss Voigt Hill
#
# Bulk Modulus (GPa) = 31.48508 68.64143 50.06325
# Shear Modulus (GPa) = 17.51920 34.06347 25.79134
#
# Velocity S-wave (km/s) = 2.78956 3.88976 3.38466
# Velocity P-wave (km/s) = 4.93563 7.11776 6.12466
#
# Compressibility (1/GPa) = 0.03176107
#
# Stress axis : x y z
#
# Youngs Moduli (GPa) = 40.36734 67.66988 61.45376
#
# Poissons Ratio (x) = -0.47314 0.61751
# Poissons Ratio (y) = -0.28224 0.55150
# Poissons Ratio (z) = 0.40562 0.60729
#
# Static dielectric constant tensor:
#      x y z
#    x 1.957210 0.018210 0.054690 
#    y 0.018210 1.884920 -0.017080 
#    z 0.054690 -0.017080 1.891290 
# 
# From -- ./inp_files/306293.got.cif
#   From: 2010.05.17/outbox.cif.g08.bks.cpg/sg2_154_cif.got.tgz:306293.got - 2010.06.03 11:33:40.
