data_PCOD9020319
_publ_section_title
;
Structure prediction by ZEFSAII (Michael W. Deem and Ramdas Pophale) SiO2 
 PCOD9020319
Probable space group: P -1
;
_chemical_formula_sum "Si O2"
_cell_formula_units_Z 16
_cell_length_a 13.603037
_cell_length_b 9.587005
_cell_length_c 15.756937
_cell_angle_alpha 130.871699
_cell_angle_beta 46.784273
_cell_angle_gamma 92.924057
_cell_volume 785.275983
_symmetry_space_group_name_H-M "P -1"
_symmetry_group_IT_number 2
_symmetry_cell_setting 'triclinic'
loop_
_space_group_symop_operation_xyz
x,y,z
-x,-y,-z
loop_
_atom_site_type_symbol
_atom_site_label
_atom_site_fract_x
_atom_site_fract_y
_atom_site_fract_z
Si Si1 0.271468 0.541500 0.616309
Si Si2 0.982680 0.546251 0.741157
Si Si3 0.244826 0.887216 0.081076
Si Si4 0.390869 0.311517 0.997306
Si Si5 0.694045 0.172459 0.163815
Si Si6 0.792408 0.302970 0.478882
Si Si7 0.704082 0.805385 0.725823
Si Si8 0.439206 0.611392 0.203815
O O1 0.503823 0.286420 0.370328
O O2 0.230821 0.726873 0.788010
O O3 0.223658 0.681341 0.607943
O O4 0.155136 0.464526 0.664183
O O5 0.816224 0.560125 0.861566
O O6 0.851180 0.858657 0.935098
O O7 0.102877 0.369056 0.516240
O O8 0.275377 0.070126 0.161302
O O9 0.018187 0.074605 0.278766
O O10 0.350132 0.732709 0.869229
O O11 0.346597 0.670560 0.008245
O O12 0.530834 0.235628 0.807470
O O13 0.516795 0.047357 0.876431
O O14 0.356188 0.531050 0.160503
O O15 0.706261 0.591165 0.667714
O O16 0.685581 0.262200 0.586237
#
# Coordination Sequence:
#
# PCOD9020319 Si02
#       8
#     2   2   2   2   2   2   2   2
#     4  10  22  36  56  91 116 148 192 242 294 337
#     4  11  20  36  59  85 117 151 189 236 287 343
#     4  11  21  33  59  87 123 148 186 237 298 340
#     4  10  23  39  57  80 123 162 194 225 285 350
#     4  11  21  36  58  89 120 146 188 245 294 343
#     4  11  20  34  59  90 116 145 190 243 290 340
#     4  10  22  34  57  93 117 149 188 238 290 348
#     4  10  23  39  55  84 120 163 191 231 282 348
#
# _framework density 20.375001999999999
#
# number of rings (size 3 to 8) (size 9 to 14) (size 15 to 20)
#    0.000    1.500    3.750    3.000    1.750    2.000 
#    0.000    3.750    0.000    1.500    0.000    0.000 
#    0.000    0.000    0.000    0.000    0.000    0.000 
#
# Total GULP energy -89276.560444 kJ/mol
# GULP energy per Si atom -5579.785028 kJ/mol
# Density = 2.032863 g / cm^3
# Si number density = 20.375002 Si / 1000 Ang^3
#
#
#
# Elastic Constant Matrix: (Units=GPa)
#
#
# Indices 1 2 3 4 5 6 
#
# 1 122.1502 19.4423 44.0233 -9.3103 9.3518 7.6547
# 2 19.4423 49.7905 25.7892 -16.4329 -1.5152 5.2788
# 3 44.0233 25.7892 85.7020 -9.8782 -7.8790 9.5935
# 4 -9.3103 -16.4329 -9.8782 26.5323 -1.4634 -7.0676
# 5 9.3518 -1.5152 -7.8790 -1.4634 39.5974 -7.8968
# 6 7.6547 5.2788 9.5935 -7.0676 -7.8968 17.0066
#
#
#
# Elastic Compliance Matrix: (Units=1/GPa)
#
#
# Indices 1 2 3 4 5 6 
#
# 1 0.010810 -0.001354 -0.005160 -0.000175 -0.004363 -0.003633
# 2 -0.001354 0.028875 -0.006328 0.015737 0.001209 0.002318
# 3 -0.005160 -0.006328 0.016943 -0.000204 0.003606 -0.003681
# 4 -0.000175 0.015737 -0.000204 0.053119 0.006649 0.020471
# 5 -0.004363 0.001209 0.003606 0.006649 0.030589 0.016520
# 6 -0.003633 0.002318 -0.003681 0.020471 0.016520 0.077972
#
#
# Mechanical properties :
#
#
# Convention : Reuss Voigt Hill
#
# Bulk Modulus (GPa) = 32.31537 48.46136 40.38836
# Shear Modulus (GPa) = 19.66122 27.85311 23.75716
#
# Velocity S-wave (km/s) = 3.10976 3.70134 3.41837
# Velocity P-wave (km/s) = 5.36553 6.48867 5.95365
#
# Compressibility (1/GPa) = 0.03094503
#
# Stress axis : x y z
#
# Youngs Moduli (GPa) = 92.50530 34.63159 59.02007
#
# Poissons Ratio (x) = 0.04688 0.30455
# Poissons Ratio (y) = 0.12522 0.37349
# Poissons Ratio (z) = 0.47734 0.21915
#
# Static dielectric constant tensor:
#      x y z
#    x 1.770270 -0.004530 -0.038160 
#    y -0.004530 1.716120 -0.009340 
#    z -0.038160 -0.009340 1.770690 
# 
# From -- ./inp_files/528920.got.cif
#   From: 2010.05.17/outbox.cif.g08.bks.cpg/sg2_265_cif.got.tgz:528920.got - 2010.06.03 11:33:40.
