data_PCOD9020713
_publ_section_title
;
Structure prediction by ZEFSAII (Michael W. Deem and Ramdas Pophale) SiO2 
 PCOD9020713
Probable space group: P -1
;
_chemical_formula_sum "Si O2"
_cell_formula_units_Z 15
_cell_length_a 8.380153
_cell_length_b 9.109916
_cell_length_c 8.739678
_cell_angle_alpha 67.121375
_cell_angle_beta 90.271498
_cell_angle_gamma 102.949423
_cell_volume 596.559426
_symmetry_space_group_name_H-M "P -1"
_symmetry_group_IT_number 2
_symmetry_cell_setting 'triclinic'
loop_
_space_group_symop_operation_xyz
x,y,z
-x,-y,-z
loop_
_atom_site_type_symbol
_atom_site_label
_atom_site_fract_x
_atom_site_fract_y
_atom_site_fract_z
Si Si1 0.334416 0.404412 0.450540
Si Si2 0.292901 0.749789 0.897758
Si Si3 0.888429 0.560486 0.826361
Si Si4 0.701164 0.120006 0.814109
Si Si5 0.802242 0.778437 0.970773
Si Si6 0.402176 0.058519 0.610797
Si Si7 0.037349 0.354553 0.702475
Si Si8 0.500000 0.500000 0.000000
O O1 0.500000 0.500000 0.500000
O O2 0.290776 0.468853 0.256704
O O3 0.337887 0.215608 0.505318
O O4 0.178867 0.399375 0.560915
O O5 0.435400 0.665565 0.877689
O O6 0.271265 0.895781 0.731120
O O7 0.146084 0.591098 0.993056
O O8 0.325363 0.829209 0.033536
O O9 0.894203 0.730624 0.840517
O O10 0.014505 0.517593 0.723792
O O11 0.535791 0.111308 0.724576
O O12 0.855573 0.255420 0.691275
O O13 0.749333 0.946441 0.885430
O O14 0.647345 0.622846 0.047466
O O15 0.911500 0.767825 0.123802
O O16 0.500000 0.000000 0.500000
#
# Coordination Sequence:
#
# PCOD9020713 Si02
#       8
#     2   2   2   2   2   2   2   1
#     4  12  27  45  72 101 138 189 239 290 358 423
#     4  10  22  42  71  99 144 181 236 284 347 410
#     4  10  24  46  69 101 142 184 236 294 350 415
#     4  11  23  45  69 102 148 185 234 292 354 425
#     4  11  22  39  72 103 140 180 240 285 357 410
#     4  12  26  44  69 109 144 186 237 293 352 412
#     4  11  25  44  68 102 138 188 233 291 360 425
#     4  10  22  36  68 104 136 176 230 296 336 394
#
# _framework density 25.144186000000001
#
# number of rings (size 3 to 8) (size 9 to 14) (size 15 to 20)
#    0.000    1.067    1.333    4.800    7.467    2.133 
#    0.000    6.667    0.000    0.000    0.000    0.000 
#    0.000    0.000    0.000    0.000    0.000    0.000 
#
# Total GULP energy -83758.748778 kJ/mol
# GULP energy per Si atom -5583.916585 kJ/mol
# Density = 2.508696 g / cm^3
# Si number density = 25.144186 Si / 1000 Ang^3
#
#
#
# Elastic Constant Matrix: (Units=GPa)
#
#
# Indices 1 2 3 4 5 6 
#
# 1 74.5087 20.8141 9.7895 -18.2782 -13.1316 -2.1837
# 2 20.8141 154.3506 41.6762 -27.3516 -8.8325 -31.3852
# 3 9.7895 41.6762 76.9795 -26.4962 -8.1879 -5.9147
# 4 -18.2782 -27.3516 -26.4962 35.2517 -10.2816 10.0290
# 5 -13.1316 -8.8325 -8.1879 -10.2816 35.2521 -8.4203
# 6 -2.1837 -31.3852 -5.9147 10.0290 -8.4203 59.1973
#
#
#
# Elastic Compliance Matrix: (Units=1/GPa)
#
#
# Indices 1 2 3 4 5 6 
#
# 1 0.019610 -0.000039 0.005217 0.018048 0.013802 0.000130
# 2 -0.000039 0.009204 -0.002312 0.005421 0.004375 0.004351
# 3 0.005217 -0.002312 0.022294 0.021549 0.012671 -0.000655
# 4 0.018048 0.005421 0.021549 0.067983 0.032632 -0.001183
# 5 0.013802 0.004375 0.012671 0.032632 0.048366 0.005446
# 6 0.000130 0.004351 -0.000655 -0.001183 0.005446 0.020114
#
#
# Mechanical properties :
#
#
# Convention : Reuss Voigt Hill
#
# Bulk Modulus (GPa) = 17.59318 50.04427 33.81872
# Shear Modulus (GPa) = 24.90216 41.51080 33.20648
#
# Velocity S-wave (km/s) = 3.15044 4.06755 3.63801
# Velocity P-wave (km/s) = 4.49953 6.48121 5.57906
#
# Compressibility (1/GPa) = 0.05684022
#
# Stress axis : x y z
#
# Youngs Moduli (GPa) = 50.99345 108.64603 44.85583
#
# Poissons Ratio (x) = 0.00422 -0.23402
# Poissons Ratio (y) = 0.00198 0.10373
# Poissons Ratio (z) = -0.26605 0.25124
#
# Static dielectric constant tensor:
#      x y z
#    x 1.355440 0.142920 0.111290 
#    y 0.142920 1.970250 0.041620 
#    z 0.111290 0.041620 2.030250 
# 
# From -- ./inp_files/156885.got.cif
#   From: 2010.05.17/outbox.cif.g08.bks.cpg/sg2_79_cif.got.tgz:156885.got - 2010.06.03 11:33:40.
