data_PCOD9020288
_publ_section_title
;
Structure prediction by ZEFSAII (Michael W. Deem and Ramdas Pophale) SiO2 
 PCOD9020288
Probable space group: P -1
;
_chemical_formula_sum "Si O2"
_cell_formula_units_Z 16
_cell_length_a 11.921795
_cell_length_b 19.442589
_cell_length_c 11.463489
_cell_angle_alpha 25.365173
_cell_angle_beta 49.541025
_cell_angle_gamma 36.491286
_cell_volume 644.817218
_symmetry_space_group_name_H-M "P -1"
_symmetry_group_IT_number 2
_symmetry_cell_setting 'triclinic'
loop_
_space_group_symop_operation_xyz
x,y,z
-x,-y,-z
loop_
_atom_site_type_symbol
_atom_site_label
_atom_site_fract_x
_atom_site_fract_y
_atom_site_fract_z
Si Si1 0.530805 0.213191 0.681706
Si Si2 0.725497 0.498723 0.793347
Si Si3 0.195465 0.037541 0.715879
Si Si4 0.518097 0.781527 0.050771
Si Si5 0.636384 0.185349 0.290773
Si Si6 0.243086 0.657206 0.550937
Si Si7 0.781223 0.645815 0.873720
Si Si8 0.102077 0.101760 0.255225
O O1 0.341188 0.376951 0.475831
O O2 0.478579 0.146592 0.933115
O O3 0.618664 0.306274 0.546020
O O4 0.717001 0.035448 0.747848
O O5 0.573693 0.680955 0.710593
O O6 0.684987 0.337824 0.046810
O O7 0.943321 0.340651 0.944119
O O8 0.215353 0.215924 0.433946
O O9 0.977392 0.147376 0.648965
O O10 0.341787 0.864961 0.781893
O O11 0.292691 0.908699 0.967694
O O12 0.651944 0.524046 0.343099
O O13 0.621725 0.803477 0.841513
O O14 0.794749 0.957228 0.599092
O O15 0.233685 0.535368 0.852012
O O16 0.000000 0.500000 0.000000
O O17 0.000000 0.000000 0.500000
#
# Coordination Sequence:
#
# PCOD9020288 Si02
#       8
#     2   2   2   2   2   2   2   2
#     4  11  20  33  52  85 114 143 170 213 275 331
#     4   9  18  33  49  74 112 136 175 221 270 310
#     4  11  19  35  56  78 109 146 182 217 261 312
#     4  10  22  33  53  79 113 146 174 214 268 325
#     4   9  18  29  52  79  99 138 182 220 262 306
#     4   9  20  32  50  77 114 140 175 213 260 318
#     4   8  19  38  52  73 106 146 185 223 248 308
#     4   9  18  33  52  75 109 142 176 220 261 320
#
# _framework density 24.813231999999999
#
# number of rings (size 3 to 8) (size 9 to 14) (size 15 to 20)
#    0.750    1.750    0.000    3.750    0.000    2.500 
#    0.000    0.000    0.000    3.000    0.000    1.750 
#    0.000    0.000    0.000    0.000    0.000    0.000 
#
# Total GULP energy -89227.913894 kJ/mol
# GULP energy per Si atom -5576.744618 kJ/mol
# Density = 2.475676 g / cm^3
# Si number density = 24.813232 Si / 1000 Ang^3
#
#
#
# Elastic Constant Matrix: (Units=GPa)
#
#
# Indices 1 2 3 4 5 6 
#
# 1 80.3822 19.8420 31.1264 -3.8770 9.8318 -0.7175
# 2 19.8420 83.7957 50.1294 -8.0999 23.2824 1.2150
# 3 31.1264 50.1294 103.2787 -25.5412 54.0384 -4.9284
# 4 -3.8770 -8.0999 -25.5412 38.5897 -8.1461 6.8764
# 5 9.8318 23.2824 54.0384 -8.1461 53.3363 2.3902
# 6 -0.7175 1.2150 -4.9284 6.8764 2.3902 23.0482
#
#
#
# Elastic Compliance Matrix: (Units=1/GPa)
#
#
# Indices 1 2 3 4 5 6 
#
# 1 0.014651 -0.000749 -0.006878 -0.002195 0.004294 -0.000766
# 2 -0.000749 0.017346 -0.010365 -0.002193 0.002858 -0.002796
# 3 -0.006878 -0.010365 0.035000 0.013189 -0.027958 0.006781
# 4 -0.002195 -0.002193 0.013189 0.033740 -0.006555 -0.006519
# 5 0.004294 0.002858 -0.027958 -0.006555 0.044422 -0.008646
# 6 -0.000766 -0.002796 0.006781 -0.006519 -0.008646 0.047802
#
#
# Mechanical properties :
#
#
# Convention : Reuss Voigt Hill
#
# Bulk Modulus (GPa) = 32.24374 52.18357 42.21366
# Shear Modulus (GPa) = 20.89578 34.08544 27.49061
#
# Velocity S-wave (km/s) = 2.90508 3.71034 3.33213
# Velocity P-wave (km/s) = 4.92701 6.27947 5.64390
#
# Compressibility (1/GPa) = 0.03101377
#
# Stress axis : x y z
#
# Youngs Moduli (GPa) = 68.25522 57.64943 28.57142
#
# Poissons Ratio (x) = 0.04315 0.19652
# Poissons Ratio (y) = 0.05109 0.29614
# Poissons Ratio (z) = 0.46948 0.59753
#
# Static dielectric constant tensor:
#      x y z
#    x 1.996450 -0.026440 -0.010300 
#    y -0.026440 2.038490 0.085530 
#    z -0.010300 0.085530 2.078830 
# 
# From -- ./inp_files/457916.got.cif
#   From: 2010.05.17/outbox.cif.g08.bks.cpg/sg2_229_cif.got.tgz:457916.got - 2010.06.03 11:33:40.
