data_PCOD9020500
_publ_section_title
;
Structure prediction by ZEFSAII (Michael W. Deem and Ramdas Pophale) SiO2 
 PCOD9020500
Probable space group: P -1
;
_chemical_formula_sum "Si O2"
_cell_formula_units_Z 15
_cell_length_a 18.468247
_cell_length_b 13.862622
_cell_length_c 11.673807
_cell_angle_alpha 57.129119
_cell_angle_beta 30.496516
_cell_angle_gamma 34.439440
_cell_volume 695.697958
_symmetry_space_group_name_H-M "P -1"
_symmetry_group_IT_number 2
_symmetry_cell_setting 'triclinic'
loop_
_space_group_symop_operation_xyz
x,y,z
-x,-y,-z
loop_
_atom_site_type_symbol
_atom_site_label
_atom_site_fract_x
_atom_site_fract_y
_atom_site_fract_z
Si Si1 0.251022 0.880327 0.167742
Si Si2 0.640505 0.495296 0.478559
Si Si3 0.166424 0.879155 0.029051
Si Si4 0.192842 0.605714 0.261568
Si Si5 0.000000 0.500000 0.500000
Si Si6 0.402700 0.714105 0.435511
Si Si7 0.903868 0.778897 0.787401
Si Si8 0.382481 0.193948 0.975133
O O1 0.208466 0.918078 0.065559
O O2 0.501688 0.632065 0.999912
O O3 0.000000 0.000000 0.500000
O O4 0.294268 0.979592 0.091417
O O5 0.626722 0.544188 0.333940
O O6 0.587591 0.393157 0.603753
O O7 0.903210 0.342389 0.289575
O O8 0.409503 0.717524 0.716933
O O9 0.154499 0.755725 0.165770
O O10 0.879106 0.109483 0.232102
O O11 0.080400 0.676277 0.498870
O O12 0.055504 0.600845 0.377838
O O13 0.847037 0.602629 0.764910
O O14 0.424094 0.829492 0.287280
O O15 0.741173 0.772579 0.995028
O O16 0.500000 0.000000 0.000000
#
# Coordination Sequence:
#
# PCOD9020500 Si02
#       8
#     2   2   2   2   1   2   2   2
#     4  12  22  33  58  93 126 156 200 258 308 365
#     4  11  24  43  64  91 123 168 214 255 302 363
#     4  12  22  37  63  89 124 160 207 258 310 360
#     4  11  22  36  58  92 122 160 199 258 309 373
#     4  10  22  36  58  84 124 154 192 242 314 368
#     4  11  25  43  65  90 125 165 211 259 306 365
#     4  11  22  39  61  90 124 164 208 248 311 366
#     4  11  24  42  64  93 125 162 199 257 316 375
#
# _framework density 21.561081999999999
#
# number of rings (size 3 to 8) (size 9 to 14) (size 15 to 20)
#    0.000    0.800    4.000    4.800    1.867    0.533 
#    0.000    0.000    0.000    0.800    0.000    0.000 
#    0.000    0.000    0.000    0.000    0.000    0.000 
#
# Total GULP energy -83576.981655 kJ/mol
# GULP energy per Si atom -5571.798777 kJ/mol
# Density = 2.151201 g / cm^3
# Si number density = 21.561082 Si / 1000 Ang^3
#
#
#
# Elastic Constant Matrix: (Units=GPa)
#
#
# Indices 1 2 3 4 5 6 
#
# 1 123.7412 37.2266 0.5135 9.6366 -1.2416 17.6211
# 2 37.2266 76.6594 3.7784 11.2764 -1.1079 18.1574
# 3 0.5135 3.7784 35.0681 9.8345 1.8942 15.5781
# 4 9.6366 11.2764 9.8345 26.8031 7.3413 1.8158
# 5 -1.2416 -1.1079 1.8942 7.3413 20.9272 3.5360
# 6 17.6211 18.1574 15.5781 1.8158 3.5360 47.1231
#
#
#
# Elastic Compliance Matrix: (Units=1/GPa)
#
#
# Indices 1 2 3 4 5 6 
#
# 1 0.009888 -0.003698 0.002416 -0.003172 0.001806 -0.003085
# 2 -0.003698 0.017400 0.002943 -0.007804 0.004240 -0.006312
# 3 0.002416 0.002943 0.039161 -0.016894 0.005168 -0.014720
# 4 -0.003172 -0.007804 -0.016894 0.052527 -0.019051 0.009183
# 5 0.001806 0.004240 0.005168 -0.019051 0.055591 -0.007455
# 6 -0.003085 -0.006312 -0.014720 0.009183 -0.007455 0.029878
#
#
# Mechanical properties :
#
#
# Convention : Reuss Voigt Hill
#
# Bulk Modulus (GPa) = 14.33255 35.38952 24.86104
# Shear Modulus (GPa) = 22.28363 31.90069 27.09216
#
# Velocity S-wave (km/s) = 3.21832 3.85066 3.54860
# Velocity P-wave (km/s) = 4.52459 6.01826 5.32406
#
# Compressibility (1/GPa) = 0.06977125
#
# Stress axis : x y z
#
# Youngs Moduli (GPa) = 101.13128 57.47265 25.53560
#
# Poissons Ratio (x) = 0.21251 -0.06169
# Poissons Ratio (y) = 0.37394 -0.07515
# Poissons Ratio (z) = -0.24431 -0.16914
#
# Static dielectric constant tensor:
#      x y z
#    x 1.885050 -0.023540 -0.070230 
#    y -0.023540 1.790580 0.010990 
#    z -0.070230 0.010990 1.826960 
# 
# From -- ./inp_files/428361.got.cif
#   From: 2010.05.17/outbox.cif.g08.bks.cpg/sg2_215_cif.got.tgz:428361.got - 2010.06.03 11:33:40.
