data_PCOD9020738
_publ_section_title
;
Structure prediction by ZEFSAII (Michael W. Deem and Ramdas Pophale) SiO2 
 PCOD9020738
Probable space group: P -1
;
_chemical_formula_sum "Si O2"
_cell_formula_units_Z 16
_cell_length_a 13.222303
_cell_length_b 14.358689
_cell_length_c 12.505035
_cell_angle_alpha 29.958694
_cell_angle_beta 32.209833
_cell_angle_gamma 36.224039
_cell_volume 607.263577
_symmetry_space_group_name_H-M "P -1"
_symmetry_group_IT_number 2
_symmetry_cell_setting 'triclinic'
loop_
_space_group_symop_operation_xyz
x,y,z
-x,-y,-z
loop_
_atom_site_type_symbol
_atom_site_label
_atom_site_fract_x
_atom_site_fract_y
_atom_site_fract_z
Si Si1 0.808493 0.594348 0.505346
Si Si2 0.129248 0.373707 0.174103
Si Si3 0.159275 0.894870 0.820519
Si Si4 0.766845 0.217448 0.904419
Si Si5 0.359699 0.220992 0.322087
Si Si6 0.775310 0.735978 0.170163
Si Si7 0.616390 0.379258 0.416855
Si Si8 0.065314 0.945322 0.625666
O O1 0.646867 0.684934 0.649318
O O2 0.826030 0.734453 0.253849
O O3 0.000000 0.500000 0.500000
O O4 0.751119 0.423443 0.664014
O O5 0.195121 0.353355 0.259951
O O6 0.923214 0.539959 0.183026
O O7 0.102596 0.159270 0.382981
O O8 0.292882 0.458994 0.883954
O O9 0.193362 0.760154 0.026634
O O10 0.177900 0.831994 0.744710
O O11 0.307497 0.022944 0.582514
O O12 0.951357 0.058025 0.855543
O O13 0.559969 0.177097 0.121690
O O14 0.551887 0.721600 0.375948
O O15 0.849271 0.908442 0.875211
O O16 0.500000 0.500000 0.500000
O O17 0.811285 0.192222 0.440805
#
# Coordination Sequence:
#
# PCOD9020738 Si02
#       8
#     2   2   2   2   2   2   2   2
#     4  12  20  36  59  91 131 174 217 257 315 387
#     4  10  23  45  67 100 138 173 219 275 333 406
#     4  10  22  37  53  87 129 171 218 265 308 386
#     4  11  22  33  54  82 127 177 221 261 311 373
#     4  11  22  36  57  90 129 175 218 257 316 391
#     4  11  24  43  68  98 139 179 218 279 333 389
#     4  11  27  48  72 101 130 168 227 288 343 400
#     4  10  24  43  69  98 135 173 223 273 338 402
#
# _framework density 26.347702000000002
#
# number of rings (size 3 to 8) (size 9 to 14) (size 15 to 20)
#    0.000    1.250    2.500    3.000    5.250    5.500 
#    0.000    1.250    0.000    0.000    0.000    0.000 
#    0.000    0.000    0.000    0.000    0.000    0.000 
#
# Total GULP energy -89403.813080 kJ/mol
# GULP energy per Si atom -5587.738317 kJ/mol
# Density = 2.628773 g / cm^3
# Si number density = 26.347702 Si / 1000 Ang^3
#
#
#
# Elastic Constant Matrix: (Units=GPa)
#
#
# Indices 1 2 3 4 5 6 
#
# 1 55.4193 5.4244 26.2579 5.5693 -2.2521 14.6349
# 2 5.4244 96.6107 74.8393 18.4957 -10.6099 5.5723
# 3 26.2579 74.8393 260.7340 0.0659 -2.5429 -5.5771
# 4 5.5693 18.4957 0.0659 53.1897 -5.8654 -5.6987
# 5 -2.2521 -10.6099 -2.5429 -5.8654 40.4633 11.2840
# 6 14.6349 5.5723 -5.5771 -5.6987 11.2840 32.1634
#
#
#
# Elastic Compliance Matrix: (Units=1/GPa)
#
#
# Indices 1 2 3 4 5 6 
#
# 1 0.024270 0.004126 -0.003899 -0.004981 0.005741 -0.015331
# 2 0.004126 0.016638 -0.005323 -0.006523 0.005785 -0.008868
# 3 -0.003899 -0.005323 0.005839 0.002533 -0.002259 0.004950
# 4 -0.004981 -0.006523 0.002533 0.022361 -0.000844 0.008094
# 5 0.005741 0.005785 -0.002259 -0.000844 0.030421 -0.014829
# 6 -0.015331 -0.008868 0.004950 0.008094 -0.014829 0.047098
#
#
# Mechanical properties :
#
#
# Convention : Reuss Voigt Hill
#
# Bulk Modulus (GPa) = 27.35561 69.53412 48.44487
# Shear Modulus (GPa) = 29.58480 45.57943 37.58212
#
# Velocity S-wave (km/s) = 3.35455 4.16374 3.78086
# Velocity P-wave (km/s) = 5.04074 7.04017 6.12262
#
# Compressibility (1/GPa) = 0.03655557
#
# Stress axis : x y z
#
# Youngs Moduli (GPa) = 41.20268 60.10254 171.26026
#
# Poissons Ratio (x) = -0.24799 0.66778
# Poissons Ratio (y) = -0.17001 0.91160
# Poissons Ratio (z) = 0.16066 0.31992
#
# Static dielectric constant tensor:
#      x y z
#    x 2.306420 0.061280 0.293750 
#    y 0.061280 2.026530 0.112730 
#    z 0.293750 0.112730 2.672690 
# 
# From -- ./inp_files/533580.got.cif
#   From: 2010.05.17/outbox.cif.g08.bks.cpg/sg2_267_cif.got.tgz:533580.got - 2010.06.03 11:33:40.
