data_PCOD9020061
_publ_section_title
;
Structure prediction by ZEFSAII (Michael W. Deem and Ramdas Pophale) SiO2 
 PCOD9020061
Probable space group: P -1
;
_chemical_formula_sum "Si O2"
_cell_formula_units_Z 16
_cell_length_a 20.024793
_cell_length_b 10.531940
_cell_length_c 17.099831
_cell_angle_alpha 33.414506
_cell_angle_beta 160.039541
_cell_angle_gamma 147.062564
_cell_volume 648.627812
_symmetry_space_group_name_H-M "P -1"
_symmetry_group_IT_number 2
_symmetry_cell_setting 'triclinic'
loop_
_space_group_symop_operation_xyz
x,y,z
-x,-y,-z
loop_
_atom_site_type_symbol
_atom_site_label
_atom_site_fract_x
_atom_site_fract_y
_atom_site_fract_z
Si Si1 0.733416 0.260858 0.416786
Si Si2 0.291464 0.233351 0.158474
Si Si3 0.937630 0.769056 0.327332
Si Si4 0.700064 0.308570 0.132946
Si Si5 0.121499 0.705319 0.263338
Si Si6 0.696258 0.150599 0.872924
Si Si7 0.701819 0.497964 0.562424
Si Si8 0.565352 0.173287 0.879886
O O1 0.754513 0.517836 0.265248
O O2 0.778983 0.297748 0.540357
O O3 0.525681 0.044501 0.288665
O O4 0.923632 0.196266 0.616314
O O5 0.489889 0.325708 0.382075
O O6 0.242346 0.956627 0.225356
O O7 0.315520 0.421823 0.017728
O O8 0.100947 0.267406 0.980322
O O9 0.096368 0.728174 0.588451
O O10 0.855517 0.996140 0.130513
O O11 0.508008 0.115364 0.058496
O O12 0.679534 0.243369 0.051554
O O13 0.138979 0.490815 0.337762
O O14 0.751359 0.362394 0.761365
O O15 0.681632 0.268541 0.880191
O O16 0.638620 0.738157 0.386628
#
# Coordination Sequence:
#
# PCOD9020061 Si02
#       8
#     2   2   2   2   2   2   2   2
#     4  11  24  43  66 104 142 165 214 278 336 402
#     4  10  22  40  67  98 132 164 218 274 326 391
#     4  11  25  42  66 104 135 171 218 271 339 395
#     4  10  21  46  68  94 131 177 221 276 319 390
#     4  11  23  40  69 103 130 175 214 273 337 390
#     4  12  25  43  67  99 133 181 216 271 335 389
#     4  11  25  43  66  98 132 177 223 269 326 389
#     4  10  24  47  69  92 135 178 227 275 315 388
#
# _framework density 24.667459999999998
#
# number of rings (size 3 to 8) (size 9 to 14) (size 15 to 20)
#    0.000    1.250    3.750    1.125    3.500    3.500 
#    6.750    0.625    0.000    0.000    0.000    0.000 
#    0.000    0.000    0.000    0.000    0.000    0.000 
#
# Total GULP energy -89546.712908 kJ/mol
# GULP energy per Si atom -5596.669557 kJ/mol
# Density = 2.461132 g / cm^3
# Si number density = 24.667460 Si / 1000 Ang^3
#
#
#
# Elastic Constant Matrix: (Units=GPa)
#
#
# Indices 1 2 3 4 5 6 
#
# 1 147.1442 -6.9103 51.2258 -17.9883 -11.9173 0.4083
# 2 -6.9103 67.1563 5.6250 -11.3058 -10.8679 11.9642
# 3 51.2258 5.6250 101.2210 -12.5636 -12.0866 1.1801
# 4 -17.9883 -11.3058 -12.5636 43.5121 -4.5126 -0.2318
# 5 -11.9173 -10.8679 -12.0866 -4.5126 39.8933 -9.8433
# 6 0.4083 11.9642 1.1801 -0.2318 -9.8433 19.7184
#
#
#
# Elastic Compliance Matrix: (Units=1/GPa)
#
#
# Indices 1 2 3 4 5 6 
#
# 1 0.008867 0.002206 -0.003900 0.003366 0.002441 -0.000031
# 2 0.002206 0.018420 -0.000860 0.005795 0.003801 -0.009205
# 3 -0.003900 -0.000860 0.012497 0.002087 0.002958 0.001355
# 4 0.003366 0.005795 0.002087 0.027125 0.006213 -0.000290
# 5 0.002441 0.003801 0.002958 0.006213 0.031732 0.013379
# 6 -0.000031 -0.009205 0.001355 -0.000290 0.013379 0.062895
#
#
# Mechanical properties :
#
#
# Convention : Reuss Voigt Hill
#
# Bulk Modulus (GPa) = 28.83760 46.15581 37.49671
# Shear Modulus (GPa) = 28.05811 38.33015 33.19413
#
# Velocity S-wave (km/s) = 3.37628 3.94620 3.67231
# Velocity P-wave (km/s) = 5.18796 6.28611 5.76325
#
# Compressibility (1/GPa) = 0.03467694
#
# Stress axis : x y z
#
# Youngs Moduli (GPa) = 112.78113 54.28787 80.01717
#
# Poissons Ratio (x) = -0.11977 0.31209
# Poissons Ratio (y) = -0.24882 0.06879
# Poissons Ratio (z) = 0.43987 0.04667
#
# Static dielectric constant tensor:
#      x y z
#    x 1.940480 -0.001700 -0.020070 
#    y -0.001700 2.036010 0.031550 
#    z -0.020070 0.031550 1.928390 
# 
# From -- ./inp_files/278885.got.cif
#   From: 2010.05.17/outbox.cif.g08.bks.cpg/sg2_140_cif.got.tgz:278885.got - 2010.06.03 11:33:40.
