data_PCOD9020067
_publ_section_title
;
Structure prediction by ZEFSAII (Michael W. Deem and Ramdas Pophale) SiO2 
 PCOD9020067
Probable space group: P -1
;
_chemical_formula_sum "Si O2"
_cell_formula_units_Z 16
_cell_length_a 18.516922
_cell_length_b 10.353701
_cell_length_c 5.411994
_cell_angle_alpha 53.186245
_cell_angle_beta 58.655092
_cell_angle_gamma 49.459206
_cell_volume 616.525530
_symmetry_space_group_name_H-M "P -1"
_symmetry_group_IT_number 2
_symmetry_cell_setting 'triclinic'
loop_
_space_group_symop_operation_xyz
x,y,z
-x,-y,-z
loop_
_atom_site_type_symbol
_atom_site_label
_atom_site_fract_x
_atom_site_fract_y
_atom_site_fract_z
Si Si1 0.170156 0.686066 0.294014
Si Si2 0.325808 0.757588 0.645468
Si Si3 0.463264 0.797835 0.719154
Si Si4 0.340074 0.462814 0.621765
Si Si5 0.432962 0.151662 0.140971
Si Si6 0.089658 0.527331 0.224326
Si Si7 0.067734 0.099985 0.079905
Si Si8 0.169225 0.137584 0.352778
O O1 0.240338 0.577158 0.521767
O O2 0.135327 0.564275 0.343828
O O3 0.082613 0.893620 0.272820
O O4 0.240345 0.725378 0.944842
O O5 0.395630 0.736033 0.772262
O O6 0.367221 0.607740 0.528188
O O7 0.277845 0.964667 0.382157
O O8 0.570593 0.677915 0.545399
O O9 0.496325 0.774191 0.968710
O O10 0.413742 0.022074 0.509763
O O11 0.341160 0.327328 0.990313
O O12 0.500000 0.000000 0.000000
O O13 0.154539 0.342943 0.161789
O O14 0.000000 0.500000 0.500000
O O15 0.039246 0.721385 0.943760
O O16 0.123007 0.113025 0.210177
O O17 0.117547 0.117854 0.716394
#
# Coordination Sequence:
#
# PCOD9020067 Si02
#       8
#     2   2   2   2   2   2   2   2
#     4  11  24  43  67 100 142 178 227 295 348 424
#     4  11  24  41  63 100 134 183 229 285 351 409
#     4  10  22  42  67  91 138 179 232 281 341 406
#     4  11  22  41  64  96 133 177 234 279 349 404
#     4   9  21  40  62  93 123 175 226 285 337 404
#     4  10  23  46  71 102 134 181 230 286 360 430
#     4  10  21  46  69 100 138 181 231 287 360 424
#     4  10  22  43  68 103 139 179 231 294 349 421
#
# _framework density 25.951888
#
# number of rings (size 3 to 8) (size 9 to 14) (size 15 to 20)
#    0.000    1.750    1.250    1.875    0.000    8.000 
#   13.500    3.750    0.000    0.000    0.000    0.000 
#    0.000    0.000    0.000    0.000    0.000    0.000 
#
# Total GULP energy -89550.866205 kJ/mol
# GULP energy per Si atom -5596.929138 kJ/mol
# Density = 2.589282 g / cm^3
# Si number density = 25.951888 Si / 1000 Ang^3
#
#
#
# Elastic Constant Matrix: (Units=GPa)
#
#
# Indices 1 2 3 4 5 6 
#
# 1 144.5958 28.3623 19.6625 6.4618 18.3322 29.4978
# 2 28.3623 141.5780 24.5514 -25.2386 16.8160 5.7629
# 3 19.6625 24.5514 86.0905 -12.9059 21.9675 -2.6080
# 4 6.4618 -25.2386 -12.9059 38.1539 0.3766 18.6717
# 5 18.3322 16.8160 21.9675 0.3766 50.3431 1.5248
# 6 29.4978 5.7629 -2.6080 18.6717 1.5248 46.0477
#
#
#
# Elastic Compliance Matrix: (Units=1/GPa)
#
#
# Indices 1 2 3 4 5 6 
#
# 1 0.008670 -0.001019 -0.001307 0.000117 -0.002081 -0.005479
# 2 -0.001019 0.009215 -0.000737 0.007821 -0.002334 -0.003636
# 3 -0.001307 -0.000737 0.014219 0.004565 -0.005519 0.000066
# 4 0.000117 0.007821 0.004565 0.041505 -0.004428 -0.017479
# 5 -0.002081 -0.002334 -0.005519 -0.004428 0.023772 0.002321
# 6 -0.005479 -0.003636 0.000066 -0.017479 0.002321 0.032696
#
#
# Mechanical properties :
#
#
# Convention : Reuss Voigt Hill
#
# Bulk Modulus (GPa) = 38.49549 57.49075 47.99312
# Shear Modulus (GPa) = 34.51572 46.88814 40.70193
#
# Velocity S-wave (km/s) = 3.65086 4.25518 3.96455
# Velocity P-wave (km/s) = 5.71291 6.80757 6.28412
#
# Compressibility (1/GPa) = 0.02597707
#
# Stress axis : x y z
#
# Youngs Moduli (GPa) = 115.34337 108.52238 70.32857
#
# Poissons Ratio (x) = 0.11059 0.09190
# Poissons Ratio (y) = 0.11754 0.05186
# Poissons Ratio (z) = 0.15073 0.08002
#
# Static dielectric constant tensor:
#      x y z
#    x 2.545030 -0.960900 -1.512940 
#    y -0.960900 3.711600 2.650240 
#    z -1.512940 2.650240 6.263870 
# 
# From -- ./inp_files/106282.got.cif
#   From: 2010.05.17/outbox.cif.g08.bks.cpg/sg2_54_cif.got.tgz:106282.got - 2010.06.03 11:33:40.
