data_PCOD9020619
_publ_section_title
;
Structure prediction by ZEFSAII (Michael W. Deem and Ramdas Pophale) SiO2 
 PCOD9020619
Probable space group: P -1
;
_chemical_formula_sum "Si O2"
_cell_formula_units_Z 16
_cell_length_a 8.343312
_cell_length_b 13.755213
_cell_length_c 11.511223
_cell_angle_alpha 35.028513
_cell_angle_beta 110.091258
_cell_angle_gamma 113.373336
_cell_volume 695.614560
_symmetry_space_group_name_H-M "P -1"
_symmetry_group_IT_number 2
_symmetry_cell_setting 'triclinic'
loop_
_space_group_symop_operation_xyz
x,y,z
-x,-y,-z
loop_
_atom_site_type_symbol
_atom_site_label
_atom_site_fract_x
_atom_site_fract_y
_atom_site_fract_z
Si Si1 0.233614 0.110336 0.892937
Si Si2 0.900953 0.391224 0.306021
Si Si3 0.181648 0.475064 0.622193
Si Si4 0.664465 0.492748 0.967230
Si Si5 0.445431 0.684097 0.329716
Si Si6 0.870413 0.020206 0.772245
Si Si7 0.234479 0.652946 0.080029
Si Si8 0.062454 0.156356 0.270819
O O1 0.208722 0.297235 0.749401
O O2 0.388566 0.159391 0.790711
O O3 0.259888 0.021869 0.109135
O O4 0.058463 0.011594 0.883342
O O5 0.836770 0.526873 0.242827
O O6 0.101038 0.470819 0.251245
O O7 0.880370 0.213660 0.541652
O O8 0.785256 0.381758 0.172889
O O9 0.331837 0.637076 0.462120
O O10 0.000000 0.500000 0.500000
O O11 0.627780 0.395739 0.929741
O O12 0.791462 0.683170 0.800028
O O13 0.500000 0.500000 0.000000
O O14 0.500000 0.500000 0.500000
O O15 0.323665 0.716080 0.161449
O O16 0.852116 0.907753 0.760862
O O17 0.108237 0.771544 0.881702
O O18 0.000000 0.000000 0.500000
#
# Coordination Sequence:
#
# PCOD9020619 Si02
#       8
#     2   2   2   2   2   2   2   2
#     4  10  22  38  59  94 129 165 205 257 312 374
#     4  11  21  41  65  92 124 172 214 254 307 388
#     4  11  19  37  65  93 121 165 217 254 307 375
#     4  11  26  43  68  95 121 162 221 271 310 370
#     4  10  22  36  63  94 127 158 205 263 308 371
#     4  11  22  39  65  88 131 168 208 253 321 379
#     4  11  22  42  69  91 123 167 218 254 312 384
#     4  11  24  44  67  91 126 171 211 262 320 378
#
# _framework density 23.001242999999999
#
# number of rings (size 3 to 8) (size 9 to 14) (size 15 to 20)
#    0.000    1.250    2.500    5.250    5.250    0.000 
#    2.250    2.500    0.000    0.000    0.000    0.000 
#    0.000    0.000    0.000    0.000    0.000    0.000 
#
# Total GULP energy -89444.473238 kJ/mol
# GULP energy per Si atom -5590.279577 kJ/mol
# Density = 2.294889 g / cm^3
# Si number density = 23.001243 Si / 1000 Ang^3
#
#
#
# Elastic Constant Matrix: (Units=GPa)
#
#
# Indices 1 2 3 4 5 6 
#
# 1 70.0472 -15.3348 7.4491 -9.2586 -24.5424 -2.8960
# 2 -15.3348 43.4138 -8.3336 4.4910 -2.8395 -12.0064
# 3 7.4491 -8.3336 127.0494 -12.4234 -17.4458 5.9293
# 4 -9.2586 4.4910 -12.4234 22.0575 -6.1406 -0.4631
# 5 -24.5424 -2.8395 -17.4458 -6.1406 37.8638 2.5183
# 6 -2.8960 -12.0064 5.9293 -0.4631 2.5183 34.4522
#
#
#
# Elastic Compliance Matrix: (Units=1/GPa)
#
#
# Indices 1 2 3 4 5 6 
#
# 1 0.026491 0.010835 0.003715 0.017278 0.022233 0.003971
# 2 0.010835 0.030616 0.002575 0.002844 0.010273 0.010424
# 3 0.003715 0.002575 0.009952 0.009046 0.008721 -0.001019
# 4 0.017278 0.002844 0.009046 0.064347 0.026026 -0.000151
# 5 0.022233 0.010273 0.008721 0.026026 0.049787 0.000659
# 6 0.003971 0.010424 -0.001019 -0.000151 0.000659 0.033118
#
#
# Mechanical properties :
#
#
# Convention : Reuss Voigt Hill
#
# Bulk Modulus (GPa) = 9.87083 23.11910 16.49497
# Shear Modulus (GPa) = 23.38306 35.99002 29.68654
#
# Velocity S-wave (km/s) = 3.19188 3.95992 3.59646
# Velocity P-wave (km/s) = 4.22905 5.56606 4.94297
#
# Compressibility (1/GPa) = 0.10130856
#
# Stress axis : x y z
#
# Youngs Moduli (GPa) = 37.74910 32.66222 100.48487
#
# Poissons Ratio (x) = -0.35390 -0.37326
# Poissons Ratio (y) = -0.40901 -0.25877
# Poissons Ratio (z) = -0.14022 -0.08411
#
# Static dielectric constant tensor:
#      x y z
#    x 1.903920 -0.023390 0.001030 
#    y -0.023390 1.883790 0.001460 
#    z 0.001030 0.001460 1.861160 
# 
# From -- ./inp_files/223479.got.cif
#   From: 2010.05.17/outbox.cif.g08.bks.cpg/sg2_112_cif.got.tgz:223479.got - 2010.06.03 11:33:40.
