data_PCOD9020635
_publ_section_title
;
Structure prediction by ZEFSAII (Michael W. Deem and Ramdas Pophale) SiO2 
 PCOD9020635
Probable space group: P -1
;
_chemical_formula_sum "Si O2"
_cell_formula_units_Z 16
_cell_length_a 12.243180
_cell_length_b 12.005863
_cell_length_c 5.454664
_cell_angle_alpha 97.860852
_cell_angle_beta 103.639586
_cell_angle_gamma 84.970870
_cell_volume 770.567769
_symmetry_space_group_name_H-M "P -1"
_symmetry_group_IT_number 2
_symmetry_cell_setting 'triclinic'
loop_
_space_group_symop_operation_xyz
x,y,z
-x,-y,-z
loop_
_atom_site_type_symbol
_atom_site_label
_atom_site_fract_x
_atom_site_fract_y
_atom_site_fract_z
Si Si1 0.472463 0.432933 0.716786
Si Si2 0.689375 0.778471 0.004167
Si Si3 0.954205 0.445559 0.714002
Si Si4 0.062380 0.030620 0.291450
Si Si5 0.500972 0.171788 0.738570
Si Si6 0.895180 0.735544 0.462654
Si Si7 0.316564 0.024934 0.312897
Si Si8 0.751544 0.578703 0.633306
O O1 0.500000 0.500000 0.500000
O O2 0.516123 0.300073 0.689852
O O3 0.337976 0.429330 0.629750
O O4 0.500000 0.500000 0.000000
O O5 0.560857 0.803921 0.028213
O O6 0.783330 0.771998 0.262288
O O7 0.717784 0.885219 0.889155
O O8 0.696775 0.656412 0.840324
O O9 0.819065 0.460145 0.676075
O O10 0.000000 0.500000 0.500000
O O11 0.011762 0.321302 0.683733
O O12 0.000000 0.500000 0.000000
O O13 0.056801 0.164480 0.337185
O O14 0.197032 0.994911 0.357199
O O15 0.000000 0.000000 0.500000
O O16 0.000000 0.000000 0.000000
O O17 0.405138 0.099546 0.532496
O O18 0.611941 0.088389 0.767273
O O19 0.850683 0.652540 0.616356
#
# Coordination Sequence:
#
# PCOD9020635 Si02
#       8
#     2   2   2   2   2   2   2   2
#     4  12  26  45  67  98 144 186 223 280 367 434
#     4  12  17  39  76  98 134 174 242 301 357 398
#     4  10  22  36  64 102 124 166 229 294 331 392
#     4  12  26  45  67  98 144 186 223 280 367 434
#     4  11  24  43  71 105 134 182 248 302 341 414
#     4  11  22  41  68  95 135 180 242 287 342 423
#     4  11  24  43  71 105 134 182 248 302 341 414
#     4  11  22  41  68  95 135 180 242 287 342 423
#
# _framework density 20.763912000000001
#
# number of rings (size 3 to 8) (size 9 to 14) (size 15 to 20)
#    0.000    0.750    6.250    1.875    0.000    0.000 
#    4.500    0.000    0.000    0.000    0.000    0.000 
#    0.000    0.000    0.000    0.000    0.000    0.000 
#
# Total GULP energy -89116.552482 kJ/mol
# GULP energy per Si atom -5569.784530 kJ/mol
# Density = 2.071665 g / cm^3
# Si number density = 20.763912 Si / 1000 Ang^3
#
#
#
# Elastic Constant Matrix: (Units=GPa)
#
#
# Indices 1 2 3 4 5 6 
#
# 1 120.3381 70.7857 47.6561 16.3615 -22.6632 -23.6735
# 2 70.7857 80.6992 33.5155 20.1590 -9.8976 -10.7372
# 3 47.6561 33.5155 125.6436 26.5529 -0.9674 -2.2257
# 4 16.3615 20.1590 26.5529 43.8813 5.2879 -10.7287
# 5 -22.6632 -9.8976 -0.9674 5.2879 34.2789 4.1301
# 6 -23.6735 -10.7372 -2.2257 -10.7287 4.1301 49.3669
#
#
#
# Elastic Compliance Matrix: (Units=1/GPa)
#
#
# Indices 1 2 3 4 5 6 
#
# 1 0.022365 -0.016428 -0.004442 0.002500 0.008717 0.006766
# 2 -0.016428 0.027980 0.000301 -0.007578 -0.001204 -0.003325
# 3 -0.004442 0.000301 0.010648 -0.005402 -0.001398 -0.002642
# 4 0.002500 -0.007578 -0.005402 0.030965 -0.006255 0.006560
# 5 0.008717 -0.001204 -0.001398 -0.006255 0.035571 -0.000480
# 6 0.006766 -0.003325 -0.002642 0.006560 -0.000480 0.024124
#
#
# Mechanical properties :
#
#
# Convention : Reuss Voigt Hill
#
# Bulk Modulus (GPa) = 50.36720 70.06617 60.21668
# Shear Modulus (GPa) = 25.07401 37.15365 31.11383
#
# Velocity S-wave (km/s) = 3.47879 4.23465 3.87519
# Velocity P-wave (km/s) = 6.35969 7.59783 7.00617
#
# Compressibility (1/GPa) = 0.01985419
#
# Stress axis : x y z
#
# Youngs Moduli (GPa) = 44.71232 35.74033 93.91589
#
# Poissons Ratio (x) = 0.58714 0.41719
# Poissons Ratio (y) = 0.73453 -0.02826
# Poissons Ratio (z) = 0.19862 -0.01075
#
# Static dielectric constant tensor:
#      x y z
#    x 1.957930 -0.204360 0.057990 
#    y -0.204360 2.551800 0.017770 
#    z 0.057990 0.017770 1.799270 
# 
# From -- ./inp_files/71366.got.cif
#   From: 2010.05.17/outbox.cif.g08.bks.cpg/sg2_36_cif.got.tgz:71366.got - 2010.06.03 11:33:40.
