data_PCOD9020044
_publ_section_title
;
Structure prediction by ZEFSAII (Michael W. Deem and Ramdas Pophale) SiO2 
 PCOD9020044
Probable space group: P -1
;
_chemical_formula_sum "Si O2"
_cell_formula_units_Z 14
_cell_length_a 12.382331
_cell_length_b 7.028297
_cell_length_c 8.528482
_cell_angle_alpha 119.083605
_cell_angle_beta 67.083583
_cell_angle_gamma 105.784881
_cell_volume 594.263332
_symmetry_space_group_name_H-M "P -1"
_symmetry_group_IT_number 2
_symmetry_cell_setting 'triclinic'
loop_
_space_group_symop_operation_xyz
x,y,z
-x,-y,-z
loop_
_atom_site_type_symbol
_atom_site_label
_atom_site_fract_x
_atom_site_fract_y
_atom_site_fract_z
Si Si1 0.482394 0.484275 0.689727
Si Si2 0.618564 0.106635 0.063356
Si Si3 0.333920 0.065961 0.706147
Si Si4 0.838834 0.960734 0.471783
Si Si5 0.917160 0.449720 0.678206
Si Si6 0.265900 0.282103 0.277438
Si Si7 0.079577 0.193832 0.945534
O O1 0.500000 0.500000 0.500000
O O2 0.381120 0.636434 0.860920
O O3 0.281646 0.035571 0.112026
O O4 0.605044 0.589718 0.731210
O O5 0.559867 0.755842 0.325583
O O6 0.621831 0.079721 0.239029
O O7 0.500000 0.000000 0.000000
O O8 0.219532 0.172536 0.881360
O O9 0.794784 0.770008 0.540763
O O10 0.925900 0.863335 0.258486
O O11 0.893630 0.189443 0.603044
O O12 0.725775 0.025438 0.458551
O O13 0.805721 0.568078 0.729114
O O14 0.000000 0.500000 0.500000
O O15 0.954496 0.582680 0.868906
O O16 0.000000 0.000000 0.000000
#
# Coordination Sequence:
#
# PCOD9020044 Si02
#       7
#     2   2   2   2   2   2   2
#     4  11  23  41  67  98 136 178 225 269 338 403
#     4  10  24  40  63  97 137 182 222 277 329 396
#     4  10  22  43  67  96 139 180 222 277 338 399
#     4  10  24  40  70  98 132 179 224 274 348 389
#     4  12  24  45  72  96 134 182 220 282 345 393
#     4  11  24  43  63 102 139 167 234 279 322 418
#     4  10  21  46  67  96 133 169 227 279 329 406
#
# _framework density 23.558579999999999
#
# number of rings (size 3 to 8) (size 9 to 14) (size 15 to 20)
#    0.857    0.571    4.286    0.000    4.000    5.714 
#    0.000    0.714    0.000    0.000    0.000    0.000 
#    0.000    0.000    0.000    0.000    0.000    0.000 
#
# Total GULP energy -78129.088673 kJ/mol
# GULP energy per Si atom -5580.649191 kJ/mol
# Density = 2.350496 g / cm^3
# Si number density = 23.558580 Si / 1000 Ang^3
#
#
#
# Elastic Constant Matrix: (Units=GPa)
#
#
# Indices 1 2 3 4 5 6 
#
# 1 64.8669 31.6044 24.8166 1.0178 7.5686 -6.1206
# 2 31.6044 93.0178 42.2815 1.6203 4.2341 21.2646
# 3 24.8166 42.2815 107.6353 17.1554 -2.8987 9.8709
# 4 1.0178 1.6203 17.1554 46.8018 3.5097 -2.1923
# 5 7.5686 4.2341 -2.8987 3.5097 32.3562 -6.4739
# 6 -6.1206 21.2646 9.8709 -2.1923 -6.4739 35.4905
#
#
#
# Elastic Compliance Matrix: (Units=1/GPa)
#
#
# Indices 1 2 3 4 5 6 
#
# 1 0.021530 -0.007891 -0.002992 0.001517 -0.002659 0.008882
# 2 -0.007891 0.018286 -0.004535 0.000910 -0.003376 -0.011616
# 3 -0.002992 -0.004535 0.012684 -0.004683 0.002713 -0.001121
# 4 0.001517 0.000910 -0.004683 0.023336 -0.003044 0.001905
# 5 -0.002659 -0.003376 0.002713 -0.003044 0.033905 0.006806
# 6 0.008882 -0.011616 -0.001121 0.001905 0.006806 0.038339
#
#
# Mechanical properties :
#
#
# Convention : Reuss Voigt Hill
#
# Bulk Modulus (GPa) = 46.15750 51.43612 48.79681
# Shear Modulus (GPa) = 26.86181 34.05087 30.45634
#
# Velocity S-wave (km/s) = 3.38037 3.80593 3.59944
# Velocity P-wave (km/s) = 5.90517 6.41826 6.16706
#
# Compressibility (1/GPa) = 0.02166495
#
# Stress axis : x y z
#
# Youngs Moduli (GPa) = 46.44663 54.68608 78.83853
#
# Poissons Ratio (x) = 0.43152 0.23590
# Poissons Ratio (y) = 0.36651 0.35750
# Poissons Ratio (z) = 0.13898 0.24798
#
# Static dielectric constant tensor:
#      x y z
#    x 1.916460 -0.028360 0.002970 
#    y -0.028360 1.804210 0.029810 
#    z 0.002970 0.029810 1.986440 
# 
# From -- ./inp_files/289133.got.cif
#   From: 2010.05.17/outbox.cif.g08.bks.cpg/sg2_145_cif.got.tgz:289133.got - 2010.06.03 11:33:40.
