data_PCOD9020745
_publ_section_title
;
Structure prediction by ZEFSAII (Michael W. Deem and Ramdas Pophale) SiO2 
 PCOD9020745
Probable space group: P -1
;
_chemical_formula_sum "Si O2"
_cell_formula_units_Z 16
_cell_length_a 15.478885
_cell_length_b 11.575443
_cell_length_c 20.971481
_cell_angle_alpha 26.040705
_cell_angle_beta 155.829266
_cell_angle_gamma 152.553470
_cell_volume 625.663018
_symmetry_space_group_name_H-M "P -1"
_symmetry_group_IT_number 2
_symmetry_cell_setting 'triclinic'
loop_
_space_group_symop_operation_xyz
x,y,z
-x,-y,-z
loop_
_atom_site_type_symbol
_atom_site_label
_atom_site_fract_x
_atom_site_fract_y
_atom_site_fract_z
Si Si1 0.568824 0.155718 0.823639
Si Si2 0.739459 0.123969 0.353020
Si Si3 0.728886 0.085405 0.510357
Si Si4 0.374936 0.178902 0.156636
Si Si5 0.792878 0.837729 0.208941
Si Si6 0.993922 0.447316 0.774367
Si Si7 0.531670 0.522923 0.732588
Si Si8 0.049214 0.594899 0.878984
O O1 0.501610 0.297497 0.768112
O O2 0.809468 0.370329 0.852807
O O3 0.376868 0.101643 0.668043
O O4 0.618995 0.883619 0.018073
O O5 0.534053 0.235736 0.173430
O O6 0.960652 0.359261 0.354017
O O7 0.764862 0.013993 0.494974
O O8 0.586118 0.821917 0.588031
O O9 0.985183 0.197939 0.653544
O O10 0.564992 0.254592 0.302441
O O11 0.195600 0.324804 0.968592
O O12 0.233675 0.835674 0.235318
O O13 0.874045 0.137211 0.154757
O O14 0.684558 0.607249 0.304346
O O15 0.025032 0.630295 0.769427
O O16 0.756421 0.534835 0.916288
#
# Coordination Sequence:
#
# PCOD9020745 Si02
#       8
#     2   2   2   2   2   2   2   2
#     4  11  19  39  58  86 117 153 193 228 276 342
#     4  10  22  37  59  86 112 148 191 235 281 335
#     4  10  22  37  54  89 120 144 184 241 292 323
#     4   9  23  38  59  85 112 150 190 243 278 331
#     4  11  21  37  61  84 116 155 187 229 287 341
#     4  11  20  41  62  83 110 153 199 229 279 340
#     4  11  21  36  59  84 120 153 186 229 285 346
#     4  11  19  37  61  85 113 155 194 232 272 341
#
# _framework density 25.572870999999999
#
# number of rings (size 3 to 8) (size 9 to 14) (size 15 to 20)
#    0.750    0.750    3.750    4.125    1.750    0.500 
#    2.250    1.875    0.000    1.500    0.000    0.000 
#    0.000    0.000    0.000    0.000    0.000    0.000 
#
# Total GULP energy -89481.042778 kJ/mol
# GULP energy per Si atom -5592.565174 kJ/mol
# Density = 2.551467 g / cm^3
# Si number density = 25.572871 Si / 1000 Ang^3
#
#
#
# Elastic Constant Matrix: (Units=GPa)
#
#
# Indices 1 2 3 4 5 6 
#
# 1 37.3976 26.3095 58.0699 -19.9822 -22.1334 3.4186
# 2 26.3095 67.6778 3.9512 -2.9707 -19.7094 12.6597
# 3 58.0699 3.9512 13.6086 18.7720 -5.5510 19.8327
# 4 -19.9822 -2.9707 18.7720 25.6655 8.8293 -12.4915
# 5 -22.1334 -19.7094 -5.5510 8.8293 36.5394 -7.5798
# 6 3.4186 12.6597 19.8327 -12.4915 -7.5798 36.2456
#
#
#
# Elastic Compliance Matrix: (Units=1/GPa)
#
#
# Indices 1 2 3 4 5 6 
#
# 1 0.005116 0.000445 0.012436 -0.012186 0.006019 -0.010384
# 2 0.000445 0.017638 -0.004325 0.001996 0.008354 -0.001401
# 3 0.012436 -0.004325 -0.001104 0.011561 0.003409 0.005639
# 4 -0.012186 0.001996 0.011561 0.025155 -0.010503 0.000599
# 5 0.006019 0.008354 0.003409 -0.010503 0.038380 -0.000944
# 6 -0.010384 -0.001401 0.005639 0.000599 -0.000944 0.025982
#
#
# Mechanical properties :
#
#
# Convention : Reuss Voigt Hill
#
# Bulk Modulus (GPa) = 25.79723 32.81614 29.30668
# Shear Modulus (GPa) = 46.74023 21.71363 34.22693
#
# Velocity S-wave (km/s) = 4.27983 2.91707 3.66239
# Velocity P-wave (km/s) = 5.87641 4.91996 5.41933
#
# Compressibility (1/GPa) = 0.03876385
#
# Stress axis : x y z
#
# Youngs Moduli (GPa) = 195.45605 56.69657 -905.72338
#
# Poissons Ratio (x) = -0.02525 11.26381
# Poissons Ratio (y) = -0.08706 -3.91700
# Poissons Ratio (z) = -2.43074 0.24520
#
# Static dielectric constant tensor:
#      x y z
#    x 2.143870 -0.020270 0.011940 
#    y -0.020270 2.059890 -0.048120 
#    z 0.011940 -0.048120 2.057470 
# 
# From -- ./inp_files/597958.got.cif
#   From: 2010.05.17/outbox.cif.g08.bks.cpg/sg2_299_cif.got.tgz:597958.got - 2010.06.03 11:33:40.
