data_PCOD9020458
_publ_section_title
;
Structure prediction by ZEFSAII (Michael W. Deem and Ramdas Pophale) SiO2 
 PCOD9020458
Probable space group: P -1
;
_chemical_formula_sum "Si O2"
_cell_formula_units_Z 16
_cell_length_a 20.268976
_cell_length_b 11.943198
_cell_length_c 5.220959
_cell_angle_alpha 96.371072
_cell_angle_beta 62.086381
_cell_angle_gamma 136.854193
_cell_volume 705.955987
_symmetry_space_group_name_H-M "P -1"
_symmetry_group_IT_number 2
_symmetry_cell_setting 'triclinic'
loop_
_space_group_symop_operation_xyz
x,y,z
-x,-y,-z
loop_
_atom_site_type_symbol
_atom_site_label
_atom_site_fract_x
_atom_site_fract_y
_atom_site_fract_z
Si Si1 0.656567 0.178650 0.157657
Si Si2 0.653184 0.323922 0.713879
Si Si3 0.084494 0.361638 0.627824
Si Si4 0.067896 0.835438 0.666433
Si Si5 0.114330 0.637457 0.498116
Si Si6 0.533764 0.801511 0.308964
Si Si7 0.683664 0.789540 0.814356
Si Si8 0.470768 0.567177 0.764340
O O1 0.616090 0.200531 0.984798
O O2 0.778151 0.268440 0.857151
O O3 0.670220 0.270728 0.407433
O O4 0.577088 0.978498 0.314448
O O5 0.780905 0.522444 0.601183
O O6 0.551612 0.292134 0.807163
O O7 0.100136 0.515753 0.684734
O O8 0.013321 0.264156 0.466628
O O9 0.011896 0.226982 0.961268
O O10 0.121865 0.773630 0.615587
O O11 0.181195 0.043989 0.461358
O O12 0.000000 0.500000 0.500000
O O13 0.456186 0.659406 0.639867
O O14 0.645325 0.847726 0.089062
O O15 0.591486 0.710190 0.738750
O O16 0.641713 0.617480 0.937528
O O17 0.500000 0.500000 0.500000
#
# Coordination Sequence:
#
# PCOD9020458 Si02
#       8
#     2   2   2   2   2   2   2   2
#     4  11  23  37  56  91 127 165 208 241 287 356
#     4  11  24  40  58  86 133 167 208 237 284 361
#     4  10  22  36  54  85 119 167 197 243 288 350
#     4  11  21  36  62  84 119 154 203 249 300 353
#     4   9  18  33  52  81 119 157 198 237 288 344
#     4  11  23  38  63  88 121 165 201 248 305 358
#     4  10  22  40  63  95 116 151 199 262 315 359
#     4   9  22  40  62  92 119 147 197 255 325 363
#
# _framework density 22.664300999999998
#
# number of rings (size 3 to 8) (size 9 to 14) (size 15 to 20)
#    0.000    1.750    1.250    3.375    7.000    3.000 
#    0.000    0.000    0.000    1.500    0.000    0.000 
#    0.000    0.000    0.000    0.000    0.000    0.000 
#
# Total GULP energy -89354.203431 kJ/mol
# GULP energy per Si atom -5584.637714 kJ/mol
# Density = 2.261272 g / cm^3
# Si number density = 22.664301 Si / 1000 Ang^3
#
#
#
# Elastic Constant Matrix: (Units=GPa)
#
#
# Indices 1 2 3 4 5 6 
#
# 1 99.5726 34.2485 54.3495 -25.0198 17.6292 4.6840
# 2 34.2485 85.3882 49.0846 -33.1854 12.9788 12.2748
# 3 54.3495 49.0846 128.6751 -23.8377 20.7721 12.8337
# 4 -25.0198 -33.1854 -23.8377 42.8146 1.3640 -7.8407
# 5 17.6292 12.9788 20.7721 1.3640 44.4837 -3.0924
# 6 4.6840 12.2748 12.8337 -7.8407 -3.0924 20.6522
#
#
#
# Elastic Compliance Matrix: (Units=1/GPa)
#
#
# Indices 1 2 3 4 5 6 
#
# 1 0.014794 -0.000714 -0.004422 0.006031 -0.003666 0.001558
# 2 -0.000714 0.020641 -0.003941 0.012509 -0.004672 -0.005608
# 3 -0.004422 -0.003941 0.012172 0.000407 -0.003109 -0.004529
# 4 0.006031 0.012509 0.000407 0.037805 -0.007095 0.004235
# 5 -0.003666 -0.004672 -0.003109 -0.007095 0.027449 0.006957
# 6 0.001558 -0.005608 -0.004529 0.004235 0.006957 0.056864
#
#
# Mechanical properties :
#
#
# Convention : Reuss Voigt Hill
#
# Bulk Modulus (GPa) = 33.95463 65.44459 49.69961
# Shear Modulus (GPa) = 25.29115 33.32032 29.30573
#
# Velocity S-wave (km/s) = 3.34414 3.83844 3.59978
# Velocity P-wave (km/s) = 5.47038 6.97016 6.26531
#
# Compressibility (1/GPa) = 0.02945106
#
# Stress axis : x y z
#
# Youngs Moduli (GPa) = 67.59624 48.44713 82.15679
#
# Poissons Ratio (x) = 0.03460 0.36333
# Poissons Ratio (y) = 0.04828 0.32380
# Poissons Ratio (z) = 0.29893 0.19094
#
# Static dielectric constant tensor:
#      x y z
#    x 1.872260 -0.049730 -0.020650 
#    y -0.049730 1.895230 0.041860 
#    z -0.020650 0.041860 1.909610 
# 
# From -- ./inp_files/118198.got.cif
#   From: 2010.05.17/outbox.cif.g08.bks.cpg/sg2_60_cif.got.tgz:118198.got - 2010.06.03 11:33:40.
