data_PCOD9020470
_publ_section_title
;
Structure prediction by ZEFSAII (Michael W. Deem and Ramdas Pophale) SiO2 
 PCOD9020470
Probable space group: P -1
;
_chemical_formula_sum "Si O2"
_cell_formula_units_Z 16
_cell_length_a 8.299659
_cell_length_b 9.094767
_cell_length_c 18.685684
_cell_angle_alpha 98.523884
_cell_angle_beta 31.492652
_cell_angle_gamma 96.221166
_cell_volume 728.226944
_symmetry_space_group_name_H-M "P -1"
_symmetry_group_IT_number 2
_symmetry_cell_setting 'triclinic'
loop_
_space_group_symop_operation_xyz
x,y,z
-x,-y,-z
loop_
_atom_site_type_symbol
_atom_site_label
_atom_site_fract_x
_atom_site_fract_y
_atom_site_fract_z
Si Si1 0.418361 0.825870 0.835022
Si Si2 0.708006 0.746813 0.096250
Si Si3 0.368324 0.971293 0.348597
Si Si4 0.780887 0.940298 0.330131
Si Si5 0.665728 0.518430 0.544840
Si Si6 0.438885 0.914957 0.089254
Si Si7 0.381172 0.752724 0.563565
Si Si8 0.623095 0.501150 0.725136
O O1 0.490463 0.883874 0.731814
O O2 0.522681 0.956586 0.856269
O O3 0.608562 0.673577 0.764521
O O4 0.056759 0.795515 0.980900
O O5 0.622261 0.582582 0.140268
O O6 0.471102 0.841084 0.244886
O O7 0.639792 0.783671 0.041628
O O8 0.546583 0.932818 0.352063
O O9 0.000000 0.000000 0.500000
O O10 0.867098 0.114829 0.317145
O O11 0.104312 0.853055 0.195212
O O12 0.645055 0.864671 0.446795
O O13 0.467755 0.646575 0.588784
O O14 0.656755 0.362051 0.494919
O O15 0.554098 0.496780 0.666240
O O16 0.024446 0.561296 0.407985
O O17 0.500000 0.000000 0.000000
#
# Coordination Sequence:
#
# PCOD9020470 Si02
#       8
#     2   2   2   2   2   2   2   2
#     4  11  24  43  64  94 130 170 218 263 315 380
#     4  11  24  43  64  94 130 170 218 263 315 380
#     4  11  25  39  69  99 127 163 217 265 321 376
#     4  11  22  36  61  90 125 158 212 251 325 371
#     4  10  22  38  56  91 127 164 208 264 318 364
#     4  11  23  41  65  89 125 170 208 267 316 376
#     4  10  22  36  56  86 132 162 196 260 320 376
#     4  11  23  38  67  87 127 170 220 257 316 372
#
# _framework density 21.971173
#
# number of rings (size 3 to 8) (size 9 to 14) (size 15 to 20)
#    0.000    1.250    0.000    6.375   14.000    0.000 
#    0.000    0.625    0.000    0.000    0.000    0.000 
#    0.000    0.000    0.000    0.000    0.000    0.000 
#
# Total GULP energy -89243.459519 kJ/mol
# GULP energy per Si atom -5577.716220 kJ/mol
# Density = 2.192117 g / cm^3
# Si number density = 21.971173 Si / 1000 Ang^3
#
#
#
# Elastic Constant Matrix: (Units=GPa)
#
#
# Indices 1 2 3 4 5 6 
#
# 1 91.6836 12.2269 9.5971 -11.8938 7.5010 -9.3797
# 2 12.2269 87.9697 -9.0858 -14.7094 6.4387 -8.6696
# 3 9.5971 -9.0858 68.3983 -14.2530 -10.2924 -13.6911
# 4 -11.8938 -14.7094 -14.2530 25.8213 -2.4901 7.5424
# 5 7.5010 6.4387 -10.2924 -2.4901 35.6574 2.5882
# 6 -9.3797 -8.6696 -13.6911 7.5424 2.5882 21.7458
#
#
#
# Elastic Compliance Matrix: (Units=1/GPa)
#
#
# Indices 1 2 3 4 5 6 
#
# 1 0.012109 -0.000620 -0.000726 0.003510 -0.002663 0.003618
# 2 -0.000620 0.013966 0.004686 0.008611 -0.000827 0.005363
# 3 -0.000726 0.004686 0.020467 0.011246 0.005280 0.009911
# 4 0.003510 0.008611 0.011246 0.054118 0.005267 -0.007370
# 5 -0.002663 -0.000827 0.005280 0.005267 0.030912 -0.003660
# 6 0.003618 0.005363 0.009911 -0.007370 -0.003660 0.058916
#
#
# Mechanical properties :
#
#
# Convention : Reuss Voigt Hill
#
# Bulk Modulus (GPa) = 18.78952 30.39198 24.59075
# Shear Modulus (GPa) = 24.80776 32.33245 28.57011
#
# Velocity S-wave (km/s) = 3.36386 3.84029 3.60994
# Velocity P-wave (km/s) = 4.86394 5.79020 5.34716
#
# Compressibility (1/GPa) = 0.05322115
#
# Stress axis : x y z
#
# Youngs Moduli (GPa) = 82.58260 71.60002 48.86024
#
# Poissons Ratio (x) = 0.04437 0.03549
# Poissons Ratio (y) = 0.05117 -0.22894
# Poissons Ratio (z) = 0.05998 -0.33549
#
# Static dielectric constant tensor:
#      x y z
#    x 1.819130 0.000070 0.035200 
#    y 0.000070 1.907040 0.201760 
#    z 0.035200 0.201760 2.282910 
# 
# From -- ./inp_files/587981.got.cif
#   From: 2010.05.17/outbox.cif.g08.bks.cpg/sg2_294_cif.got.tgz:587981.got - 2010.06.03 11:33:40.
