data_PCOD9020438
_publ_section_title
;
Structure prediction by ZEFSAII (Michael W. Deem and Ramdas Pophale) SiO2 
 PCOD9020438
Probable space group: P -1
;
_chemical_formula_sum "Si O2"
_cell_formula_units_Z 16
_cell_length_a 5.557408
_cell_length_b 20.805591
_cell_length_c 10.019038
_cell_angle_alpha 132.889193
_cell_angle_beta 78.030972
_cell_angle_gamma 122.206796
_cell_volume 695.250649
_symmetry_space_group_name_H-M "P -1"
_symmetry_group_IT_number 2
_symmetry_cell_setting 'triclinic'
loop_
_space_group_symop_operation_xyz
x,y,z
-x,-y,-z
loop_
_atom_site_type_symbol
_atom_site_label
_atom_site_fract_x
_atom_site_fract_y
_atom_site_fract_z
Si Si1 0.386641 0.708298 0.597317
Si Si2 0.914663 0.089308 0.645286
Si Si3 0.652417 0.947848 0.985023
Si Si4 0.307361 0.091953 0.783558
Si Si5 0.689646 0.588199 0.492897
Si Si6 0.556931 0.555761 0.931696
Si Si7 0.817671 0.273169 0.898600
Si Si8 0.495472 0.735230 0.309130
O O1 0.507187 0.827180 0.790695
O O2 0.554203 0.659837 0.583510
O O3 0.450188 0.709885 0.433402
O O4 0.034395 0.646695 0.571471
O O5 0.839516 0.175352 0.792069
O O6 0.986124 0.069372 0.757932
O O7 0.205426 0.156058 0.609797
O O8 0.708395 0.980228 0.439928
O O9 0.633311 0.949563 0.149736
O O10 0.500000 0.000000 0.000000
O O11 0.000000 0.000000 0.000000
O O12 0.502429 0.219839 0.929783
O O13 0.500000 0.500000 0.500000
O O14 0.640866 0.525645 0.272377
O O15 0.500000 0.500000 0.000000
O O16 0.500460 0.646220 0.098030
O O17 0.901628 0.617265 0.938493
O O18 0.774939 0.268538 0.737194
#
# Coordination Sequence:
#
# PCOD9020438 Si02
#       8
#     2   2   2   2   2   2   2   2
#     4  12  27  49  75 104 150 195 246 303 371 445
#     4   9  20  39  64 101 134 177 231 302 365 430
#     4  12  29  48  75 107 145 201 246 302 366 454
#     4  10  22  40  65  95 140 179 239 294 369 430
#     4  12  29  48  75 107 149 196 247 309 371 444
#     4  11  23  43  69 100 140 180 246 296 370 427
#     4  10  22  35  67  97 131 179 228 305 358 434
#     4  10  22  39  68 104 135 182 239 303 364 437
#
# _framework density 23.013283999999999
#
# number of rings (size 3 to 8) (size 9 to 14) (size 15 to 20)
#    0.000    1.250    1.250    3.000    8.750    4.000 
#    0.000    0.000    0.000    0.000    0.000    0.000 
#    0.000    0.000    0.000    0.000    0.000    0.000 
#
# Total GULP energy -89183.490810 kJ/mol
# GULP energy per Si atom -5573.968176 kJ/mol
# Density = 2.296090 g / cm^3
# Si number density = 23.013284 Si / 1000 Ang^3
#
#
#
# Elastic Constant Matrix: (Units=GPa)
#
#
# Indices 1 2 3 4 5 6 
#
# 1 120.4081 64.3160 33.9679 5.7625 6.6407 -11.1580
# 2 64.3160 128.7244 31.1571 7.1213 4.5374 -13.5428
# 3 33.9679 31.1571 82.6077 16.5234 7.3137 -7.2292
# 4 5.7625 7.1213 16.5234 44.9022 -1.5251 13.5671
# 5 6.6407 4.5374 7.3137 -1.5251 26.7652 9.6648
# 6 -11.1580 -13.5428 -7.2292 13.5671 9.6648 63.3857
#
#
#
# Elastic Compliance Matrix: (Units=1/GPa)
#
#
# Indices 1 2 3 4 5 6 
#
# 1 0.012035 -0.005183 -0.002744 -0.000065 -0.001713 0.000973
# 2 -0.005183 0.010996 -0.001612 -0.000989 -0.000765 0.001582
# 3 -0.002744 -0.001612 0.015795 -0.006292 -0.004824 0.003056
# 4 -0.000065 -0.000989 -0.006292 0.027301 0.006253 -0.007737
# 5 -0.001713 -0.000765 -0.004824 0.006253 0.042797 -0.008879
# 6 0.000973 0.001582 0.003056 -0.007737 -0.008879 0.019644
#
#
# Mechanical properties :
#
#
# Convention : Reuss Voigt Hill
#
# Bulk Modulus (GPa) = 50.63788 65.62470 58.13129
# Shear Modulus (GPa) = 32.41889 40.49723 36.45806
#
# Velocity S-wave (km/s) = 3.75734 4.19947 3.98454
# Velocity P-wave (km/s) = 6.39336 7.21748 6.81788
#
# Compressibility (1/GPa) = 0.01974806
#
# Stress axis : x y z
#
# Youngs Moduli (GPa) = 83.08798 90.93851 63.31133
#
# Poissons Ratio (x) = 0.47131 0.17375
# Poissons Ratio (y) = 0.43063 0.10208
# Poissons Ratio (z) = 0.22802 0.14662
#
# Static dielectric constant tensor:
#      x y z
#    x 1.479530 0.128090 0.239820 
#    y 0.128090 1.940280 -0.054340 
#    z 0.239820 -0.054340 1.744090 
# 
# From -- ./inp_files/141604.got.cif
#   From: 2010.05.17/outbox.cif.g08.bks.cpg/sg2_71_cif.got.tgz:141604.got - 2010.06.03 11:33:40.
