data_PCOD9020929
_publ_section_title
;
Structure prediction by ZEFSAII (Michael W. Deem and Ramdas Pophale) SiO2 
 PCOD9020929
Probable space group: P -1
;
_chemical_formula_sum "Si O2"
_cell_formula_units_Z 16
_cell_length_a 17.542500
_cell_length_b 7.369361
_cell_length_c 10.765123
_cell_angle_alpha 69.893842
_cell_angle_beta 133.193806
_cell_angle_gamma 131.029295
_cell_volume 751.155711
_symmetry_space_group_name_H-M "P -1"
_symmetry_group_IT_number 2
_symmetry_cell_setting 'triclinic'
loop_
_space_group_symop_operation_xyz
x,y,z
-x,-y,-z
loop_
_atom_site_type_symbol
_atom_site_label
_atom_site_fract_x
_atom_site_fract_y
_atom_site_fract_z
Si Si1 0.856418 0.865588 0.767635
Si Si2 0.025354 0.369116 0.954849
Si Si3 0.204619 0.642624 0.872332
Si Si4 0.500241 0.017792 0.844904
Si Si5 0.566841 0.635346 0.411660
Si Si6 0.577509 0.482431 0.203890
Si Si7 0.077931 0.142468 0.742168
Si Si8 0.844174 0.015962 0.341664
O O1 0.859167 0.657008 0.880131
O O2 0.720721 0.761835 0.575636
O O3 0.978911 0.990551 0.779575
O O4 0.898037 0.088127 0.852654
O O5 0.077552 0.518374 0.849512
O O6 0.000000 0.500000 0.000000
O O7 0.190571 0.419264 0.844357
O O8 0.198195 0.812275 0.729703
O O9 0.344225 0.820713 0.054092
O O10 0.449856 0.161344 0.697816
O O11 0.424065 0.745980 0.771533
O O12 0.500000 0.000000 0.000000
O O13 0.500000 0.500000 0.500000
O O14 0.516015 0.458803 0.276008
O O15 0.725212 0.739366 0.312549
O O16 0.500000 0.500000 0.000000
O O17 0.134066 0.016092 0.770492
O O18 0.981466 0.135838 0.536557
#
# Coordination Sequence:
#
# PCOD9020929 Si02
#       8
#     2   2   2   2   2   2   2   2
#     4  10  22  44  61  94 137 167 222 282 337 410
#     4  10  22  40  67  93 127 177 217 272 346 407
#     4  11  22  38  62  92 127 162 223 271 329 404
#     4  12  25  43  70 102 135 188 233 279 352 408
#     4  12  27  46  70 103 141 185 233 291 345 406
#     4  12  24  45  70  97 140 185 232 288 338 416
#     4  10  22  37  62  92 123 168 211 278 338 391
#     4  11  21  40  63  94 126 166 219 277 335 397
#
# _framework density 21.300511
#
# number of rings (size 3 to 8) (size 9 to 14) (size 15 to 20)
#    0.000    1.000    3.750    2.625    0.000    2.500 
#    9.000    0.000    0.000    0.000    0.000    0.000 
#    0.000    0.000    0.000    0.000    0.000    0.000 
#
# Total GULP energy -89358.879708 kJ/mol
# GULP energy per Si atom -5584.929982 kJ/mol
# Density = 2.125203 g / cm^3
# Si number density = 21.300511 Si / 1000 Ang^3
#
#
#
# Elastic Constant Matrix: (Units=GPa)
#
#
# Indices 1 2 3 4 5 6 
#
# 1 73.1980 29.4296 15.5358 -0.8530 -30.6391 -2.1897
# 2 29.4296 112.6398 27.2133 -17.9139 -14.5736 -5.8856
# 3 15.5358 27.2133 93.8584 -9.7307 -4.1712 -4.3978
# 4 -0.8530 -17.9139 -9.7307 29.3761 -1.8214 5.4069
# 5 -30.6391 -14.5736 -4.1712 -1.8214 39.8827 8.3922
# 6 -2.1897 -5.8856 -4.3978 5.4069 8.3922 30.1457
#
#
#
# Elastic Compliance Matrix: (Units=1/GPa)
#
#
# Indices 1 2 3 4 5 6 
#
# 1 0.022252 -0.003436 -0.002185 -0.000446 0.016402 -0.003860
# 2 -0.003436 0.011483 -0.002030 0.006309 0.001607 0.000117
# 3 -0.002185 -0.002030 0.011841 0.002334 -0.001311 0.001119
# 4 -0.000446 0.006309 0.002334 0.040327 0.005573 -0.007245
# 5 0.016402 0.001607 -0.001311 0.005573 0.040697 -0.011015
# 6 -0.003860 0.000117 0.001119 -0.007245 -0.011015 0.037444
#
#
# Mechanical properties :
#
#
# Convention : Reuss Voigt Hill
#
# Bulk Modulus (GPa) = 33.03187 47.11707 40.07447
# Shear Modulus (GPa) = 26.39396 33.71541 30.05468
#
# Velocity S-wave (km/s) = 3.52394 3.98281 3.76038
# Velocity P-wave (km/s) = 5.66557 6.58169 6.14074
#
# Compressibility (1/GPa) = 0.03027379
#
# Stress axis : x y z
#
# Youngs Moduli (GPa) = 44.94022 87.08173 84.45485
#
# Poissons Ratio (x) = 0.29924 0.18453
# Poissons Ratio (y) = 0.15443 0.17142
# Poissons Ratio (z) = 0.09819 0.17675
#
# Static dielectric constant tensor:
#      x y z
#    x 1.823740 0.041900 -0.051230 
#    y 0.041900 1.830160 -0.075270 
#    z -0.051230 -0.075270 1.814500 
# 
# From -- ./inp_files/459467.got.cif
#   From: 2010.05.17/outbox.cif.g08.bks.cpg/sg2_230_cif.got.tgz:459467.got - 2010.06.03 11:33:40.
