data_PCOD9020810
_publ_section_title
;
Structure prediction by ZEFSAII (Michael W. Deem and Ramdas Pophale) SiO2 
 PCOD9020810
Probable space group: P -1
;
_chemical_formula_sum "Si O2"
_cell_formula_units_Z 12
_cell_length_a 5.411130
_cell_length_b 11.942267
_cell_length_c 9.733864
_cell_angle_alpha 103.745625
_cell_angle_beta 111.122409
_cell_angle_gamma 69.814836
_cell_volume 546.086880
_symmetry_space_group_name_H-M "P -1"
_symmetry_group_IT_number 2
_symmetry_cell_setting 'triclinic'
loop_
_space_group_symop_operation_xyz
x,y,z
-x,-y,-z
loop_
_atom_site_type_symbol
_atom_site_label
_atom_site_fract_x
_atom_site_fract_y
_atom_site_fract_z
Si Si1 0.608054 0.775394 0.532557
Si Si2 0.827856 0.512223 0.634153
Si Si3 0.195619 0.064074 0.900923
Si Si4 0.032740 0.129187 0.590822
Si Si5 0.028361 0.161281 0.175635
Si Si6 0.691599 0.414470 0.302913
O O1 0.725956 0.638983 0.568022
O O2 0.785349 0.818956 0.464240
O O3 0.290034 0.797660 0.439416
O O4 0.325900 0.155166 0.299407
O O5 0.776008 0.420914 0.483567
O O6 0.636612 0.529351 0.734175
O O7 0.146991 0.503288 0.719300
O O8 0.180018 0.119448 0.764234
O O9 0.047795 0.159980 0.015183
O O10 0.045357 0.959052 0.833118
O O11 0.500000 0.000000 0.000000
O O12 0.000000 0.000000 0.500000
O O13 0.805824 0.279889 0.227152
#
# Coordination Sequence:
#
# PCOD9020810 Si02
#       6
#     2   2   2   2   2   2
#     4  11  22  38  61  86 116 150 189 245 288 340
#     4   9  18  33  57  88 115 142 189 240 293 333
#     4  11  25  38  57  83 119 159 195 235 286 349
#     4  12  24  38  58  84 117 155 195 234 291 342
#     4  10  22  37  59  85 117 152 195 240 288 341
#     4   9  18  33  57  87 114 146 187 242 287 336
#
# _framework density 21.974523999999999
#
# number of rings (size 3 to 8) (size 9 to 14) (size 15 to 20)
#    0.000    1.667    1.667    3.500    9.333    0.000 
#    0.000    0.000    0.000    2.000    0.000    0.000 
#    0.000    0.000    0.000    0.000    0.000    0.000 
#
# Total GULP energy -66958.146221 kJ/mol
# GULP energy per Si atom -5579.845518 kJ/mol
# Density = 2.192451 g / cm^3
# Si number density = 21.974524 Si / 1000 Ang^3
#
#
#
# Elastic Constant Matrix: (Units=GPa)
#
#
# Indices 1 2 3 4 5 6 
#
# 1 150.2565 20.2056 23.5621 8.9102 -4.4657 1.2244
# 2 20.2056 49.3825 35.8285 16.4712 -5.6307 3.3281
# 3 23.5621 35.8285 109.8598 17.3059 -12.0259 4.3426
# 4 8.9102 16.4712 17.3059 31.6499 -10.5317 -6.0305
# 5 -4.4657 -5.6307 -12.0259 -10.5317 30.6381 -0.0507
# 6 1.2244 3.3281 4.3426 -6.0305 -0.0507 35.7554
#
#
#
# Elastic Compliance Matrix: (Units=1/GPa)
#
#
# Indices 1 2 3 4 5 6 
#
# 1 0.007096 -0.002239 -0.000709 -0.000376 0.000216 -0.000012
# 2 -0.002239 0.031049 -0.007698 -0.012765 -0.002036 -0.004034
# 3 -0.000709 -0.007698 0.012400 -0.001881 0.002701 -0.001079
# 4 -0.000376 -0.012765 -0.001881 0.045237 0.012426 0.009077
# 5 0.000216 -0.002036 0.002701 0.012426 0.037631 0.002003
# 6 -0.000012 -0.004034 -0.001079 0.009077 0.002003 0.030008
#
#
# Mechanical properties :
#
#
# Convention : Reuss Voigt Hill
#
# Bulk Modulus (GPa) = 34.18413 52.07682 43.13047
# Shear Modulus (GPa) = 25.71164 34.93552 30.32358
#
# Velocity S-wave (km/s) = 3.42433 3.99158 3.71879
# Velocity P-wave (km/s) = 5.58791 6.70774 6.17327
#
# Compressibility (1/GPa) = 0.02925334
#
# Stress axis : x y z
#
# Youngs Moduli (GPa) = 140.91971 32.20728 80.64688
#
# Poissons Ratio (x) = 0.07210 0.05715
# Poissons Ratio (y) = 0.31548 0.62085
# Poissons Ratio (z) = 0.09986 0.24794
#
# Static dielectric constant tensor:
#      x y z
#    x 1.960140 -0.032930 0.006790 
#    y -0.032930 1.859570 0.041700 
#    z 0.006790 0.041700 1.808860 
# 
# From -- ./inp_files/362318.got.cif
#   From: 2010.05.17/outbox.cif.g08.bks.cpg/sg2_182_cif.got.tgz:362318.got - 2010.06.03 11:33:40.
