data_PCOD9020855
_publ_section_title
;
Structure prediction by ZEFSAII (Michael W. Deem and Ramdas Pophale) SiO2 
 PCOD9020855
Probable space group: P -1
;
_chemical_formula_sum "Si O2"
_cell_formula_units_Z 14
_cell_length_a 17.428103
_cell_length_b 6.629875
_cell_length_c 14.162607
_cell_angle_alpha 130.211829
_cell_angle_beta 147.731217
_cell_angle_gamma 64.456677
_cell_volume 640.245615
_symmetry_space_group_name_H-M "P -1"
_symmetry_group_IT_number 2
_symmetry_cell_setting 'triclinic'
loop_
_space_group_symop_operation_xyz
x,y,z
-x,-y,-z
loop_
_atom_site_type_symbol
_atom_site_label
_atom_site_fract_x
_atom_site_fract_y
_atom_site_fract_z
Si Si1 0.053452 0.307239 0.270841
Si Si2 0.478118 0.031246 0.344707
Si Si3 0.215653 0.468249 0.926683
Si Si4 0.345353 0.433715 0.240813
Si Si5 0.104194 0.343317 0.115818
Si Si6 0.404887 0.190183 0.914348
Si Si7 0.331641 0.244641 0.648936
O O1 0.110822 0.398883 0.251739
O O2 0.184087 0.318249 0.484589
O O3 0.942884 0.480739 0.243048
O O4 0.962461 0.985234 0.067590
O O5 0.425112 0.193079 0.252673
O O6 0.532313 0.270135 0.551101
O O7 0.623543 0.941275 0.440547
O O8 0.340269 0.765517 0.137955
O O9 0.275208 0.253359 0.862904
O O10 0.223343 0.388825 0.019592
O O11 0.262298 0.425908 0.251788
O O12 0.000000 0.500000 0.000000
O O13 0.333069 0.108701 0.711786
O O14 0.530702 0.481339 0.123811
O O15 0.500000 0.000000 0.000000
#
# Coordination Sequence:
#
# PCOD9020855 Si02
#       7
#     2   2   2   2   2   2   2
#     4  11  24  39  62  94 128 168 199 255 317 368
#     4  10  22  37  60  91 125 167 205 255 303 367
#     4  11  22  40  63  91 129 160 207 261 310 364
#     4  11  21  36  62  93 125 168 210 247 301 374
#     4  11  22  38  58  91 136 167 202 240 304 380
#     4  10  23  45  67  88 116 163 216 264 306 366
#     4  10  23  42  64  89 123 162 209 257 315 365
#
# _framework density 21.866606999999998
#
# number of rings (size 3 to 8) (size 9 to 14) (size 15 to 20)
#    0.000    1.429    2.857    2.143    2.000    7.429 
#    0.000    0.714    0.000    0.000    0.000    0.000 
#    0.000    0.000    0.000    0.000    0.000    0.000 
#
# Total GULP energy -78188.155454 kJ/mol
# GULP energy per Si atom -5584.868247 kJ/mol
# Density = 2.181684 g / cm^3
# Si number density = 21.866607 Si / 1000 Ang^3
#
#
#
# Elastic Constant Matrix: (Units=GPa)
#
#
# Indices 1 2 3 4 5 6 
#
# 1 100.4822 45.2884 21.0757 -25.2524 8.2068 -9.1052
# 2 45.2884 120.5040 9.4273 -44.8942 0.1790 -13.9225
# 3 21.0757 9.4273 44.4001 -38.1231 2.1380 -3.6924
# 4 -25.2524 -44.8942 -38.1231 57.5622 -0.2135 10.8489
# 5 8.2068 0.1790 2.1380 -0.2135 23.7037 -10.8487
# 6 -9.1052 -13.9225 -3.6924 10.8489 -10.8487 34.1935
#
#
#
# Elastic Compliance Matrix: (Units=1/GPa)
#
#
# Indices 1 2 3 4 5 6 
#
# 1 0.013849 -0.006402 -0.009666 -0.005448 -0.003645 0.000609
# 2 -0.006402 0.018647 0.021146 0.025710 0.000475 0.000165
# 3 -0.009666 0.021146 0.079208 0.066343 -0.007389 -0.008804
# 4 -0.005448 0.025710 0.066343 0.081308 -0.009313 -0.012570
# 5 -0.003645 0.000475 -0.007389 -0.009313 0.052246 0.017956
# 6 0.000609 0.000165 -0.008804 -0.012570 0.017956 0.038209
#
#
# Mechanical properties :
#
#
# Convention : Reuss Voigt Hill
#
# Bulk Modulus (GPa) = 8.20612 46.32989 27.26801
# Shear Modulus (GPa) = 15.92703 35.73155 25.82929
#
# Velocity S-wave (km/s) = 2.70177 4.04675 3.44062
# Velocity P-wave (km/s) = 3.67337 6.56265 5.31799
#
# Compressibility (1/GPa) = 0.12186026
#
# Stress axis : x y z
#
# Youngs Moduli (GPa) = 72.20873 53.62749 12.62494
#
# Poissons Ratio (x) = 0.34334 0.12203
# Poissons Ratio (y) = 0.46231 -0.26697
# Poissons Ratio (z) = 0.69795 -1.13402
#
# Static dielectric constant tensor:
#      x y z
#    x 1.822400 0.014870 -0.005950 
#    y 0.014870 1.853980 0.008120 
#    z -0.005950 0.008120 1.797400 
# 
# From -- ./inp_files/76000.got.cif
#   From: 2010.05.17/outbox.cif.g08.bks.cpg/sg2_38_cif.got.tgz:76000.got - 2010.06.03 11:33:40.
