data_PCOD9020014
_publ_section_title
;
Structure prediction by ZEFSAII (Michael W. Deem and Ramdas Pophale) SiO2 
 PCOD9020014
Probable space group: P -1
;
_chemical_formula_sum "Si O2"
_cell_formula_units_Z 14
_cell_length_a 9.393463
_cell_length_b 7.257435
_cell_length_c 12.372400
_cell_angle_alpha 108.472729
_cell_angle_beta 48.680004
_cell_angle_gamma 90.829365
_cell_volume 577.938770
_symmetry_space_group_name_H-M "P -1"
_symmetry_group_IT_number 2
_symmetry_cell_setting 'triclinic'
loop_
_space_group_symop_operation_xyz
x,y,z
-x,-y,-z
loop_
_atom_site_type_symbol
_atom_site_label
_atom_site_fract_x
_atom_site_fract_y
_atom_site_fract_z
Si Si1 0.594577 0.947487 0.304131
Si Si2 0.786827 0.264923 0.343900
Si Si3 0.822382 0.789153 0.956723
Si Si4 0.777052 0.388588 0.810488
Si Si5 0.188703 0.099327 0.602900
Si Si6 0.421253 0.829317 0.950697
Si Si7 0.764964 0.506701 0.609260
O O1 0.719974 0.804307 0.125470
O O2 0.682270 0.841372 0.353827
O O3 0.639487 0.164914 0.336285
O O4 0.362046 0.995432 0.414829
O O5 0.723395 0.439285 0.496976
O O6 0.890664 0.078678 0.338606
O O7 0.943837 0.293111 0.184364
O O8 0.760355 0.024382 0.996466
O O9 0.753045 0.625306 0.889687
O O10 0.731817 0.371221 0.703456
O O11 0.006581 0.270939 0.686685
O O12 0.658717 0.302319 0.945141
O O13 0.595026 0.709296 0.761903
O O14 0.500000 0.000000 0.000000
O O15 0.000000 0.500000 0.500000
#
# Coordination Sequence:
#
# PCOD9020014 Si02
#       7
#     2   2   2   2   2   2   2
#     4   9  22  43  72 101 138 185 227 289 340 408
#     4  10  21  46  65 101 141 174 232 282 333 416
#     4  12  24  44  71 100 142 179 234 282 349 410
#     4  12  26  44  72 103 138 189 225 289 354 405
#     4   9  22  44  68 103 136 177 235 276 350 404
#     4  12  26  47  67 106 141 182 235 284 349 417
#     4  12  26  45  70 104 141 176 236 286 345 420
#
# _framework density 24.224021
#
# number of rings (size 3 to 8) (size 9 to 14) (size 15 to 20)
#    0.857    0.286    4.286    0.857    4.000    1.143 
#    0.000    4.286    0.000    0.000    0.000    0.000 
#    0.000    0.000    0.000    0.000    0.000    0.000 
#
# Total GULP energy -78056.639320 kJ/mol
# GULP energy per Si atom -5575.474237 kJ/mol
# Density = 2.416889 g / cm^3
# Si number density = 24.224021 Si / 1000 Ang^3
#
#
#
# Elastic Constant Matrix: (Units=GPa)
#
#
# Indices 1 2 3 4 5 6 
#
# 1 42.3769 8.9262 52.3131 15.5156 -7.3228 6.3181
# 2 8.9262 70.2690 39.4568 6.4726 -9.4787 -2.5311
# 3 52.3131 39.4568 221.0407 16.6394 3.3084 15.1793
# 4 15.5156 6.4726 16.6394 42.5008 -2.7199 -0.2350
# 5 -7.3228 -9.4787 3.3084 -2.7199 32.0011 3.6906
# 6 6.3181 -2.5311 15.1793 -0.2350 3.6906 38.4878
#
#
#
# Elastic Compliance Matrix: (Units=1/GPa)
#
#
# Indices 1 2 3 4 5 6 
#
# 1 0.040818 0.002209 -0.009104 -0.011026 0.010464 -0.004036
# 2 0.002209 0.016943 -0.003622 -0.001603 0.005573 0.001636
# 3 -0.009104 -0.003622 0.007416 0.000727 -0.003710 -0.001308
# 4 -0.011026 -0.001603 0.000727 0.027463 -0.000932 0.001675
# 5 0.010464 0.005573 -0.003710 -0.000932 0.035984 -0.003344
# 6 -0.004036 0.001636 -0.001308 0.001675 -0.003344 0.027599
#
#
# Mechanical properties :
#
#
# Convention : Reuss Voigt Hill
#
# Bulk Modulus (GPa) = 22.65435 59.45320 41.05378
# Shear Modulus (GPa) = 26.04542 38.13063 32.08803
#
# Velocity S-wave (km/s) = 3.28257 3.97178 3.64350
# Velocity P-wave (km/s) = 4.87230 6.75498 5.88936
#
# Compressibility (1/GPa) = 0.04414162
#
# Stress axis : x y z
#
# Youngs Moduli (GPa) = 24.49897 59.02234 134.84553
#
# Poissons Ratio (x) = -0.13036 1.22764
# Poissons Ratio (y) = -0.05411 0.48844
# Poissons Ratio (z) = 0.22304 0.21379
#
# Static dielectric constant tensor:
#      x y z
#    x 1.964190 -0.046390 -0.011570 
#    y -0.046390 1.990950 -0.016660 
#    z -0.011570 -0.016660 1.961600 
# 
# From -- ./inp_files/513513.got.cif
#   From: 2010.05.17/outbox.cif.g08.bks.cpg/sg2_257_cif.got.tgz:513513.got - 2010.06.03 11:33:40.
