data_PCOD9020448
_publ_section_title
;
Structure prediction by ZEFSAII (Michael W. Deem and Ramdas Pophale) SiO2 
 PCOD9020448
Probable space group: P -1
;
_chemical_formula_sum "Si O2"
_cell_formula_units_Z 14
_cell_length_a 17.683301
_cell_length_b 9.782695
_cell_length_c 15.816890
_cell_angle_alpha 95.764801
_cell_angle_beta 145.843819
_cell_angle_gamma 54.432841
_cell_volume 689.530068
_symmetry_space_group_name_H-M "P -1"
_symmetry_group_IT_number 2
_symmetry_cell_setting 'triclinic'
loop_
_space_group_symop_operation_xyz
x,y,z
-x,-y,-z
loop_
_atom_site_type_symbol
_atom_site_label
_atom_site_fract_x
_atom_site_fract_y
_atom_site_fract_z
Si Si1 0.595708 0.115000 0.954292
Si Si2 0.365577 0.249301 0.012835
Si Si3 0.713173 0.316565 0.606012
Si Si4 0.634805 0.225714 0.367262
Si Si5 0.835912 0.146729 0.268526
Si Si6 0.982903 0.360661 0.444923
Si Si7 0.603450 0.270772 0.806707
O O1 0.500000 0.500000 0.000000
O O2 0.651860 0.900116 0.001893
O O3 0.294087 0.435641 0.743439
O O4 0.568395 0.181600 0.835303
O O5 0.894177 0.461938 0.270498
O O6 0.685404 0.992370 0.248057
O O7 0.427348 0.285573 0.155126
O O8 0.500000 0.500000 0.500000
O O9 0.677148 0.216102 0.505263
O O10 0.056352 0.026268 0.927263
O O11 0.607938 0.533718 0.458370
O O12 0.959651 0.938577 0.605166
O O13 0.474175 0.513343 0.205423
O O14 0.835971 0.000150 0.210937
O O15 0.000000 0.000000 0.500000
O O16 0.000000 0.500000 0.500000
#
# Coordination Sequence:
#
# PCOD9020448 Si02
#       7
#     2   2   2   2   2   2   2
#     4  11  21  40  57  86 120 162 205 250 291 345
#     4  11  24  37  58  83 123 166 203 243 292 350
#     4  10  22  41  68  89 115 150 200 256 314 373
#     4  10  24  39  61  90 122 154 211 240 304 362
#     4  12  24  35  56  84 124 163 200 246 285 337
#     4  10  22  36  52  80 120 168 207 232 280 346
#     4  10  22  37  64  89 117 146 204 248 311 353
#
# _framework density 20.303684000000001
#
# number of rings (size 3 to 8) (size 9 to 14) (size 15 to 20)
#    0.857    0.571    1.429    4.714    2.000    9.143 
#    0.000    0.000    0.000    1.714    0.000    0.000 
#    0.000    0.000    0.000    0.000    0.000    0.000 
#
# Total GULP energy -78055.628329 kJ/mol
# GULP energy per Si atom -5575.402023 kJ/mol
# Density = 2.025747 g / cm^3
# Si number density = 20.303684 Si / 1000 Ang^3
#
#
#
# Elastic Constant Matrix: (Units=GPa)
#
#
# Indices 1 2 3 4 5 6 
#
# 1 80.9335 36.4506 11.9346 1.7643 4.9369 1.4489
# 2 36.4506 74.4037 31.7912 -0.3105 8.6049 13.6009
# 3 11.9346 31.7912 85.0699 15.0037 -4.7338 16.9376
# 4 1.7643 -0.3105 15.0037 47.0417 7.4021 -0.7592
# 5 4.9369 8.6049 -4.7338 7.4021 30.0917 3.6654
# 6 1.4489 13.6009 16.9376 -0.7592 3.6654 28.0621
#
#
#
# Elastic Compliance Matrix: (Units=1/GPa)
#
#
# Indices 1 2 3 4 5 6 
#
# 1 0.016162 -0.008646 0.000453 -0.000709 -0.000312 0.003104
# 2 -0.008646 0.022428 -0.007140 0.003672 -0.006390 -0.005180
# 3 0.000453 -0.007140 0.017690 -0.007023 0.007502 -0.008410
# 4 -0.000709 0.003672 -0.007023 0.024988 -0.008710 0.004309
# 5 -0.000312 -0.006390 0.007502 -0.008710 0.039259 -0.006778
# 6 0.003104 -0.005180 -0.008410 0.004309 -0.006778 0.044064
#
#
# Mechanical properties :
#
#
# Convention : Reuss Voigt Hill
#
# Bulk Modulus (GPa) = 39.04040 44.52885 41.78463
# Shear Modulus (GPa) = 24.53456 31.72116 28.12786
#
# Velocity S-wave (km/s) = 3.47995 3.95693 3.72608
# Velocity P-wave (km/s) = 5.95119 6.54640 6.25588
#
# Compressibility (1/GPa) = 0.02561449
#
# Stress axis : x y z
#
# Youngs Moduli (GPa) = 61.87489 44.58735 56.52795
#
# Poissons Ratio (x) = 0.38548 -0.02562
# Poissons Ratio (y) = 0.53494 0.40363
# Poissons Ratio (z) = -0.02804 0.31837
#
# Static dielectric constant tensor:
#      x y z
#    x 1.743220 0.073000 0.028190 
#    y 0.073000 2.222690 0.176700 
#    z 0.028190 0.176700 1.869220 
# 
# From -- ./inp_files/515799.got.cif
#   From: 2010.05.17/outbox.cif.g08.bks.cpg/sg2_258_cif.got.tgz:515799.got - 2010.06.03 11:33:40.
