data_PCOD9020696
_publ_section_title
;
Structure prediction by ZEFSAII (Michael W. Deem and Ramdas Pophale) SiO2 
 PCOD9020696
Probable space group: P -1
;
_chemical_formula_sum "Si O2"
_cell_formula_units_Z 16
_cell_length_a 15.003463
_cell_length_b 12.415242
_cell_length_c 14.771405
_cell_angle_alpha 29.329833
_cell_angle_beta 40.387457
_cell_angle_gamma 28.705535
_cell_volume 647.298521
_symmetry_space_group_name_H-M "P -1"
_symmetry_group_IT_number 2
_symmetry_cell_setting 'triclinic'
loop_
_space_group_symop_operation_xyz
x,y,z
-x,-y,-z
loop_
_atom_site_type_symbol
_atom_site_label
_atom_site_fract_x
_atom_site_fract_y
_atom_site_fract_z
Si Si1 0.785720 0.692765 0.164628
Si Si2 0.712953 0.706662 0.560851
Si Si3 0.435419 0.814202 0.353508
Si Si4 0.987550 0.280263 0.905019
Si Si5 0.205989 0.090297 0.495594
Si Si6 0.911580 0.893007 0.705535
Si Si7 0.152005 0.691237 0.429161
Si Si8 0.282565 0.685248 0.012438
O O1 0.571035 0.871131 0.180950
O O2 0.804242 0.513642 0.370043
O O3 0.891264 0.796242 0.043529
O O4 0.911561 0.451407 0.166360
O O5 0.791097 0.840857 0.452191
O O6 0.773469 0.522010 0.557897
O O7 0.748299 0.482368 0.772101
O O8 0.500000 0.000000 0.500000
O O9 0.500000 0.500000 0.500000
O O10 0.393449 0.857849 0.462915
O O11 0.239345 0.059422 0.276070
O O12 0.898134 0.597438 0.703130
O O13 0.811519 0.301505 0.017962
O O14 0.148918 0.023307 0.900470
O O15 0.066842 0.043005 0.617970
O O16 0.798787 0.120780 0.708950
O O17 0.000000 0.000000 0.500000
O O18 0.500000 0.500000 0.000000
#
# Coordination Sequence:
#
# PCOD9020696 Si02
#       8
#     2   2   2   2   2   2   2   2
#     4  10  19  31  58  83 116 148 196 244 281 345
#     4  11  24  36  54  88 119 152 190 236 302 356
#     4  12  18  28  53  85 120 153 193 240 295 330
#     4   9  20  38  58  82 112 147 204 239 285 334
#     4  10  20  34  55  84 115 157 194 231 293 347
#     4  10  17  31  47  81 114 152 186 237 287 338
#     4  10  18  34  50  75 124 150 178 234 290 346
#     4  10  23  40  62  81 114 156 200 242 284 350
#
# _framework density 24.718115999999998
#
# number of rings (size 3 to 8) (size 9 to 14) (size 15 to 20)
#    0.000    1.750    6.250    1.125    7.000    0.000 
#    2.250    0.000    0.000    0.750    0.000    1.750 
#    0.000    0.000    0.000    0.000    0.000    0.000 
#
# Total GULP energy -89080.074366 kJ/mol
# GULP energy per Si atom -5567.504648 kJ/mol
# Density = 2.466186 g / cm^3
# Si number density = 24.718116 Si / 1000 Ang^3
#
#
#
# Elastic Constant Matrix: (Units=GPa)
#
#
# Indices 1 2 3 4 5 6 
#
# 1 162.6763 56.4673 13.9825 3.9814 -19.6468 -4.2371
# 2 56.4673 138.3323 5.9182 -7.5351 -7.6820 4.2132
# 3 13.9825 5.9182 37.0734 9.7585 6.0281 8.3149
# 4 3.9814 -7.5351 9.7585 22.7085 2.5514 -3.1451
# 5 -19.6468 -7.6820 6.0281 2.5514 30.4542 3.2282
# 6 -4.2371 4.2132 8.3149 -3.1451 3.2282 55.1984
#
#
#
# Elastic Compliance Matrix: (Units=1/GPa)
#
#
# Indices 1 2 3 4 5 6 
#
# 1 0.008160 -0.003014 -0.003265 -0.001476 0.005172 0.000962
# 2 -0.003014 0.008748 -0.001195 0.003848 0.000231 -0.000513
# 3 -0.003265 -0.001195 0.034788 -0.014741 -0.007443 -0.005804
# 4 -0.001476 0.003848 -0.014741 0.052817 -0.002012 0.004941
# 5 0.005172 0.000231 -0.007443 -0.002012 0.037961 -0.000834
# 6 0.000962 -0.000513 -0.005804 0.004941 -0.000834 0.019434
#
#
# Mechanical properties :
#
#
# Convention : Reuss Voigt Hill
#
# Bulk Modulus (GPa) = 27.21164 54.53533 40.87349
# Shear Modulus (GPa) = 26.44043 39.11981 32.78012
#
# Velocity S-wave (km/s) = 3.27414 3.98255 3.64560
# Velocity P-wave (km/s) = 5.03250 6.57711 5.85596
#
# Compressibility (1/GPa) = 0.03674898
#
# Stress axis : x y z
#
# Youngs Moduli (GPa) = 122.55545 114.30782 28.74573
#
# Poissons Ratio (x) = 0.34447 0.09384
# Poissons Ratio (y) = 0.36933 0.03436
# Poissons Ratio (z) = 0.40009 0.13663
#
# Static dielectric constant tensor:
#      x y z
#    x 2.170750 -0.022750 -0.064920 
#    y -0.022750 1.993990 0.119550 
#    z -0.064920 0.119550 1.899450 
# 
# From -- ./inp_files/531636.got.cif
#   From: 2010.05.17/outbox.cif.g08.bks.cpg/sg2_266_cif.got.tgz:531636.got - 2010.06.03 11:33:40.
