data_PCOD9020207
_publ_section_title
;
Structure prediction by ZEFSAII (Michael W. Deem and Ramdas Pophale) SiO2 
 PCOD9020207
Probable space group: P -1
;
_chemical_formula_sum "Si O2"
_cell_formula_units_Z 12
_cell_length_a 7.673158
_cell_length_b 13.325737
_cell_length_c 8.773776
_cell_angle_alpha 77.054821
_cell_angle_beta 122.451395
_cell_angle_gamma 137.462792
_cell_volume 488.174548
_symmetry_space_group_name_H-M "P -1"
_symmetry_group_IT_number 2
_symmetry_cell_setting 'triclinic'
loop_
_space_group_symop_operation_xyz
x,y,z
-x,-y,-z
loop_
_atom_site_type_symbol
_atom_site_label
_atom_site_fract_x
_atom_site_fract_y
_atom_site_fract_z
Si Si1 0.890269 0.204175 0.217397
Si Si2 0.156118 0.953002 0.026108
Si Si3 0.249033 0.484543 0.081805
Si Si4 0.276580 0.640831 0.306452
Si Si5 0.796715 0.577399 0.436907
Si Si6 0.293339 0.843923 0.362868
O O1 0.968749 0.326054 0.097914
O O2 0.135267 0.314680 0.431097
O O3 0.536980 0.088997 0.149818
O O4 0.933665 0.118667 0.162497
O O5 0.083498 0.834890 0.154593
O O6 0.000000 0.000000 0.000000
O O7 0.369124 0.621499 0.198366
O O8 0.523241 0.505589 0.217612
O O9 0.087818 0.464257 0.861914
O O10 0.273247 0.555363 0.467097
O O11 0.462055 0.816323 0.358278
O O12 0.108401 0.705211 0.443454
O O13 0.500000 0.000000 0.500000
#
# Coordination Sequence:
#
# PCOD9020207 Si02
#       6
#     2   2   2   2   2   2
#     4  10  21  47  70  99 151 180 238 307 341 431
#     4  11  25  44  73 103 143 196 239 289 368 427
#     4  10  22  43  74 102 135 189 244 286 367 420
#     4  10  22  43  69 100 143 182 231 303 351 420
#     4  11  24  44  74 103 140 187 238 297 364 423
#     4  12  25  46  64 104 145 181 241 295 354 427
#
# _framework density 24.58137
#
# number of rings (size 3 to 8) (size 9 to 14) (size 15 to 20)
#    0.000    1.333    3.333    2.500    0.000    7.333 
#    6.000    1.667    0.000    0.000    0.000    0.000 
#    0.000    0.000    0.000    0.000    0.000    0.000 
#
# Total GULP energy -66966.173344 kJ/mol
# GULP energy per Si atom -5580.514445 kJ/mol
# Density = 2.452542 g / cm^3
# Si number density = 24.581370 Si / 1000 Ang^3
#
#
#
# Elastic Constant Matrix: (Units=GPa)
#
#
# Indices 1 2 3 4 5 6 
#
# 1 133.4042 40.4606 40.4642 4.3828 -11.8695 -29.8326
# 2 40.4606 51.4221 -1.3616 18.9257 -5.8686 -16.3701
# 3 40.4642 -1.3616 98.7469 16.1061 3.7747 -13.5708
# 4 4.3828 18.9257 16.1061 24.9050 -4.4930 -9.6586
# 5 -11.8695 -5.8686 3.7747 -4.4930 39.3964 8.6986
# 6 -29.8326 -16.3701 -13.5708 -9.6586 8.6986 37.3163
#
#
#
# Elastic Compliance Matrix: (Units=1/GPa)
#
#
# Indices 1 2 3 4 5 6 
#
# 1 0.017759 -0.019783 -0.010425 0.021926 0.004500 0.006354
# 2 -0.019783 0.053490 0.017333 -0.048337 -0.005782 0.002790
# 3 -0.010425 0.017333 0.018935 -0.024098 -0.005380 0.001172
# 4 0.021926 -0.048337 -0.024098 0.094171 0.010352 0.009522
# 5 0.004500 -0.005782 -0.005380 0.010352 0.028655 -0.004895
# 6 0.006354 0.002790 0.001172 0.009522 -0.004895 0.037133
#
#
# Mechanical properties :
#
#
# Convention : Reuss Voigt Hill
#
# Bulk Modulus (GPa) = 15.51990 49.18882 32.35436
# Shear Modulus (GPa) = 16.81394 33.92422 25.36908
#
# Velocity S-wave (km/s) = 2.61820 3.71897 3.21603
# Velocity P-wave (km/s) = 3.93285 6.20444 5.19434
#
# Compressibility (1/GPa) = 0.06443339
#
# Stress axis : x y z
#
# Youngs Moduli (GPa) = 56.30885 18.69499 52.81174
#
# Poissons Ratio (x) = 0.36984 0.55057
# Poissons Ratio (y) = 1.11396 -0.91536
# Poissons Ratio (z) = 0.58703 -0.32403
#
# Static dielectric constant tensor:
#      x y z
#    x 2.088030 -0.017700 -0.057590 
#    y -0.017700 1.970390 0.045030 
#    z -0.057590 0.045030 2.026380 
# 
# From -- ./inp_files/207130.got.cif
#   From: 2010.05.17/outbox.cif.g08.bks.cpg/sg2_104_cif.got.tgz:207130.got - 2010.06.03 11:33:40.
