data_PCOD9020581
_publ_section_title
;
Structure prediction by ZEFSAII (Michael W. Deem and Ramdas Pophale) SiO2 
 PCOD9020581
Probable space group: P -1
;
_chemical_formula_sum "Si O2"
_cell_formula_units_Z 16
_cell_length_a 12.675238
_cell_length_b 10.816041
_cell_length_c 15.929729
_cell_angle_alpha 142.114791
_cell_angle_beta 139.191512
_cell_angle_gamma 35.303377
_cell_volume 734.836442
_symmetry_space_group_name_H-M "P -1"
_symmetry_group_IT_number 2
_symmetry_cell_setting 'triclinic'
loop_
_space_group_symop_operation_xyz
x,y,z
-x,-y,-z
loop_
_atom_site_type_symbol
_atom_site_label
_atom_site_fract_x
_atom_site_fract_y
_atom_site_fract_z
Si Si1 0.068510 0.420359 0.749835
Si Si2 0.976343 0.039718 0.798182
Si Si3 0.528979 0.918984 0.248658
Si Si4 0.944481 0.084872 0.408671
Si Si5 0.670855 0.230211 0.466208
Si Si6 0.147163 0.056034 0.162886
Si Si7 0.654222 0.993371 0.986976
Si Si8 0.751786 0.606740 0.978124
O O1 0.998567 0.260443 0.579260
O O2 0.914828 0.687767 0.773745
O O3 0.274044 0.333656 0.784281
O O4 0.122334 0.397975 0.869110
O O5 0.835088 0.329589 0.859343
O O6 0.173814 0.984653 0.928512
O O7 0.053626 0.903108 0.683126
O O8 0.882015 0.950620 0.758768
O O9 0.600009 0.094198 0.409836
O O10 0.373956 0.895818 0.192788
O O11 0.437851 0.039927 0.168387
O O12 0.756623 0.130716 0.369546
O O13 0.134697 0.822293 0.401193
O O14 0.500000 0.500000 0.500000
O O15 0.000000 0.000000 0.000000
O O16 0.475278 0.235873 0.049677
O O17 0.749608 0.768698 0.987705
#
# Coordination Sequence:
#
# PCOD9020581 Si02
#       8
#     2   2   2   2   2   2   2   2
#     4  10  22  44  64  89 125 171 209 261 312 378
#     4  12  25  39  61  99 128 163 211 267 309 370
#     4  10  22  40  63  93 123 166 211 260 308 374
#     4  10  25  40  63  98 129 161 209 259 322 377
#     4  10  22  41  67  91 129 171 205 250 317 391
#     4  12  23  42  64  91 124 171 219 254 312 373
#     4  10  22  36  61  94 130 161 207 262 324 367
#     4  10  22  38  64  92 131 161 207 265 320 374
#
# _framework density 21.773551999999999
#
# number of rings (size 3 to 8) (size 9 to 14) (size 15 to 20)
#    0.000    1.500    2.500    1.125   10.500    2.000 
#    0.000    2.500    0.000    0.000    0.000    0.000 
#    0.000    0.000    0.000    0.000    0.000    0.000 
#
# Total GULP energy -89183.999118 kJ/mol
# GULP energy per Si atom -5573.999945 kJ/mol
# Density = 2.172399 g / cm^3
# Si number density = 21.773552 Si / 1000 Ang^3
#
#
#
# Elastic Constant Matrix: (Units=GPa)
#
#
# Indices 1 2 3 4 5 6 
#
# 1 140.6197 -4.5718 22.6190 -8.7888 2.7493 -8.8010
# 2 -4.5718 49.6101 9.6066 -1.3558 -9.4529 -13.7975
# 3 22.6190 9.6066 54.7718 1.9527 -6.2576 1.8706
# 4 -8.7888 -1.3558 1.9527 17.2189 -2.1460 -4.1842
# 5 2.7493 -9.4529 -6.2576 -2.1460 29.5699 -10.3141
# 6 -8.8010 -13.7975 1.8706 -4.1842 -10.3141 24.6777
#
#
#
# Elastic Compliance Matrix: (Units=1/GPa)
#
#
# Indices 1 2 3 4 5 6 
#
# 1 0.009153 0.005495 -0.004937 0.008527 0.003892 0.009784
# 2 0.005495 0.037474 -0.008024 0.018552 0.023902 0.036656
# 3 -0.004937 -0.008024 0.022169 -0.008269 -0.001486 -0.009951
# 4 0.008527 0.018552 -0.008269 0.076232 0.021454 0.035933
# 5 0.003892 0.023902 -0.001486 0.021454 0.057121 0.042376
# 6 0.009784 0.036656 -0.009951 0.035933 0.042376 0.089064
#
#
# Mechanical properties :
#
#
# Convention : Reuss Voigt Hill
#
# Bulk Modulus (GPa) = 18.56559 33.36767 25.96663
# Shear Modulus (GPa) = 15.42731 28.78316 22.10524
#
# Velocity S-wave (km/s) = 2.66472 3.63978 3.18973
# Velocity P-wave (km/s) = 4.24415 5.74649 5.05148
#
# Compressibility (1/GPa) = 0.05386310
#
# Stress axis : x y z
#
# Youngs Moduli (GPa) = 109.24833 26.68546 45.10829
#
# Poissons Ratio (x) = -0.14665 0.22272
# Poissons Ratio (y) = -0.60037 0.36197
# Poissons Ratio (z) = 0.53940 0.21414
#
# Static dielectric constant tensor:
#      x y z
#    x 1.911920 0.000280 -0.005690 
#    y 0.000280 1.800650 -0.000480 
#    z -0.005690 -0.000480 1.864180 
# 
# From -- ./inp_files/516287.got.cif
#   From: 2010.05.17/outbox.cif.g08.bks.cpg/sg2_259_cif.got.tgz:516287.got - 2010.06.03 11:33:40.
