data_PCOD9020562
_publ_section_title
;
Structure prediction by ZEFSAII (Michael W. Deem and Ramdas Pophale) SiO2 
 PCOD9020562
Probable space group: P -1
;
_chemical_formula_sum "Si O2"
_cell_formula_units_Z 15
_cell_length_a 8.807919
_cell_length_b 11.561604
_cell_length_c 9.041156
_cell_angle_alpha 114.678627
_cell_angle_beta 124.369909
_cell_angle_gamma 58.787813
_cell_volume 639.683165
_symmetry_space_group_name_H-M "P -1"
_symmetry_group_IT_number 2
_symmetry_cell_setting 'triclinic'
loop_
_space_group_symop_operation_xyz
x,y,z
-x,-y,-z
loop_
_atom_site_type_symbol
_atom_site_label
_atom_site_fract_x
_atom_site_fract_y
_atom_site_fract_z
Si Si1 0.703862 0.714035 0.388312
Si Si2 0.617885 0.353694 0.406431
Si Si3 0.942280 0.776334 0.304394
Si Si4 0.000000 0.500000 0.000000
Si Si5 0.744486 0.175891 0.915933
Si Si6 0.263963 0.274533 0.238151
Si Si7 0.856836 0.959884 0.092559
Si Si8 0.702385 0.434600 0.169200
O O1 0.816648 0.785585 0.387592
O O2 0.469356 0.772878 0.250903
O O3 0.734875 0.724645 0.583543
O O4 0.784342 0.553246 0.301617
O O5 0.500000 0.500000 0.500000
O O6 0.476394 0.269497 0.294765
O O7 0.654652 0.390339 0.279421
O O8 0.826495 0.271745 0.554597
O O9 0.930474 0.652489 0.129317
O O10 0.863033 0.917412 0.243195
O O11 0.112929 0.418579 0.166552
O O12 0.736929 0.106341 0.032192
O O13 0.813549 0.301548 0.060724
O O14 0.915124 0.075742 0.852259
O O15 0.224237 0.143413 0.090626
O O16 0.500000 0.500000 0.000000
#
# Coordination Sequence:
#
# PCOD9020562 Si02
#       8
#     2   2   2   1   2   2   2   2
#     4  11  24  42  67 105 133 170 213 286 334 389
#     4  12  23  42  62 100 136 175 211 271 336 395
#     4  11  25  39  65  99 137 170 222 268 335 392
#     4  10  22  36  60  94 132 170 212 256 328 390
#     4  10  24  46  71  93 133 175 230 268 332 388
#     4  11  24  41  67  96 134 174 219 272 330 392
#     4  10  25  46  70  94 128 184 224 269 322 408
#     4  10  24  37  69  97 131 165 218 270 332 385
#
# _framework density 23.449110999999998
#
# number of rings (size 3 to 8) (size 9 to 14) (size 15 to 20)
#    0.000    1.333    2.667    0.800   14.933    2.133 
#    0.000    0.667    0.000    0.000    0.000    0.000 
#    0.000    0.000    0.000    0.000    0.000    0.000 
#
# Total GULP energy -83700.908196 kJ/mol
# GULP energy per Si atom -5580.060546 kJ/mol
# Density = 2.339574 g / cm^3
# Si number density = 23.449111 Si / 1000 Ang^3
#
#
#
# Elastic Constant Matrix: (Units=GPa)
#
#
# Indices 1 2 3 4 5 6 
#
# 1 94.3422 -2.3929 44.0815 -15.5042 -2.3404 16.5110
# 2 -2.3929 49.4496 32.6266 -18.1558 9.2804 14.4675
# 3 44.0815 32.6266 128.3408 -46.0320 -10.9997 2.8950
# 4 -15.5042 -18.1558 -46.0320 26.4073 13.7649 -10.7077
# 5 -2.3404 9.2804 -10.9997 13.7649 37.1144 -4.2604
# 6 16.5110 14.4675 2.8950 -10.7077 -4.2604 25.6644
#
#
#
# Elastic Compliance Matrix: (Units=1/GPa)
#
#
# Indices 1 2 3 4 5 6 
#
# 1 0.020329 0.015650 -0.013892 -0.008164 -0.006571 -0.024831
# 2 0.015650 0.055159 -0.007333 0.039698 -0.033061 -0.029261
# 3 -0.013892 -0.007333 0.043203 0.086050 -0.013344 0.041885
# 4 -0.008164 0.039698 0.086050 0.284639 -0.081506 0.078395
# 5 -0.006571 -0.033061 -0.013344 -0.081506 0.061129 0.000511
# 6 -0.024831 -0.029261 0.041885 0.078395 0.000511 0.099502
#
#
# Mechanical properties :
#
#
# Convention : Reuss Voigt Hill
#
# Bulk Modulus (GPa) = 9.29886 46.75143 28.02514
# Shear Modulus (GPa) = 8.18388 31.02504 19.60446
#
# Velocity S-wave (km/s) = 1.87020 3.64136 2.89458
# Velocity P-wave (km/s) = 2.93899 6.13678 4.81133
#
# Compressibility (1/GPa) = 0.10754011
#
# Stress axis : x y z
#
# Youngs Moduli (GPa) = 49.19130 18.12941 23.14677
#
# Poissons Ratio (x) = -0.28373 0.32156
# Poissons Ratio (y) = -0.76985 0.16974
# Poissons Ratio (z) = 0.68338 0.13294
#
# Static dielectric constant tensor:
#      x y z
#    x 1.805160 0.050600 -0.014330 
#    y 0.050600 1.848030 0.022170 
#    z -0.014330 0.022170 1.848610 
# 
# From -- ./inp_files/180674.got.cif
#   From: 2010.05.17/outbox.cif.g08.bks.cpg/sg2_91_cif.got.tgz:180674.got - 2010.06.03 11:33:40.
