data_PCOD9020003
_publ_section_title
;
Structure prediction by ZEFSAII (Michael W. Deem and Ramdas Pophale) SiO2 
 PCOD9020003
Probable space group: P -1
;
_chemical_formula_sum "Si O2"
_cell_formula_units_Z 14
_cell_length_a 7.708522
_cell_length_b 10.046735
_cell_length_c 8.261654
_cell_angle_alpha 85.787994
_cell_angle_beta 57.629136
_cell_angle_gamma 61.667361
_cell_volume 461.406207
_symmetry_space_group_name_H-M "P -1"
_symmetry_group_IT_number 2
_symmetry_cell_setting 'triclinic'
loop_
_space_group_symop_operation_xyz
x,y,z
-x,-y,-z
loop_
_atom_site_type_symbol
_atom_site_label
_atom_site_fract_x
_atom_site_fract_y
_atom_site_fract_z
Si Si1 0.086566 0.132178 0.418563
Si Si2 0.223814 0.375170 0.740985
Si Si3 0.405631 0.580857 0.710409
Si Si4 0.724805 0.175205 0.816295
Si Si5 0.253611 0.369471 0.225318
Si Si6 0.648889 0.083933 0.394687
Si Si7 0.030735 0.164483 0.963969
O O1 0.183787 0.249547 0.351760
O O2 0.806877 0.226502 0.606900
O O3 0.204267 0.006114 0.225496
O O4 0.171268 0.009894 0.538894
O O5 0.275950 0.481860 0.824433
O O6 0.995413 0.489630 0.732972
O O7 0.451669 0.260553 0.522048
O O8 0.171806 0.255144 0.871024
O O9 0.500000 0.500000 0.500000
O O10 0.602163 0.573971 0.736368
O O11 0.165758 0.756828 0.801659
O O12 0.858034 0.211691 0.889281
O O13 0.452690 0.267795 0.001178
O O14 0.500000 0.000000 0.500000
O O15 0.777945 0.016019 0.160767
#
# Coordination Sequence:
#
# PCOD9020003 Si02
#       7
#     2   2   2   2   2   2   2
#     4  10  21  45  79 111 158 210 264 327 392 476
#     4  11  25  49  77 116 157 205 255 328 404 463
#     4  11  27  48  73 118 159 208 261 324 398 470
#     4   9  21  43  75 116 151 208 268 323 398 470
#     4  11  26  48  79 117 161 201 266 335 394 469
#     4   9  21  43  76 104 148 209 254 310 395 460
#     4   9  21  47  77 105 155 211 259 319 393 472
#
# _framework density 30.342030999999999
#
# number of rings (size 3 to 8) (size 9 to 14) (size 15 to 20)
#    0.000    2.000    0.000    0.857    6.000    7.429 
#   10.286    0.714    0.000    3.429    0.000    0.000 
#    0.000    0.000    0.000    0.000    0.000    0.000 
#
# Total GULP energy -78291.328749 kJ/mol
# GULP energy per Si atom -5592.237768 kJ/mol
# Density = 3.027297 g / cm^3
# Si number density = 30.342031 Si / 1000 Ang^3
#
#
#
# Elastic Constant Matrix: (Units=GPa)
#
#
# Indices 1 2 3 4 5 6 
#
# 1 181.5688 86.2190 56.4270 17.0142 -7.3082 8.0366
# 2 86.2190 225.3949 72.4354 50.3098 -5.2094 24.3788
# 3 56.4270 72.4354 283.5472 42.1025 -48.5470 3.0382
# 4 17.0142 50.3098 42.1025 47.4408 -4.3376 0.1164
# 5 -7.3082 -5.2094 -48.5470 -4.3376 48.1121 5.7790
# 6 8.0366 24.3788 3.0382 0.1164 5.7790 62.3006
#
#
#
# Elastic Compliance Matrix: (Units=1/GPa)
#
#
# Indices 1 2 3 4 5 6 
#
# 1 0.006915 -0.002625 -0.000874 0.001075 -0.000040 0.000179
# 2 -0.002625 0.007261 -0.000406 -0.006421 -0.000307 -0.002443
# 3 -0.000874 -0.000406 0.005119 -0.003365 0.004735 -0.000411
# 4 0.001075 -0.006421 -0.003365 0.030346 -0.001507 0.002621
# 5 -0.000040 -0.000307 0.004735 -0.001507 0.025685 -0.002485
# 6 0.000179 -0.002443 -0.000411 0.002621 -0.002485 0.017230
#
#
# Mechanical properties :
#
#
# Convention : Reuss Voigt Hill
#
# Bulk Modulus (GPa) = 87.05529 124.51930 105.78730
# Shear Modulus (GPa) = 47.98742 63.26599 55.62671
#
# Velocity S-wave (km/s) = 3.98118 4.57124 4.28638
# Velocity P-wave (km/s) = 7.06305 8.30598 7.70960
#
# Compressibility (1/GPa) = 0.01148695
#
# Stress axis : x y z
#
# Youngs Moduli (GPa) = 144.60869 137.71527 195.34729
#
# Poissons Ratio (x) = 0.36144 0.17076
# Poissons Ratio (y) = 0.37953 0.07925
# Poissons Ratio (z) = 0.12640 0.05587
#
# Static dielectric constant tensor:
#      x y z
#    x 3.046170 -0.131780 -0.042150 
#    y -0.131780 2.557450 -0.033480 
#    z -0.042150 -0.033480 2.615740 
# 
# From -- ./inp_files/248798.got.cif
#   From: 2010.05.17/outbox.cif.g08.bks.cpg/sg2_125_cif.got.tgz:248798.got - 2010.06.03 11:33:40.
