data_PCOD9020163
_publ_section_title
;
Structure prediction by ZEFSAII (Michael W. Deem and Ramdas Pophale) SiO2 
 PCOD9020163
Probable space group: P -1
;
_chemical_formula_sum "Si O2"
_cell_formula_units_Z 14
_cell_length_a 14.293046
_cell_length_b 19.635849
_cell_length_c 6.456498
_cell_angle_alpha 79.101433
_cell_angle_beta 100.618674
_cell_angle_gamma 161.746726
_cell_volume 557.266070
_symmetry_space_group_name_H-M "P -1"
_symmetry_group_IT_number 2
_symmetry_cell_setting 'triclinic'
loop_
_space_group_symop_operation_xyz
x,y,z
-x,-y,-z
loop_
_atom_site_type_symbol
_atom_site_label
_atom_site_fract_x
_atom_site_fract_y
_atom_site_fract_z
Si Si1 0.832241 0.662778 0.448943
Si Si2 0.251103 0.723881 0.884070
Si Si3 0.733536 0.017131 0.191458
Si Si4 0.821631 0.755846 0.043455
Si Si5 0.372044 0.699424 0.595075
Si Si6 0.726742 0.802858 0.660005
Si Si7 0.148404 0.746720 0.495035
O O1 0.861171 0.756588 0.294374
O O2 0.499703 0.404587 0.437657
O O3 0.013522 0.725819 0.376015
O O4 0.987598 0.768915 0.673834
O O5 0.388589 0.772294 0.725069
O O6 0.095862 0.684338 0.746134
O O7 0.518510 0.922116 0.039769
O O8 0.000000 0.500000 0.000000
O O9 0.507007 0.821152 0.365525
O O10 0.895897 0.081430 0.053794
O O11 0.500000 0.500000 0.000000
O O12 0.798474 0.815465 0.899988
O O13 0.563341 0.761892 0.670656
O O14 0.029084 0.435563 0.595426
O O15 0.000000 0.000000 0.500000
O O16 0.500000 0.000000 0.500000
#
# Coordination Sequence:
#
# PCOD9020163 Si02
#       7
#     2   2   2   2   2   2   2
#     4  10  25  44  69 107 138 183 239 290 350 427
#     4  12  27  46  72 103 139 193 241 286 360 416
#     4  12  23  45  70 101 146 184 241 291 345 428
#     4  10  22  44  72 103 140 182 232 287 358 420
#     4  11  24  45  72 106 142 183 238 296 349 426
#     4  10  21  46  76 107 141 182 234 293 358 420
#     4  11  23  45  71 101 143 177 238 299 353 413
#
# _framework density 25.122647000000001
#
# number of rings (size 3 to 8) (size 9 to 14) (size 15 to 20)
#    0.000    1.143    2.857    3.000    2.000    2.857 
#   10.286    4.286    0.000    0.000    0.000    0.000 
#    0.000    0.000    0.000    0.000    0.000    0.000 
#
# Total GULP energy -78227.719487 kJ/mol
# GULP energy per Si atom -5587.694249 kJ/mol
# Density = 2.506547 g / cm^3
# Si number density = 25.122647 Si / 1000 Ang^3
#
#
#
# Elastic Constant Matrix: (Units=GPa)
#
#
# Indices 1 2 3 4 5 6 
#
# 1 99.6636 25.7951 58.3129 -2.3800 23.0599 6.4019
# 2 25.7951 174.8517 49.4457 2.4230 -1.4879 -6.4610
# 3 58.3129 49.4457 94.7219 11.2504 28.7814 -4.7382
# 4 -2.3800 2.4230 11.2504 57.7914 3.7642 -6.4926
# 5 23.0599 -1.4879 28.7814 3.7642 45.8992 0.4972
# 6 6.4019 -6.4610 -4.7382 -6.4926 0.4972 33.0758
#
#
#
# Elastic Compliance Matrix: (Units=1/GPa)
#
#
# Indices 1 2 3 4 5 6 
#
# 1 0.016835 0.000232 -0.010332 0.002361 -0.002120 -0.004198
# 2 0.000232 0.007089 -0.004805 0.000527 0.003075 0.000709
# 3 -0.010332 -0.004805 0.022778 -0.003652 -0.008989 0.003742
# 4 0.002361 0.000527 -0.003652 0.018426 -0.000420 0.002746
# 5 -0.002120 0.003075 -0.008989 -0.000420 0.028632 -0.000790
# 6 -0.004198 0.000709 0.003742 0.002746 -0.000790 0.032272
#
#
# Mechanical properties :
#
#
# Convention : Reuss Voigt Hill
#
# Bulk Modulus (GPa) = 59.19384 70.70498 64.94941
# Shear Modulus (GPa) = 30.96541 43.06549 37.01545
#
# Velocity S-wave (km/s) = 3.51461 4.14479 3.84264
# Velocity P-wave (km/s) = 6.33112 7.14918 6.75255
#
# Compressibility (1/GPa) = 0.01689365
#
# Stress axis : x y z
#
# Youngs Moduli (GPa) = 59.39917 141.07017 43.90171
#
# Poissons Ratio (x) = -0.03274 0.45357
# Poissons Ratio (y) = -0.01379 0.21094
# Poissons Ratio (z) = 0.61368 0.67781
#
# Static dielectric constant tensor:
#      x y z
#    x 2.016600 -0.009120 -0.011160 
#    y -0.009120 2.003890 0.054260 
#    z -0.011160 0.054260 2.037790 
# 
# From -- ./inp_files/100570.got.cif
#   From: 2010.05.17/outbox.cif.g08.bks.cpg/sg2_51_cif.got.tgz:100570.got - 2010.06.03 11:33:40.
