data_PCOD9020294
_publ_section_title
;
Structure prediction by ZEFSAII (Michael W. Deem and Ramdas Pophale) SiO2 
 PCOD9020294
Probable space group: P -1
;
_chemical_formula_sum "Si O2"
_cell_formula_units_Z 14
_cell_length_a 12.271585
_cell_length_b 14.788504
_cell_length_c 16.515883
_cell_angle_alpha 17.369594
_cell_angle_beta 113.760538
_cell_angle_gamma 115.583284
_cell_volume 806.590425
_symmetry_space_group_name_H-M "P -1"
_symmetry_group_IT_number 2
_symmetry_cell_setting 'triclinic'
loop_
_space_group_symop_operation_xyz
x,y,z
-x,-y,-z
loop_
_atom_site_type_symbol
_atom_site_label
_atom_site_fract_x
_atom_site_fract_y
_atom_site_fract_z
Si Si1 0.487433 0.057468 0.850751
Si Si2 0.149120 0.912009 0.031929
Si Si3 0.419835 0.260148 0.239869
Si Si4 0.919537 0.166350 0.741154
Si Si5 0.307695 0.885860 0.391793
Si Si6 0.465867 0.368112 0.909361
Si Si7 0.293317 0.408658 0.533517
O O1 0.364519 0.193190 0.685497
O O2 0.500000 0.000000 0.000000
O O3 0.600247 0.321151 0.635997
O O4 0.495235 0.763073 0.051008
O O5 0.232351 0.193520 0.771324
O O6 0.012852 0.938185 0.943724
O O7 0.148734 0.946085 0.099872
O O8 0.420841 0.439508 0.171472
O O9 0.500000 0.000000 0.500000
O O10 0.307606 0.089747 0.299509
O O11 0.500000 0.500000 0.000000
O O12 0.802106 0.406778 0.694954
O O13 0.000000 0.500000 0.500000
O O14 0.366152 0.586225 0.682455
O O15 0.177644 0.811740 0.375082
O O16 0.400725 0.088375 0.184569
#
# Coordination Sequence:
#
# PCOD9020294 Si02
#       7
#     2   2   2   2   2   2   2
#     4  11  24  33  52  81 105 142 188 204 268 322
#     4  11  23  37  50  69 112 143 174 219 254 313
#     4   8  16  36  50  76 100 133 174 209 266 318
#     4  11  24  33  52  81 105 142 188 204 268 322
#     4  10  22  33  56  76 108 140 170 218 263 313
#     4  10  22  33  56  76 108 140 170 218 263 313
#     4  11  23  37  50  69 112 143 174 219 254 313
#
# _framework density 17.357012999999998
#
# number of rings (size 3 to 8) (size 9 to 14) (size 15 to 20)
#    0.000    1.714    2.857    0.857   12.000    0.000 
#    0.000    0.000    0.000    0.000    0.000    2.000 
#    0.000    0.286    0.000    0.000    0.000    0.000 
#
# Total GULP energy -78073.531282 kJ/mol
# GULP energy per Si atom -5576.680806 kJ/mol
# Density = 1.731751 g / cm^3
# Si number density = 17.357013 Si / 1000 Ang^3
#
#
#
# Elastic Constant Matrix: (Units=GPa)
#
#
# Indices 1 2 3 4 5 6 
#
# 1 58.9713 21.7086 15.6762 -4.0262 7.7865 -2.2788
# 2 21.7086 121.2277 11.9919 -18.4196 10.2835 0.0443
# 3 15.6762 11.9919 81.7294 4.7637 -1.6662 -7.7671
# 4 -4.0262 -18.4196 4.7637 26.5332 -3.5919 4.7803
# 5 7.7865 10.2835 -1.6662 -3.5919 41.3216 4.4496
# 6 -2.2788 0.0443 -7.7671 4.7803 4.4496 23.8308
#
#
#
# Elastic Compliance Matrix: (Units=1/GPa)
#
#
# Indices 1 2 3 4 5 6 
#
# 1 0.019373 -0.002719 -0.003330 0.001016 -0.003144 0.001155
# 2 -0.002719 0.010069 -0.001580 0.007050 -0.001231 -0.001978
# 3 -0.003330 -0.001580 0.013889 -0.004930 0.000604 0.005088
# 4 0.001016 0.007050 -0.004930 0.046083 0.003082 -0.011342
# 5 -0.003144 -0.001231 0.000604 0.003082 0.025992 -0.005573
# 6 0.001155 -0.001978 0.005088 -0.011342 -0.005573 0.047050
#
#
# Mechanical properties :
#
#
# Convention : Reuss Voigt Hill
#
# Bulk Modulus (GPa) = 35.62247 40.07576 37.84912
# Shear Modulus (GPa) = 26.72768 32.50724 29.61746
#
# Velocity S-wave (km/s) = 3.92838 4.33235 4.13530
# Velocity P-wave (km/s) = 6.41438 6.94009 6.68241
#
# Compressibility (1/GPa) = 0.02807217
#
# Stress axis : x y z
#
# Youngs Moduli (GPa) = 51.61867 99.31928 71.99794
#
# Poissons Ratio (x) = 0.27005 0.23978
# Poissons Ratio (y) = 0.14035 0.11374
# Poissons Ratio (z) = 0.17191 0.15691
#
# Static dielectric constant tensor:
#      x y z
#    x 1.609660 0.001200 0.010720 
#    y 0.001200 1.637000 -0.000950 
#    z 0.010720 -0.000950 1.639220 
# 
# From -- ./inp_files/569455.got.cif
#   From: 2010.05.17/outbox.cif.g08.bks.cpg/sg2_285_cif.got.tgz:569455.got - 2010.06.03 11:33:40.
