data_PCOD9020987
_publ_section_title
;
Structure prediction by ZEFSAII (Michael W. Deem and Ramdas Pophale) SiO2 
 PCOD9020987
Probable space group: P -1
;
_chemical_formula_sum "Si O2"
_cell_formula_units_Z 16
_cell_length_a 10.267059
_cell_length_b 10.768735
_cell_length_c 7.990443
_cell_angle_alpha 101.582859
_cell_angle_beta 65.469085
_cell_angle_gamma 124.291377
_cell_volume 663.363577
_symmetry_space_group_name_H-M "P -1"
_symmetry_group_IT_number 2
_symmetry_cell_setting 'triclinic'
loop_
_space_group_symop_operation_xyz
x,y,z
-x,-y,-z
loop_
_atom_site_type_symbol
_atom_site_label
_atom_site_fract_x
_atom_site_fract_y
_atom_site_fract_z
Si Si1 0.435454 0.656932 0.687554
Si Si2 0.777110 0.668596 0.416603
Si Si3 0.421840 0.601390 0.071411
Si Si4 0.746632 0.888956 0.975550
Si Si5 0.964279 0.791045 0.004370
Si Si6 0.902179 0.264526 0.585037
Si Si7 0.409246 0.036025 0.207436
Si Si8 0.052300 0.457696 0.246850
O O1 0.614659 0.674002 0.555448
O O2 0.298101 0.509917 0.618879
O O3 0.464402 0.821862 0.705534
O O4 0.391508 0.618969 0.897386
O O5 0.934983 0.747633 0.481126
O O6 0.857002 0.754792 0.221839
O O7 0.241536 0.516485 0.231309
O O8 0.500000 0.500000 0.000000
O O9 0.561479 0.764380 0.112892
O O10 0.860333 0.818611 0.925489
O O11 0.705701 0.914990 0.817551
O O12 0.854078 0.054481 0.040389
O O13 0.978029 0.650321 0.918642
O O14 0.723347 0.113450 0.664312
O O15 0.932741 0.385862 0.744655
O O16 0.919766 0.349790 0.427654
O O17 0.500000 0.000000 0.000000
#
# Coordination Sequence:
#
# PCOD9020987 Si02
#       8
#     2   2   2   2   2   2   2   2
#     4  10  23  38  63  96 129 165 214 270 312 385
#     4  11  22  41  64  99 131 168 217 264 326 383
#     4  11  18  38  63  88 122 172 207 259 317 379
#     4  10  22  37  63  96 123 161 212 263 316 379
#     4  11  22  40  63  96 129 167 212 266 322 380
#     4  11  25  42  63  95 129 172 216 268 322 383
#     4  11  24  43  66  97 132 172 214 265 329 387
#     4  11  24  42  64  91 130 172 219 262 320 389
#
# _framework density 24.119505
#
# number of rings (size 3 to 8) (size 9 to 14) (size 15 to 20)
#    0.000    1.250    3.750    2.250    1.750    5.000 
#    0.000    0.000    0.000    4.500    0.000    0.000 
#    0.000    0.000    0.000    0.000    0.000    0.000 
#
# Total GULP energy -89410.737145 kJ/mol
# GULP energy per Si atom -5588.171072 kJ/mol
# Density = 2.406461 g / cm^3
# Si number density = 24.119505 Si / 1000 Ang^3
#
#
#
# Elastic Constant Matrix: (Units=GPa)
#
#
# Indices 1 2 3 4 5 6 
#
# 1 40.8445 9.4883 8.4478 -3.8772 -5.7449 8.7531
# 2 9.4883 176.5188 44.6782 -23.4391 -19.3919 20.3137
# 3 8.4478 44.6782 90.5248 -14.5292 -12.0054 3.3620
# 4 -3.8772 -23.4391 -14.5292 42.4656 1.1781 -3.5694
# 5 -5.7449 -19.3919 -12.0054 1.1781 28.3851 -8.5361
# 6 8.7531 20.3137 3.3620 -3.5694 -8.5361 31.3189
#
#
#
# Elastic Compliance Matrix: (Units=1/GPa)
#
#
# Indices 1 2 3 4 5 6 
#
# 1 0.026714 0.000254 -0.001788 0.001341 0.002807 -0.006521
# 2 0.000254 0.007430 -0.002738 0.002814 0.002796 -0.003513
# 3 -0.001788 -0.002738 0.013501 0.003024 0.004035 0.002271
# 4 0.001341 0.002814 0.003024 0.026285 0.002749 0.001220
# 5 0.002807 0.002796 0.004035 0.002749 0.041919 0.008707
# 6 -0.006521 -0.003513 0.002271 0.001220 0.008707 0.038299
#
#
# Mechanical properties :
#
#
# Convention : Reuss Voigt Hill
#
# Bulk Modulus (GPa) = 25.57595 48.12408 36.85002
# Shear Modulus (GPa) = 28.45354 36.78550 32.61952
#
# Velocity S-wave (km/s) = 3.43839 3.90953 3.68151
# Velocity P-wave (km/s) = 5.13714 6.35413 5.77777
#
# Compressibility (1/GPa) = 0.03909923
#
# Stress axis : x y z
#
# Youngs Moduli (GPa) = 37.43419 134.59821 74.06947
#
# Poissons Ratio (x) = -0.03413 0.13247
# Poissons Ratio (y) = -0.00949 0.20277
# Poissons Ratio (z) = 0.06695 0.36846
#
# Static dielectric constant tensor:
#      x y z
#    x 1.969190 -0.009020 -0.004310 
#    y -0.009020 1.975270 0.034790 
#    z -0.004310 0.034790 1.918500 
# 
# From -- ./inp_files/258918.got.cif
#   From: 2010.05.17/outbox.cif.g08.bks.cpg/sg2_130_cif.got.tgz:258918.got - 2010.06.03 11:33:40.
