data_PCOD9020701
_publ_section_title
;
Structure prediction by ZEFSAII (Michael W. Deem and Ramdas Pophale) SiO2 
 PCOD9020701
Probable space group: P -1
;
_chemical_formula_sum "Si O2"
_cell_formula_units_Z 14
_cell_length_a 7.976961
_cell_length_b 8.987116
_cell_length_c 15.605833
_cell_angle_alpha 58.469698
_cell_angle_beta 45.309850
_cell_angle_gamma 53.931709
_cell_volume 631.255512
_symmetry_space_group_name_H-M "P -1"
_symmetry_group_IT_number 2
_symmetry_cell_setting 'triclinic'
loop_
_space_group_symop_operation_xyz
x,y,z
-x,-y,-z
loop_
_atom_site_type_symbol
_atom_site_label
_atom_site_fract_x
_atom_site_fract_y
_atom_site_fract_z
Si Si1 0.400809 0.909554 0.378172
Si Si2 0.264139 0.340477 0.341172
Si Si3 0.965655 0.671291 0.841615
Si Si4 0.608133 0.550806 0.109526
Si Si5 0.273825 0.190767 0.555400
Si Si6 0.212106 0.619650 0.587962
Si Si7 0.245509 0.885182 0.248979
O O1 0.500000 0.500000 0.500000
O O2 0.204513 0.833534 0.520182
O O3 0.660493 0.807523 0.368377
O O4 0.373087 0.864738 0.303043
O O5 0.407503 0.449738 0.205025
O O6 0.346719 0.128155 0.341615
O O7 0.308901 0.334426 0.428979
O O8 0.968409 0.419416 0.404612
O O9 0.170162 0.589542 0.868075
O O10 0.110365 0.596380 0.723910
O O11 0.853355 0.897271 0.809330
O O12 0.741549 0.595821 0.965167
O O13 0.456749 0.746348 0.152868
O O14 0.000751 0.175593 0.644333
O O15 0.500000 0.000000 0.500000
#
# Coordination Sequence:
#
# PCOD9020701 Si02
#       7
#     2   2   2   2   2   2   2
#     4  11  22  42  70 103 137 183 225 295 360 409
#     4  11  22  43  65 105 141 178 233 292 356 415
#     4  11  24  48  70  97 143 190 238 289 353 421
#     4  11  27  45  70 100 141 193 240 288 345 429
#     4  10  22  36  67 104 140 172 231 291 349 411
#     4  12  24  40  72 105 140 180 236 296 358 421
#     4  12  23  46  74 102 140 191 237 286 361 420
#
# _framework density 22.178024000000001
#
# number of rings (size 3 to 8) (size 9 to 14) (size 15 to 20)
#    0.000    0.857    2.857    6.000    2.000    1.143 
#    0.000    0.000    0.000    4.286    0.000    0.000 
#    0.000    0.000    0.000    0.000    0.000    0.000 
#
# Total GULP energy -78297.724283 kJ/mol
# GULP energy per Si atom -5592.694592 kJ/mol
# Density = 2.212755 g / cm^3
# Si number density = 22.178024 Si / 1000 Ang^3
#
#
#
# Elastic Constant Matrix: (Units=GPa)
#
#
# Indices 1 2 3 4 5 6 
#
# 1 108.1823 34.7440 52.2421 4.4726 -9.2361 -9.4659
# 2 34.7440 109.7912 55.9688 0.2953 -2.9287 -10.7216
# 3 52.2421 55.9688 178.6444 -8.2303 -6.9172 11.4445
# 4 4.4726 0.2953 -8.2303 27.2658 3.7738 0.1824
# 5 -9.2361 -2.9287 -6.9172 3.7738 34.5311 -0.8358
# 6 -9.4659 -10.7216 11.4445 0.1824 -0.8358 30.5208
#
#
#
# Elastic Compliance Matrix: (Units=1/GPa)
#
#
# Indices 1 2 3 4 5 6 
#
# 1 0.012195 -0.001583 -0.003411 -0.003450 0.002933 0.004606
# 2 -0.001583 0.011978 -0.003660 -0.001022 0.000094 0.005098
# 3 -0.003411 -0.003660 0.008233 0.003127 -0.000047 -0.005451
# 4 -0.003450 -0.001022 0.003127 0.038868 -0.004702 -0.002963
# 5 0.002933 0.000094 -0.000047 -0.004702 0.030300 0.001818
# 6 0.004606 0.005098 -0.005451 -0.002963 0.001818 0.038095
#
#
# Mechanical properties :
#
#
# Convention : Reuss Voigt Hill
#
# Bulk Modulus (GPa) = 66.22939 75.83640 71.03290
# Shear Modulus (GPa) = 30.86237 35.37442 33.11840
#
# Velocity S-wave (km/s) = 3.73443 3.99810 3.86851
# Velocity P-wave (km/s) = 6.96578 7.45532 7.21470
#
# Compressibility (1/GPa) = 0.01509904
#
# Stress axis : x y z
#
# Youngs Moduli (GPa) = 81.99917 83.48726 121.46043
#
# Poissons Ratio (x) = 0.13218 0.41427
# Poissons Ratio (y) = 0.12982 0.44450
# Poissons Ratio (z) = 0.27968 0.30553
#
# Static dielectric constant tensor:
#      x y z
#    x 1.865990 0.039180 0.003650 
#    y 0.039180 1.963570 -0.000970 
#    z 0.003650 -0.000970 1.775980 
# 
# From -- ./inp_files/307972.got.cif
#   From: 2010.05.17/outbox.cif.g08.bks.cpg/sg2_154_cif.got.tgz:307972.got - 2010.06.03 11:33:40.
