data_PCOD9020578
_publ_section_title
;
Structure prediction by ZEFSAII (Michael W. Deem and Ramdas Pophale) SiO2 
 PCOD9020578
Probable space group: P -1
;
_chemical_formula_sum "Si O2"
_cell_formula_units_Z 10
_cell_length_a 10.118048
_cell_length_b 12.784379
_cell_length_c 5.022881
_cell_angle_alpha 61.375439
_cell_angle_beta 72.652496
_cell_angle_gamma 57.296611
_cell_volume 479.226067
_symmetry_space_group_name_H-M "P -1"
_symmetry_group_IT_number 2
_symmetry_cell_setting 'triclinic'
loop_
_space_group_symop_operation_xyz
x,y,z
-x,-y,-z
loop_
_atom_site_type_symbol
_atom_site_label
_atom_site_fract_x
_atom_site_fract_y
_atom_site_fract_z
Si Si1 0.915183 0.376884 0.502267
Si Si2 0.520118 0.689703 0.813533
Si Si3 0.207841 0.313836 0.722342
Si Si4 0.548456 0.901036 0.841351
Si Si5 0.271535 0.619443 0.871729
O O1 0.880496 0.532687 0.302507
O O2 0.868480 0.330882 0.316055
O O3 0.087513 0.296013 0.622515
O O4 0.796627 0.379001 0.797826
O O5 0.644466 0.701942 0.525043
O O6 0.474932 0.802454 0.930250
O O7 0.373129 0.697310 0.731970
O O8 0.609309 0.538858 0.068942
O O9 0.273794 0.209308 0.052749
O O10 0.500000 0.000000 0.500000
O O11 0.500000 0.000000 0.000000
#
# Coordination Sequence:
#
# PCOD9020578 Si02
#       5
#     2   2   2   2   2
#     4  10  22  36  61  93 125 150 184 255 310 353
#     4  10  22  38  62  90 122 153 204 239 299 351
#     4  10  22  38  62  90 122 153 204 239 299 351
#     4  12  24  38  60  88 120 160 206 244 276 346
#     4  10  22  36  61  93 125 150 184 255 310 353
#
# _framework density 20.866979000000001
#
# number of rings (size 3 to 8) (size 9 to 14) (size 15 to 20)
#    0.000    1.600    4.000    0.000    5.600    4.800 
#    0.000    0.000    0.000    7.200    0.000    0.000 
#    0.000    0.000    0.000    0.000    0.000    0.000 
#
# Total GULP energy -55833.129621 kJ/mol
# GULP energy per Si atom -5583.312962 kJ/mol
# Density = 2.081948 g / cm^3
# Si number density = 20.866979 Si / 1000 Ang^3
#
#
#
# Elastic Constant Matrix: (Units=GPa)
#
#
# Indices 1 2 3 4 5 6 
#
# 1 124.6584 24.0970 38.2168 -11.3040 23.3009 18.2869
# 2 24.0970 78.6694 35.7666 3.9701 -1.8031 28.7831
# 3 38.2168 35.7666 100.9464 0.2206 34.6626 -1.9783
# 4 -11.3040 3.9701 0.2206 27.1189 -4.0342 7.1511
# 5 23.3009 -1.8031 34.6626 -4.0342 40.6334 6.5537
# 6 18.2869 28.7831 -1.9783 7.1511 6.5537 29.6416
#
#
#
# Elastic Compliance Matrix: (Units=1/GPa)
#
#
# Indices 1 2 3 4 5 6 
#
# 1 0.012019 0.006168 -0.008620 0.009381 0.004445 -0.017226
# 2 0.006168 0.061098 -0.043564 0.023696 0.052122 -0.083282
# 3 -0.008620 -0.043564 0.047324 -0.022908 -0.050518 0.067475
# 4 0.009381 0.023696 -0.022908 0.054942 0.028722 -0.049931
# 5 0.004445 0.052122 -0.050518 0.028722 0.083567 -0.082132
# 6 -0.017226 -0.083282 0.067475 -0.049931 -0.082132 0.159942
#
#
# Mechanical properties :
#
#
# Convention : Reuss Voigt Hill
#
# Bulk Modulus (GPa) = 35.20013 55.60389 45.40201
# Shear Modulus (GPa) = 9.60812 33.22504 21.41658
#
# Velocity S-wave (km/s) = 2.14813 3.99461 3.20713
# Velocity P-wave (km/s) = 4.80188 6.92680 5.95981
#
# Compressibility (1/GPa) = 0.02840899
#
# Stress axis : x y z
#
# Youngs Moduli (GPa) = 83.20167 16.36721 21.13092
#
# Poissons Ratio (x) = -0.10096 0.18215
# Poissons Ratio (y) = -0.51323 0.92055
# Poissons Ratio (z) = 0.71720 0.71303
#
# Static dielectric constant tensor:
#      x y z
#    x 1.763850 -0.015860 0.001910 
#    y -0.015860 1.792310 0.018890 
#    z 0.001910 0.018890 1.786970 
# 
# From -- ./inp_files/20163.got.cif
#   From: 2010.05.17/outbox.cif.g08.bks.cpg/sg2_11_cif.got.tgz:20163.got - 2010.06.03 11:33:40.
