data_PCOD9020385
_publ_section_title
;
Structure prediction by ZEFSAII (Michael W. Deem and Ramdas Pophale) SiO2 
 PCOD9020385
Probable space group: P -1
;
_chemical_formula_sum "Si O2"
_cell_formula_units_Z 16
_cell_length_a 12.693093
_cell_length_b 10.588876
_cell_length_c 11.820741
_cell_angle_alpha 116.850646
_cell_angle_beta 135.875300
_cell_angle_gamma 95.355010
_cell_volume 730.657781
_symmetry_space_group_name_H-M "P -1"
_symmetry_group_IT_number 2
_symmetry_cell_setting 'triclinic'
loop_
_space_group_symop_operation_xyz
x,y,z
-x,-y,-z
loop_
_atom_site_type_symbol
_atom_site_label
_atom_site_fract_x
_atom_site_fract_y
_atom_site_fract_z
Si Si1 0.075871 0.623294 0.389890
Si Si2 0.667630 0.682572 0.834718
Si Si3 0.000176 0.884439 0.355148
Si Si4 0.253410 0.265084 0.594474
Si Si5 0.652956 0.180805 0.108475
Si Si6 0.646825 0.418433 0.036998
Si Si7 0.795979 0.577484 0.691680
Si Si8 0.879928 0.105182 0.090539
O O1 0.090280 0.793176 0.428606
O O2 0.169718 0.663133 0.603524
O O3 0.173536 0.570126 0.362050
O O4 0.833850 0.451756 0.142363
O O5 0.745119 0.600036 0.786240
O O6 0.420542 0.527010 0.583335
O O7 0.781859 0.747371 0.068927
O O8 0.756435 0.879584 0.917691
O O9 0.152105 0.049786 0.450345
O O10 0.000000 0.000000 0.500000
O O11 0.268563 0.385996 0.759117
O O12 0.092627 0.234204 0.376102
O O13 0.486281 0.367329 0.799872
O O14 0.563967 0.263662 0.010527
O O15 0.739279 0.129214 0.058621
O O16 0.500000 0.000000 0.000000
O O17 0.011876 0.784028 0.899778
#
# Coordination Sequence:
#
# PCOD9020385 Si02
#       8
#     2   2   2   2   2   2   2   2
#     4  12  22  38  61  91 127 169 210 260 324 384
#     4  10  25  44  65  97 124 171 223 268 319 382
#     4  11  22  41  64  93 130 163 210 266 326 381
#     4  10  22  35  58  88 126 166 206 257 316 387
#     4  12  23  38  59  96 132 163 208 273 324 381
#     4  11  21  36  55  90 130 164 212 250 324 388
#     4  11  24  43  68  91 130 173 219 267 318 385
#     4  11  21  41  66  91 126 169 215 264 327 380
#
# _framework density 21.898074999999999
#
# number of rings (size 3 to 8) (size 9 to 14) (size 15 to 20)
#    0.000    1.000    3.750    3.750    1.750    1.500 
#    0.000    0.000    0.000    1.500    0.000    0.000 
#    0.000    0.000    0.000    0.000    0.000    0.000 
#
# Total GULP energy -89238.519355 kJ/mol
# GULP energy per Si atom -5577.407460 kJ/mol
# Density = 2.184823 g / cm^3
# Si number density = 21.898075 Si / 1000 Ang^3
#
#
#
# Elastic Constant Matrix: (Units=GPa)
#
#
# Indices 1 2 3 4 5 6 
#
# 1 116.4524 19.6030 20.8144 7.9855 8.8193 -22.2432
# 2 19.6030 79.1034 -1.7089 19.8372 4.4962 -6.8686
# 3 20.8144 -1.7089 68.2449 -0.0478 9.5505 9.3887
# 4 7.9855 19.8372 -0.0478 35.3286 5.8577 7.3462
# 5 8.8193 4.4962 9.5505 5.8577 35.4031 8.5030
# 6 -22.2432 -6.8686 9.3887 7.3462 8.5030 28.2804
#
#
#
# Elastic Compliance Matrix: (Units=1/GPa)
#
#
# Indices 1 2 3 4 5 6 
#
# 1 0.013109 -0.000617 -0.005403 -0.004920 -0.004413 0.014559
# 2 -0.000617 0.015933 -0.000065 -0.009864 -0.001782 0.006505
# 3 -0.005403 -0.000065 0.017998 0.003775 -0.001542 -0.010757
# 4 -0.004920 -0.009864 0.003775 0.038696 -0.000779 -0.017336
# 5 -0.004413 -0.001782 -0.001542 -0.000779 0.033286 -0.013198
# 6 0.014559 0.006505 -0.010757 -0.017336 -0.013198 0.060434
#
#
# Mechanical properties :
#
#
# Convention : Reuss Voigt Hill
#
# Bulk Modulus (GPa) = 28.67735 37.91308 33.29522
# Shear Modulus (GPa) = 24.60053 34.80856 29.70454
#
# Velocity S-wave (km/s) = 3.35537 3.99127 3.68705
# Velocity P-wave (km/s) = 5.30430 6.21219 5.77611
#
# Compressibility (1/GPa) = 0.03487072
#
# Stress axis : x y z
#
# Youngs Moduli (GPa) = 76.28289 62.76325 55.56317
#
# Poissons Ratio (x) = 0.03869 0.30018
# Poissons Ratio (y) = 0.04703 0.00363
# Poissons Ratio (z) = 0.41212 0.00410
#
# Static dielectric constant tensor:
#      x y z
#    x 1.814740 0.064190 0.040810 
#    y 0.064190 1.913060 0.036400 
#    z 0.040810 0.036400 1.873070 
# 
# From -- ./inp_files/402209.got.cif
#   From: 2010.05.17/outbox.cif.g08.bks.cpg/sg2_202_cif.got.tgz:402209.got - 2010.06.03 11:33:40.
