data_PCOD9020975
_publ_section_title
;
Structure prediction by ZEFSAII (Michael W. Deem and Ramdas Pophale) SiO2 
 PCOD9020975
Probable space group: P -1
;
_chemical_formula_sum "Si O2"
_cell_formula_units_Z 16
_cell_length_a 8.748881
_cell_length_b 11.335519
_cell_length_c 9.204401
_cell_angle_alpha 79.904331
_cell_angle_beta 97.322696
_cell_angle_gamma 117.656283
_cell_volume 794.904769
_symmetry_space_group_name_H-M "P -1"
_symmetry_group_IT_number 2
_symmetry_cell_setting 'triclinic'
loop_
_space_group_symop_operation_xyz
x,y,z
-x,-y,-z
loop_
_atom_site_type_symbol
_atom_site_label
_atom_site_fract_x
_atom_site_fract_y
_atom_site_fract_z
Si Si1 0.015309 0.260493 0.619563
Si Si2 0.147215 0.932687 0.632745
Si Si3 0.694096 0.293711 0.653371
Si Si4 0.319127 0.444018 0.409478
Si Si5 0.853358 0.860982 0.077586
Si Si6 0.220069 0.197889 0.233277
Si Si7 0.436972 0.116538 0.451514
Si Si8 0.419289 0.046979 0.852601
O O1 0.174605 0.374855 0.530350
O O2 0.075573 0.195722 0.771386
O O3 0.910033 0.155549 0.500632
O O4 0.885121 0.311709 0.656803
O O5 0.972578 0.899546 0.705804
O O6 0.274760 0.080254 0.552251
O O7 0.284869 0.922841 0.763144
O O8 0.693436 0.427107 0.683801
O O9 0.595819 0.253050 0.494009
O O10 0.577175 0.160752 0.759195
O O11 0.500000 0.500000 0.500000
O O12 0.289940 0.331337 0.310691
O O13 0.700119 0.888585 0.115045
O O14 0.791537 0.772445 0.943131
O O15 0.000000 0.000000 0.000000
O O16 0.349133 0.130313 0.289695
O O17 0.500000 0.000000 0.500000
O O18 0.500000 0.000000 0.000000
#
# Coordination Sequence:
#
# PCOD9020975 Si02
#       8
#     2   2   2   2   2   2   2   2
#     4  11  24  41  68  94 130 170 223 267 324 387
#     4  10  22  37  63  94 126 169 212 261 324 389
#     4  11  23  41  66  96 129 172 217 272 318 386
#     4  11  23  46  68  92 128 174 233 266 310 389
#     4  12  24  40  63  99 136 169 209 272 338 389
#     4  11  24  40  66  93 132 172 220 262 330 385
#     4  11  21  35  64  97 127 161 217 270 322 378
#     4  11  25  39  64  99 140 165 209 273 342 386
#
# _framework density 20.128195999999999
#
# number of rings (size 3 to 8) (size 9 to 14) (size 15 to 20)
#    0.000    1.000    3.750    3.000    8.750    0.000 
#    0.000    3.125    0.000    0.000    0.000    0.000 
#    0.000    0.000    0.000    0.000    0.000    0.000 
#
# Total GULP energy -89319.340886 kJ/mol
# GULP energy per Si atom -5582.458805 kJ/mol
# Density = 2.008238 g / cm^3
# Si number density = 20.128196 Si / 1000 Ang^3
#
#
#
# Elastic Constant Matrix: (Units=GPa)
#
#
# Indices 1 2 3 4 5 6 
#
# 1 120.4605 40.4211 49.6098 9.5036 15.0885 3.5885
# 2 40.4211 87.3889 32.7147 9.7998 11.0806 2.9237
# 3 49.6098 32.7147 129.3463 12.5139 24.5353 -0.8946
# 4 9.5036 9.7998 12.5139 23.8327 -0.9557 -0.5716
# 5 15.0885 11.0806 24.5353 -0.9557 42.8344 -1.2694
# 6 3.5885 2.9237 -0.8946 -0.5716 -1.2694 35.6056
#
#
#
# Elastic Compliance Matrix: (Units=1/GPa)
#
#
# Indices 1 2 3 4 5 6 
#
# 1 0.011040 -0.003649 -0.002926 -0.001442 -0.001329 -0.000957
# 2 -0.003649 0.014377 -0.001572 -0.003721 -0.001646 -0.000971
# 3 -0.002926 -0.001572 0.010513 -0.003883 -0.004658 0.000460
# 4 -0.001442 -0.003721 -0.003883 0.046324 0.004766 0.001267
# 5 -0.001329 -0.001646 -0.004658 0.004766 0.027049 0.001193
# 6 -0.000957 -0.000971 0.000460 0.001267 0.001193 0.028336
#
#
# Mechanical properties :
#
#
# Convention : Reuss Voigt Hill
#
# Bulk Modulus (GPa) = 50.92305 64.74299 57.83302
# Shear Modulus (GPa) = 31.15669 34.75121 32.95395
#
# Velocity S-wave (km/s) = 3.93862 4.15962 4.05063
# Velocity P-wave (km/s) = 6.78513 7.43674 7.11839
#
# Compressibility (1/GPa) = 0.01963747
#
# Stress axis : x y z
#
# Youngs Moduli (GPa) = 90.58213 69.55322 95.11670
#
# Poissons Ratio (x) = 0.25377 0.27835
# Poissons Ratio (y) = 0.33050 0.14948
# Poissons Ratio (z) = 0.26508 0.10931
#
# Static dielectric constant tensor:
#      x y z
#    x 1.744430 -0.013500 0.002290 
#    y -0.013500 1.724300 0.035790 
#    z 0.002290 0.035790 1.781220 
# 
# From -- ./inp_files/177952.got.cif
#   From: 2010.05.17/outbox.cif.g08.bks.cpg/sg2_89_cif.got.tgz:177952.got - 2010.06.03 11:33:40.
