data_PCOD9020392
_publ_section_title
;
Structure prediction by ZEFSAII (Michael W. Deem and Ramdas Pophale) SiO2 
 PCOD9020392
Probable space group: P -1
;
_chemical_formula_sum "Si O2"
_cell_formula_units_Z 14
_cell_length_a 11.787593
_cell_length_b 16.772822
_cell_length_c 17.528941
_cell_angle_alpha 163.861099
_cell_angle_beta 64.046213
_cell_angle_gamma 124.124088
_cell_volume 716.157632
_symmetry_space_group_name_H-M "P -1"
_symmetry_group_IT_number 2
_symmetry_cell_setting 'triclinic'
loop_
_space_group_symop_operation_xyz
x,y,z
-x,-y,-z
loop_
_atom_site_type_symbol
_atom_site_label
_atom_site_fract_x
_atom_site_fract_y
_atom_site_fract_z
Si Si1 0.447309 0.924821 0.532883
Si Si2 0.746328 0.265507 0.377074
Si Si3 0.112282 0.365369 0.169526
Si Si4 0.426072 0.923398 0.110892
Si Si5 0.625541 0.561044 0.456918
Si Si6 0.497383 0.599752 0.912580
Si Si7 0.095100 0.422599 0.535538
O O1 0.266577 0.629440 0.320733
O O2 0.527472 0.766561 0.409795
O O3 0.500000 0.000000 0.500000
O O4 0.486135 0.254979 0.873761
O O5 0.840311 0.531775 0.661328
O O6 0.840986 0.346220 0.347259
O O7 0.595011 0.253409 0.387931
O O8 0.660911 0.876132 0.077967
O O9 0.981784 0.437374 0.260291
O O10 0.036548 0.966733 0.807597
O O11 0.440113 0.745288 0.867689
O O12 0.386049 0.650910 0.940371
O O13 0.328949 0.081523 0.269002
O O14 0.500000 0.500000 0.500000
O O15 0.767356 0.579227 0.469570
#
# Coordination Sequence:
#
# PCOD9020392 Si02
#       7
#     2   2   2   2   2   2   2
#     4  11  21  39  62  86 114 144 183 246 302 348
#     4   9  21  36  57  80 123 155 190 225 282 334
#     4  11  24  38  53  88 119 149 193 230 293 372
#     4  10  22  35  59  79 117 150 206 240 262 317
#     4  12  22  37  54  81 114 165 210 233 257 325
#     4   9  20  35  58  88 112 140 192 235 284 340
#     4  12  24  35  56  82 125 164 185 231 285 322
#
# _framework density 19.548770000000001
#
# number of rings (size 3 to 8) (size 9 to 14) (size 15 to 20)
#    0.857    0.571    1.429    5.143    2.000    2.286 
#    0.000    0.000    0.000    0.000    0.000   20.000 
#    0.000    0.000    0.000    0.000    0.000    0.000 
#
# Total GULP energy -78130.657606 kJ/mol
# GULP energy per Si atom -5580.761258 kJ/mol
# Density = 1.950428 g / cm^3
# Si number density = 19.548770 Si / 1000 Ang^3
#
#
#
# Elastic Constant Matrix: (Units=GPa)
#
#
# Indices 1 2 3 4 5 6 
#
# 1 94.6276 36.5354 6.8670 -5.9293 -7.2552 -9.8880
# 2 36.5354 99.6547 1.9796 -7.4668 -1.3522 1.5166
# 3 6.8670 1.9796 60.3031 -13.3742 -6.4786 0.5114
# 4 -5.9293 -7.4668 -13.3742 15.2415 -4.5915 -2.1052
# 5 -7.2552 -1.3522 -6.4786 -4.5915 34.5375 -2.5579
# 6 -9.8880 1.5166 0.5114 -2.1052 -2.5579 17.3027
#
#
#
# Elastic Compliance Matrix: (Units=1/GPa)
#
#
# Indices 1 2 3 4 5 6 
#
# 1 0.014164 -0.004835 0.000279 0.006073 0.004379 0.009896
# 2 -0.004835 0.012190 0.001241 0.004752 0.000084 -0.003277
# 3 0.000279 0.001241 0.022443 0.023174 0.007645 0.003337
# 4 0.006073 0.004752 0.023174 0.099153 0.020281 0.017431
# 5 0.004379 0.000084 0.007645 0.020281 0.034739 0.009872
# 6 0.009896 -0.003277 0.003337 0.017431 0.009872 0.067219
#
#
# Mechanical properties :
#
#
# Convention : Reuss Voigt Hill
#
# Bulk Modulus (GPa) = 23.71457 38.37216 31.04337
# Shear Modulus (GPa) = 18.47793 27.36321 22.92057
#
# Velocity S-wave (km/s) = 3.07778 3.74537 3.42787
# Velocity P-wave (km/s) = 4.97872 6.19478 5.61974
#
# Compressibility (1/GPa) = 0.04216817
#
# Stress axis : x y z
#
# Youngs Moduli (GPa) = 70.59907 82.03721 44.55726
#
# Poissons Ratio (x) = 0.39663 -0.01243
# Poissons Ratio (y) = 0.34133 -0.05530
# Poissons Ratio (z) = -0.01970 -0.10182
#
# Static dielectric constant tensor:
#      x y z
#    x 1.766660 -0.029100 -0.015790 
#    y -0.029100 1.676800 0.000410 
#    z -0.015790 0.000410 1.680270 
# 
# From -- ./inp_files/522040.got.cif
#   From: 2010.05.17/outbox.cif.g08.bks.cpg/sg2_262_cif.got.tgz:522040.got - 2010.06.03 11:33:40.
