data_PCOD9020040
_publ_section_title
;
Structure prediction by ZEFSAII (Michael W. Deem and Ramdas Pophale) SiO2 
 PCOD9020040
Probable space group: P -1
;
_chemical_formula_sum "Si O2"
_cell_formula_units_Z 14
_cell_length_a 10.380203
_cell_length_b 12.254322
_cell_length_c 9.882556
_cell_angle_alpha 143.510818
_cell_angle_beta 52.393260
_cell_angle_gamma 121.527047
_cell_volume 590.831185
_symmetry_space_group_name_H-M "P -1"
_symmetry_group_IT_number 2
_symmetry_cell_setting 'triclinic'
loop_
_space_group_symop_operation_xyz
x,y,z
-x,-y,-z
loop_
_atom_site_type_symbol
_atom_site_label
_atom_site_fract_x
_atom_site_fract_y
_atom_site_fract_z
Si Si1 0.599410 0.333471 0.821313
Si Si2 0.347752 0.620432 0.860413
Si Si3 0.132058 0.026119 0.134635
Si Si4 0.722447 0.780723 0.496175
Si Si5 0.467380 0.049256 0.818347
Si Si6 0.005430 0.683308 0.011658
Si Si7 0.059625 0.632494 0.472646
O O1 0.675415 0.394183 0.977600
O O2 0.500000 0.500000 0.000000
O O3 0.490935 0.153227 0.762443
O O4 0.747424 0.311192 0.602471
O O5 0.370614 0.413151 0.593578
O O6 0.486353 0.787125 0.937417
O O7 0.184778 0.684266 0.962139
O O8 0.200730 0.104588 0.313168
O O9 0.039757 0.188073 0.288174
O O10 0.012663 0.849019 0.064851
O O11 0.285923 0.977817 0.898830
O O12 0.873100 0.726336 0.251745
O O13 0.598813 0.899958 0.610157
O O14 0.979659 0.491404 0.759004
O O15 0.000000 0.500000 0.500000
#
# Coordination Sequence:
#
# PCOD9020040 Si02
#       7
#     2   2   2   2   2   2   2
#     4  10  21  46  67  90 133 169 214 264 321 388
#     4  10  22  39  70  96 125 173 217 260 329 379
#     4  12  24  40  67  98 138 167 211 273 323 385
#     4  12  21  39  69  99 131 169 212 272 325 383
#     4  10  24  40  60 102 135 170 215 258 325 387
#     4  12  23  42  68 101 129 168 222 267 328 387
#     4  12  26  45  69  94 129 175 219 272 325 382
#
# _framework density 23.695432
#
# number of rings (size 3 to 8) (size 9 to 14) (size 15 to 20)
#    0.857    0.000    4.286    3.857    0.000    2.286 
#    0.000    0.714    0.000    0.000    0.000    0.000 
#    0.000    0.000    0.000    0.000    0.000    0.000 
#
# Total GULP energy -78293.826725 kJ/mol
# GULP energy per Si atom -5592.416195 kJ/mol
# Density = 2.364150 g / cm^3
# Si number density = 23.695432 Si / 1000 Ang^3
#
#
#
# Elastic Constant Matrix: (Units=GPa)
#
#
# Indices 1 2 3 4 5 6 
#
# 1 28.5488 7.0686 23.2841 -5.8278 6.4949 -13.0942
# 2 7.0686 78.1811 14.7555 7.3884 -13.2667 -10.1774
# 3 23.2841 14.7555 75.2070 11.3427 4.0434 -12.7869
# 4 -5.8278 7.3884 11.3427 51.9182 -1.3134 -7.8653
# 5 6.4949 -13.2667 4.0434 -1.3134 36.9885 18.2759
# 6 -13.0942 -10.1774 -12.7869 -7.8653 18.2759 36.5799
#
#
#
# Elastic Compliance Matrix: (Units=1/GPa)
#
#
# Indices 1 2 3 4 5 6 
#
# 1 0.084545 -0.006465 -0.018419 0.020269 -0.036471 0.044607
# 2 -0.006465 0.014879 -0.001516 -0.002822 0.008229 -0.003423
# 3 -0.018419 -0.001516 0.019835 -0.006477 0.001355 -0.002151
# 4 0.020269 -0.002822 -0.006477 0.025333 -0.010269 0.014784
# 5 -0.036471 0.008229 0.001355 -0.010269 0.055839 -0.040398
# 6 0.044607 -0.003423 -0.002151 0.014784 -0.040398 0.064963
#
#
# Mechanical properties :
#
#
# Convention : Reuss Voigt Hill
#
# Bulk Modulus (GPa) = 15.04706 30.23927 22.64317
# Shear Modulus (GPa) = 14.69087 34.21921 24.45504
#
# Velocity S-wave (km/s) = 2.49266 3.80429 3.21605
# Velocity P-wave (km/s) = 3.82733 5.66447 4.83397
#
# Compressibility (1/GPa) = 0.06645817
#
# Stress axis : x y z
#
# Youngs Moduli (GPa) = 11.82800 67.20866 50.41648
#
# Poissons Ratio (x) = 0.43453 0.92861
# Poissons Ratio (y) = 0.07647 0.07644
# Poissons Ratio (z) = 0.21786 0.10190
#
# Static dielectric constant tensor:
#      x y z
#    x 1.912720 0.028080 0.059370 
#    y 0.028080 1.892530 -0.038000 
#    z 0.059370 -0.038000 1.783110 
# 
# From -- ./inp_files/426778.got.cif
#   From: 2010.05.17/outbox.cif.g08.bks.cpg/sg2_214_cif.got.tgz:426778.got - 2010.06.03 11:33:40.
