data_PCOD9020076
_publ_section_title
;
Structure prediction by ZEFSAII (Michael W. Deem and Ramdas Pophale) SiO2 
 PCOD9020076
Probable space group: P -1
;
_chemical_formula_sum "Si O2"
_cell_formula_units_Z 16
_cell_length_a 18.828059
_cell_length_b 16.610524
_cell_length_c 7.049184
_cell_angle_alpha 113.816280
_cell_angle_beta 57.957305
_cell_angle_gamma 159.084836
_cell_volume 635.677296
_symmetry_space_group_name_H-M "P -1"
_symmetry_group_IT_number 2
_symmetry_cell_setting 'triclinic'
loop_
_space_group_symop_operation_xyz
x,y,z
-x,-y,-z
loop_
_atom_site_type_symbol
_atom_site_label
_atom_site_fract_x
_atom_site_fract_y
_atom_site_fract_z
Si Si1 0.505379 0.900544 0.914022
Si Si2 0.445172 0.845798 0.389831
Si Si3 0.000035 0.328319 0.502344
Si Si4 0.135468 0.399605 0.947846
Si Si5 0.117857 0.962117 0.505752
Si Si6 0.324156 0.101922 0.759657
Si Si7 0.428641 0.525472 0.705674
Si Si8 0.671291 0.587916 0.857510
O O1 0.743502 0.106954 0.680345
O O2 0.513057 0.889942 0.118957
O O3 0.284705 0.631046 0.896612
O O4 0.500000 0.000000 0.000000
O O5 0.564991 0.887529 0.383781
O O6 0.177168 0.574979 0.537499
O O7 0.500000 0.000000 0.500000
O O8 0.008450 0.252601 0.555819
O O9 0.086169 0.379143 0.222017
O O10 0.298433 0.476720 0.738127
O O11 0.884228 0.115577 0.005846
O O12 0.915948 0.834596 0.653038
O O13 0.226767 0.049423 0.648464
O O14 0.333924 0.200417 0.310665
O O15 0.523166 0.360018 0.790132
O O16 0.500000 0.500000 0.500000
O O17 0.272561 0.361519 0.952001
O O18 0.500000 0.500000 0.000000
#
# Coordination Sequence:
#
# PCOD9020076 Si02
#       8
#     2   2   2   2   2   2   2   2
#     4  11  25  44  71 103 137 187 236 283 351 420
#     4  11  26  43  66 106 144 177 235 293 348 410
#     4  10  21  46  69  92 138 186 229 280 345 415
#     4  10  23  44  70  96 135 186 228 282 350 411
#     4  11  24  47  74  94 140 189 229 286 354 412
#     4  11  24  48  70  97 142 187 228 288 351 415
#     4  12  25  45  71 106 139 180 239 286 347 420
#     4  12  26  48  70 105 142 182 234 290 350 420
#
# _framework density 25.170002
#
# number of rings (size 3 to 8) (size 9 to 14) (size 15 to 20)
#    0.000    1.000    5.000    1.500    7.000    3.000 
#    4.500    0.000    0.000    0.000    0.000    0.000 
#    0.000    0.000    0.000    0.000    0.000    0.000 
#
# Total GULP energy -89228.776487 kJ/mol
# GULP energy per Si atom -5576.798530 kJ/mol
# Density = 2.511271 g / cm^3
# Si number density = 25.170002 Si / 1000 Ang^3
#
#
#
# Elastic Constant Matrix: (Units=GPa)
#
#
# Indices 1 2 3 4 5 6 
#
# 1 84.0196 7.0902 32.3427 6.7819 -20.0285 -1.4245
# 2 7.0902 116.8094 47.3434 -12.5029 -13.5365 -13.7497
# 3 32.3427 47.3434 121.0150 -29.6930 -14.1300 2.1896
# 4 6.7819 -12.5029 -29.6930 53.6185 4.6819 -3.4667
# 5 -20.0285 -13.5365 -14.1300 4.6819 51.8352 3.1536
# 6 -1.4245 -13.7497 2.1896 -3.4667 3.1536 33.4548
#
#
#
# Elastic Compliance Matrix: (Units=1/GPa)
#
#
# Indices 1 2 3 4 5 6 
#
# 1 0.015505 0.001346 -0.005287 -0.005005 0.005321 0.000539
# 2 0.001346 0.011110 -0.004563 0.000036 0.001885 0.004748
# 3 -0.005287 -0.004563 0.013144 0.006749 -0.000124 -0.002250
# 4 -0.005005 0.000036 0.006749 0.023361 -0.002316 0.001999
# 5 0.005321 0.001885 -0.000124 -0.002316 0.022095 -0.001313
# 6 0.000539 0.004748 -0.002250 0.001999 -0.001313 0.032344
#
#
# Mechanical properties :
#
#
# Convention : Reuss Voigt Hill
#
# Bulk Modulus (GPa) = 43.95512 55.04406 49.49959
# Shear Modulus (GPa) = 35.17407 43.45289 39.31348
#
# Velocity S-wave (km/s) = 3.74232 4.15948 3.95640
# Velocity P-wave (km/s) = 6.01452 6.70706 6.37021
#
# Compressibility (1/GPa) = 0.02275048
#
# Stress axis : x y z
#
# Youngs Moduli (GPa) = 64.49512 90.00945 76.08137
#
# Poissons Ratio (x) = -0.12116 0.40225
# Poissons Ratio (y) = -0.08682 0.34717
# Poissons Ratio (z) = 0.34099 0.41073
#
# Static dielectric constant tensor:
#      x y z
#    x 2.142960 0.062120 0.073950 
#    y 0.062120 2.041520 0.088930 
#    z 0.073950 0.088930 2.060900 
# 
# From -- ./inp_files/348505.got.cif
#   From: 2010.05.17/outbox.cif.g08.bks.cpg/sg2_175_cif.got.tgz:348505.got - 2010.06.03 11:33:40.
