data_PCOD9020327
_publ_section_title
;
Structure prediction by ZEFSAII (Michael W. Deem and Ramdas Pophale) SiO2 
 PCOD9020327
Probable space group: P -1
;
_chemical_formula_sum "Si O2"
_cell_formula_units_Z 16
_cell_length_a 14.740634
_cell_length_b 10.273545
_cell_length_c 8.855144
_cell_angle_alpha 52.065707
_cell_angle_beta 39.528862
_cell_angle_gamma 68.473153
_cell_volume 657.639358
_symmetry_space_group_name_H-M "P -1"
_symmetry_group_IT_number 2
_symmetry_cell_setting 'triclinic'
loop_
_space_group_symop_operation_xyz
x,y,z
-x,-y,-z
loop_
_atom_site_type_symbol
_atom_site_label
_atom_site_fract_x
_atom_site_fract_y
_atom_site_fract_z
Si Si1 0.070805 0.860533 0.591108
Si Si2 0.884264 0.656542 0.471275
Si Si3 0.187383 0.217447 0.817453
Si Si4 0.645216 0.469742 0.417458
Si Si5 0.929243 0.562729 0.784259
Si Si6 0.383913 0.850967 0.117975
Si Si7 0.540260 0.897119 0.381362
Si Si8 0.601818 0.380841 0.023917
O O1 0.243739 0.908605 0.326184
O O2 0.031063 0.674374 0.698091
O O3 0.000000 0.000000 0.500000
O O4 0.979432 0.833157 0.881568
O O5 0.815796 0.775449 0.364535
O O6 0.931860 0.702507 0.547135
O O7 0.001794 0.582539 0.276435
O O8 0.754601 0.497628 0.782158
O O9 0.269996 0.395077 0.661624
O O10 0.286481 0.094255 0.839439
O O11 0.500000 0.500000 0.500000
O O12 0.590512 0.291906 0.698399
O O13 0.775093 0.487171 0.114766
O O14 0.366816 0.746072 0.056138
O O15 0.491642 0.021316 0.794626
O O16 0.464439 0.711883 0.671473
O O17 0.500000 0.000000 0.500000
O O18 0.500000 0.500000 0.000000
#
# Coordination Sequence:
#
# PCOD9020327 Si02
#       8
#     2   2   2   2   2   2   2   2
#     4  11  21  40  68  88 133 170 211 253 321 394
#     4  11  21  39  66  90 130 156 219 270 314 365
#     4  11  21  40  67  92 115 175 214 250 319 388
#     4  11  24  40  66  93 127 159 219 264 318 379
#     4  10  24  38  60 101 122 160 212 274 313 371
#     4  11  21  40  63  93 124 169 209 262 322 375
#     4  10  22  34  58  97 123 156 215 255 313 383
#     4  11  20  35  66  93 120 167 214 259 313 375
#
# _framework density 24.329445
#
# number of rings (size 3 to 8) (size 9 to 14) (size 15 to 20)
#    0.000    1.250    5.000    0.750    3.500    2.000 
#    0.000    1.250    2.750    0.000    0.000    0.000 
#    0.000    0.000    0.000    0.000    0.000    0.000 
#
# Total GULP energy -89275.548937 kJ/mol
# GULP energy per Si atom -5579.721809 kJ/mol
# Density = 2.427407 g / cm^3
# Si number density = 24.329445 Si / 1000 Ang^3
#
#
#
# Elastic Constant Matrix: (Units=GPa)
#
#
# Indices 1 2 3 4 5 6 
#
# 1 55.0880 11.7363 36.1474 -9.3593 23.2728 -28.6744
# 2 11.7363 64.5579 22.3999 5.8326 6.0722 -12.9151
# 3 36.1474 22.3999 177.4104 7.9151 33.0179 -24.2403
# 4 -9.3593 5.8326 7.9151 33.9584 -16.2026 7.7195
# 5 23.2728 6.0722 33.0179 -16.2026 44.5131 -8.8764
# 6 -28.6744 -12.9151 -24.2403 7.7195 -8.8764 41.6919
#
#
#
# Elastic Compliance Matrix: (Units=1/GPa)
#
#
# Indices 1 2 3 4 5 6 
#
# 1 0.035763 -0.000388 -0.001892 -0.000717 -0.013383 0.020660
# 2 -0.000388 0.017578 -0.000706 -0.005383 -0.002591 0.005213
# 3 -0.001892 -0.000706 0.007962 -0.005969 -0.006426 0.002847
# 4 -0.000717 -0.005383 -0.005969 0.042913 0.019268 -0.009475
# 5 -0.013383 -0.002591 -0.006426 0.019268 0.039835 -0.008830
# 6 0.020660 0.005213 0.002847 -0.009475 -0.008830 0.041339
#
#
# Mechanical properties :
#
#
# Convention : Reuss Voigt Hill
#
# Bulk Modulus (GPa) = 18.07291 48.62484 33.34888
# Shear Modulus (GPa) = 23.83147 39.15086 31.49117
#
# Velocity S-wave (km/s) = 3.13314 4.01583 3.60163
# Velocity P-wave (km/s) = 4.53137 6.44453 5.57069
#
# Compressibility (1/GPa) = 0.05533144
#
# Stress axis : x y z
#
# Youngs Moduli (GPa) = 27.96206 56.88809 125.58953
#
# Poissons Ratio (x) = 0.02209 0.23764
# Poissons Ratio (y) = 0.01086 0.08861
# Poissons Ratio (z) = 0.05291 0.04014
#
# Static dielectric constant tensor:
#      x y z
#    x 2.050120 -0.036810 0.016390 
#    y -0.036810 2.013360 -0.050130 
#    z 0.016390 -0.050130 1.979580 
# 
# From -- ./inp_files/239740.got.cif
#   From: 2010.05.17/outbox.cif.g08.bks.cpg/sg2_120_cif.got.tgz:239740.got - 2010.06.03 11:33:40.
