data_PCOD9020985
_publ_section_title
;
Structure prediction by ZEFSAII (Michael W. Deem and Ramdas Pophale) SiO2 
 PCOD9020985
Probable space group: P -1
;
_chemical_formula_sum "Si O2"
_cell_formula_units_Z 16
_cell_length_a 11.359260
_cell_length_b 5.301558
_cell_length_c 11.672118
_cell_angle_alpha 102.824594
_cell_angle_beta 113.640524
_cell_angle_gamma 77.277164
_cell_volume 621.050539
_symmetry_space_group_name_H-M "P -1"
_symmetry_group_IT_number 2
_symmetry_cell_setting 'triclinic'
loop_
_space_group_symop_operation_xyz
x,y,z
-x,-y,-z
loop_
_atom_site_type_symbol
_atom_site_label
_atom_site_fract_x
_atom_site_fract_y
_atom_site_fract_z
Si Si1 0.451729 0.668551 0.855229
Si Si2 0.922448 0.221815 0.352989
Si Si3 0.399640 0.902916 0.610650
Si Si4 0.709754 0.929539 0.010006
Si Si5 0.064797 0.330415 0.782987
Si Si6 0.246184 0.593000 0.335622
Si Si7 0.386206 0.806474 0.213732
Si Si8 0.198993 0.322239 0.500093
O O1 0.334579 0.812334 0.901463
O O2 0.504213 0.359415 0.842244
O O3 0.412092 0.743227 0.716764
O O4 0.582811 0.785517 0.949205
O O5 0.888860 0.936147 0.295457
O O6 0.849495 0.388694 0.442987
O O7 0.073684 0.181835 0.439363
O O8 0.915888 0.415083 0.258569
O O9 0.539263 0.999364 0.663266
O O10 0.305958 0.175877 0.607599
O O11 0.333332 0.755725 0.469249
O O12 0.837053 0.732659 0.078328
O O13 0.717886 0.033149 0.894562
O O14 0.909643 0.330828 0.741505
O O15 0.320589 0.609457 0.247513
O O16 0.244694 0.340255 0.389548
#
# Coordination Sequence:
#
# PCOD9020985 Si02
#       8
#     2   2   2   2   2   2   2   2
#     4  10  23  44  66  96 127 171 231 282 342 394
#     4  10  23  39  66 102 141 174 222 278 349 400
#     4  11  22  40  65  98 131 175 220 282 343 406
#     4  10  24  43  69  93 130 174 231 288 334 395
#     4  11  24  44  70 104 134 181 224 287 340 404
#     4  11  25  42  63  99 139 174 224 272 347 415
#     4  11  25  43  65  93 133 184 226 278 334 410
#     4  10  22  37  63  95 137 177 213 280 338 417
#
# _framework density 25.762799999999999
#
# number of rings (size 3 to 8) (size 9 to 14) (size 15 to 20)
#    0.000    1.500    1.250    2.250    7.000    6.000 
#    0.000    0.625    0.000    0.000    0.000    0.000 
#    0.000    0.000    0.000    0.000    0.000    0.000 
#
# Total GULP energy -89464.500887 kJ/mol
# GULP energy per Si atom -5591.531305 kJ/mol
# Density = 2.570416 g / cm^3
# Si number density = 25.762800 Si / 1000 Ang^3
#
#
#
# Elastic Constant Matrix: (Units=GPa)
#
#
# Indices 1 2 3 4 5 6 
#
# 1 117.6833 19.9038 66.7904 -12.4672 4.9947 -1.7903
# 2 19.9038 50.9478 39.0578 -25.7384 10.6319 -8.0109
# 3 66.7904 39.0578 139.3424 -38.9176 31.0248 -4.5599
# 4 -12.4672 -25.7384 -38.9176 51.0702 1.8002 2.7858
# 5 4.9947 10.6319 31.0248 1.8002 38.2722 -7.2717
# 6 -1.7903 -8.0109 -4.5599 2.7858 -7.2717 28.0056
#
#
#
# Elastic Compliance Matrix: (Units=1/GPa)
#
#
# Indices 1 2 3 4 5 6 
#
# 1 0.012659 -0.002078 -0.007906 -0.004227 0.005689 0.000825
# 2 -0.002078 0.031141 -0.002584 0.013123 -0.005852 0.005529
# 3 -0.007906 -0.002584 0.017671 0.010879 -0.013656 -0.002995
# 4 -0.004227 0.013123 0.010879 0.034035 -0.013841 -0.001725
# 5 0.005689 -0.005852 -0.013656 -0.013841 0.040312 0.008310
# 6 0.000825 0.005529 -0.002995 -0.001725 0.008310 0.039183
#
#
# Mechanical properties :
#
#
# Convention : Reuss Voigt Hill
#
# Bulk Modulus (GPa) = 27.52084 62.16416 44.84250
# Shear Modulus (GPa) = 23.55750 35.61769 29.58759
#
# Velocity S-wave (km/s) = 3.02718 3.72226 3.39257
# Velocity P-wave (km/s) = 4.78791 6.53112 5.72623
#
# Compressibility (1/GPa) = 0.03633610
#
# Stress axis : x y z
#
# Youngs Moduli (GPa) = 78.99607 32.11250 56.58941
#
# Poissons Ratio (x) = 0.06672 0.44737
# Poissons Ratio (y) = 0.16412 0.14623
# Poissons Ratio (z) = 0.62451 0.08298
#
# Static dielectric constant tensor:
#      x y z
#    x 2.005750 -0.009080 -0.004260 
#    y -0.009080 2.062080 0.068200 
#    z -0.004260 0.068200 2.075060 
# 
# From -- ./inp_files/83210.got.cif
#   From: 2010.05.17/outbox.cif.g08.bks.cpg/sg2_42_cif.got.tgz:83210.got - 2010.06.03 11:33:40.
