data_PCOD9020113
_publ_section_title
;
Structure prediction by ZEFSAII (Michael W. Deem and Ramdas Pophale) SiO2 
 PCOD9020113
Probable space group: P -1
;
_chemical_formula_sum "Si O2"
_cell_formula_units_Z 16
_cell_length_a 14.519379
_cell_length_b 25.690967
_cell_length_c 18.607155
_cell_angle_alpha 160.983093
_cell_angle_beta 18.947213
_cell_angle_gamma 151.089654
_cell_volume 722.633867
_symmetry_space_group_name_H-M "P -1"
_symmetry_group_IT_number 2
_symmetry_cell_setting 'triclinic'
loop_
_space_group_symop_operation_xyz
x,y,z
-x,-y,-z
loop_
_atom_site_type_symbol
_atom_site_label
_atom_site_fract_x
_atom_site_fract_y
_atom_site_fract_z
Si Si1 0.639130 0.239218 0.404049
Si Si2 0.826164 0.999516 0.735725
Si Si3 0.907505 0.908605 0.707799
Si Si4 0.756335 0.342985 0.609827
Si Si5 0.394344 0.830101 0.364730
Si Si6 0.988321 0.440337 0.850307
Si Si7 0.673537 0.544809 0.692845
Si Si8 0.991959 0.733800 0.140525
O O1 0.756376 0.255514 0.418305
O O2 0.761072 0.364510 0.425143
O O3 0.296353 0.291189 0.721058
O O4 0.697161 0.059509 0.093765
O O5 0.841379 0.171776 0.914375
O O6 0.009825 0.967509 0.632033
O O7 0.919765 0.858126 0.423719
O O8 0.500000 0.000000 0.000000
O O9 0.136414 0.855170 0.531133
O O10 0.820787 0.737504 0.529862
O O11 0.698438 0.218913 0.552385
O O12 0.060030 0.403509 0.478584
O O13 0.500000 0.500000 0.000000
O O14 0.500000 0.000000 0.500000
O O15 0.616219 0.674072 0.969191
O O16 0.642790 0.444129 0.095698
O O17 0.104358 0.560886 0.866887
O O18 0.000000 0.500000 0.000000
#
# Coordination Sequence:
#
# PCOD9020113 Si02
#       8
#     2   2   2   2   2   2   2   2
#     4  11  23  43  73 101 134 183 241 284 344 417
#     4  11  22  44  69 100 136 182 233 285 340 414
#     4  11  24  42  70  99 143 175 226 293 351 394
#     4  12  26  46  75 100 137 192 235 284 353 417
#     4  11  26  46  68 104 141 179 232 289 351 414
#     4  10  21  46  71 102 144 183 223 294 354 411
#     4  10  24  46  70 104 140 177 239 287 344 425
#     4  10  23  42  71 101 131 181 240 273 342 430
#
# _framework density 22.141227000000001
#
# number of rings (size 3 to 8) (size 9 to 14) (size 15 to 20)
#    0.000    1.250    3.750    1.125    3.500    2.000 
#    4.500    0.625    0.000    0.000    0.000    0.000 
#    0.000    0.000    0.000    0.000    0.000    0.000 
#
# Total GULP energy -89367.004456 kJ/mol
# GULP energy per Si atom -5585.437779 kJ/mol
# Density = 2.209083 g / cm^3
# Si number density = 22.141227 Si / 1000 Ang^3
#
#
#
# Elastic Constant Matrix: (Units=GPa)
#
#
# Indices 1 2 3 4 5 6 
#
# 1 131.4851 47.2779 19.2689 10.3371 -1.6068 -18.2243
# 2 47.2779 173.0800 42.4195 25.8952 -2.5974 -31.5667
# 3 19.2689 42.4195 73.3483 33.5921 1.9138 -9.7031
# 4 10.3371 25.8952 33.5921 38.7234 3.5145 -4.0904
# 5 -1.6068 -2.5974 1.9138 3.5145 25.7325 7.9347
# 6 -18.2243 -31.5667 -9.7031 -4.0904 7.9347 36.7009
#
#
#
# Elastic Compliance Matrix: (Units=1/GPa)
#
#
# Indices 1 2 3 4 5 6 
#
# 1 0.008715 -0.001646 -0.000916 -0.000107 -0.000384 0.002741
# 2 -0.001646 0.008155 -0.002561 -0.002184 -0.000448 0.005373
# 3 -0.000916 -0.002561 0.024219 -0.018873 -0.000049 0.001652
# 4 -0.000107 -0.002184 -0.018873 0.043985 -0.004509 -0.001044
# 5 -0.000384 -0.000448 -0.000049 -0.004509 0.042587 -0.010299
# 6 0.002741 0.005373 0.001652 -0.001044 -0.010299 0.035777
#
#
# Mechanical properties :
#
#
# Convention : Reuss Voigt Hill
#
# Bulk Modulus (GPa) = 32.42266 66.20513 49.31389
# Shear Modulus (GPa) = 27.17907 38.16116 32.67011
#
# Velocity S-wave (km/s) = 3.50742 4.15605 3.84543
# Velocity P-wave (km/s) = 5.57476 7.27987 6.48362
#
# Compressibility (1/GPa) = 0.03084263
#
# Stress axis : x y z
#
# Youngs Moduli (GPa) = 114.74331 122.62448 41.28991
#
# Poissons Ratio (x) = 0.20184 0.03783
# Poissons Ratio (y) = 0.18886 0.10575
# Poissons Ratio (z) = 0.10512 0.31406
#
# Static dielectric constant tensor:
#      x y z
#    x 1.830090 0.030380 -0.009940 
#    y 0.030380 1.829580 -0.001360 
#    z -0.009940 -0.001360 1.840900 
# 
# From -- ./inp_files/352001.got.cif
#   From: 2010.05.17/outbox.cif.g08.bks.cpg/sg2_177_cif.got.tgz:352001.got - 2010.06.03 11:33:40.
