data_PCOD9020617
_publ_section_title
;
Structure prediction by ZEFSAII (Michael W. Deem and Ramdas Pophale) SiO2 
 PCOD9020617
Probable space group: P -1
;
_chemical_formula_sum "Si O2"
_cell_formula_units_Z 16
_cell_length_a 10.006275
_cell_length_b 10.574303
_cell_length_c 8.416036
_cell_angle_alpha 60.450926
_cell_angle_beta 90.623771
_cell_angle_gamma 108.331510
_cell_volume 724.057682
_symmetry_space_group_name_H-M "P -1"
_symmetry_group_IT_number 2
_symmetry_cell_setting 'triclinic'
loop_
_space_group_symop_operation_xyz
x,y,z
-x,-y,-z
loop_
_atom_site_type_symbol
_atom_site_label
_atom_site_fract_x
_atom_site_fract_y
_atom_site_fract_z
Si Si1 0.569799 0.061189 0.790952
Si Si2 0.844235 0.979226 0.861099
Si Si3 0.702295 0.158536 0.241056
Si Si4 0.363990 0.665629 0.579121
Si Si5 0.644316 0.417357 0.899184
Si Si6 0.374312 0.373291 0.474341
Si Si7 0.317849 0.372700 0.918018
Si Si8 0.144586 0.046924 0.755607
O O1 0.617348 0.245297 0.643391
O O2 0.707796 0.018321 0.786117
O O3 0.448472 0.976941 0.713725
O O4 0.500000 0.000000 0.000000
O O5 0.801931 0.793988 0.964112
O O6 0.862688 0.017521 0.025163
O O7 0.990462 0.058802 0.719465
O O8 0.697300 0.243458 0.352731
O O9 0.816842 0.074717 0.278694
O O10 0.708069 0.285512 0.025004
O O11 0.526971 0.680657 0.615696
O O12 0.284464 0.480677 0.714599
O O13 0.705569 0.532623 0.681997
O O14 0.471025 0.349301 0.911931
O O15 0.668518 0.525401 0.987822
O O16 0.500000 0.500000 0.500000
O O17 0.269832 0.215792 0.647573
#
# Coordination Sequence:
#
# PCOD9020617 Si02
#       8
#     2   2   2   2   2   2   2   2
#     4  12  22  36  63  95 118 158 212 252 299 362
#     4  11  23  40  60  87 128 162 201 253 309 366
#     4  11  21  39  61  91 122 159 207 253 300 356
#     4  10  22  36  63  92 123 154 207 262 296 350
#     4   9  19  33  61  88 116 151 211 251 291 355
#     4  11  22  36  61  93 123 157 206 256 304 361
#     4   9  18  37  58  87 117 161 197 250 305 352
#     4  11  24  40  58  90 127 165 196 251 319 361
#
# _framework density 22.097687000000001
#
# number of rings (size 3 to 8) (size 9 to 14) (size 15 to 20)
#    0.000    1.500    3.750    2.625    1.750    0.000 
#    0.000    6.250    0.000    3.750    0.000    0.000 
#    0.000    0.000    0.000    0.000    0.000    0.000 
#
# Total GULP energy -89289.454404 kJ/mol
# GULP energy per Si atom -5580.590900 kJ/mol
# Density = 2.204739 g / cm^3
# Si number density = 22.097687 Si / 1000 Ang^3
#
#
#
# Elastic Constant Matrix: (Units=GPa)
#
#
# Indices 1 2 3 4 5 6 
#
# 1 99.0308 30.1598 21.7440 -12.1374 -18.1103 -18.8287
# 2 30.1598 89.7650 21.7282 -17.8728 -10.4391 -21.8764
# 3 21.7440 21.7282 112.2199 -24.8967 7.6577 -11.8624
# 4 -12.1374 -17.8728 -24.8967 32.1553 -4.9038 2.7786
# 5 -18.1103 -10.4391 7.6577 -4.9038 21.8903 -2.6426
# 6 -18.8287 -21.8764 -11.8624 2.7786 -2.6426 24.1059
#
#
#
# Elastic Compliance Matrix: (Units=1/GPa)
#
#
# Indices 1 2 3 4 5 6 
#
# 1 0.017524 0.002523 -0.001665 0.008382 0.020141 0.016400
# 2 0.002523 0.019725 -0.000621 0.012281 0.016877 0.020000
# 3 -0.001665 -0.000621 0.011456 0.007099 -0.003784 0.002540
# 4 0.008382 0.012281 0.007099 0.048583 0.023382 0.018149
# 5 0.020141 0.016877 -0.003784 0.023382 0.081229 0.035395
# 6 0.016400 0.020000 0.002540 0.018149 0.035395 0.075482
#
#
# Mechanical properties :
#
#
# Convention : Reuss Voigt Hill
#
# Bulk Modulus (GPa) = 20.33409 49.80887 35.07148
# Shear Modulus (GPa) = 18.52424 30.78921 24.65672
#
# Velocity S-wave (km/s) = 2.89846 3.73677 3.34399
# Velocity P-wave (km/s) = 4.51922 6.41928 5.55115
#
# Compressibility (1/GPa) = 0.04917849
#
# Stress axis : x y z
#
# Youngs Moduli (GPa) = 57.06529 50.69775 87.29243
#
# Poissons Ratio (x) = -0.12793 0.14536
# Poissons Ratio (y) = -0.14399 0.05421
# Poissons Ratio (z) = 0.09503 0.03148
#
# Static dielectric constant tensor:
#      x y z
#    x 1.812280 -0.032120 -0.001150 
#    y -0.032120 1.871820 0.029140 
#    z -0.001150 0.029140 1.911080 
# 
# From -- ./inp_files/184292.got.cif
#   From: 2010.05.17/outbox.cif.g08.bks.cpg/sg2_93_cif.got.tgz:184292.got - 2010.06.03 11:33:40.
