data_PCOD9020177
_publ_section_title
;
Structure prediction by ZEFSAII (Michael W. Deem and Ramdas Pophale) SiO2 
 PCOD9020177
Probable space group: P -1
;
_chemical_formula_sum "Si O2"
_cell_formula_units_Z 12
_cell_length_a 9.365816
_cell_length_b 9.553643
_cell_length_c 14.247450
_cell_angle_alpha 71.003756
_cell_angle_beta 43.385581
_cell_angle_gamma 105.425742
_cell_volume 524.523663
_symmetry_space_group_name_H-M "P -1"
_symmetry_group_IT_number 2
_symmetry_cell_setting 'triclinic'
loop_
_space_group_symop_operation_xyz
x,y,z
-x,-y,-z
loop_
_atom_site_type_symbol
_atom_site_label
_atom_site_fract_x
_atom_site_fract_y
_atom_site_fract_z
Si Si1 0.186403 0.702326 0.943596
Si Si2 0.945086 0.036004 0.761474
Si Si3 0.247474 0.293681 0.743753
Si Si4 0.288776 0.961775 0.527563
Si Si5 0.254457 0.564321 0.125744
Si Si6 0.882989 0.538056 0.462130
O O1 0.499933 0.938746 0.688678
O O2 0.301584 0.658731 0.980558
O O3 0.000000 0.500000 0.000000
O O4 0.955191 0.698533 0.101816
O O5 0.014348 0.078336 0.830400
O O6 0.959146 0.209594 0.673073
O O7 0.221786 0.091686 0.564851
O O8 0.596122 0.767537 0.970926
O O9 0.500000 0.500000 0.500000
O O10 0.490926 0.339419 0.685527
O O11 0.934949 0.693282 0.738947
O O12 0.500000 0.000000 0.500000
O O13 0.002727 0.527098 0.312028
O O14 0.000000 0.500000 0.500000
#
# Coordination Sequence:
#
# PCOD9020177 Si02
#       6
#     2   2   2   2   2   2
#     4  12  24  46  81 109 157 204 249 316 386 446
#     4  11  25  50  76 105 161 201 251 322 377 451
#     4  10  21  46  80 106 146 203 253 311 379 452
#     4  12  27  48  76 113 154 202 259 309 380 463
#     4  12  26  47  76 114 155 200 257 315 381 457
#     4  11  25  46  79 115 150 194 262 319 376 451
#
# _framework density 22.877901000000001
#
# number of rings (size 3 to 8) (size 9 to 14) (size 15 to 20)
#    0.000    0.667    5.000    4.000    2.333    2.000 
#    6.000    2.500    0.000    0.000    0.000    0.000 
#    0.000    0.000    0.000    0.000    0.000    0.000 
#
# Total GULP energy -67158.121151 kJ/mol
# GULP energy per Si atom -5596.510096 kJ/mol
# Density = 2.282583 g / cm^3
# Si number density = 22.877901 Si / 1000 Ang^3
#
#
#
# Elastic Constant Matrix: (Units=GPa)
#
#
# Indices 1 2 3 4 5 6 
#
# 1 110.7459 46.0153 48.1176 -18.4023 -1.8857 17.1691
# 2 46.0153 148.8497 59.4027 12.1788 -11.8171 5.7036
# 3 48.1176 59.4027 123.1195 -1.1093 3.5402 13.9899
# 4 -18.4023 12.1788 -1.1093 51.5530 9.2854 -9.6820
# 5 -1.8857 -11.8171 3.5402 9.2854 45.2845 -5.8970
# 6 17.1691 5.7036 13.9899 -9.6820 -5.8970 43.9063
#
#
#
# Elastic Compliance Matrix: (Units=1/GPa)
#
#
# Indices 1 2 3 4 5 6 
#
# 1 0.012948 -0.003176 -0.003131 0.005050 -0.001436 -0.002732
# 2 -0.003176 0.009764 -0.003696 -0.004033 0.003629 0.000749
# 3 -0.003131 -0.003696 0.011450 -0.000010 -0.002281 -0.002253
# 4 0.005050 -0.004033 -0.000010 0.023682 -0.005298 0.003063
# 5 -0.001436 0.003629 -0.002281 -0.005298 0.024619 0.002955
# 6 -0.002732 0.000749 -0.002253 0.003063 0.002955 0.025537
#
#
# Mechanical properties :
#
#
# Convention : Reuss Voigt Hill
#
# Bulk Modulus (GPa) = 70.63204 76.64292 73.63748
# Shear Modulus (GPa) = 37.67197 43.42740 40.54968
#
# Velocity S-wave (km/s) = 4.06230 4.36159 4.21460
# Velocity P-wave (km/s) = 7.27623 7.67712 7.47936
#
# Compressibility (1/GPa) = 0.01415788
#
# Stress axis : x y z
#
# Youngs Moduli (GPa) = 77.23315 102.41516 87.33383
#
# Poissons Ratio (x) = 0.32525 0.27342
# Poissons Ratio (y) = 0.24528 0.32276
# Poissons Ratio (z) = 0.24180 0.37849
#
# Static dielectric constant tensor:
#      x y z
#    x 1.863340 -0.068360 -0.017500 
#    y -0.068360 1.835940 -0.049000 
#    z -0.017500 -0.049000 1.878720 
# 
# From -- ./inp_files/333725.got.cif
#   From: 2010.05.17/outbox.cif.g08.bks.cpg/sg2_167_cif.got.tgz:333725.got - 2010.06.03 11:33:40.
