data_PCOD9020761
_publ_section_title
;
Structure prediction by ZEFSAII (Michael W. Deem and Ramdas Pophale) SiO2 
 PCOD9020761
Probable space group: P -1
;
_chemical_formula_sum "Si O2"
_cell_formula_units_Z 12
_cell_length_a 10.323682
_cell_length_b 15.937503
_cell_length_c 13.355537
_cell_angle_alpha 154.031204
_cell_angle_beta 147.878855
_cell_angle_gamma 31.029040
_cell_volume 466.609534
_symmetry_space_group_name_H-M "P -1"
_symmetry_group_IT_number 2
_symmetry_cell_setting 'triclinic'
loop_
_space_group_symop_operation_xyz
x,y,z
-x,-y,-z
loop_
_atom_site_type_symbol
_atom_site_label
_atom_site_fract_x
_atom_site_fract_y
_atom_site_fract_z
Si Si1 0.336001 0.815037 0.325913
Si Si2 0.098911 0.254951 0.681151
Si Si3 0.982035 0.226968 0.098854
Si Si4 0.639665 0.229790 0.218954
Si Si5 0.069613 0.279822 0.925847
Si Si6 0.274353 0.509429 0.608568
O O1 0.552210 0.652523 0.366056
O O2 0.055471 0.852217 0.237111
O O3 0.340441 0.043658 0.574419
O O4 0.283072 0.746043 0.107955
O O5 0.070784 0.240058 0.765715
O O6 0.837908 0.268707 0.466578
O O7 0.112916 0.476348 0.909740
O O8 0.913268 0.285092 0.231818
O O9 0.100847 0.395131 0.322997
O O10 0.200008 0.994154 0.969825
O O11 0.571371 0.414497 0.289916
O O12 0.374374 0.233189 0.098803
#
# Coordination Sequence:
#
# PCOD9020761 Si02
#       6
#     2   2   2   2   2   2
#     4  11  23  39  61  88 119 153 193 240 290 346
#     4  10  22  37  56  87 120 153 191 232 287 347
#     4  10  24  41  61  87 115 155 199 239 288 341
#     4  11  23  39  61  88 119 153 193 240 290 346
#     4  11  22  37  60  89 120 153 190 237 294 347
#     4  11  22  41  63  85 117 154 196 243 287 340
#
# _framework density 25.717434000000001
#
# number of rings (size 3 to 8) (size 9 to 14) (size 15 to 20)
#    0.000    1.333    0.000    6.000    0.000    5.333 
#    0.000    0.000    0.000   17.000    0.000    0.000 
#    0.000    0.000    0.000    0.000    0.000    0.000 
#
# Total GULP energy -67240.779142 kJ/mol
# GULP energy per Si atom -5603.398262 kJ/mol
# Density = 2.565890 g / cm^3
# Si number density = 25.717434 Si / 1000 Ang^3
#
#
#
# Elastic Constant Matrix: (Units=GPa)
#
#
# Indices 1 2 3 4 5 6 
#
# 1 46.5027 -4.4433 7.0077 5.7313 5.6383 2.2267
# 2 -4.4433 93.3853 37.6567 4.2009 -7.4322 5.6700
# 3 7.0077 37.6567 138.0951 14.9095 -30.7427 7.7117
# 4 5.7313 4.2009 14.9095 44.2559 -3.0412 -5.7857
# 5 5.6383 -7.4322 -30.7427 -3.0412 31.1707 -0.7449
# 6 2.2267 5.6700 7.7117 -5.7857 -0.7449 27.4516
#
#
#
# Elastic Compliance Matrix: (Units=1/GPa)
#
#
# Indices 1 2 3 4 5 6 
#
# 1 0.023440 0.001977 -0.002799 -0.003061 -0.006884 -0.002355
# 2 0.001977 0.012274 -0.003503 -0.000551 -0.000984 -0.001854
# 3 -0.002799 -0.003503 0.011040 -0.002638 0.010244 -0.002429
# 4 -0.003061 -0.000551 -0.002638 0.024789 0.000391 0.006338
# 5 -0.006884 -0.000984 0.010244 0.000391 0.043212 -0.000861
# 6 -0.002355 -0.001854 -0.002429 0.006338 -0.000861 0.038996
#
#
# Mechanical properties :
#
#
# Convention : Reuss Voigt Hill
#
# Bulk Modulus (GPa) = 26.24539 39.82502 33.03521
# Shear Modulus (GPa) = 28.55469 36.42645 32.49057
#
# Velocity S-wave (km/s) = 3.33577 3.76761 3.55824
# Velocity P-wave (km/s) = 5.00639 5.86905 5.45480
#
# Compressibility (1/GPa) = 0.03810193
#
# Stress axis : x y z
#
# Youngs Moduli (GPa) = 42.66299 81.47231 90.58337
#
# Poissons Ratio (x) = -0.16105 0.25354
# Poissons Ratio (y) = -0.08433 0.31735
# Poissons Ratio (z) = 0.11941 0.28543
#
# Static dielectric constant tensor:
#      x y z
#    x 1.960440 -0.011120 -0.026050 
#    y -0.011120 2.075340 -0.010400 
#    z -0.026050 -0.010400 1.988170 
# 
# From -- ./inp_files/432011.got.cif
#   From: 2010.05.17/outbox.cif.g08.bks.cpg/sg2_217_cif.got.tgz:432011.got - 2010.06.03 11:33:40.
