data_PCOD9020521
_publ_section_title
;
Structure prediction by ZEFSAII (Michael W. Deem and Ramdas Pophale) SiO2 
 PCOD9020521
Probable space group: P -1
;
_chemical_formula_sum "Si O2"
_cell_formula_units_Z 16
_cell_length_a 8.113294
_cell_length_b 25.743489
_cell_length_c 4.975760
_cell_angle_alpha 89.365201
_cell_angle_beta 113.873694
_cell_angle_gamma 135.637725
_cell_volume 598.237676
_symmetry_space_group_name_H-M "P -1"
_symmetry_group_IT_number 2
_symmetry_cell_setting 'triclinic'
loop_
_space_group_symop_operation_xyz
x,y,z
-x,-y,-z
loop_
_atom_site_type_symbol
_atom_site_label
_atom_site_fract_x
_atom_site_fract_y
_atom_site_fract_z
Si Si1 0.321081 0.571637 0.603198
Si Si2 0.995415 0.058341 0.082350
Si Si3 0.903689 0.732540 0.105155
Si Si4 0.540868 0.797860 0.959655
Si Si5 0.618342 0.475080 0.858150
Si Si6 0.035929 0.361935 0.169458
Si Si7 0.141862 0.915716 0.507552
Si Si8 0.761595 0.166389 0.160192
O O1 0.567186 0.667315 0.839728
O O2 0.327798 0.563352 0.291902
O O3 0.000000 0.500000 0.500000
O O4 0.423923 0.545909 0.857191
O O5 0.313799 0.155099 0.235460
O O6 0.879746 0.041884 0.300958
O O7 0.800197 0.047091 0.744809
O O8 0.000000 0.000000 0.000000
O O9 0.970276 0.691331 0.014028
O O10 0.094198 0.811619 0.033858
O O11 0.011168 0.757758 0.479280
O O12 0.478742 0.843042 0.023295
O O13 0.248871 0.702506 0.834682
O O14 0.801511 0.825171 0.265875
O O15 0.312233 0.422950 0.540768
O O16 0.890202 0.572291 0.971183
O O17 0.299523 0.902104 0.737172
#
# Coordination Sequence:
#
# PCOD9020521 Si02
#       8
#     2   2   2   2   2   2   2   2
#     4  11  22  37  52  77 113 160 204 246 318 365
#     4  10  22  44  66  93 133 160 194 255 305 358
#     4  10  22  36  59  82 120 162 198 263 307 354
#     4   9  23  37  67  91 122 165 209 245 307 368
#     4  10  22  37  56  80 115 155 202 261 301 353
#     4   9  20  39  58  87 114 155 210 258 303 362
#     4  10  23  40  64  95 126 160 205 247 304 366
#     4  11  22  41  62  91 127 158 205 255 305 357
#
# _framework density 26.745224
#
# number of rings (size 3 to 8) (size 9 to 14) (size 15 to 20)
#    0.750    1.250    0.000    3.750    3.500    8.500 
#    0.000    1.250    0.000    0.000    0.000    0.000 
#    0.000    0.000    0.000    0.000    0.000    0.000 
#
# Total GULP energy -89384.690872 kJ/mol
# GULP energy per Si atom -5586.543179 kJ/mol
# Density = 2.668435 g / cm^3
# Si number density = 26.745224 Si / 1000 Ang^3
#
#
#
# Elastic Constant Matrix: (Units=GPa)
#
#
# Indices 1 2 3 4 5 6 
#
# 1 64.2025 11.1021 20.7260 9.4779 3.7220 8.3330
# 2 11.1021 118.4971 10.6002 -0.4787 12.6394 15.8312
# 3 20.7260 10.6002 66.3467 2.6511 -0.4603 10.4055
# 4 9.4779 -0.4787 2.6511 41.3186 3.9013 7.2011
# 5 3.7220 12.6394 -0.4603 3.9013 46.4828 10.9985
# 6 8.3330 15.8312 10.4055 7.2011 10.9985 54.4894
#
#
#
# Elastic Compliance Matrix: (Units=1/GPa)
#
#
# Indices 1 2 3 4 5 6 
#
# 1 0.018130 -0.001057 -0.005222 -0.003621 -0.000712 -0.000846
# 2 -0.001057 0.009104 -0.000856 0.000947 -0.001996 -0.002042
# 3 -0.005222 -0.000856 0.017239 0.000399 0.001398 -0.002580
# 4 -0.003621 0.000947 0.000399 0.025659 -0.001431 -0.002900
# 5 -0.000712 -0.001996 0.001398 -0.001431 0.023211 -0.004074
# 6 -0.000846 -0.002042 -0.002580 -0.002900 -0.004074 0.020773
#
#
# Mechanical properties :
#
#
# Convention : Reuss Voigt Hill
#
# Bulk Modulus (GPa) = 33.10961 37.10032 35.10496
# Shear Modulus (GPa) = 36.11313 42.23269 39.17291
#
# Velocity S-wave (km/s) = 3.67858 3.97807 3.83125
# Velocity P-wave (km/s) = 5.51807 5.91624 5.72062
#
# Compressibility (1/GPa) = 0.03020271
#
# Stress axis : x y z
#
# Youngs Moduli (GPa) = 55.15707 109.83976 58.00870
#
# Poissons Ratio (x) = 0.11612 0.30294
# Poissons Ratio (y) = 0.05831 0.04964
# Poissons Ratio (z) = 0.28805 0.09399
#
# Static dielectric constant tensor:
#      x y z
#    x 2.124540 -0.035880 0.045260 
#    y -0.035880 2.173870 0.062450 
#    z 0.045260 0.062450 2.099410 
# 
# From -- ./inp_files/56202.got.cif
#   From: 2010.05.17/outbox.cif.g08.bks.cpg/sg2_29_cif.got.tgz:56202.got - 2010.06.03 11:33:40.
