data_PCOD9020645
_publ_section_title
;
Structure prediction by ZEFSAII (Michael W. Deem and Ramdas Pophale) SiO2 
 PCOD9020645
Probable space group: P -1
;
_chemical_formula_sum "Si O2"
_cell_formula_units_Z 15
_cell_length_a 6.782643
_cell_length_b 7.983423
_cell_length_c 18.745957
_cell_angle_alpha 134.549520
_cell_angle_beta 97.046745
_cell_angle_gamma 101.619691
_cell_volume 655.938707
_symmetry_space_group_name_H-M "P -1"
_symmetry_group_IT_number 2
_symmetry_cell_setting 'triclinic'
loop_
_space_group_symop_operation_xyz
x,y,z
-x,-y,-z
loop_
_atom_site_type_symbol
_atom_site_label
_atom_site_fract_x
_atom_site_fract_y
_atom_site_fract_z
Si Si1 0.757323 0.804005 0.661790
Si Si2 0.000000 0.500000 0.500000
Si Si3 0.191971 0.920885 0.501725
Si Si4 0.537841 0.203561 0.967196
Si Si5 0.643116 0.420309 0.672921
Si Si6 0.250160 0.155109 0.080006
Si Si7 0.345004 0.903440 0.652687
Si Si8 0.223668 0.209711 0.836748
O O1 0.835495 0.660434 0.562416
O O2 0.655076 0.606076 0.663002
O O3 0.578157 0.904214 0.656083
O O4 0.968742 0.042725 0.771653
O O5 0.819343 0.328013 0.376417
O O6 0.409992 0.180658 0.594979
O O7 0.204447 0.725167 0.385114
O O8 0.188380 0.790338 0.540840
O O9 0.000000 0.000000 0.500000
O O10 0.403373 0.204333 0.032453
O O11 0.712668 0.495219 0.054082
O O12 0.358807 0.122422 0.873430
O O13 0.664546 0.021111 0.921433
O O14 0.713766 0.590657 0.797651
O O15 0.000000 0.000000 0.000000
O O16 0.325734 0.161158 0.752618
#
# Coordination Sequence:
#
# PCOD9020645 Si02
#       8
#     2   1   2   2   2   2   2   2
#     4  11  23  41  68  96 131 172 226 272 330 394
#     4  10  22  36  64  88 128 166 208 266 324 378
#     4  11  27  44  66  97 142 178 217 275 336 402
#     4  10  23  44  64  99 133 172 225 272 337 395
#     4  11  25  43  66 101 130 177 229 274 330 407
#     4  11  24  43  72  96 133 177 222 281 334 399
#     4  11  23  41  66  98 127 176 219 271 326 404
#     4  10  23  41  68  97 133 174 217 280 334 389
#
# _framework density 22.867992000000001
#
# number of rings (size 3 to 8) (size 9 to 14) (size 15 to 20)
#    0.000    1.333    1.333    2.800    1.867    9.600 
#    0.000    3.333    0.000    0.000    0.000    0.000 
#    0.000    0.000    0.000    0.000    0.000    0.000 
#
# Total GULP energy -83706.768250 kJ/mol
# GULP energy per Si atom -5580.451217 kJ/mol
# Density = 2.281594 g / cm^3
# Si number density = 22.867992 Si / 1000 Ang^3
#
#
#
# Elastic Constant Matrix: (Units=GPa)
#
#
# Indices 1 2 3 4 5 6 
#
# 1 146.1088 46.1993 56.5260 11.7427 8.1898 -20.5293
# 2 46.1993 66.8497 23.6653 10.1421 12.3854 -0.2434
# 3 56.5260 23.6653 161.3527 12.9730 1.0367 -8.1242
# 4 11.7427 10.1421 12.9730 20.1398 7.5071 -0.3221
# 5 8.1898 12.3854 1.0367 7.5071 36.5908 -1.0787
# 6 -20.5293 -0.2434 -8.1242 -0.3221 -1.0787 33.1409
#
#
#
# Elastic Compliance Matrix: (Units=1/GPa)
#
#
# Indices 1 2 3 4 5 6 
#
# 1 0.010740 -0.006376 -0.002404 -0.001523 0.000312 0.006012
# 2 -0.006376 0.021217 -0.000672 -0.004783 -0.004877 -0.004164
# 3 -0.002404 -0.000672 0.007430 -0.003520 0.001287 0.000335
# 4 -0.001523 -0.004783 -0.003520 0.058949 -0.010082 -0.001597
# 5 0.000312 -0.004877 0.001287 -0.010082 0.030983 0.001384
# 6 0.006012 -0.004164 0.000335 -0.001597 0.001384 0.033980
#
#
# Mechanical properties :
#
#
# Convention : Reuss Voigt Hill
#
# Bulk Modulus (GPa) = 48.82140 69.67695 59.24917
# Shear Modulus (GPa) = 26.45057 34.50234 30.47645
#
# Velocity S-wave (km/s) = 3.40466 3.88849 3.65459
# Velocity P-wave (km/s) = 6.07052 7.12010 6.61616
#
# Compressibility (1/GPa) = 0.02048282
#
# Stress axis : x y z
#
# Youngs Moduli (GPa) = 93.10865 47.13105 134.58886
#
# Poissons Ratio (x) = 0.30052 0.32358
# Poissons Ratio (y) = 0.59368 0.09044
# Poissons Ratio (z) = 0.22385 0.03167
#
# Static dielectric constant tensor:
#      x y z
#    x 1.860350 0.102570 0.007750 
#    y 0.102570 2.039740 0.001910 
#    z 0.007750 0.001910 1.881390 
# 
# From -- ./inp_files/582127.got.cif
#   From: 2010.05.17/outbox.cif.g08.bks.cpg/sg2_292_cif.got.tgz:582127.got - 2010.06.03 11:33:40.
