data_PCOD9020149
_publ_section_title
;
Structure prediction by ZEFSAII (Michael W. Deem and Ramdas Pophale) SiO2 
 PCOD9020149
Probable space group: P -1
;
_chemical_formula_sum "Si O2"
_cell_formula_units_Z 16
_cell_length_a 14.331552
_cell_length_b 19.591557
_cell_length_c 7.543156
_cell_angle_alpha 58.276235
_cell_angle_beta 59.175055
_cell_angle_gamma 20.654561
_cell_volume 633.983297
_symmetry_space_group_name_H-M "P -1"
_symmetry_group_IT_number 2
_symmetry_cell_setting 'triclinic'
loop_
_space_group_symop_operation_xyz
x,y,z
-x,-y,-z
loop_
_atom_site_type_symbol
_atom_site_label
_atom_site_fract_x
_atom_site_fract_y
_atom_site_fract_z
Si Si1 0.226274 0.291896 0.287522
Si Si2 0.144987 0.153265 0.063122
Si Si3 0.219919 0.789891 0.140421
Si Si4 0.720178 0.568180 0.938800
Si Si5 0.601291 0.992591 0.640051
Si Si6 0.048691 0.739521 0.283944
Si Si7 0.058473 0.048119 0.450564
Si Si8 0.679434 0.607749 0.508726
O O1 0.310600 0.323114 0.095013
O O2 0.335197 0.143743 0.270800
O O3 0.908502 0.500974 0.328105
O O4 0.345218 0.191715 0.505187
O O5 0.392738 0.990916 0.180267
O O6 0.008463 0.160197 0.230415
O O7 0.978672 0.342116 0.034384
O O8 0.120954 0.169439 0.851117
O O9 0.196484 0.724602 0.138055
O O10 0.483574 0.664601 0.064410
O O11 0.130205 0.820381 0.376834
O O12 0.000000 0.000000 0.000000
O O13 0.727497 0.584188 0.702591
O O14 0.838918 0.878825 0.459869
O O15 0.258362 0.527831 0.404854
O O16 0.375101 0.833025 0.467768
O O17 0.000000 0.000000 0.500000
#
# Coordination Sequence:
#
# PCOD9020149 Si02
#       8
#     2   2   2   2   2   2   2   2
#     4  10  22  44  74  99 144 193 236 291 354 421
#     4  11  25  43  70 108 140 183 237 295 358 420
#     4  12  23  42  72 100 144 187 230 293 355 428
#     4  11  24  40  69 108 140 190 238 286 361 423
#     4  10  21  46  74 104 141 187 239 295 352 418
#     4  10  23  44  73 103 142 188 232 290 362 424
#     4  12  26  44  70 106 147 183 239 294 357 424
#     4  10  23  45  71 101 141 191 237 292 351 422
#
# _framework density 25.237259999999999
#
# number of rings (size 3 to 8) (size 9 to 14) (size 15 to 20)
#    0.000    1.250    2.500    2.625    1.750    4.000 
#    0.000   15.625    0.000    0.000    0.000    0.000 
#    0.000    0.000    0.000    0.000    0.000    0.000 
#
# Total GULP energy -89525.941156 kJ/mol
# GULP energy per Si atom -5595.371322 kJ/mol
# Density = 2.517982 g / cm^3
# Si number density = 25.237260 Si / 1000 Ang^3
#
#
#
# Elastic Constant Matrix: (Units=GPa)
#
#
# Indices 1 2 3 4 5 6 
#
# 1 142.9790 32.9463 55.5186 -8.1756 -31.9392 -3.8771
# 2 32.9463 68.1917 32.9867 -5.2657 -4.0392 -5.7144
# 3 55.5186 32.9867 102.4601 4.3360 -22.3530 -5.7004
# 4 -8.1756 -5.2657 4.3360 34.9966 4.1581 -5.6718
# 5 -31.9392 -4.0392 -22.3530 4.1581 54.1868 -9.8902
# 6 -3.8771 -5.7144 -5.7004 -5.6718 -9.8902 28.0593
#
#
#
# Elastic Compliance Matrix: (Units=1/GPa)
#
#
# Indices 1 2 3 4 5 6 
#
# 1 0.010217 -0.002510 -0.003714 0.002289 0.004530 0.002205
# 2 -0.002510 0.018705 -0.005117 0.003494 -0.002023 0.002416
# 3 -0.003714 -0.005117 0.014587 -0.003588 0.004111 0.002132
# 4 0.002289 0.003494 -0.003588 0.031220 -0.001133 0.006210
# 5 0.004530 -0.002023 0.004111 -0.001133 0.024482 0.009449
# 6 0.002205 0.002416 0.002132 0.006210 0.009449 0.041455
#
#
# Mechanical properties :
#
#
# Convention : Reuss Voigt Hill
#
# Bulk Modulus (GPa) = 48.01293 61.83710 54.92501
# Shear Modulus (GPa) = 29.36182 36.26049 32.81116
#
# Velocity S-wave (km/s) = 3.41461 3.79461 3.60961
# Velocity P-wave (km/s) = 5.88320 6.61470 6.25964
#
# Compressibility (1/GPa) = 0.02082772
#
# Stress axis : x y z
#
# Youngs Moduli (GPa) = 97.87499 53.46242 68.55386
#
# Poissons Ratio (x) = 0.13418 0.25461
# Poissons Ratio (y) = 0.24565 0.35077
# Poissons Ratio (z) = 0.36351 0.27355
#
# Static dielectric constant tensor:
#      x y z
#    x 2.063240 0.002270 0.015610 
#    y 0.002270 1.969560 0.007190 
#    z 0.015610 0.007190 1.940550 
# 
# From -- ./inp_files/319252.got.cif
#   From: 2010.05.17/outbox.cif.g08.bks.cpg/sg2_160_cif.got.tgz:319252.got - 2010.06.03 11:33:40.
