data_PCOD9020064
_publ_section_title
;
Structure prediction by ZEFSAII (Michael W. Deem and Ramdas Pophale) SiO2 
 PCOD9020064
Probable space group: P -1
;
_chemical_formula_sum "Si O2"
_cell_formula_units_Z 16
_cell_length_a 8.743008
_cell_length_b 11.986249
_cell_length_c 14.616387
_cell_angle_alpha 38.168071
_cell_angle_beta 125.047896
_cell_angle_gamma 102.603180
_cell_volume 687.624011
_symmetry_space_group_name_H-M "P -1"
_symmetry_group_IT_number 2
_symmetry_cell_setting 'triclinic'
loop_
_space_group_symop_operation_xyz
x,y,z
-x,-y,-z
loop_
_atom_site_type_symbol
_atom_site_label
_atom_site_fract_x
_atom_site_fract_y
_atom_site_fract_z
Si Si1 0.683300 0.835585 0.955082
Si Si2 0.299442 0.899793 0.676756
Si Si3 0.445425 0.859338 0.139233
Si Si4 0.087258 0.761310 0.031425
Si Si5 0.580501 0.285119 0.357199
Si Si6 0.788067 0.528570 0.360059
Si Si7 0.137127 0.671092 0.899201
Si Si8 0.757299 0.690094 0.647568
O O1 0.754533 0.675088 0.166490
O O2 0.873433 0.832639 0.965864
O O3 0.536263 0.785341 0.870968
O O4 0.555103 0.056264 0.815457
O O5 0.311115 0.855709 0.601404
O O6 0.168513 0.815289 0.743541
O O7 0.227041 0.136387 0.517195
O O8 0.217333 0.877192 0.031460
O O9 0.610765 0.637282 0.306813
O O10 0.500000 0.000000 0.000000
O O11 0.217983 0.517793 0.253298
O O12 0.062437 0.778846 0.902103
O O13 0.742965 0.348981 0.420910
O O14 0.464561 0.206107 0.440972
O O15 0.370942 0.485582 0.118600
O O16 0.000000 0.500000 0.500000
O O17 0.960400 0.618617 0.830319
#
# Coordination Sequence:
#
# PCOD9020064 Si02
#       8
#     2   2   2   2   2   2   2   2
#     4  11  24  44  72 103 136 185 235 290 348 419
#     4  12  24  42  67 107 146 180 233 290 355 416
#     4  10  21  46  68  98 133 176 237 284 341 410
#     4  11  22  44  71  98 139 187 237 281 355 410
#     4  11  22  45  70 100 144 186 230 287 352 425
#     4  11  24  47  73 102 140 186 231 288 353 417
#     4  11  21  42  71  98 142 189 226 290 349 420
#     4  11  24  40  65 105 144 182 226 293 348 417
#
# _framework density 23.268532
#
# number of rings (size 3 to 8) (size 9 to 14) (size 15 to 20)
#    0.000    1.000    3.750    5.250    1.750    1.000 
#   13.500    1.250    0.000    0.000    0.000    0.000 
#    0.000    0.000    0.000    0.000    0.000    0.000 
#
# Total GULP energy -89473.365142 kJ/mol
# GULP energy per Si atom -5592.085321 kJ/mol
# Density = 2.321557 g / cm^3
# Si number density = 23.268532 Si / 1000 Ang^3
#
#
#
# Elastic Constant Matrix: (Units=GPa)
#
#
# Indices 1 2 3 4 5 6 
#
# 1 142.9531 46.7290 -0.5747 1.1055 10.9706 13.8136
# 2 46.7290 135.4133 6.1426 15.0136 10.7098 17.2722
# 3 -0.5747 6.1426 48.0717 11.2931 2.1720 15.1712
# 4 1.1055 15.0136 11.2931 30.2767 18.0851 10.3414
# 5 10.9706 10.7098 2.1720 18.0851 23.4658 -1.4704
# 6 13.8136 17.2722 15.1712 10.3414 -1.4704 54.5267
#
#
#
# Elastic Compliance Matrix: (Units=1/GPa)
#
#
# Indices 1 2 3 4 5 6 
#
# 1 0.008787 -0.002775 0.000106 0.007114 -0.008519 -0.002956
# 2 -0.002775 0.008945 0.000217 -0.004088 0.000257 -0.001409
# 3 0.000106 0.000217 0.024621 -0.011274 0.005970 -0.004647
# 4 0.007114 -0.004088 -0.011274 0.083210 -0.065482 -0.014918
# 5 -0.008519 0.000257 0.005970 -0.065482 0.097364 0.015460
# 6 -0.002956 -0.001409 -0.004647 -0.014918 0.015460 0.024074
#
#
# Mechanical properties :
#
#
# Convention : Reuss Voigt Hill
#
# Bulk Modulus (GPa) = 26.70259 47.89244 37.29752
# Shear Modulus (GPa) = 18.91155 39.92993 29.42074
#
# Velocity S-wave (km/s) = 2.85397 4.14702 3.55970
# Velocity P-wave (km/s) = 4.72874 6.59981 5.74101
#
# Compressibility (1/GPa) = 0.03744955
#
# Stress axis : x y z
#
# Youngs Moduli (GPa) = 113.80123 111.79207 40.61557
#
# Poissons Ratio (x) = 0.31024 -0.00431
# Poissons Ratio (y) = 0.31581 -0.00882
# Poissons Ratio (z) = -0.01207 -0.02426
#
# Static dielectric constant tensor:
#      x y z
#    x 1.831520 0.000440 0.018330 
#    y 0.000440 1.872340 -0.012090 
#    z 0.018330 -0.012090 1.969870 
# 
# From -- ./inp_files/399190.got.cif
#   From: 2010.05.17/outbox.cif.g08.bks.cpg/sg2_200_cif.got.tgz:399190.got - 2010.06.03 11:33:40.
