data_PCOD9020394
_publ_section_title
;
Structure prediction by ZEFSAII (Michael W. Deem and Ramdas Pophale) SiO2 
 PCOD9020394
Probable space group: P -1
;
_chemical_formula_sum "Si O2"
_cell_formula_units_Z 14
_cell_length_a 8.153910
_cell_length_b 11.113660
_cell_length_c 7.962463
_cell_angle_alpha 72.266291
_cell_angle_beta 100.472926
_cell_angle_gamma 100.210217
_cell_volume 670.073059
_symmetry_space_group_name_H-M "P -1"
_symmetry_group_IT_number 2
_symmetry_cell_setting 'triclinic'
loop_
_space_group_symop_operation_xyz
x,y,z
-x,-y,-z
loop_
_atom_site_type_symbol
_atom_site_label
_atom_site_fract_x
_atom_site_fract_y
_atom_site_fract_z
Si Si1 0.740353 0.448584 0.015756
Si Si2 0.808393 0.911676 0.758465
Si Si3 0.155627 0.804473 0.858934
Si Si4 0.620712 0.683350 0.016933
Si Si5 0.641368 0.984182 0.395356
Si Si6 0.336706 0.854796 0.224361
Si Si7 0.574964 0.397526 0.668800
O O1 0.558093 0.374878 0.075483
O O2 0.708145 0.461822 0.804396
O O3 0.868760 0.347354 0.112921
O O4 0.754347 0.585798 0.043731
O O5 0.759636 0.900484 0.556644
O O6 0.989224 0.868208 0.834180
O O7 0.785779 0.054819 0.750930
O O8 0.682671 0.818457 0.891154
O O9 0.253408 0.884809 0.695044
O O10 0.273424 0.826068 0.036339
O O11 0.572875 0.673206 0.207935
O O12 0.527444 0.924846 0.246320
O O13 0.500000 0.000000 0.500000
O O14 0.346049 0.714821 0.363931
O O15 0.500000 0.500000 0.500000
#
# Coordination Sequence:
#
# PCOD9020394 Si02
#       7
#     2   2   2   2   2   2   2
#     4   8  18  35  58  79 110 148 195 233 273 330
#     4  11  23  36  55  89 122 150 181 234 294 344
#     4  11  21  38  58  86 119 151 184 233 297 334
#     4   9  19  35  56  82 111 148 196 230 278 329
#     4  10  22  35  59  83 113 148 198 231 271 337
#     4  10  22  37  60  84 114 151 194 234 278 336
#     4   9  19  33  59  84 104 139 198 243 268 317
#
# _framework density 20.893243999999999
#
# number of rings (size 3 to 8) (size 9 to 14) (size 15 to 20)
#    0.857    1.429    0.000    3.000    4.000    2.857 
#    0.000    0.000    0.000    3.429    0.000    0.000 
#    0.000    0.000    0.000    0.000    0.000    0.000 
#
# Total GULP energy -77973.294678 kJ/mol
# GULP energy per Si atom -5569.521048 kJ/mol
# Density = 2.084569 g / cm^3
# Si number density = 20.893244 Si / 1000 Ang^3
#
#
#
# Elastic Constant Matrix: (Units=GPa)
#
#
# Indices 1 2 3 4 5 6 
#
# 1 48.8756 31.5255 33.8105 -17.8154 5.9972 -20.7703
# 2 31.5255 82.9432 24.1503 -19.2055 20.1550 -42.4953
# 3 33.8105 24.1503 107.3281 -27.8785 22.4065 -7.7193
# 4 -17.8154 -19.2055 -27.8785 27.2911 -8.0039 12.4212
# 5 5.9972 20.1550 22.4065 -8.0039 17.5067 -5.2138
# 6 -20.7703 -42.4953 -7.7193 12.4212 -5.2138 30.3759
#
#
#
# Elastic Compliance Matrix: (Units=1/GPa)
#
#
# Indices 1 2 3 4 5 6 
#
# 1 0.039527 -0.005735 -0.011326 0.007672 0.015738 0.015691
# 2 -0.005735 0.076805 0.002405 -0.010713 -0.065462 0.097283
# 3 -0.011326 0.002405 0.018927 0.011148 -0.020282 -0.007610
# 4 0.007672 -0.010713 0.011148 0.063893 0.015608 -0.030356
# 5 0.015738 -0.065462 -0.020282 0.015608 0.139833 -0.068355
# 6 0.015691 0.097283 -0.007610 -0.030356 -0.068355 0.178494
#
#
# Mechanical properties :
#
#
# Convention : Reuss Voigt Hill
#
# Bulk Modulus (GPa) = 9.43861 46.45773 27.94817
# Shear Modulus (GPa) = 8.58950 25.01208 16.80079
#
# Velocity S-wave (km/s) = 2.02979 3.46372 2.83879
# Velocity P-wave (km/s) = 3.16556 6.18713 4.91433
#
# Compressibility (1/GPa) = 0.10594777
#
# Stress axis : x y z
#
# Youngs Moduli (GPa) = 25.29890 13.02005 52.83559
#
# Poissons Ratio (x) = 0.07466 0.59840
# Poissons Ratio (y) = 0.14508 -0.12706
# Poissons Ratio (z) = 0.28653 -0.03131
#
# Static dielectric constant tensor:
#      x y z
#    x 1.789970 -0.013880 0.039650 
#    y -0.013880 1.822480 0.029220 
#    z 0.039650 0.029220 1.783860 
# 
# From -- ./inp_files/168018.got.cif
#   From: 2010.05.17/outbox.cif.g08.bks.cpg/sg2_85_cif.got.tgz:168018.got - 2010.06.03 11:33:40.
