data_PCOD9020903
_publ_section_title
;
Structure prediction by ZEFSAII (Michael W. Deem and Ramdas Pophale) SiO2 
 PCOD9020903
Probable space group: P -1
;
_chemical_formula_sum "Si O2"
_cell_formula_units_Z 16
_cell_length_a 11.887084
_cell_length_b 5.824534
_cell_length_c 19.577266
_cell_angle_alpha 91.271029
_cell_angle_beta 30.886328
_cell_angle_gamma 101.172080
_cell_volume 654.084303
_symmetry_space_group_name_H-M "P -1"
_symmetry_group_IT_number 2
_symmetry_cell_setting 'triclinic'
loop_
_space_group_symop_operation_xyz
x,y,z
-x,-y,-z
loop_
_atom_site_type_symbol
_atom_site_label
_atom_site_fract_x
_atom_site_fract_y
_atom_site_fract_z
Si Si1 0.238671 0.460281 0.546781
Si Si2 0.062622 0.770978 0.429770
Si Si3 0.656146 0.871760 0.277451
Si Si4 0.434964 0.545310 0.926969
Si Si5 0.306810 0.128942 0.104858
Si Si6 0.407359 0.160842 0.844442
Si Si7 0.370007 0.755788 0.608787
Si Si8 0.061957 0.799921 0.128321
O O1 0.388969 0.708942 0.429851
O O2 0.196345 0.569593 0.643793
O O3 0.422502 0.329134 0.471550
O O4 0.052893 0.302600 0.586773
O O5 0.343393 0.871065 0.277815
O O6 0.000000 0.500000 0.500000
O O7 0.000000 0.000000 0.500000
O O8 0.687387 0.898351 0.181690
O O9 0.736980 0.135044 0.273197
O O10 0.806621 0.720614 0.231135
O O11 0.669268 0.752614 0.832812
O O12 0.453612 0.441029 0.843010
O O13 0.210117 0.623499 0.050673
O O14 0.391900 0.337232 0.005037
O O15 0.500000 0.000000 0.000000
O O16 0.074271 0.934104 0.195839
O O17 0.215798 0.999755 0.995239
O O18 0.500000 0.000000 0.500000
#
# Coordination Sequence:
#
# PCOD9020903 Si02
#       8
#     2   2   2   2   2   2   2   2
#     4  10  22  43  70 100 131 178 233 292 350 414
#     4  12  27  47  75 104 137 184 235 293 356 413
#     4  11  22  40  64  95 139 176 226 280 346 417
#     4   9  19  36  58  87 127 168 223 271 334 405
#     4   8  16  36  58  81 120 168 219 273 323 399
#     4  11  24  40  63  96 135 179 224 281 344 416
#     4   9  21  42  68  97 132 176 232 290 348 413
#     4  10  22  37  61  95 131 179 220 274 344 412
#
# _framework density 24.461680000000001
#
# number of rings (size 3 to 8) (size 9 to 14) (size 15 to 20)
#    0.000    2.000    1.250    1.125    3.500    4.500 
#    0.000   21.250    0.000    0.000    0.000    0.000 
#    0.000    0.000    0.000    0.000    0.000    0.000 
#
# Total GULP energy -89335.528524 kJ/mol
# GULP energy per Si atom -5583.470533 kJ/mol
# Density = 2.440600 g / cm^3
# Si number density = 24.461680 Si / 1000 Ang^3
#
#
#
# Elastic Constant Matrix: (Units=GPa)
#
#
# Indices 1 2 3 4 5 6 
#
# 1 196.5614 73.5797 39.7762 23.9750 1.5265 36.3176
# 2 73.5797 116.4663 24.2736 18.5356 8.4583 27.9214
# 3 39.7762 24.2736 69.3417 12.7940 -6.5606 27.7432
# 4 23.9750 18.5356 12.7940 44.3773 9.9556 4.4098
# 5 1.5265 8.4583 -6.5606 9.9556 34.6554 2.3780
# 6 36.3176 27.9214 27.7432 4.4098 2.3780 46.8884
#
#
#
# Elastic Compliance Matrix: (Units=1/GPa)
#
#
# Indices 1 2 3 4 5 6 
#
# 1 0.007434 -0.003491 -0.001501 -0.002092 0.001023 -0.002647
# 2 -0.003491 0.012376 -0.000470 -0.002291 -0.002019 -0.004070
# 3 -0.001501 -0.000470 0.021555 -0.005590 0.006630 -0.011122
# 4 -0.002092 -0.002291 -0.005590 0.027767 -0.008666 0.004120
# 5 0.001023 -0.002019 0.006630 -0.008666 0.033349 -0.004390
# 6 -0.002647 -0.004070 -0.011122 0.004120 -0.004390 0.032217
#
#
# Mechanical properties :
#
#
# Convention : Reuss Voigt Hill
#
# Bulk Modulus (GPa) = 32.84805 73.06982 52.95893
# Shear Modulus (GPa) = 32.09863 41.50021 36.79942
#
# Velocity S-wave (km/s) = 3.62636 4.12338 3.88283
# Velocity P-wave (km/s) = 5.56700 7.25297 6.46518
#
# Compressibility (1/GPa) = 0.03044321
#
# Stress axis : x y z
#
# Youngs Moduli (GPa) = 134.51573 80.79889 46.39235
#
# Poissons Ratio (x) = 0.28204 0.06962
# Poissons Ratio (y) = 0.46955 0.02180
# Poissons Ratio (z) = 0.20187 0.03796
#
# Static dielectric constant tensor:
#      x y z
#    x 1.937520 0.042560 0.028460 
#    y 0.042560 2.130970 -0.070960 
#    z 0.028460 -0.070960 1.959150 
# 
# From -- ./inp_files/367867.got.cif
#   From: 2010.05.17/outbox.cif.g08.bks.cpg/sg2_184_cif.got.tgz:367867.got - 2010.06.03 11:33:40.
