data_PCOD9020105
_publ_section_title
;
Structure prediction by ZEFSAII (Michael W. Deem and Ramdas Pophale) SiO2 
 PCOD9020105
Probable space group: P -1
;
_chemical_formula_sum "Si O2"
_cell_formula_units_Z 14
_cell_length_a 14.343074
_cell_length_b 9.300897
_cell_length_c 11.376077
_cell_angle_alpha 99.603160
_cell_angle_beta 27.543160
_cell_angle_gamma 84.461797
_cell_volume 584.100841
_symmetry_space_group_name_H-M "P -1"
_symmetry_group_IT_number 2
_symmetry_cell_setting 'triclinic'
loop_
_space_group_symop_operation_xyz
x,y,z
-x,-y,-z
loop_
_atom_site_type_symbol
_atom_site_label
_atom_site_fract_x
_atom_site_fract_y
_atom_site_fract_z
Si Si1 0.401699 0.417623 0.012101
Si Si2 0.089972 0.578411 0.171670
Si Si3 0.121863 0.905587 0.174576
Si Si4 0.605546 0.120259 0.901382
Si Si5 0.756884 0.971199 0.181086
Si Si6 0.095071 0.562161 0.797625
Si Si7 0.595411 0.313867 0.535384
O O1 0.162890 0.547065 0.223535
O O2 0.402684 0.279812 0.075224
O O3 0.592429 0.319556 0.680942
O O4 0.500000 0.500000 0.000000
O O5 0.314322 0.406122 0.837687
O O6 0.096056 0.743741 0.148460
O O7 0.879728 0.557566 0.357311
O O8 0.318471 0.852189 0.050744
O O9 0.858227 0.040723 0.539261
O O10 0.196104 0.981373 0.994706
O O11 0.500000 0.000000 0.000000
O O12 0.500000 0.000000 0.500000
O O13 0.745824 0.121483 0.293712
O O14 0.938981 0.768265 0.974593
O O15 0.337143 0.549988 0.561233
O O16 0.000000 0.500000 0.000000
#
# Coordination Sequence:
#
# PCOD9020105 Si02
#       7
#     2   2   2   2   2   2   2
#     4  10  21  46  70  99 140 182 234 284 360 409
#     4  10  24  45  69 102 140 188 231 297 351 424
#     4  11  26  46  71 106 146 182 246 291 358 419
#     4  11  25  46  73 103 139 193 235 299 350 428
#     4  12  25  46  73 104 147 190 232 299 355 426
#     4  12  26  43  69 103 135 191 238 282 360 427
#     4  10  24  44  71  98 148 182 232 298 351 422
#
# _framework density 23.968463
#
# number of rings (size 3 to 8) (size 9 to 14) (size 15 to 20)
#    0.857    0.286    2.857    2.143    6.000    4.571 
#    0.000    1.429    0.000    0.000    0.000    0.000 
#    0.000    0.000    0.000    0.000    0.000    0.000 
#
# Total GULP energy -78137.110603 kJ/mol
# GULP energy per Si atom -5581.222186 kJ/mol
# Density = 2.391391 g / cm^3
# Si number density = 23.968463 Si / 1000 Ang^3
#
#
#
# Elastic Constant Matrix: (Units=GPa)
#
#
# Indices 1 2 3 4 5 6 
#
# 1 138.3140 59.1326 37.2796 -18.7882 15.7727 11.7368
# 2 59.1326 165.3224 20.6753 -34.2465 12.1994 1.9708
# 3 37.2796 20.6753 100.4870 -11.2819 9.0248 -6.9526
# 4 -18.7882 -34.2465 -11.2819 36.9835 1.3285 -5.0166
# 5 15.7727 12.1994 9.0248 1.3285 39.4174 -7.8302
# 6 11.7368 1.9708 -6.9526 -5.0166 -7.8302 51.3002
#
#
#
# Elastic Compliance Matrix: (Units=1/GPa)
#
#
# Indices 1 2 3 4 5 6 
#
# 1 0.009934 -0.002625 -0.002903 0.001449 -0.003123 -0.002900
# 2 -0.002625 0.008475 0.000187 0.006727 -0.001704 0.000698
# 3 -0.002903 0.000187 0.011543 0.002573 -0.001170 0.002294
# 4 0.001449 0.006727 0.002573 0.035285 -0.003922 0.002611
# 5 -0.003123 -0.001704 -0.001170 -0.003922 0.028456 0.004581
# 6 -0.002900 0.000698 0.002294 0.002611 0.004581 0.021395
#
#
# Mechanical properties :
#
#
# Convention : Reuss Voigt Hill
#
# Bulk Modulus (GPa) = 51.89520 70.92206 61.40863
# Shear Modulus (GPa) = 37.82358 44.67595 41.24976
#
# Velocity S-wave (km/s) = 3.97679 4.32203 4.15300
# Velocity P-wave (km/s) = 6.54102 7.38651 6.97658
#
# Compressibility (1/GPa) = 0.01926960
#
# Stress axis : x y z
#
# Youngs Moduli (GPa) = 100.66940 117.99041 86.63534
#
# Poissons Ratio (x) = 0.30970 0.25147
# Poissons Ratio (y) = 0.26424 -0.01616
# Poissons Ratio (z) = 0.29221 -0.02201
#
# Static dielectric constant tensor:
#      x y z
#    x 1.940980 -0.044200 -0.037520 
#    y -0.044200 1.843010 -0.132740 
#    z -0.037520 -0.132740 2.045150 
# 
# From -- ./inp_files/447439.got.cif
#   From: 2010.05.17/outbox.cif.g08.bks.cpg/sg2_224_cif.got.tgz:447439.got - 2010.06.03 11:33:40.
