data_PCOD9020920
_publ_section_title
;
Structure prediction by ZEFSAII (Michael W. Deem and Ramdas Pophale) SiO2 
 PCOD9020920
Probable space group: P -1
;
_chemical_formula_sum "Si O2"
_cell_formula_units_Z 12
_cell_length_a 5.261683
_cell_length_b 7.084397
_cell_length_c 14.936467
_cell_angle_alpha 85.223917
_cell_angle_beta 61.851334
_cell_angle_gamma 63.652732
_cell_volume 434.282608
_symmetry_space_group_name_H-M "P -1"
_symmetry_group_IT_number 2
_symmetry_cell_setting 'triclinic'
loop_
_space_group_symop_operation_xyz
x,y,z
-x,-y,-z
loop_
_atom_site_type_symbol
_atom_site_label
_atom_site_fract_x
_atom_site_fract_y
_atom_site_fract_z
Si Si1 0.804645 0.120624 0.915922
Si Si2 0.241957 0.286955 0.119541
Si Si3 0.811197 0.266249 0.566732
Si Si4 0.532574 0.171538 0.244449
Si Si5 0.511845 0.766243 0.548060
Si Si6 0.576245 0.618490 0.203353
O O1 0.606266 0.255397 0.858538
O O2 0.804951 0.890199 0.921449
O O3 0.598825 0.247227 0.031054
O O4 0.185346 0.035616 0.841555
O O5 0.223860 0.231105 0.229241
O O6 0.964719 0.522296 0.138055
O O7 0.638186 0.517917 0.560200
O O8 0.764715 0.170212 0.483994
O O9 0.601697 0.247820 0.684184
O O10 0.168814 0.221230 0.541028
O O11 0.551658 0.127444 0.347849
O O12 0.549801 0.396280 0.224183
#
# Coordination Sequence:
#
# PCOD9020920 Si02
#       6
#     2   2   2   2   2   2
#     4  10  22  41  58  89 122 157 203 258 309 369
#     4  10  22  39  62  86 121 160 202 254 314 369
#     4   9  19  34  59  91 122 161 206 254 309 371
#     4  10  22  37  63  87 119 162 203 252 310 368
#     4   9  19  34  60  89 123 162 205 254 309 372
#     4  10  22  37  62  89 120 158 206 253 308 370
#
# _framework density 27.631777
#
# number of rings (size 3 to 8) (size 9 to 14) (size 15 to 20)
#    0.000    2.333    0.000    1.000   14.000    2.000 
#    0.000    1.667    0.000    0.000    0.000    0.000 
#    0.000    0.000    0.000    0.000    0.000    0.000 
#
# Total GULP energy -67159.370175 kJ/mol
# GULP energy per Si atom -5596.614181 kJ/mol
# Density = 2.756889 g / cm^3
# Si number density = 27.631777 Si / 1000 Ang^3
#
#
#
# Elastic Constant Matrix: (Units=GPa)
#
#
# Indices 1 2 3 4 5 6 
#
# 1 110.4112 6.5478 39.1994 -4.3101 19.9193 -42.0120
# 2 6.5478 97.7374 19.2052 -13.5072 10.9993 -13.2908
# 3 39.1994 19.2052 145.1853 -7.6384 21.7526 -19.5836
# 4 -4.3101 -13.5072 -7.6384 29.1503 -4.4553 10.6811
# 5 19.9193 10.9993 21.7526 -4.4553 40.6847 -2.6714
# 6 -42.0120 -13.2908 -19.5836 10.6811 -2.6714 51.6031
#
#
#
# Elastic Compliance Matrix: (Units=1/GPa)
#
#
# Indices 1 2 3 4 5 6 
#
# 1 0.015447 0.001322 -0.001855 -0.003168 -0.006453 0.012534
# 2 0.001322 0.011534 -0.000905 0.003882 -0.002675 0.002762
# 3 -0.001855 -0.000905 0.008142 0.000580 -0.003067 0.001068
# 4 -0.003168 0.003882 0.000580 0.039833 0.003937 -0.009401
# 5 -0.006453 -0.002675 -0.003067 0.003937 0.030115 -0.006362
# 6 0.012534 0.002762 0.001068 -0.009401 -0.006362 0.032317
#
#
# Mechanical properties :
#
#
# Convention : Reuss Voigt Hill
#
# Bulk Modulus (GPa) = 31.00947 53.69320 42.35133
# Shear Modulus (GPa) = 33.10986 43.51304 38.31145
#
# Velocity S-wave (km/s) = 3.46533 3.97261 3.72761
# Velocity P-wave (km/s) = 5.22093 6.36522 5.82126
#
# Compressibility (1/GPa) = 0.03224822
#
# Stress axis : x y z
#
# Youngs Moduli (GPa) = 64.73773 86.70109 122.81456
#
# Poissons Ratio (x) = -0.11465 0.22779
# Poissons Ratio (y) = -0.08561 0.11117
# Poissons Ratio (z) = 0.12007 0.07848
#
# Static dielectric constant tensor:
#      x y z
#    x 2.182340 0.053400 -0.071520 
#    y 0.053400 2.178730 -0.006030 
#    z -0.071520 -0.006030 2.160930 
# 
# From -- ./inp_files/53652.got.cif
#   From: 2010.05.17/outbox.cif.g08.bks.cpg/sg2_27_cif.got.tgz:53652.got - 2010.06.03 11:33:40.
