data_PCOD9020344
_publ_section_title
;
Structure prediction by ZEFSAII (Michael W. Deem and Ramdas Pophale) SiO2 
 PCOD9020344
Probable space group: P -1
;
_chemical_formula_sum "Si O2"
_cell_formula_units_Z 15
_cell_length_a 9.830014
_cell_length_b 8.665864
_cell_length_c 19.218995
_cell_angle_alpha 148.357586
_cell_angle_beta 125.910614
_cell_angle_gamma 53.402548
_cell_volume 677.329266
_symmetry_space_group_name_H-M "P -1"
_symmetry_group_IT_number 2
_symmetry_cell_setting 'triclinic'
loop_
_space_group_symop_operation_xyz
x,y,z
-x,-y,-z
loop_
_atom_site_type_symbol
_atom_site_label
_atom_site_fract_x
_atom_site_fract_y
_atom_site_fract_z
Si Si1 0.810920 0.563459 0.664598
Si Si2 0.458739 0.854521 0.735498
Si Si3 0.634242 0.808223 0.910741
Si Si4 0.000000 0.000000 0.500000
Si Si5 0.308794 0.276890 0.731601
Si Si6 0.589356 0.136486 0.644028
Si Si7 0.935619 0.072188 0.086204
Si Si8 0.170957 0.495567 0.506315
O O1 0.610168 0.649274 0.654129
O O2 0.866032 0.383410 0.538251
O O3 0.898050 0.847922 0.796759
O O4 0.920809 0.304893 0.646930
O O5 0.560575 0.941237 0.864863
O O6 0.311881 0.675511 0.644446
O O7 0.366647 0.134810 0.769015
O O8 0.636968 0.454475 0.765576
O O9 0.500000 0.000000 0.000000
O O10 0.830140 0.837449 0.993367
O O11 0.817456 0.903049 0.411701
O O12 0.468161 0.221638 0.706767
O O13 0.212543 0.622402 0.838612
O O14 0.500000 0.000000 0.500000
O O15 0.737859 0.854953 0.603970
O O16 0.000000 0.000000 0.000000
O O17 0.000000 0.500000 0.500000
#
# Coordination Sequence:
#
# PCOD9020344 Si02
#       8
#     2   2   2   1   2   2   2   2
#     4  11  23  43  69  99 140 182 236 294 343 427
#     4  12  24  46  76 100 138 188 244 292 355 425
#     4  12  27  48  72 102 145 191 237 295 366 428
#     4  10  22  34  68 100 134 166 228 284 346 396
#     4  11  24  44  72 104 138 190 239 290 353 430
#     4  12  26  44  74 103 144 190 236 288 366 423
#     4  11  25  46  71 102 141 191 240 290 358 434
#     4  12  27  41  68 110 147 177 237 308 359 408
#
# _framework density 22.145800999999999
#
# number of rings (size 3 to 8) (size 9 to 14) (size 15 to 20)
#    0.000    0.533    6.667    1.200    5.600    1.600 
#    2.400    0.667    0.000    0.000    0.000    0.000 
#    0.000    0.000    0.000    0.000    0.000    0.000 
#
# Total GULP energy -83542.800297 kJ/mol
# GULP energy per Si atom -5569.520020 kJ/mol
# Density = 2.209540 g / cm^3
# Si number density = 22.145801 Si / 1000 Ang^3
#
#
#
# Elastic Constant Matrix: (Units=GPa)
#
#
# Indices 1 2 3 4 5 6 
#
# 1 142.7184 4.9954 27.4695 4.5773 3.5745 -15.2910
# 2 4.9954 41.4270 2.2882 4.3514 0.4428 -2.2942
# 3 27.4695 2.2882 100.7466 2.5854 20.8466 6.8644
# 4 4.5773 4.3514 2.5854 35.0910 -2.6824 -0.5852
# 5 3.5745 0.4428 20.8466 -2.6824 48.7071 -2.7047
# 6 -15.2910 -2.2942 6.8644 -0.5852 -2.7047 26.1005
#
#
#
# Elastic Compliance Matrix: (Units=1/GPa)
#
#
# Indices 1 2 3 4 5 6 
#
# 1 0.008143 -0.000466 -0.002746 -0.000645 0.000853 0.005526
# 2 -0.000466 0.024638 -0.000483 -0.002929 -0.000036 0.001950
# 3 -0.002746 -0.000483 0.012192 -0.000981 -0.005368 -0.005436
# 4 -0.000645 -0.002929 -0.000981 0.029188 0.002129 0.000498
# 5 0.000853 -0.000036 -0.005368 0.002129 0.023125 0.004353
# 6 0.005526 0.001950 -0.005436 0.000498 0.004353 0.043614
#
#
# Mechanical properties :
#
#
# Convention : Reuss Voigt Hill
#
# Bulk Modulus (GPa) = 26.60753 39.37757 32.99255
# Shear Modulus (GPa) = 31.09122 38.65566 34.87344
#
# Velocity S-wave (km/s) = 3.75097 4.18246 3.97258
# Velocity P-wave (km/s) = 5.54982 6.41433 5.99767
#
# Compressibility (1/GPa) = 0.03758334
#
# Stress axis : x y z
#
# Youngs Moduli (GPa) = 122.80441 40.58815 82.02107
#
# Poissons Ratio (x) = 0.01890 0.22525
# Poissons Ratio (y) = 0.05718 0.03961
# Poissons Ratio (z) = 0.33725 0.01960
#
# Static dielectric constant tensor:
#      x y z
#    x 1.884740 -0.041540 0.017490 
#    y -0.041540 1.338390 -0.161930 
#    z 0.017490 -0.161930 1.803470 
# 
# From -- ./inp_files/160091.got.cif
#   From: 2010.05.17/outbox.cif.g08.bks.cpg/sg2_81_cif.got.tgz:160091.got - 2010.06.03 11:33:40.
