data_PCOD9020329
_publ_section_title
;
Structure prediction by ZEFSAII (Michael W. Deem and Ramdas Pophale) SiO2 
 PCOD9020329
Probable space group: P -1
;
_chemical_formula_sum "Si O2"
_cell_formula_units_Z 16
_cell_length_a 11.764889
_cell_length_b 11.887251
_cell_length_c 11.779118
_cell_angle_alpha 138.931750
_cell_angle_beta 134.658016
_cell_angle_gamma 56.085742
_cell_volume 768.419072
_symmetry_space_group_name_H-M "P -1"
_symmetry_group_IT_number 2
_symmetry_cell_setting 'triclinic'
loop_
_space_group_symop_operation_xyz
x,y,z
-x,-y,-z
loop_
_atom_site_type_symbol
_atom_site_label
_atom_site_fract_x
_atom_site_fract_y
_atom_site_fract_z
Si Si1 0.921338 0.222915 0.686019
Si Si2 0.549416 0.697083 0.084487
Si Si3 0.431641 0.004691 0.083570
Si Si4 0.114870 0.897065 0.669689
Si Si5 0.356540 0.377508 0.325399
Si Si6 0.243501 0.490519 0.750260
Si Si7 0.217695 0.442014 0.038940
Si Si8 0.088745 0.515562 0.417453
O O1 0.827344 0.157659 0.460205
O O2 0.833137 0.364827 0.811922
O O3 0.990316 0.057132 0.677598
O O4 0.067493 0.329529 0.817755
O O5 0.524704 0.873027 0.132884
O O6 0.664463 0.677837 0.259304
O O7 0.378053 0.628095 0.941661
O O8 0.643733 0.569431 0.964690
O O9 0.424615 0.193538 0.274396
O O10 0.252033 0.951022 0.891664
O O11 0.500000 0.000000 0.000000
O O12 0.057680 0.721511 0.547948
O O13 0.500000 0.500000 0.500000
O O14 0.283588 0.350499 0.129743
O O15 0.214298 0.456647 0.363896
O O16 0.173592 0.463738 0.555991
O O17 0.088326 0.552602 0.762947
#
# Coordination Sequence:
#
# PCOD9020329 Si02
#       8
#     2   2   2   2   2   2   2   2
#     4  10  22  34  59 102 131 162 200 272 338 390
#     4  11  22  42  67  94 130 177 219 265 321 393
#     4  12  23  39  64 100 134 166 210 269 344 394
#     4  11  20  37  61  91 134 165 210 262 327 393
#     4  12  24  40  67 101 135 167 209 275 343 392
#     4  10  24  42  68  87 127 184 230 256 310 388
#     4  11  21  38  63  96 133 163 211 269 342 388
#     4  11  22  43  68  92 123 178 228 264 316 389
#
# _framework density 20.821971000000001
#
# number of rings (size 3 to 8) (size 9 to 14) (size 15 to 20)
#    0.000    1.000    5.000    2.250    1.750    1.000 
#    0.000    1.250   11.000    0.000    0.000    0.000 
#    0.000    0.000    0.000    0.000    0.000    0.000 
#
# Total GULP energy -89368.495986 kJ/mol
# GULP energy per Si atom -5585.530999 kJ/mol
# Density = 2.077458 g / cm^3
# Si number density = 20.821971 Si / 1000 Ang^3
#
#
#
# Elastic Constant Matrix: (Units=GPa)
#
#
# Indices 1 2 3 4 5 6 
#
# 1 124.4830 34.2216 27.7842 11.1475 20.9631 -11.2285
# 2 34.2216 183.3309 40.9482 5.3066 -3.7759 3.6806
# 3 27.7842 40.9482 66.9500 2.1543 9.3445 -7.3271
# 4 11.1475 5.3066 2.1543 43.1250 -4.4750 -7.2346
# 5 20.9631 -3.7759 9.3445 -4.4750 19.5317 -3.7988
# 6 -11.2285 3.6806 -7.3271 -7.2346 -3.7988 28.1856
#
#
#
# Elastic Compliance Matrix: (Units=1/GPa)
#
#
# Indices 1 2 3 4 5 6 
#
# 1 0.011517 -0.002007 -0.001486 -0.003646 -0.012515 0.001841
# 2 -0.002007 0.006956 -0.004382 0.000063 0.005195 -0.002130
# 3 -0.001486 -0.004382 0.019794 -0.000226 -0.007997 0.003990
# 4 -0.003646 0.000063 -0.000226 0.026462 0.011421 0.006812
# 5 -0.012515 0.005195 -0.007997 0.011421 0.073057 0.005035
# 6 0.001841 -0.002130 0.003990 0.006812 0.005035 0.039955
#
#
# Mechanical properties :
#
#
# Convention : Reuss Voigt Hill
#
# Bulk Modulus (GPa) = 44.41318 64.51907 54.46613
# Shear Modulus (GPa) = 24.87605 36.28913 30.58259
#
# Velocity S-wave (km/s) = 3.46020 4.17925 3.83661
# Velocity P-wave (km/s) = 6.11066 7.37167 6.77059
#
# Compressibility (1/GPa) = 0.02251584
#
# Stress axis : x y z
#
# Youngs Moduli (GPa) = 86.82995 143.76261 50.52153
#
# Poissons Ratio (x) = 0.28853 0.07509
# Poissons Ratio (y) = 0.17427 0.22138
# Poissons Ratio (z) = 0.12906 0.62995
#
# Static dielectric constant tensor:
#      x y z
#    x 1.798440 0.003260 0.058610 
#    y 0.003260 1.785680 -0.022430 
#    z 0.058610 -0.022430 1.800640 
# 
# From -- ./inp_files/427059.got.cif
#   From: 2010.05.17/outbox.cif.g08.bks.cpg/sg2_214_cif.got.tgz:427059.got - 2010.06.03 11:33:40.
