data_PCOD9020829
_publ_section_title
;
Structure prediction by ZEFSAII (Michael W. Deem and Ramdas Pophale) SiO2 
 PCOD9020829
Probable space group: P -1
;
_chemical_formula_sum "Si O2"
_cell_formula_units_Z 16
_cell_length_a 9.166004
_cell_length_b 12.351867
_cell_length_c 18.912707
_cell_angle_alpha 18.432991
_cell_angle_beta 124.238961
_cell_angle_gamma 118.326170
_cell_volume 545.130307
_symmetry_space_group_name_H-M "P -1"
_symmetry_group_IT_number 2
_symmetry_cell_setting 'triclinic'
loop_
_space_group_symop_operation_xyz
x,y,z
-x,-y,-z
loop_
_atom_site_type_symbol
_atom_site_label
_atom_site_fract_x
_atom_site_fract_y
_atom_site_fract_z
Si Si1 0.644673 0.755265 0.138703
Si Si2 0.507908 0.858662 0.875668
Si Si3 0.760834 0.280617 0.644079
Si Si4 0.855239 0.530764 0.115259
Si Si5 0.845583 0.327204 0.803833
Si Si6 0.162991 0.023245 0.760908
Si Si7 0.913249 0.842174 0.713727
Si Si8 0.364619 0.362133 0.317500
O O1 0.572192 0.394448 0.357448
O O2 0.500000 0.000000 0.000000
O O3 0.579652 0.816384 0.001656
O O4 0.812374 0.954129 0.057584
O O5 0.562118 0.207249 0.644920
O O6 0.297868 0.903979 0.803574
O O7 0.644545 0.549497 0.061626
O O8 0.818964 0.306517 0.725936
O O9 0.791224 0.636877 0.400242
O O10 0.852930 0.933758 0.840108
O O11 0.966221 0.248982 0.267912
O O12 0.965452 0.560537 0.198394
O O13 0.713189 0.612363 0.640640
O O14 0.967881 0.122474 0.607976
O O15 0.234176 0.701453 0.032370
O O16 0.000000 0.500000 0.000000
O O17 0.709998 0.911929 0.582950
#
# Coordination Sequence:
#
# PCOD9020829 Si02
#       8
#     2   2   2   2   2   2   2   2
#     4   8  13  23  44  69  90 116 152 190 229 268
#     4   8  17  27  46  70 101 117 152 196 234 274
#     4   9  18  28  48  73  98 120 148 199 240 277
#     4   9  18  30  46  71  99 122 153 196 237 268
#     4   9  15  29  47  70  96 121 151 192 237 280
#     4  10  17  31  48  72  93 127 159 187 236 278
#     4   9  18  32  48  64  95 129 161 191 226 283
#     4   8  16  29  45  67  92 120 159 193 223 272
#
# _framework density 29.350781000000001
#
# number of rings (size 3 to 8) (size 9 to 14) (size 15 to 20)
#    0.750    2.500    0.000    0.750    0.000    0.500 
#    0.000    8.125    0.000    0.000    0.000    0.875 
#    0.000    0.625    0.000    0.000    0.000    0.000 
#
# Total GULP energy -89095.227439 kJ/mol
# GULP energy per Si atom -5568.451715 kJ/mol
# Density = 2.928398 g / cm^3
# Si number density = 29.350781 Si / 1000 Ang^3
#
#
#
# Elastic Constant Matrix: (Units=GPa)
#
#
# Indices 1 2 3 4 5 6 
#
# 1 137.1275 49.9459 0.7734 -2.9934 16.9065 7.6378
# 2 49.9459 149.0772 -1.4938 10.1411 -3.3714 22.6876
# 3 0.7734 -1.4938 69.3466 -1.1501 -11.1781 -19.0020
# 4 -2.9934 10.1411 -1.1501 31.5702 -12.8503 3.9166
# 5 16.9065 -3.3714 -11.1781 -12.8503 22.4310 -2.4186
# 6 7.6378 22.6876 -19.0020 3.9166 -2.4186 60.8544
#
#
#
# Elastic Compliance Matrix: (Units=1/GPa)
#
#
# Indices 1 2 3 4 5 6 
#
# 1 0.009747 -0.003226 -0.002124 -0.002163 -0.010232 -0.000951
# 2 -0.003226 0.008344 -0.000127 -0.001712 0.002367 -0.002542
# 3 -0.002124 -0.000127 0.018684 0.005794 0.014898 0.006367
# 4 -0.002163 -0.001712 0.005794 0.044184 0.029687 0.001055
# 5 -0.010232 0.002367 0.014898 0.029687 0.077752 0.006233
# 6 -0.000951 -0.002542 0.006367 0.001055 0.006233 0.019668
#
#
# Mechanical properties :
#
#
# Convention : Reuss Voigt Hill
#
# Bulk Modulus (GPa) = 38.73057 50.44471 44.58764
# Shear Modulus (GPa) = 25.26019 43.39285 34.32652
#
# Velocity S-wave (km/s) = 2.93683 3.84920 3.42354
# Velocity P-wave (km/s) = 4.97236 6.08106 5.55444
#
# Compressibility (1/GPa) = 0.02581940
#
# Stress axis : x y z
#
# Youngs Moduli (GPa) = 102.59830 119.84166 53.52294
#
# Poissons Ratio (x) = 0.38664 0.11368
# Poissons Ratio (y) = 0.33101 0.00682
# Poissons Ratio (z) = 0.21791 0.01527
#
# Static dielectric constant tensor:
#      x y z
#    x 2.302020 0.143930 -0.111730 
#    y 0.143930 2.334680 -0.103590 
#    z -0.111730 -0.103590 2.596950 
# 
# From -- ./inp_files/467527.got.cif
#   From: 2010.05.17/outbox.cif.g08.bks.cpg/sg2_234_cif.got.tgz:467527.got - 2010.06.03 11:33:40.
