data_PCOD9020716
_publ_section_title
;
Structure prediction by ZEFSAII (Michael W. Deem and Ramdas Pophale) SiO2 
 PCOD9020716
Probable space group: P -1
;
_chemical_formula_sum "Si O2"
_cell_formula_units_Z 14
_cell_length_a 6.133676
_cell_length_b 17.282301
_cell_length_c 9.132996
_cell_angle_alpha 66.691703
_cell_angle_beta 83.870422
_cell_angle_gamma 121.490761
_cell_volume 694.792135
_symmetry_space_group_name_H-M "P -1"
_symmetry_group_IT_number 2
_symmetry_cell_setting 'triclinic'
loop_
_space_group_symop_operation_xyz
x,y,z
-x,-y,-z
loop_
_atom_site_type_symbol
_atom_site_label
_atom_site_fract_x
_atom_site_fract_y
_atom_site_fract_z
Si Si1 0.066262 0.039380 0.715762
Si Si2 0.164388 0.748743 0.986143
Si Si3 0.373965 0.551754 0.549988
Si Si4 0.443696 0.470594 0.860438
Si Si5 0.433425 0.080433 0.398268
Si Si6 0.710909 0.375589 0.760042
Si Si7 0.173145 0.918473 0.038090
O O1 0.323396 0.101485 0.536271
O O2 0.002672 0.098210 0.792653
O O3 0.802804 0.972159 0.673393
O O4 0.108102 0.968911 0.873293
O O5 0.302807 0.815655 0.778284
O O6 0.355364 0.724561 0.072536
O O7 0.117722 0.813737 0.053685
O O8 0.872239 0.635789 0.056898
O O9 0.500000 0.500000 0.500000
O O10 0.485826 0.566796 0.693564
O O11 0.426575 0.644338 0.374803
O O12 0.042484 0.458370 0.649890
O O13 0.629942 0.438717 0.810139
O O14 0.500000 0.500000 0.000000
O O15 0.500000 0.000000 0.500000
O O16 0.500000 0.000000 0.000000
#
# Coordination Sequence:
#
# PCOD9020716 Si02
#       7
#     2   2   2   2   2   2   2
#     4  10  22  36  68  86 127 180 206 258 329 367
#     4  11  23  36  67  91 125 166 218 258 315 378
#     4   8  16  36  63  86 112 154 198 257 318 363
#     4  10  22  39  66  89 124 161 209 260 315 383
#     4  11  21  40  63  91 132 174 208 264 318 381
#     4   9  19  36  66  84 116 158 206 257 317 368
#     4  11  21  40  63  94 126 167 217 264 309 387
#
# _framework density 20.149910999999999
#
# number of rings (size 3 to 8) (size 9 to 14) (size 15 to 20)
#    0.000    2.000    2.857    0.000    2.000    2.286 
#    0.000    0.000   81.714    0.000    0.000    0.000 
#    0.000    0.000    0.000    0.000    0.000    0.000 
#
# Total GULP energy -78056.532115 kJ/mol
# GULP energy per Si atom -5575.466580 kJ/mol
# Density = 2.010405 g / cm^3
# Si number density = 20.149911 Si / 1000 Ang^3
#
#
#
# Elastic Constant Matrix: (Units=GPa)
#
#
# Indices 1 2 3 4 5 6 
#
# 1 119.1664 30.6335 74.5921 8.0838 16.0403 -6.9541
# 2 30.6335 69.7317 47.1409 21.7033 8.5234 -2.1935
# 3 74.5921 47.1409 157.1838 30.7707 5.5366 -15.2806
# 4 8.0838 21.7033 30.7707 35.9076 2.2237 -0.0157
# 5 16.0403 8.5234 5.5366 2.2237 52.7288 3.7633
# 6 -6.9541 -2.1935 -15.2806 -0.0157 3.7633 24.2363
#
#
#
# Elastic Compliance Matrix: (Units=1/GPa)
#
#
# Indices 1 2 3 4 5 6 
#
# 1 0.012981 -0.002441 -0.006078 0.003953 -0.003094 0.000155
# 2 -0.002441 0.020624 -0.003258 -0.009012 -0.001826 -0.000610
# 3 -0.006078 -0.003258 0.012105 -0.007096 0.001016 0.005431
# 4 0.003953 -0.009012 -0.007096 0.038506 -0.000334 -0.004079
# 5 -0.003094 -0.001826 0.001016 -0.000334 0.020364 -0.003574
# 6 0.000155 -0.000610 0.005431 -0.004079 -0.003574 0.045226
#
#
# Mechanical properties :
#
#
# Convention : Reuss Voigt Hill
#
# Bulk Modulus (GPa) = 45.13439 72.31276 58.72358
# Shear Modulus (GPa) = 27.66340 35.48889 31.57614
#
# Velocity S-wave (km/s) = 3.70926 4.20127 3.96291
# Velocity P-wave (km/s) = 6.38692 7.71359 7.08139
#
# Compressibility (1/GPa) = 0.02215605
#
# Stress axis : x y z
#
# Youngs Moduli (GPa) = 77.03640 48.48671 82.61320
#
# Poissons Ratio (x) = 0.11836 0.50211
# Poissons Ratio (y) = 0.18805 0.26914
# Poissons Ratio (z) = 0.46822 0.15796
#
# Static dielectric constant tensor:
#      x y z
#    x 1.762070 0.009840 0.023880 
#    y 0.009840 1.663360 -0.005110 
#    z 0.023880 -0.005110 1.766960 
# 
# From -- ./inp_files/46272.got.cif
#   From: 2010.05.17/outbox.cif.g08.bks.cpg/sg2_24_cif.got.tgz:46272.got - 2010.06.03 11:33:40.
