data_PCOD9020675
_publ_section_title
;
Structure prediction by ZEFSAII (Michael W. Deem and Ramdas Pophale) SiO2 
 PCOD9020675
Probable space group: P -1
;
_chemical_formula_sum "Si O2"
_cell_formula_units_Z 15
_cell_length_a 10.582955
_cell_length_b 8.597852
_cell_length_c 13.294760
_cell_angle_alpha 116.296695
_cell_angle_beta 111.153744
_cell_angle_gamma 120.082444
_cell_volume 619.180084
_symmetry_space_group_name_H-M "P -1"
_symmetry_group_IT_number 2
_symmetry_cell_setting 'triclinic'
loop_
_space_group_symop_operation_xyz
x,y,z
-x,-y,-z
loop_
_atom_site_type_symbol
_atom_site_label
_atom_site_fract_x
_atom_site_fract_y
_atom_site_fract_z
Si Si1 0.475113 0.083851 0.799814
Si Si2 0.704962 0.044892 0.480895
Si Si3 0.475591 0.690762 0.631397
Si Si4 0.263750 0.546456 0.325904
Si Si5 0.086453 0.084588 0.434303
Si Si6 0.500000 0.000000 0.000000
Si Si7 0.285656 0.342022 0.955342
Si Si8 0.222881 0.038609 0.035543
O O1 0.294219 0.990697 0.648324
O O2 0.505448 0.928513 0.712611
O O3 0.399812 0.978969 0.861395
O O4 0.688533 0.424170 0.962911
O O5 0.448262 0.773914 0.361129
O O6 0.820094 0.016033 0.571367
O O7 0.801868 0.331048 0.613226
O O8 0.390021 0.571923 0.459659
O O9 0.278308 0.419711 0.568243
O O10 0.694982 0.843463 0.793400
O O11 0.039524 0.243289 0.131209
O O12 0.000000 0.000000 0.500000
O O13 0.916950 0.923816 0.247572
O O14 0.351494 0.993913 0.023001
O O15 0.293542 0.260614 0.042380
O O16 0.500000 0.500000 0.000000
#
# Coordination Sequence:
#
# PCOD9020675 Si02
#       8
#     2   2   2   2   2   1   2   2
#     4  10  22  41  65  96 136 174 219 285 337 407
#     4  10  24  45  69  96 142 175 240 277 346 407
#     4  10  23  44  66 101 135 174 237 274 338 417
#     4  10  23  47  68 102 134 189 227 293 331 406
#     4  12  26  42  68 102 139 183 223 291 349 407
#     4  10  22  36  66 100 130 170 224 276 332 412
#     4  12  23  42  64 101 141 174 226 278 345 415
#     4  11  22  41  69  98 140 178 226 279 345 402
#
# _framework density 24.225586
#
# number of rings (size 3 to 8) (size 9 to 14) (size 15 to 20)
#    0.000    1.333    2.667    2.400    5.600    0.533 
#    2.400   10.667    0.000    0.000    0.000    0.000 
#    0.000    0.000    0.000    0.000    0.000    0.000 
#
# Total GULP energy -83625.608608 kJ/mol
# GULP energy per Si atom -5575.040574 kJ/mol
# Density = 2.417045 g / cm^3
# Si number density = 24.225586 Si / 1000 Ang^3
#
#
#
# Elastic Constant Matrix: (Units=GPa)
#
#
# Indices 1 2 3 4 5 6 
#
# 1 58.6123 8.9446 30.0715 -8.6273 -9.0308 -14.7526
# 2 8.9446 118.1235 61.6876 -26.8250 -0.7596 -10.6508
# 3 30.0715 61.6876 174.4140 -9.4480 -2.7923 -12.9597
# 4 -8.6273 -26.8250 -9.4480 35.4713 -6.7309 -4.3401
# 5 -9.0308 -0.7596 -2.7923 -6.7309 30.0525 -4.2724
# 6 -14.7526 -10.6508 -12.9597 -4.3401 -4.2724 25.1729
#
#
#
# Elastic Compliance Matrix: (Units=1/GPa)
#
#
# Indices 1 2 3 4 5 6 
#
# 1 0.028576 0.005701 -0.004197 0.015719 0.015026 0.022259
# 2 0.005701 0.014447 -0.004474 0.013589 0.006206 0.010547
# 3 -0.004197 -0.004474 0.007791 -0.002725 -0.001410 -0.001051
# 4 0.015719 0.013589 -0.002725 0.048286 0.019203 0.025143
# 5 0.015026 0.006206 -0.001410 0.019203 0.045200 0.021688
# 6 0.022259 0.010547 -0.001051 0.025143 0.021688 0.064707
#
#
# Mechanical properties :
#
#
# Convention : Reuss Voigt Hill
#
# Bulk Modulus (GPa) = 22.28414 61.39523 41.83969
# Shear Modulus (GPa) = 21.74811 34.83575 28.29193
#
# Velocity S-wave (km/s) = 2.99947 3.79618 3.42109
# Velocity P-wave (km/s) = 4.60590 6.67928 5.73703
#
# Compressibility (1/GPa) = 0.04487497
#
# Stress axis : x y z
#
# Youngs Moduli (GPa) = 34.99433 69.21854 128.35056
#
# Poissons Ratio (x) = -0.39464 0.53875
# Poissons Ratio (y) = -0.19952 0.57419
# Poissons Ratio (z) = 0.14689 0.30965
#
# Static dielectric constant tensor:
#      x y z
#    x 2.001390 -0.031700 -0.021730 
#    y -0.031700 1.909310 0.001930 
#    z -0.021730 0.001930 1.902840 
# 
# From -- ./inp_files/515960.got.cif
#   From: 2010.05.17/outbox.cif.g08.bks.cpg/sg2_258_cif.got.tgz:515960.got - 2010.06.03 11:33:40.
