data_PCOD9020311
_publ_section_title
;
Structure prediction by ZEFSAII (Michael W. Deem and Ramdas Pophale) SiO2 
 PCOD9020311
Probable space group: P -1
;
_chemical_formula_sum "Si O2"
_cell_formula_units_Z 16
_cell_length_a 11.649582
_cell_length_b 31.008179
_cell_length_c 27.921885
_cell_angle_alpha 171.412840
_cell_angle_beta 30.479825
_cell_angle_gamma 148.561113
_cell_volume 763.833274
_symmetry_space_group_name_H-M "P -1"
_symmetry_group_IT_number 2
_symmetry_cell_setting 'triclinic'
loop_
_space_group_symop_operation_xyz
x,y,z
-x,-y,-z
loop_
_atom_site_type_symbol
_atom_site_label
_atom_site_fract_x
_atom_site_fract_y
_atom_site_fract_z
Si Si1 0.781701 0.155438 0.684396
Si Si2 0.069746 0.008061 0.122146
Si Si3 0.976893 0.600861 0.037948
Si Si4 0.444396 0.191750 0.298982
Si Si5 0.170970 0.979627 0.872638
Si Si6 0.673072 0.654354 0.905022
Si Si7 0.283772 0.570198 0.687801
Si Si8 0.548489 0.376324 0.152858
O O1 0.925907 0.272770 0.807539
O O2 0.531225 0.287066 0.921166
O O3 0.790019 0.813054 0.315872
O O4 0.895319 0.283459 0.735825
O O5 0.089234 0.353524 0.500323
O O6 0.973790 0.897884 0.984936
O O7 0.326835 0.897088 0.909064
O O8 0.886012 0.868843 0.070684
O O9 0.183752 0.619955 0.947128
O O10 0.332564 0.443745 0.584367
O O11 0.510923 0.323577 0.471226
O O12 0.281034 0.915368 0.063348
O O13 0.236432 0.666336 0.485838
O O14 0.407252 0.141996 0.976896
O O15 0.000000 0.000000 0.000000
O O16 0.548945 0.693811 0.941598
O O17 0.500000 0.500000 0.500000
#
# Coordination Sequence:
#
# PCOD9020311 Si02
#       8
#     2   2   2   2   2   2   2   2
#     4   9  19  33  53  79 109 144 184 225 281 324
#     4  10  22  37  54  81 112 151 191 231 271 328
#     4   9  19  33  54  77 111 144 179 234 272 334
#     4  11  23  38  59  81 113 150 190 235 275 327
#     4  11  23  34  55  80 122 156 184 219 276 344
#     4  10  22  34  56  82 117 152 186 226 280 348
#     4  10  23  38  58  80 106 151 197 239 270 311
#     4  10  23  35  54  86 114 151 188 223 289 340
#
# _framework density 20.946978999999999
#
# number of rings (size 3 to 8) (size 9 to 14) (size 15 to 20)
#    0.000    2.000    0.000    3.000   21.000    2.000 
#    0.000    0.000    0.000    0.000    0.000    5.250 
#    0.000    0.000    0.000    0.000    0.000    0.000 
#
# Total GULP energy -89100.434468 kJ/mol
# GULP energy per Si atom -5568.777154 kJ/mol
# Density = 2.089930 g / cm^3
# Si number density = 20.946979 Si / 1000 Ang^3
#
#
#
# Elastic Constant Matrix: (Units=GPa)
#
#
# Indices 1 2 3 4 5 6 
#
# 1 14.2433 49.0032 13.4030 19.3786 -15.9242 5.2940
# 2 49.0032 114.9504 57.5752 1.2210 6.8447 0.0543
# 3 13.4030 57.5752 76.6009 24.1719 -7.2645 8.2157
# 4 19.3786 1.2210 24.1719 28.1537 15.6851 -4.1954
# 5 -15.9242 6.8447 -7.2645 15.6851 21.0921 11.5709
# 6 5.2940 0.0543 8.2157 -4.1954 11.5709 20.6975
#
#
#
# Elastic Compliance Matrix: (Units=1/GPa)
#
#
# Indices 1 2 3 4 5 6 
#
# 1 0.012543 0.003524 -0.015453 0.020088 -0.022744 0.019703
# 2 0.003524 0.007340 -0.001393 -0.008900 0.010974 -0.008307
# 3 -0.015453 -0.001393 0.016546 -0.000703 -0.005022 0.000053
# 4 0.020088 -0.008900 -0.000703 0.016975 0.008587 -0.006195
# 5 -0.022744 0.010974 -0.005022 0.008587 0.019241 -0.001234
# 6 0.019703 -0.008307 0.000053 -0.006195 -0.001234 0.042710
#
#
# Mechanical properties :
#
#
# Convention : Reuss Voigt Hill
#
# Bulk Modulus (GPa) = 102.19563 49.52859 75.86211
# Shear Modulus (GPa) = 34.42092 19.70954 27.06523
#
# Velocity S-wave (km/s) = 4.05809 3.07078 3.59845
# Velocity P-wave (km/s) = 8.41731 6.02237 7.31847
#
# Compressibility (1/GPa) = 0.00978515
#
# Stress axis : x y z
#
# Youngs Moduli (GPa) = 79.72659 136.24154 60.43809
#
# Poissons Ratio (x) = -0.48016 0.93393
# Poissons Ratio (y) = -0.28098 0.08422
# Poissons Ratio (z) = 1.23199 0.18984
#
# Static dielectric constant tensor:
#      x y z
#    x 1.837520 -0.011430 -0.031060 
#    y -0.011430 1.808290 0.039520 
#    z -0.031060 0.039520 1.775010 
# 
# From -- ./inp_files/84856.got.cif
#   From: 2010.05.17/outbox.cif.g08.bks.cpg/sg2_43_cif.got.tgz:84856.got - 2010.06.03 11:33:40.
