data_PCOD9020013
_publ_section_title
;
Structure prediction by ZEFSAII (Michael W. Deem and Ramdas Pophale) SiO2 
 PCOD9020013
Probable space group: P -1
;
_chemical_formula_sum "Si O2"
_cell_formula_units_Z 13
_cell_length_a 9.440113
_cell_length_b 9.015814
_cell_length_c 7.855910
_cell_angle_alpha 131.488140
_cell_angle_beta 82.978142
_cell_angle_gamma 94.357216
_cell_volume 497.089704
_symmetry_space_group_name_H-M "P -1"
_symmetry_group_IT_number 2
_symmetry_cell_setting 'triclinic'
loop_
_space_group_symop_operation_xyz
x,y,z
-x,-y,-z
loop_
_atom_site_type_symbol
_atom_site_label
_atom_site_fract_x
_atom_site_fract_y
_atom_site_fract_z
Si Si1 0.361308 0.903576 0.023514
Si Si2 0.142331 0.398570 0.223738
Si Si3 0.766266 0.998032 0.546106
Si Si4 0.000000 0.000000 0.000000
Si Si5 0.711910 0.224913 0.402632
Si Si6 0.537611 0.545602 0.834166
Si Si7 0.995024 0.756782 0.166740
O O1 0.251803 0.877730 0.862326
O O2 0.409616 0.681456 0.891783
O O3 0.325271 0.021695 0.287454
O O4 0.500000 0.000000 0.000000
O O5 0.143145 0.804879 0.269475
O O6 0.307180 0.347946 0.107618
O O7 0.167575 0.608420 0.467417
O O8 0.043849 0.423378 0.088124
O O9 0.696443 0.061469 0.427125
O O10 0.867552 0.813446 0.354369
O O11 0.920815 0.783278 0.802480
O O12 0.990829 0.933092 0.155284
O O13 0.570554 0.360565 0.562756
O O14 0.500000 0.500000 0.000000
#
# Coordination Sequence:
#
# PCOD9020013 Si02
#       7
#     2   2   2   1   2   2   2
#     4  12  27  41  72 103 137 183 234 281 344 410
#     4   8  20  39  72  92 129 180 215 283 333 404
#     4  11  24  43  64 103 136 178 231 280 339 413
#     4   8  18  42  70  92 122 178 228 270 342 390
#     4  10  24  42  67  98 139 176 228 274 350 407
#     4  10  21  46  65 100 139 179 221 285 342 404
#     4   9  22  42  68  94 140 175 226 283 336 400
#
# _framework density 26.152222999999999
#
# number of rings (size 3 to 8) (size 9 to 14) (size 15 to 20)
#    1.846    0.308    1.538    0.462    6.462    2.462 
#    0.000    9.231    0.000    0.000    0.000    0.000 
#    0.000    0.000    0.000    0.000    0.000    0.000 
#
# Total GULP energy -72379.279245 kJ/mol
# GULP energy per Si atom -5567.636865 kJ/mol
# Density = 2.609270 g / cm^3
# Si number density = 26.152223 Si / 1000 Ang^3
#
#
#
# Elastic Constant Matrix: (Units=GPa)
#
#
# Indices 1 2 3 4 5 6 
#
# 1 53.2804 9.8187 35.3625 -2.4702 -27.0922 19.1660
# 2 9.8187 52.8413 35.0982 -16.5281 -7.1196 21.1583
# 3 35.3625 35.0982 143.1306 -11.6843 -21.8844 17.6963
# 4 -2.4702 -16.5281 -11.6843 41.9302 13.8821 6.8148
# 5 -27.0922 -7.1196 -21.8844 13.8821 61.7042 -7.2119
# 6 19.1660 21.1583 17.6963 6.8148 -7.2119 44.9060
#
#
#
# Elastic Compliance Matrix: (Units=1/GPa)
#
#
# Indices 1 2 3 4 5 6 
#
# 1 0.031404 0.003917 -0.005654 0.000039 0.010908 -0.011275
# 2 0.003917 0.034086 -0.006154 0.015590 -0.002143 -0.018017
# 3 -0.005654 -0.006154 0.009735 -0.000500 0.000565 0.001643
# 4 0.000039 0.015590 -0.000500 0.034646 -0.007753 -0.013668
# 5 0.010908 -0.002143 0.000565 -0.007753 0.022807 0.000971
# 6 -0.011275 -0.018017 0.001643 -0.013668 0.000971 0.037153
#
#
# Mechanical properties :
#
#
# Convention : Reuss Voigt Hill
#
# Bulk Modulus (GPa) = 16.82287 45.53457 31.17872
# Shear Modulus (GPa) = 24.33968 40.97294 32.65631
#
# Velocity S-wave (km/s) = 3.05404 3.96246 3.53753
# Velocity P-wave (km/s) = 4.34544 6.19548 5.35102
#
# Compressibility (1/GPa) = 0.05944288
#
# Stress axis : x y z
#
# Youngs Moduli (GPa) = 31.84331 29.33758 102.72263
#
# Poissons Ratio (x) = -0.11491 0.58082
# Poissons Ratio (y) = -0.12473 0.63212
# Poissons Ratio (z) = 0.18005 0.18053
#
# Static dielectric constant tensor:
#      x y z
#    x 1.977290 0.001880 0.068790 
#    y 0.001880 2.112580 -0.052020 
#    z 0.068790 -0.052020 2.112620 
# 
# From -- ./inp_files/232754.got.cif
#   From: 2010.05.17/outbox.cif.g08.bks.cpg/sg2_117_cif.got.tgz:232754.got - 2010.06.03 11:33:40.
