data_PCOD9020073
_publ_section_title
;
Structure prediction by ZEFSAII (Michael W. Deem and Ramdas Pophale) SiO2 
 PCOD9020073
Probable space group: P -1
;
_chemical_formula_sum "Si O2"
_cell_formula_units_Z 16
_cell_length_a 13.281980
_cell_length_b 13.377014
_cell_length_c 7.704650
_cell_angle_alpha 90.438399
_cell_angle_beta 119.745034
_cell_angle_gamma 136.811848
_cell_volume 637.165505
_symmetry_space_group_name_H-M "P -1"
_symmetry_group_IT_number 2
_symmetry_cell_setting 'triclinic'
loop_
_space_group_symop_operation_xyz
x,y,z
-x,-y,-z
loop_
_atom_site_type_symbol
_atom_site_label
_atom_site_fract_x
_atom_site_fract_y
_atom_site_fract_z
Si Si1 0.467106 0.174777 0.236747
Si Si2 0.941540 0.728385 0.493418
Si Si3 0.684812 0.148650 0.798529
Si Si4 0.161511 0.471504 0.244073
Si Si5 0.555123 0.930623 0.122409
Si Si6 0.615877 0.468817 0.895655
Si Si7 0.156787 0.137590 0.412737
Si Si8 0.256661 0.236767 0.105501
O O1 0.671184 0.324147 0.540034
O O2 0.343804 0.188021 0.163196
O O3 0.319798 0.969785 0.131840
O O4 0.529751 0.210617 0.090246
O O5 0.884383 0.624837 0.618690
O O6 0.929061 0.835465 0.541501
O O7 0.186075 0.886750 0.636317
O O8 0.770475 0.575863 0.195156
O O9 0.500000 0.000000 0.500000
O O10 0.592336 0.171686 0.836195
O O11 0.934169 0.345197 0.978026
O O12 0.270221 0.489228 0.180749
O O13 0.500000 0.000000 0.000000
O O14 0.371899 0.249299 0.685379
O O15 0.587236 0.567581 0.839248
O O16 0.220352 0.227645 0.278203
O O17 0.969126 0.924147 0.194445
#
# Coordination Sequence:
#
# PCOD9020073 Si02
#       8
#     2   2   2   2   2   2   2   2
#     4  11  23  43  72  97 130 180 226 272 343 409
#     4  12  23  45  67  99 140 182 225 279 337 396
#     4  11  25  48  71  97 134 174 225 295 346 392
#     4  12  24  45  72  98 139 182 220 279 345 394
#     4  10  21  46  69  91 130 172 228 278 340 398
#     4  12  26  41  67 104 142 180 227 272 329 413
#     4  11  22  41  66  94 137 182 223 269 336 401
#     4  11  22  41  70  94 139 187 218 272 339 396
#
# _framework density 25.111212999999999
#
# number of rings (size 3 to 8) (size 9 to 14) (size 15 to 20)
#    0.000    0.750    6.250    2.250    1.750    1.500 
#    4.500    0.000    0.000    0.000    0.000    0.000 
#    0.000    0.000    0.000    0.000    0.000    0.000 
#
# Total GULP energy -89581.444136 kJ/mol
# GULP energy per Si atom -5598.840259 kJ/mol
# Density = 2.505406 g / cm^3
# Si number density = 25.111213 Si / 1000 Ang^3
#
#
#
# Elastic Constant Matrix: (Units=GPa)
#
#
# Indices 1 2 3 4 5 6 
#
# 1 145.3529 16.7489 68.5773 13.7104 13.4907 9.6677
# 2 16.7489 68.1601 19.8423 5.1974 0.7944 -12.5486
# 3 68.5773 19.8423 222.3269 23.2423 -0.4895 2.2949
# 4 13.7104 5.1974 23.2423 38.5792 4.2879 -1.0338
# 5 13.4907 0.7944 -0.4895 4.2879 45.6550 7.3008
# 6 9.6677 -12.5486 2.2949 -1.0338 7.3008 18.8706
#
#
#
# Elastic Compliance Matrix: (Units=1/GPa)
#
#
# Indices 1 2 3 4 5 6 
#
# 1 0.008886 -0.002350 -0.002335 -0.001395 -0.001635 -0.005275
# 2 -0.002350 0.018194 -0.001004 -0.000427 -0.001850 0.014117
# 3 -0.002335 -0.001004 0.005583 -0.002543 0.001122 -0.000724
# 4 -0.001395 -0.000427 -0.002543 0.028410 -0.002817 0.003386
# 5 -0.001635 -0.001850 0.001122 -0.002817 0.024309 -0.010088
# 6 -0.005275 0.014117 -0.000724 0.003386 -0.010088 0.069259
#
#
# Mechanical properties :
#
#
# Convention : Reuss Voigt Hill
#
# Bulk Modulus (GPa) = 46.97731 71.79743 59.38737
# Shear Modulus (GPa) = 28.88275 42.66573 35.77424
#
# Velocity S-wave (km/s) = 3.39513 4.12645 3.77852
# Velocity P-wave (km/s) = 5.84102 7.16640 6.53739
#
# Compressibility (1/GPa) = 0.02128687
#
# Stress axis : x y z
#
# Youngs Moduli (GPa) = 112.53405 54.96249 179.10211
#
# Poissons Ratio (x) = 0.12914 0.41814
# Poissons Ratio (y) = 0.26442 0.17985
# Poissons Ratio (z) = 0.26273 0.05519
#
# Static dielectric constant tensor:
#      x y z
#    x 2.247870 0.054640 -0.296220 
#    y 0.054640 2.139730 -0.117890 
#    z -0.296220 -0.117890 2.315110 
# 
# From -- ./inp_files/273874.got.cif
#   From: 2010.05.17/outbox.cif.g08.bks.cpg/sg2_137_cif.got.tgz:273874.got - 2010.06.03 11:33:40.
