data_PCOD9020125
_publ_section_title
;
Structure prediction by ZEFSAII (Michael W. Deem and Ramdas Pophale) SiO2 
 PCOD9020125
Probable space group: P -1
;
_chemical_formula_sum "Si O2"
_cell_formula_units_Z 16
_cell_length_a 8.850395
_cell_length_b 8.877479
_cell_length_c 23.889408
_cell_angle_alpha 152.093743
_cell_angle_beta 130.521583
_cell_angle_gamma 49.783636
_cell_volume 654.157610
_symmetry_space_group_name_H-M "P -1"
_symmetry_group_IT_number 2
_symmetry_cell_setting 'triclinic'
loop_
_space_group_symop_operation_xyz
x,y,z
-x,-y,-z
loop_
_atom_site_type_symbol
_atom_site_label
_atom_site_fract_x
_atom_site_fract_y
_atom_site_fract_z
Si Si1 0.699473 0.566752 0.438301
Si Si2 0.150978 0.841696 0.768557
Si Si3 0.744614 0.229764 0.641950
Si Si4 0.421435 0.825654 0.628351
Si Si5 0.061312 0.295755 0.647559
Si Si6 0.590853 0.756344 0.857617
Si Si7 0.020565 0.443554 0.051593
Si Si8 0.629170 0.167656 0.892780
O O1 0.754684 0.375151 0.331832
O O2 0.455332 0.720912 0.430030
O O3 0.730854 0.325553 0.418530
O O4 0.817174 0.857382 0.555938
O O5 0.044719 0.625088 0.714198
O O6 0.361567 0.894776 0.865260
O O7 0.028498 0.170880 0.818065
O O8 0.649543 0.384173 0.728133
O O9 0.919159 0.347918 0.686144
O O10 0.500000 0.500000 0.500000
O O11 0.294602 0.138556 0.667610
O O12 0.554069 0.996484 0.762321
O O13 0.000000 0.000000 0.500000
O O14 0.766852 0.765423 0.946534
O O15 0.633203 0.918925 0.862713
O O16 0.845971 0.256564 0.965315
O O17 0.000000 0.500000 0.000000
O O18 0.500000 0.500000 0.000000
#
# Coordination Sequence:
#
# PCOD9020125 Si02
#       8
#     2   2   2   2   2   2   2   2
#     4  10  21  46  72 100 148 203 245 311 384 466
#     4  11  25  50  71 108 158 195 258 320 393 455
#     4  10  22  40  74 102 144 193 256 302 389 450
#     4  12  28  45  78 114 155 203 254 326 393 455
#     4  12  27  43  71 114 157 197 257 326 391 462
#     4  11  26  49  81 104 150 206 259 318 389 467
#     4  12  30  47  77 112 147 200 264 324 387 461
#     4  12  26  54  79 108 154 208 263 317 389 467
#
# _framework density 24.458936999999999
#
# number of rings (size 3 to 8) (size 9 to 14) (size 15 to 20)
#    0.000    0.750    5.000    1.125   10.500    3.000 
#    0.000    0.000    0.000    0.000    0.000    0.000 
#    0.000    0.000    0.000    0.000    0.000    0.000 
#
# Total GULP energy -89235.421334 kJ/mol
# GULP energy per Si atom -5577.213833 kJ/mol
# Density = 2.440327 g / cm^3
# Si number density = 24.458937 Si / 1000 Ang^3
#
#
#
# Elastic Constant Matrix: (Units=GPa)
#
#
# Indices 1 2 3 4 5 6 
#
# 1 89.7454 -2.2981 25.5162 -6.3816 2.0344 5.7024
# 2 -2.2981 77.4087 37.2928 -17.0279 10.8491 -13.5088
# 3 25.5162 37.2928 86.7706 -4.9201 -16.8983 1.0372
# 4 -6.3816 -17.0279 -4.9201 37.9446 5.7524 3.5994
# 5 2.0344 10.8491 -16.8983 5.7524 44.0910 12.1480
# 6 5.7024 -13.5088 1.0372 3.5994 12.1480 33.2310
#
#
#
# Elastic Compliance Matrix: (Units=1/GPa)
#
#
# Indices 1 2 3 4 5 6 
#
# 1 0.013998 0.006905 -0.008158 0.005189 -0.006867 0.002608
# 2 0.006905 0.032862 -0.020121 0.014989 -0.023521 0.019777
# 3 -0.008158 -0.020121 0.026218 -0.008757 0.020405 -0.014109
# 4 0.005189 0.014989 -0.008757 0.034241 -0.013609 0.006742
# 5 -0.006867 -0.023521 0.020405 -0.013609 0.044992 -0.023993
# 6 0.002608 0.019777 -0.014109 0.006742 -0.023993 0.046166
#
#
# Mechanical properties :
#
#
# Convention : Reuss Voigt Hill
#
# Bulk Modulus (GPa) = 32.97255 41.66073 37.31664
# Shear Modulus (GPa) = 19.89376 35.94757 27.92066
#
# Velocity S-wave (km/s) = 2.85503 3.83784 3.38232
# Velocity P-wave (km/s) = 4.93744 6.05876 5.52661
#
# Compressibility (1/GPa) = 0.03032826
#
# Stress axis : x y z
#
# Youngs Moduli (GPa) = 71.43954 30.42998 38.14243
#
# Poissons Ratio (x) = -0.21011 0.31117
# Poissons Ratio (y) = -0.49327 0.76748
# Poissons Ratio (z) = 0.58281 0.61229
#
# Static dielectric constant tensor:
#      x y z
#    x 1.744000 -0.096630 0.387370 
#    y -0.096630 2.059800 0.097930 
#    z 0.387370 0.097930 1.157110 
# 
# From -- ./inp_files/606940.got.cif
#   From: 2010.05.17/outbox.cif.g08.bks.cpg/sg2_304_cif.got.tgz:606940.got - 2010.06.03 11:33:40.
