data_PCOD9020706
_publ_section_title
;
Structure prediction by ZEFSAII (Michael W. Deem and Ramdas Pophale) SiO2 
 PCOD9020706
Probable space group: P -1
;
_chemical_formula_sum "Si O2"
_cell_formula_units_Z 16
_cell_length_a 8.217096
_cell_length_b 9.973885
_cell_length_c 16.687413
_cell_angle_alpha 59.537876
_cell_angle_beta 126.694383
_cell_angle_gamma 79.626047
_cell_volume 676.109324
_symmetry_space_group_name_H-M "P -1"
_symmetry_group_IT_number 2
_symmetry_cell_setting 'triclinic'
loop_
_space_group_symop_operation_xyz
x,y,z
-x,-y,-z
loop_
_atom_site_type_symbol
_atom_site_label
_atom_site_fract_x
_atom_site_fract_y
_atom_site_fract_z
Si Si1 0.599408 0.865596 0.779480
Si Si2 0.189545 0.338999 0.822564
Si Si3 0.102097 0.791626 0.982375
Si Si4 0.195869 0.728942 0.217705
Si Si5 0.038950 0.214406 0.420321
Si Si6 0.536958 0.402060 0.127359
Si Si7 0.377067 0.055591 0.821029
Si Si8 0.143786 0.597705 0.514126
O O1 0.898949 0.782810 0.876152
O O2 0.608132 0.686090 0.870425
O O3 0.498105 0.022586 0.778711
O O4 0.365663 0.001887 0.599643
O O5 0.019848 0.588521 0.697609
O O6 0.360508 0.209589 0.829936
O O7 0.944114 0.341657 0.758572
O O8 0.422067 0.177956 0.007775
O O9 0.970370 0.032800 0.869720
O O10 0.124995 0.742054 0.098476
O O11 0.403979 0.600707 0.088527
O O12 0.533032 0.573037 0.367468
O O13 0.860155 0.198863 0.314242
O O14 0.896457 0.309528 0.437439
O O15 0.500000 0.500000 0.000000
O O16 0.052207 0.191393 0.665119
O O17 0.000000 0.500000 0.500000
#
# Coordination Sequence:
#
# PCOD9020706 Si02
#       8
#     2   2   2   2   2   2   2   2
#     4  11  24  47  69  95 139 189 235 282 337 407
#     4  11  23  38  66 104 144 171 226 286 348 406
#     4  11  25  44  69 104 136 182 228 286 353 414
#     4  11  24  40  71 105 143 176 222 289 362 411
#     4  11  24  44  71 101 138 183 231 285 342 416
#     4  12  27  46  74  99 133 188 244 282 334 406
#     4  10  22  36  67  97 138 177 223 275 347 402
#     4  11  21  41  65  98 139 182 219 276 359 417
#
# _framework density 23.664812999999999
#
# number of rings (size 3 to 8) (size 9 to 14) (size 15 to 20)
#    0.000    1.000    3.750    3.000    7.000    0.500 
#    0.000    0.625    0.000    0.000    0.000    0.000 
#    0.000    0.000    0.000    0.000    0.000    0.000 
#
# Total GULP energy -89422.527586 kJ/mol
# GULP energy per Si atom -5588.907974 kJ/mol
# Density = 2.361095 g / cm^3
# Si number density = 23.664813 Si / 1000 Ang^3
#
#
#
# Elastic Constant Matrix: (Units=GPa)
#
#
# Indices 1 2 3 4 5 6 
#
# 1 55.5178 14.6259 30.9994 -5.0395 11.8885 20.4543
# 2 14.6259 61.7299 16.5008 -2.5018 3.2612 9.2336
# 3 30.9994 16.5008 179.4425 6.5088 16.5909 1.3739
# 4 -5.0395 -2.5018 6.5088 33.7783 -4.4469 -3.4430
# 5 11.8885 3.2612 16.5909 -4.4469 34.0789 2.4387
# 6 20.4543 9.2336 1.3739 -3.4430 2.4387 31.5590
#
#
#
# Elastic Compliance Matrix: (Units=1/GPa)
#
#
# Indices 1 2 3 4 5 6 
#
# 1 0.028838 -0.002773 -0.004101 0.002332 -0.006280 -0.016961
# 2 -0.002773 0.017678 -0.001168 0.000814 0.000183 -0.003250
# 3 -0.004101 -0.001168 0.006638 -0.001988 -0.002139 0.002659
# 4 0.002332 0.000814 -0.001988 0.031071 0.004030 0.001416
# 5 -0.006280 0.000183 -0.002139 0.004030 0.032941 0.002004
# 6 -0.016961 -0.003250 0.002659 0.001416 0.002004 0.043514
#
#
# Mechanical properties :
#
#
# Convention : Reuss Voigt Hill
#
# Bulk Modulus (GPa) = 26.97581 46.77137 36.87359
# Shear Modulus (GPa) = 26.43800 35.52085 30.97942
#
# Velocity S-wave (km/s) = 3.34606 3.87848 3.62206
# Velocity P-wave (km/s) = 5.13342 6.31378 5.75395
#
# Compressibility (1/GPa) = 0.03707026
#
# Stress axis : x y z
#
# Youngs Moduli (GPa) = 34.67629 56.56663 150.64304
#
# Poissons Ratio (x) = 0.15687 0.61778
# Poissons Ratio (y) = 0.09616 0.17597
# Poissons Ratio (z) = 0.14221 0.06608
#
# Static dielectric constant tensor:
#      x y z
#    x 1.920260 0.034770 0.013930 
#    y 0.034770 1.925300 0.016100 
#    z 0.013930 0.016100 1.955920 
# 
# From -- ./inp_files/559101.got.cif
#   From: 2010.05.17/outbox.cif.g08.bks.cpg/sg2_280_cif.got.tgz:559101.got - 2010.06.03 11:33:40.
