data_PCOD9020720
_publ_section_title
;
Structure prediction by ZEFSAII (Michael W. Deem and Ramdas Pophale) SiO2 
 PCOD9020720
Probable space group: P -1
;
_chemical_formula_sum "Si O2"
_cell_formula_units_Z 15
_cell_length_a 8.032064
_cell_length_b 14.614632
_cell_length_c 10.688170
_cell_angle_alpha 53.497347
_cell_angle_beta 112.229019
_cell_angle_gamma 68.833473
_cell_volume 575.123837
_symmetry_space_group_name_H-M "P -1"
_symmetry_group_IT_number 2
_symmetry_cell_setting 'triclinic'
loop_
_space_group_symop_operation_xyz
x,y,z
-x,-y,-z
loop_
_atom_site_type_symbol
_atom_site_label
_atom_site_fract_x
_atom_site_fract_y
_atom_site_fract_z
Si Si1 0.314576 0.065227 0.594345
Si Si2 0.763662 0.943498 0.004474
Si Si3 0.000000 0.000000 0.500000
Si Si4 0.255084 0.272175 0.196348
Si Si5 0.612197 0.613862 0.685708
Si Si6 0.534744 0.415788 0.949772
Si Si7 0.674506 0.231052 0.791111
Si Si8 0.126600 0.557620 0.527268
O O1 0.105637 0.062877 0.559024
O O2 0.575571 0.878836 0.738746
O O3 0.186688 0.221461 0.333333
O O4 0.472571 0.049304 0.765563
O O5 0.016721 0.859000 0.048076
O O6 0.908325 0.766558 0.260244
O O7 0.709289 0.081941 0.960583
O O8 0.228575 0.802022 0.802931
O O9 0.471792 0.261393 0.323053
O O10 0.957254 0.467933 0.895203
O O11 0.595680 0.490451 0.813825
O O12 0.434193 0.723702 0.420922
O O13 0.230998 0.514200 0.734801
O O14 0.500000 0.500000 0.000000
O O15 0.422152 0.418096 0.642618
O O16 0.000000 0.500000 0.500000
#
# Coordination Sequence:
#
# PCOD9020720 Si02
#       8
#     2   2   1   2   2   2   2   2
#     4  11  22  40  64 102 137 180 233 284 350 426
#     4  11  24  45  74 107 140 190 242 299 353 431
#     4  12  26  46  66 102 142 186 228 292 356 424
#     4  10  22  36  68  99 134 177 230 291 347 411
#     4  11  21  45  70 103 135 184 237 300 348 414
#     4  12  28  47  71 104 144 190 238 293 362 424
#     4  11  25  45  76 107 140 186 249 291 358 424
#     4  12  28  47  73 107 151 194 232 297 362 436
#
# _framework density 26.081339
#
# number of rings (size 3 to 8) (size 9 to 14) (size 15 to 20)
#    0.000    0.800    4.000    2.800    1.867    4.800 
#    0.000    0.000    0.000    0.000    0.000    0.000 
#    0.000    0.000    0.000    0.000    0.000    0.000 
#
# Total GULP energy -83858.459720 kJ/mol
# GULP energy per Si atom -5590.563981 kJ/mol
# Density = 2.602198 g / cm^3
# Si number density = 26.081339 Si / 1000 Ang^3
#
#
#
# Elastic Constant Matrix: (Units=GPa)
#
#
# Indices 1 2 3 4 5 6 
#
# 1 106.6335 45.7868 31.8543 5.7389 -1.7609 37.2040
# 2 45.7868 97.4352 27.4876 13.8325 -6.1838 32.1918
# 3 31.8543 27.4876 124.4538 -6.8724 -9.3123 27.9895
# 4 5.7389 13.8325 -6.8724 46.2774 25.2252 5.2251
# 5 -1.7609 -6.1838 -9.3123 25.2252 39.7073 -7.1897
# 6 37.2040 32.1918 27.9895 5.2251 -7.1897 56.2331
#
#
#
# Elastic Compliance Matrix: (Units=1/GPa)
#
#
# Indices 1 2 3 4 5 6 
#
# 1 0.013736 -0.004352 -0.001206 0.001491 -0.002467 -0.006450
# 2 -0.004352 0.015276 -0.001356 -0.006775 0.005473 -0.003862
# 3 -0.001206 -0.001356 0.009535 0.002482 -0.000226 -0.003431
# 4 0.001491 -0.006775 0.002482 0.038461 -0.025784 -0.005214
# 5 -0.002467 0.005473 -0.000226 -0.025784 0.043442 0.006562
# 6 -0.006450 -0.003862 -0.003431 -0.005214 0.006562 0.027292
#
#
# Mechanical properties :
#
#
# Convention : Reuss Voigt Hill
#
# Bulk Modulus (GPa) = 40.45518 59.86444 50.15981
# Shear Modulus (GPa) = 29.44452 43.33649 36.39050
#
# Velocity S-wave (km/s) = 3.36363 4.08068 3.73938
# Velocity P-wave (km/s) = 5.53445 6.72350 6.15774
#
# Compressibility (1/GPa) = 0.02471871
#
# Stress axis : x y z
#
# Youngs Moduli (GPa) = 72.79963 65.46327 104.87502
#
# Poissons Ratio (x) = 0.28488 0.12651
# Poissons Ratio (y) = 0.31681 0.14223
# Poissons Ratio (z) = 0.08782 0.08878
#
# Static dielectric constant tensor:
#      x y z
#    x 2.174870 -0.053620 0.051910 
#    y -0.053620 2.070210 -0.005770 
#    z 0.051910 -0.005770 2.067810 
# 
# From -- ./inp_files/397116.got.cif
#   From: 2010.05.17/outbox.cif.g08.bks.cpg/sg2_199_cif.got.tgz:397116.got - 2010.06.03 11:33:40.
