data_PCOD9020756
_publ_section_title
;
Structure prediction by ZEFSAII (Michael W. Deem and Ramdas Pophale) SiO2 
 PCOD9020756
Probable space group: P -1
;
_chemical_formula_sum "Si O2"
_cell_formula_units_Z 14
_cell_length_a 7.788862
_cell_length_b 12.844472
_cell_length_c 17.786683
_cell_angle_alpha 159.746748
_cell_angle_beta 108.036808
_cell_angle_gamma 71.266273
_cell_volume 583.169894
_symmetry_space_group_name_H-M "P -1"
_symmetry_group_IT_number 2
_symmetry_cell_setting 'triclinic'
loop_
_space_group_symop_operation_xyz
x,y,z
-x,-y,-z
loop_
_atom_site_type_symbol
_atom_site_label
_atom_site_fract_x
_atom_site_fract_y
_atom_site_fract_z
Si Si1 0.099274 0.251784 0.401415
Si Si2 0.347354 0.096295 0.211283
Si Si3 0.227225 0.328690 0.125423
Si Si4 0.856892 0.673027 0.323797
Si Si5 0.729261 0.182665 0.318397
Si Si6 0.960633 0.337228 0.807821
Si Si7 0.375810 0.573187 0.758517
O O1 0.207106 0.013616 0.199546
O O2 0.314281 0.456276 0.438947
O O3 0.243023 0.411021 0.576994
O O4 0.933568 0.124357 0.335791
O O5 0.553316 0.045948 0.234278
O O6 0.743055 0.027594 0.131621
O O7 0.326618 0.922617 0.012976
O O8 0.190184 0.471301 0.133622
O O9 0.417490 0.445445 0.254984
O O10 0.038119 0.448217 0.220640
O O11 0.672336 0.579921 0.271848
O O12 0.869818 0.684172 0.242435
O O13 0.894731 0.005843 0.581049
O O14 0.000000 0.500000 0.500000
O O15 0.000000 0.500000 0.000000
#
# Coordination Sequence:
#
# PCOD9020756 Si02
#       7
#     2   2   2   2   2   2   2
#     4  10  22  37  56  83 117 157 202 244 286 338
#     4   9  20  38  54  85 117 153 200 242 286 342
#     4   9  20  39  60  89 119 154 198 240 291 353
#     4   9  21  39  61  88 117 153 195 239 307 347
#     4   9  18  36  59  78 118 156 195 238 285 348
#     4   9  20  41  64  85 120 149 190 245 301 357
#     4  11  22  37  61  88 120 157 200 243 284 351
#
# _framework density 24.006727999999999
#
# number of rings (size 3 to 8) (size 9 to 14) (size 15 to 20)
#    0.857    1.714    0.000    0.857    2.000    4.000 
#    2.571   18.571    0.000    0.000    0.000    0.000 
#    0.000    0.000    0.000    0.000    0.000    0.000 
#
# Total GULP energy -78017.446584 kJ/mol
# GULP energy per Si atom -5572.674756 kJ/mol
# Density = 2.395209 g / cm^3
# Si number density = 24.006728 Si / 1000 Ang^3
#
#
#
# Elastic Constant Matrix: (Units=GPa)
#
#
# Indices 1 2 3 4 5 6 
#
# 1 125.0638 8.0073 18.5714 -7.2283 16.8978 -16.5465
# 2 8.0073 33.5472 21.8462 -13.1835 3.7260 -0.8794
# 3 18.5714 21.8462 129.7218 -18.3241 6.8219 -6.0200
# 4 -7.2283 -13.1835 -18.3241 45.4148 -2.2878 9.2930
# 5 16.8978 3.7260 6.8219 -2.2878 36.0069 -3.5167
# 6 -16.5465 -0.8794 -6.0200 9.2930 -3.5167 29.8638
#
#
#
# Elastic Compliance Matrix: (Units=1/GPa)
#
#
# Indices 1 2 3 4 5 6 
#
# 1 0.009277 -0.001338 -0.000745 -0.000343 -0.003644 0.004628
# 2 -0.001338 0.037025 -0.004801 0.009260 -0.002071 -0.003744
# 3 -0.000745 -0.004801 0.008962 0.001954 -0.000672 0.000565
# 4 -0.000343 0.009260 0.001954 0.027061 -0.000227 -0.007971
# 5 -0.003644 -0.002071 -0.000672 -0.000227 0.029945 0.001381
# 6 0.004628 -0.003744 0.000565 -0.007971 0.001381 0.038696
#
#
# Mechanical properties :
#
#
# Convention : Reuss Voigt Hill
#
# Bulk Modulus (GPa) = 24.09824 42.79807 33.44815
# Shear Modulus (GPa) = 28.00107 38.25098 33.12602
#
# Velocity S-wave (km/s) = 3.41894 3.99600 3.71868
# Velocity P-wave (km/s) = 5.06413 6.25755 5.69221
#
# Compressibility (1/GPa) = 0.04149681
#
# Stress axis : x y z
#
# Youngs Moduli (GPa) = 107.79321 27.00869 111.58829
#
# Poissons Ratio (x) = 0.03614 0.08312
# Poissons Ratio (y) = 0.14423 0.53569
# Poissons Ratio (z) = 0.08029 0.12966
#
# Static dielectric constant tensor:
#      x y z
#    x 1.990530 0.060440 -0.013890 
#    y 0.060440 2.070300 0.032370 
#    z -0.013890 0.032370 1.975640 
# 
# From -- ./inp_files/584093.got.cif
#   From: 2010.05.17/outbox.cif.g08.bks.cpg/sg2_293_cif.got.tgz:584093.got - 2010.06.03 11:33:40.
