data_PCOD9020685
_publ_section_title
;
Structure prediction by ZEFSAII (Michael W. Deem and Ramdas Pophale) SiO2 
 PCOD9020685
Probable space group: P -1
;
_chemical_formula_sum "Si O2"
_cell_formula_units_Z 16
_cell_length_a 4.925423
_cell_length_b 16.411170
_cell_length_c 7.429557
_cell_angle_alpha 97.982463
_cell_angle_beta 104.658417
_cell_angle_gamma 66.777668
_cell_volume 533.411003
_symmetry_space_group_name_H-M "P -1"
_symmetry_group_IT_number 2
_symmetry_cell_setting 'triclinic'
loop_
_space_group_symop_operation_xyz
x,y,z
-x,-y,-z
loop_
_atom_site_type_symbol
_atom_site_label
_atom_site_fract_x
_atom_site_fract_y
_atom_site_fract_z
Si Si1 0.945398 0.914474 0.782271
Si Si2 0.735374 0.798905 0.402788
Si Si3 0.259840 0.595603 0.929514
Si Si4 0.224872 0.024555 0.684064
Si Si5 0.449780 0.221704 0.259007
Si Si6 0.104870 0.599617 0.273674
Si Si7 0.691924 0.215773 0.933997
Si Si8 0.415260 0.413513 0.382476
O O1 0.714966 0.807330 0.617787
O O2 0.590159 0.971718 0.709610
O O3 0.195684 0.837123 0.674286
O O4 0.122112 0.983918 0.829525
O O5 0.404187 0.808648 0.278891
O O6 0.800273 0.876227 0.333982
O O7 0.921565 0.696617 0.350905
O O8 0.019071 0.600458 0.049907
O O9 0.304618 0.686446 0.023753
O O10 0.500000 0.500000 0.000000
O O11 0.322733 0.595510 0.725763
O O12 0.994734 0.143000 0.042044
O O13 0.000000 0.000000 0.500000
O O14 0.350599 0.325673 0.314121
O O15 0.442466 0.213528 0.040114
O O16 0.127284 0.503752 0.324411
O O17 0.443161 0.589002 0.397528
#
# Coordination Sequence:
#
# PCOD9020685 Si02
#       8
#     2   2   2   2   2   2   2   2
#     4  10  27  50  81 114 156 206 269 330 402 485
#     4  12  27  44  76 116 158 214 262 344 400 474
#     4   9  18  39  70 102 150 211 261 319 388 466
#     4  12  30  50  84 119 155 210 274 332 409 487
#     4   9  23  45  76 110 153 208 261 320 405 470
#     4  10  22  36  66 108 150 205 264 317 393 472
#     4   9  23  47  72 111 159 202 269 328 390 484
#     4   9  19  41  66 101 152 208 261 320 386 474
#
# _framework density 29.995628
#
# number of rings (size 3 to 8) (size 9 to 14) (size 15 to 20)
#    0.750    1.250    0.000    1.125    5.250    4.500 
#    0.000    5.625    0.000    0.750    0.000    0.000 
#    0.000    0.000    0.000    0.000    0.000    0.000 
#
# Total GULP energy -89320.715025 kJ/mol
# GULP energy per Si atom -5582.544689 kJ/mol
# Density = 2.992736 g / cm^3
# Si number density = 29.995628 Si / 1000 Ang^3
#
#
#
# Elastic Constant Matrix: (Units=GPa)
#
#
# Indices 1 2 3 4 5 6 
#
# 1 169.0657 87.3616 30.3375 -2.5076 -27.0615 -22.0189
# 2 87.3616 272.0087 43.8982 -15.6132 -7.6492 -12.7061
# 3 30.3375 43.8982 114.6918 -11.6773 -6.9560 -13.0390
# 4 -2.5076 -15.6132 -11.6773 48.5936 -0.1795 2.0730
# 5 -27.0615 -7.6492 -6.9560 -0.1795 49.7944 -13.9751
# 6 -22.0189 -12.7061 -13.0390 2.0730 -13.9751 49.4732
#
#
#
# Elastic Compliance Matrix: (Units=1/GPa)
#
#
# Indices 1 2 3 4 5 6 
#
# 1 0.008761 -0.002374 -0.000590 -0.000635 0.005647 0.004756
# 2 -0.002374 0.004641 -0.001139 0.001111 -0.000860 -0.000454
# 3 -0.000590 -0.001139 0.009871 0.001879 0.001566 0.002410
# 4 -0.000635 0.001111 0.001879 0.021371 0.000058 -0.000381
# 5 0.005647 -0.000860 0.001566 0.000058 0.026063 0.010065
# 6 0.004756 -0.000454 0.002410 -0.000381 0.010065 0.025707
#
#
# Mechanical properties :
#
#
# Convention : Reuss Voigt Hill
#
# Bulk Modulus (GPa) = 66.37041 97.66231 82.01636
# Shear Modulus (GPa) = 45.60193 55.85017 50.72605
#
# Velocity S-wave (km/s) = 3.90331 4.31971 4.11678
# Velocity P-wave (km/s) = 6.51838 7.58349 7.07102
#
# Compressibility (1/GPa) = 0.01506695
#
# Stress axis : x y z
#
# Youngs Moduli (GPa) = 114.13716 215.46829 101.30263
#
# Poissons Ratio (x) = 0.51155 0.05980
# Poissons Ratio (y) = 0.27098 0.11539
# Poissons Ratio (z) = 0.06737 0.24543
#
# Static dielectric constant tensor:
#      x y z
#    x 2.611010 0.036590 0.128570 
#    y 0.036590 2.333270 0.006360 
#    z 0.128570 0.006360 2.582600 
# 
# From -- ./inp_files/135519.got.cif
#   From: 2010.05.17/outbox.cif.g08.bks.cpg/sg2_68_cif.got.tgz:135519.got - 2010.06.03 11:33:40.
