data_PCOD9020794
_publ_section_title
;
Structure prediction by ZEFSAII (Michael W. Deem and Ramdas Pophale) SiO2 
 PCOD9020794
Probable space group: P -1
;
_chemical_formula_sum "Si O2"
_cell_formula_units_Z 16
_cell_length_a 9.452322
_cell_length_b 18.538395
_cell_length_c 8.362293
_cell_angle_alpha 139.620988
_cell_angle_beta 133.884969
_cell_angle_gamma 54.806458
_cell_volume 680.527699
_symmetry_space_group_name_H-M "P -1"
_symmetry_group_IT_number 2
_symmetry_cell_setting 'triclinic'
loop_
_space_group_symop_operation_xyz
x,y,z
-x,-y,-z
loop_
_atom_site_type_symbol
_atom_site_label
_atom_site_fract_x
_atom_site_fract_y
_atom_site_fract_z
Si Si1 0.971905 0.850677 0.305203
Si Si2 0.965615 0.074441 0.838777
Si Si3 0.609300 0.539661 0.497629
Si Si4 0.353311 0.177342 0.773411
Si Si5 0.281289 0.963469 0.138520
Si Si6 0.651307 0.294516 0.629692
Si Si7 0.424416 0.351754 0.860235
Si Si8 0.942434 0.486538 0.247346
O O1 0.964524 0.838241 0.086006
O O2 0.832571 0.785948 0.199302
O O3 0.199612 0.815481 0.467986
O O4 0.890265 0.978359 0.504362
O O5 0.135849 0.005773 0.956870
O O6 0.810904 0.110006 0.917310
O O7 0.500000 0.500000 0.500000
O O8 0.498873 0.656347 0.542550
O O9 0.842605 0.531251 0.695930
O O10 0.559183 0.451755 0.171849
O O11 0.313595 0.079165 0.449721
O O12 0.415261 0.277359 0.884422
O O13 0.528570 0.111411 0.899419
O O14 0.522752 0.285809 0.674408
O O15 0.809962 0.385216 0.938823
O O16 0.203131 0.405521 0.737782
O O17 0.000000 0.500000 0.500000
#
# Coordination Sequence:
#
# PCOD9020794 Si02
#       8
#     2   2   2   2   2   2   2   2
#     4  10  22  37  58  90 123 152 194 255 298 345
#     4   9  19  40  62  83 117 159 197 240 300 358
#     4  11  25  41  63  92 121 160 201 255 305 348
#     4  10  22  37  58  90 121 152 198 249 298 353
#     4   9  19  40  62  83 117 159 198 239 296 364
#     4  11  23  41  63  88 124 162 203 248 299 359
#     4  11  23  41  63  89 123 163 202 248 298 362
#     4  11  21  43  65  86 120 163 209 243 295 367
#
# _framework density 23.511164999999998
#
# number of rings (size 3 to 8) (size 9 to 14) (size 15 to 20)
#    0.000    1.750    2.500    1.500    3.500    4.500 
#    4.500    0.000    0.000    0.000    0.000    0.000 
#    0.000    0.000    0.000    0.000    0.000    0.000 
#
# Total GULP energy -89358.130130 kJ/mol
# GULP energy per Si atom -5584.883133 kJ/mol
# Density = 2.345765 g / cm^3
# Si number density = 23.511165 Si / 1000 Ang^3
#
#
#
# Elastic Constant Matrix: (Units=GPa)
#
#
# Indices 1 2 3 4 5 6 
#
# 1 133.8396 55.8551 12.0600 -7.1158 23.4899 -20.9122
# 2 55.8551 92.5957 10.9613 -13.0566 9.9061 -13.2029
# 3 12.0600 10.9613 50.9897 -7.5113 7.5155 -8.6213
# 4 -7.1158 -13.0566 -7.5113 30.4579 -9.1216 2.9719
# 5 23.4899 9.9061 7.5155 -9.1216 23.8751 -3.0632
# 6 -20.9122 -13.2029 -8.6213 2.9719 -3.0632 39.7666
#
#
#
# Elastic Compliance Matrix: (Units=1/GPa)
#
#
# Indices 1 2 3 4 5 6 
#
# 1 0.012304 -0.006239 0.000128 -0.003229 -0.010294 0.003875
# 2 -0.006239 0.015408 -0.001154 0.005437 0.002360 0.001360
# 3 0.000128 -0.001154 0.021626 0.003063 -0.004800 0.003774
# 4 -0.003229 0.005437 0.003063 0.039762 0.015015 -0.001044
# 5 -0.010294 0.002360 -0.004800 0.015015 0.057982 -0.002326
# 6 0.003875 0.001360 0.003774 -0.001044 -0.002326 0.028353
#
#
# Mechanical properties :
#
#
# Convention : Reuss Voigt Hill
#
# Bulk Modulus (GPa) = 28.72815 48.35308 38.54062
# Shear Modulus (GPa) = 24.80550 32.05648 28.43099
#
# Velocity S-wave (km/s) = 3.25168 3.69651 3.48121
# Velocity P-wave (km/s) = 5.13258 6.23134 5.70846
#
# Compressibility (1/GPa) = 0.03480906
#
# Stress axis : x y z
#
# Youngs Moduli (GPa) = 81.27313 64.90315 46.23972
#
# Poissons Ratio (x) = 0.40491 -0.00591
# Poissons Ratio (y) = 0.50704 0.05334
# Poissons Ratio (z) = -0.01038 0.07487
#
# Static dielectric constant tensor:
#      x y z
#    x 1.919040 0.011160 0.030760 
#    y 0.011160 1.887200 0.051330 
#    z 0.030760 0.051330 2.004780 
# 
# From -- ./inp_files/218755.got.cif
#   From: 2010.05.17/outbox.cif.g08.bks.cpg/sg2_110_cif.got.tgz:218755.got - 2010.06.03 11:33:40.
