data_PCOD9020298
_publ_section_title
;
Structure prediction by ZEFSAII (Michael W. Deem and Ramdas Pophale) SiO2 
 PCOD9020298
Probable space group: P -1
;
_chemical_formula_sum "Si O2"
_cell_formula_units_Z 16
_cell_length_a 13.842822
_cell_length_b 8.859169
_cell_length_c 12.793739
_cell_angle_alpha 71.112307
_cell_angle_beta 31.867120
_cell_angle_gamma 82.172972
_cell_volume 752.902242
_symmetry_space_group_name_H-M "P -1"
_symmetry_group_IT_number 2
_symmetry_cell_setting 'triclinic'
loop_
_space_group_symop_operation_xyz
x,y,z
-x,-y,-z
loop_
_atom_site_type_symbol
_atom_site_label
_atom_site_fract_x
_atom_site_fract_y
_atom_site_fract_z
Si Si1 0.630723 0.816094 0.192364
Si Si2 0.499360 0.626682 0.880484
Si Si3 0.999450 0.279080 0.160115
Si Si4 0.175927 0.078727 0.555039
Si Si5 0.211753 0.828694 0.063477
Si Si6 0.602509 0.855870 0.443740
Si Si7 0.417330 0.466148 0.406641
Si Si8 0.011369 0.651768 0.090835
O O1 0.689021 0.851809 0.251256
O O2 0.461116 0.650918 0.370280
O O3 0.801553 0.761060 0.996400
O O4 0.627832 0.994915 0.114146
O O5 0.673396 0.795919 0.685023
O O6 0.538937 0.540810 0.754516
O O7 0.500000 0.500000 0.000000
O O8 0.306435 0.686580 0.045775
O O9 0.027173 0.465231 0.129287
O O10 0.858323 0.119510 0.381386
O O11 0.962682 0.287187 0.066729
O O12 0.266969 0.105961 0.582046
O O13 0.980018 0.136104 0.720835
O O14 0.151688 0.778107 0.010645
O O15 0.473667 0.663324 0.617668
O O16 0.500000 0.000000 0.500000
O O17 0.203025 0.377513 0.661355
#
# Coordination Sequence:
#
# PCOD9020298 Si02
#       8
#     2   2   2   2   2   2   2   2
#     4  11  21  36  59  94 132 167 207 253 310 389
#     4  11  25  46  70  92 119 165 222 276 336 382
#     4  10  22  33  61  90 140 171 209 249 310 379
#     4  10  22  42  59  98 128 168 216 265 309 380
#     4  11  22  42  67  89 128 165 211 265 325 378
#     4  11  21  33  59  91 134 176 209 244 305 375
#     4  11  23  40  60  95 132 167 219 266 311 377
#     4  11  21  38  60  95 134 178 205 250 314 387
#
# _framework density 21.251099
#
# number of rings (size 3 to 8) (size 9 to 14) (size 15 to 20)
#    0.000    1.250    3.750    3.375    3.500    3.500 
#    0.000    0.625    0.000    2.250    0.000    0.000 
#    0.000    0.000    0.000    0.000    0.000    0.000 
#
# Total GULP energy -89183.967924 kJ/mol
# GULP energy per Si atom -5573.997995 kJ/mol
# Density = 2.120273 g / cm^3
# Si number density = 21.251099 Si / 1000 Ang^3
#
#
#
# Elastic Constant Matrix: (Units=GPa)
#
#
# Indices 1 2 3 4 5 6 
#
# 1 42.5877 39.8995 27.8058 -12.6196 6.8358 -21.5681
# 2 39.8995 161.0318 49.3385 -21.0836 1.1783 -10.2477
# 3 27.8058 49.3385 85.9637 -20.3733 -0.2137 -14.5024
# 4 -12.6196 -21.0836 -20.3733 41.3194 0.8870 -4.3518
# 5 6.8358 1.1783 -0.2137 0.8870 25.2892 -5.7568
# 6 -21.5681 -10.2477 -14.5024 -4.3518 -5.7568 30.8735
#
#
#
# Elastic Compliance Matrix: (Units=1/GPa)
#
#
# Indices 1 2 3 4 5 6 
#
# 1 0.059294 -0.008974 -0.004050 0.015628 -0.007699 0.037309
# 2 -0.008974 0.009068 -0.003103 -0.000144 0.000944 -0.004561
# 3 -0.004050 -0.003103 0.017114 0.006145 0.002420 0.005497
# 4 0.015628 -0.000144 0.006145 0.033885 -0.001186 0.018311
# 5 -0.007699 0.000944 0.002420 -0.001186 0.042514 0.003832
# 6 0.037309 -0.004561 0.005497 0.018311 0.003832 0.062818
#
#
# Mechanical properties :
#
#
# Convention : Reuss Voigt Hill
#
# Bulk Modulus (GPa) = 18.78933 58.18565 38.48749
# Shear Modulus (GPa) = 18.20249 30.99903 24.60076
#
# Velocity S-wave (km/s) = 2.92985 3.82344 3.40608
# Velocity P-wave (km/s) = 4.50623 6.85063 5.79816
#
# Compressibility (1/GPa) = 0.05322170
#
# Stress axis : x y z
#
# Youngs Moduli (GPa) = 16.86506 110.27534 58.43303
#
# Poissons Ratio (x) = 0.98961 0.23664
# Poissons Ratio (y) = 0.15135 0.18134
# Poissons Ratio (z) = 0.06830 0.34222
#
# Static dielectric constant tensor:
#      x y z
#    x 1.752150 0.012700 -0.063250 
#    y 0.012700 1.890100 0.002930 
#    z -0.063250 0.002930 1.888590 
# 
# From -- ./inp_files/529468.got.cif
#   From: 2010.05.17/outbox.cif.g08.bks.cpg/sg2_265_cif.got.tgz:529468.got - 2010.06.03 11:33:40.
