data_PCOD9020123
_publ_section_title
;
Structure prediction by ZEFSAII (Michael W. Deem and Ramdas Pophale) SiO2 
 PCOD9020123
Probable space group: P -1
;
_chemical_formula_sum "Si O2"
_cell_formula_units_Z 14
_cell_length_a 24.562371
_cell_length_b 16.373284
_cell_length_c 5.190167
_cell_angle_alpha 88.140163
_cell_angle_beta 95.065562
_cell_angle_gamma 163.867238
_cell_volume 567.290152
_symmetry_space_group_name_H-M "P -1"
_symmetry_group_IT_number 2
_symmetry_cell_setting 'triclinic'
loop_
_space_group_symop_operation_xyz
x,y,z
-x,-y,-z
loop_
_atom_site_type_symbol
_atom_site_label
_atom_site_fract_x
_atom_site_fract_y
_atom_site_fract_z
Si Si1 0.336611 0.796182 0.749083
Si Si2 0.349229 0.656793 0.521948
Si Si3 0.996431 0.051821 0.241438
Si Si4 0.180191 0.740749 0.750757
Si Si5 0.621864 0.915650 0.698433
Si Si6 0.739515 0.837542 0.111898
Si Si7 0.690567 0.832487 0.596704
O O1 0.240647 0.574678 0.631454
O O2 0.195062 0.664502 0.806069
O O3 0.462583 0.025035 0.557248
O O4 0.500000 0.000000 0.000000
O O5 0.438506 0.710860 0.723967
O O6 0.193651 0.392220 0.292241
O O7 0.813455 0.852849 0.198883
O O8 0.000000 0.000000 0.500000
O O9 0.000000 0.000000 0.000000
O O10 0.351783 0.020437 0.598547
O O11 0.000000 0.500000 0.500000
O O12 0.212588 0.827512 0.036557
O O13 0.613853 0.807697 0.675164
O O14 0.792113 0.977055 0.344928
O O15 0.500000 0.500000 0.000000
O O16 0.826308 0.988357 0.857577
O O17 0.500000 0.500000 0.500000
#
# Coordination Sequence:
#
# PCOD9020123 Si02
#       7
#     2   2   2   2   2   2   2
#     4  10  21  46  71  98 137 183 238 292 360 417
#     4  10  25  42  72 102 137 188 239 290 356 425
#     4  12  29  46  71 108 148 186 240 298 350 430
#     4  11  24  43  67 103 134 171 228 294 348 417
#     4  11  23  41  69  99 131 185 225 285 354 408
#     4  10  23  43  66  96 138 188 229 282 351 408
#     4  10  22  40  66  93 135 177 230 275 338 415
#
# _framework density 24.678728
#
# number of rings (size 3 to 8) (size 9 to 14) (size 15 to 20)
#    0.000    1.429    1.429    2.143   10.000    2.286 
#    2.571    0.000    0.000    0.000    0.000    0.000 
#    0.000    0.000    0.000    0.000    0.000    0.000 
#
# Total GULP energy -78115.585716 kJ/mol
# GULP energy per Si atom -5579.684694 kJ/mol
# Density = 2.462256 g / cm^3
# Si number density = 24.678728 Si / 1000 Ang^3
#
#
#
# Elastic Constant Matrix: (Units=GPa)
#
#
# Indices 1 2 3 4 5 6 
#
# 1 247.4478 35.4704 90.8489 28.9506 -1.5227 -28.6478
# 2 35.4704 33.1246 24.2673 12.1360 -12.4554 0.7351
# 3 90.8489 24.2673 182.6627 -1.1379 -19.6646 -11.7362
# 4 28.9506 12.1360 -1.1379 42.2237 -8.0397 0.4492
# 5 -1.5227 -12.4554 -19.6646 -8.0397 60.5854 12.1796
# 6 -28.6478 0.7351 -11.7362 0.4492 12.1796 35.3946
#
#
#
# Elastic Compliance Matrix: (Units=1/GPa)
#
#
# Indices 1 2 3 4 5 6 
#
# 1 0.007018 -0.005492 -0.002781 -0.004066 -0.003636 0.006175
# 2 -0.005492 0.044395 -0.002844 -0.007264 0.008973 -0.009305
# 3 -0.002781 -0.002844 0.007471 0.003375 0.002331 -0.000559
# 4 -0.004066 -0.007264 0.003375 0.029487 0.004184 -0.003835
# 5 -0.003636 0.008973 0.002331 0.004184 0.021545 -0.009824
# 6 0.006175 -0.009305 -0.000559 -0.003835 -0.009824 0.036688
#
#
# Mechanical properties :
#
#
# Convention : Reuss Voigt Hill
#
# Bulk Modulus (GPa) = 27.28432 84.93428 56.10930
# Shear Modulus (GPa) = 27.61602 48.48397 38.04999
#
# Velocity S-wave (km/s) = 3.34881 4.43720 3.93085
# Velocity P-wave (km/s) = 5.10220 7.79374 6.58691
#
# Compressibility (1/GPa) = 0.03665109
#
# Stress axis : x y z
#
# Youngs Moduli (GPa) = 142.49744 22.52515 133.84388
#
# Poissons Ratio (x) = 0.12371 0.37218
# Poissons Ratio (y) = 0.78260 0.38060
# Poissons Ratio (z) = 0.39624 0.06405
#
# Static dielectric constant tensor:
#      x y z
#    x 2.142160 0.299120 -0.065380 
#    y 0.299120 1.937480 0.078300 
#    z -0.065380 0.078300 1.918510 
# 
# From -- ./inp_files/124283.got.cif
#   From: 2010.05.17/outbox.cif.g08.bks.cpg/sg2_63_cif.got.tgz:124283.got - 2010.06.03 11:33:40.
