data_PCOD9020065
_publ_section_title
;
Structure prediction by ZEFSAII (Michael W. Deem and Ramdas Pophale) SiO2 
 PCOD9020065
Probable space group: P -1
;
_chemical_formula_sum "Si O2"
_cell_formula_units_Z 16
_cell_length_a 5.725024
_cell_length_b 17.390676
_cell_length_c 8.968616
_cell_angle_alpha 85.689363
_cell_angle_beta 84.209442
_cell_angle_gamma 129.658417
_cell_volume 672.480692
_symmetry_space_group_name_H-M "P -1"
_symmetry_group_IT_number 2
_symmetry_cell_setting 'triclinic'
loop_
_space_group_symop_operation_xyz
x,y,z
-x,-y,-z
loop_
_atom_site_type_symbol
_atom_site_label
_atom_site_fract_x
_atom_site_fract_y
_atom_site_fract_z
Si Si1 0.602666 0.453324 0.899316
Si Si2 0.086545 0.950740 0.659566
Si Si3 0.185850 0.273038 0.740925
Si Si4 0.288678 0.617869 0.813034
Si Si5 0.803242 0.109192 0.024774
Si Si6 0.645792 0.443626 0.478577
Si Si7 0.571304 0.182179 0.241183
Si Si8 0.751109 0.157551 0.529596
O O1 0.323287 0.367831 0.825846
O O2 0.929863 0.549210 0.798704
O O3 0.500000 0.500000 0.000000
O O4 0.684935 0.402033 0.014915
O O5 0.098233 0.913094 0.827307
O O6 0.101735 0.891810 0.531790
O O7 0.763337 0.926238 0.687483
O O8 0.396604 0.065684 0.607674
O O9 0.462115 0.335297 0.592888
O O10 0.902257 0.226486 0.655014
O O11 0.064203 0.178522 0.871059
O O12 0.405118 0.582337 0.689880
O O13 0.467052 0.735526 0.777644
O O14 0.708385 0.173101 0.086097
O O15 0.500000 0.000000 0.000000
O O16 0.500000 0.500000 0.500000
O O17 0.000000 0.500000 0.500000
O O18 0.773758 0.211844 0.370497
#
# Coordination Sequence:
#
# PCOD9020065 Si02
#       8
#     2   2   2   2   2   2   2   2
#     4  11  24  46  74 103 147 193 250 311 392 464
#     4  10  21  46  68  98 143 195 245 307 378 449
#     4  12  24  45  73 107 146 195 254 316 388 456
#     4  11  25  46  72 108 144 199 251 316 386 472
#     4  11  24  46  70 105 150 194 251 315 374 460
#     4  12  28  51  77 115 157 204 261 329 396 471
#     4  11  24  43  71 104 146 198 253 303 388 459
#     4  10  23  41  70 103 142 191 245 309 377 460
#
# _framework density 23.792505999999999
#
# number of rings (size 3 to 8) (size 9 to 14) (size 15 to 20)
#    0.000    1.000    2.500    3.375    1.750    3.500 
#    4.500    0.000    0.000    0.000    0.000    0.000 
#    0.000    0.000    0.000    0.000    0.000    0.000 
#
# Total GULP energy -89276.758953 kJ/mol
# GULP energy per Si atom -5579.797435 kJ/mol
# Density = 2.373835 g / cm^3
# Si number density = 23.792506 Si / 1000 Ang^3
#
#
#
# Elastic Constant Matrix: (Units=GPa)
#
#
# Indices 1 2 3 4 5 6 
#
# 1 57.0549 23.9314 14.2120 4.4149 5.7125 14.6695
# 2 23.9314 120.1781 37.5071 7.9062 12.0674 35.2773
# 3 14.2120 37.5071 96.3331 4.5696 3.5819 24.6330
# 4 4.4149 7.9062 4.5696 60.2662 12.0317 0.0087
# 5 5.7125 12.0674 3.5819 12.0317 26.1979 -0.2425
# 6 14.6695 35.2773 24.6330 0.0087 -0.2425 24.8687
#
#
#
# Elastic Compliance Matrix: (Units=1/GPa)
#
#
# Indices 1 2 3 4 5 6 
#
# 1 0.021270 -0.000096 0.000377 -0.000684 -0.004450 -0.012827
# 2 -0.000096 0.015586 -0.000142 -0.000614 -0.007060 -0.021981
# 3 0.000377 -0.000142 0.014047 -0.000726 -0.001733 -0.013951
# 4 -0.000684 -0.000614 -0.000726 0.018352 -0.007879 0.001911
# 5 -0.004450 -0.007060 -0.001733 -0.007879 0.046386 0.014812
# 6 -0.012827 -0.021981 -0.013951 0.001911 0.014812 0.092921
#
#
# Mechanical properties :
#
#
# Convention : Reuss Voigt Hill
#
# Bulk Modulus (GPa) = 19.53848 47.20746 33.37297
# Shear Modulus (GPa) = 22.18840 35.46093 28.82466
#
# Velocity S-wave (km/s) = 3.05713 3.86479 3.48444
# Velocity P-wave (km/s) = 4.54876 6.30871 5.49960
#
# Compressibility (1/GPa) = 0.05118105
#
# Stress axis : x y z
#
# Youngs Moduli (GPa) = 47.01501 64.15997 71.19168
#
# Poissons Ratio (x) = 0.00617 -0.02687
# Poissons Ratio (y) = 0.00452 0.01010
# Poissons Ratio (z) = -0.01774 0.00911
#
# Static dielectric constant tensor:
#      x y z
#    x 1.961840 0.026130 0.028970 
#    y 0.026130 1.885120 -0.011520 
#    z 0.028970 -0.011520 1.975470 
# 
# From -- ./inp_files/139046.got.cif
#   From: 2010.05.17/outbox.cif.g08.bks.cpg/sg2_70_cif.got.tgz:139046.got - 2010.06.03 11:33:40.
