data_PCOD9020691
_publ_section_title
;
Structure prediction by ZEFSAII (Michael W. Deem and Ramdas Pophale) SiO2 
 PCOD9020691
Probable space group: P -1
;
_chemical_formula_sum "Si O2"
_cell_formula_units_Z 16
_cell_length_a 9.122318
_cell_length_b 27.044473
_cell_length_c 21.460827
_cell_angle_alpha 18.177744
_cell_angle_beta 150.337755
_cell_angle_gamma 141.102233
_cell_volume 778.067287
_symmetry_space_group_name_H-M "P -1"
_symmetry_group_IT_number 2
_symmetry_cell_setting 'triclinic'
loop_
_space_group_symop_operation_xyz
x,y,z
-x,-y,-z
loop_
_atom_site_type_symbol
_atom_site_label
_atom_site_fract_x
_atom_site_fract_y
_atom_site_fract_z
Si Si1 0.656364 0.576080 0.704911
Si Si2 0.091567 0.801117 0.554862
Si Si3 0.358720 0.879598 0.943276
Si Si4 0.872833 0.382967 0.904604
Si Si5 0.464884 0.718852 0.664478
Si Si6 0.479204 0.414803 0.943671
Si Si7 0.319744 0.894322 0.273648
Si Si8 0.802148 0.563365 0.540497
O O1 0.610721 0.482301 0.737851
O O2 0.699486 0.437367 0.941371
O O3 0.400861 0.723486 0.468819
O O4 0.898974 0.674135 0.656098
O O5 0.241975 0.757750 0.594879
O O6 0.369348 0.761586 0.755957
O O7 0.874891 0.991549 0.250849
O O8 0.446675 0.003292 0.779830
O O9 0.207245 0.760857 0.991234
O O10 0.663408 0.755740 0.238573
O O11 0.902345 0.518088 0.702977
O O12 0.187935 0.306929 0.150983
O O13 0.483294 0.550137 0.836307
O O14 0.345349 0.854866 0.403275
O O15 0.109219 0.462479 0.735531
O O16 0.000000 0.000000 0.000000
O O17 0.500000 0.500000 0.500000
#
# Coordination Sequence:
#
# PCOD9020691 Si02
#       8
#     2   2   2   2   2   2   2   2
#     4  10  22  36  66  92 123 163 207 251 310 373
#     4  11  21  38  63  97 122 158 211 261 309 359
#     4  10  24  41  61  90 131 162 202 261 316 361
#     4  11  22  41  62  93 124 163 211 253 306 375
#     4  11  22  37  67  91 122 162 210 256 306 372
#     4  11  20  39  65  92 123 162 211 255 304 372
#     4  10  23  43  61  90 129 164 203 258 314 366
#     4  10  22  43  62  85 128 171 201 250 310 371
#
# _framework density 20.563775
#
# number of rings (size 3 to 8) (size 9 to 14) (size 15 to 20)
#    0.000    1.500    2.500    3.000    3.500    2.000 
#    0.000    8.750    0.000    0.000    0.000    0.000 
#    0.000    0.000    0.000    0.000    0.000    0.000 
#
# Total GULP energy -89146.194740 kJ/mol
# GULP energy per Si atom -5571.637171 kJ/mol
# Density = 2.051697 g / cm^3
# Si number density = 20.563775 Si / 1000 Ang^3
#
#
#
# Elastic Constant Matrix: (Units=GPa)
#
#
# Indices 1 2 3 4 5 6 
#
# 1 138.5146 11.1867 30.6632 -2.0301 -15.0715 -10.8081
# 2 11.1867 60.8469 5.2106 3.3744 1.1096 -2.0969
# 3 30.6632 5.2106 99.1646 8.8049 -18.0631 -3.4499
# 4 -2.0301 3.3744 8.8049 29.0383 -2.0256 3.5865
# 5 -15.0715 1.1096 -18.0631 -2.0256 32.0748 2.4689
# 6 -10.8081 -2.0969 -3.4499 3.5865 2.4689 20.0689
#
#
#
# Elastic Compliance Matrix: (Units=1/GPa)
#
#
# Indices 1 2 3 4 5 6 
#
# 1 0.008348 -0.001352 -0.002006 0.001102 0.002641 0.003488
# 2 -0.001352 0.016939 -0.000547 -0.002215 -0.001790 0.001564
# 3 -0.002006 -0.000547 0.012091 -0.003460 0.005600 0.000870
# 4 0.001102 -0.002215 -0.003460 0.036790 0.001508 -0.006993
# 5 0.002641 -0.001790 0.005600 0.001508 0.035921 -0.002490
# 6 0.003488 0.001564 0.000870 -0.006993 -0.002490 0.053576
#
#
# Mechanical properties :
#
#
# Convention : Reuss Voigt Hill
#
# Bulk Modulus (GPa) = 33.81947 43.62747 38.72347
# Shear Modulus (GPa) = 27.57394 33.00079 30.28736
#
# Velocity S-wave (km/s) = 3.66580 4.01034 3.84194
# Velocity P-wave (km/s) = 5.86509 6.53495 6.20906
#
# Compressibility (1/GPa) = 0.02956877
#
# Stress axis : x y z
#
# Youngs Moduli (GPa) = 119.78343 59.03370 82.70808
#
# Poissons Ratio (x) = 0.07982 0.16590
# Poissons Ratio (y) = 0.16197 0.04523
# Poissons Ratio (z) = 0.24027 0.03228
#
# Static dielectric constant tensor:
#      x y z
#    x 1.800010 0.066470 -0.017310 
#    y 0.066470 1.773620 0.024590 
#    z -0.017310 0.024590 1.797010 
# 
# From -- ./inp_files/500447.got.cif
#   From: 2010.05.17/outbox.cif.g08.bks.cpg/sg2_251_cif.got.tgz:500447.got - 2010.06.03 11:33:40.
