data_PCOD9020400
_publ_section_title
;
Structure prediction by ZEFSAII (Michael W. Deem and Ramdas Pophale) SiO2 
 PCOD9020400
Probable space group: P -1
;
_chemical_formula_sum "Si O2"
_cell_formula_units_Z 16
_cell_length_a 13.776669
_cell_length_b 10.552185
_cell_length_c 8.449127
_cell_angle_alpha 93.728695
_cell_angle_beta 141.384616
_cell_angle_gamma 103.143733
_cell_volume 684.365191
_symmetry_space_group_name_H-M "P -1"
_symmetry_group_IT_number 2
_symmetry_cell_setting 'triclinic'
loop_
_space_group_symop_operation_xyz
x,y,z
-x,-y,-z
loop_
_atom_site_type_symbol
_atom_site_label
_atom_site_fract_x
_atom_site_fract_y
_atom_site_fract_z
Si Si1 0.689552 0.584508 0.672441
Si Si2 0.165278 0.910865 0.092158
Si Si3 0.467731 0.207759 0.540051
Si Si4 0.984456 0.329293 0.688568
Si Si5 0.657788 0.326726 0.458599
Si Si6 0.778692 0.230602 0.115074
Si Si7 0.624049 0.940451 0.078268
Si Si8 0.061949 0.951455 0.305603
O O1 0.500000 0.500000 0.500000
O O2 0.675668 0.730307 0.627391
O O3 0.696028 0.490751 0.525653
O O4 0.834557 0.583290 0.980479
O O5 0.085749 0.889664 0.163512
O O6 0.358321 0.037759 0.373044
O O7 0.144306 0.772535 0.960152
O O8 0.061014 0.976981 0.866203
O O9 0.587034 0.266874 0.539932
O O10 0.604014 0.247871 0.861458
O O11 0.826541 0.317136 0.601714
O O12 0.908802 0.337370 0.418627
O O13 0.004841 0.184581 0.679850
O O14 0.492709 0.217142 0.141510
O O15 0.717969 0.066312 0.079846
O O16 0.757380 0.942870 0.379977
O O17 0.500000 0.000000 0.000000
#
# Coordination Sequence:
#
# PCOD9020400 Si02
#       8
#     2   2   2   2   2   2   2   2
#     4  10  24  44  64  86 118 172 213 249 294 364
#     4  11  21  35  58  95 128 165 195 252 314 367
#     4  11  22  39  62  93 126 161 210 248 303 364
#     4  11  22  42  63  93 123 159 209 254 300 368
#     4  11  22  39  66  89 122 168 206 247 302 368
#     4  11  23  34  65  94 126 157 197 255 317 359
#     4  11  20  36  59  94 125 155 198 251 310 366
#     4  10  22  35  59  92 134 155 201 250 314 363
#
# _framework density 23.37933
#
# number of rings (size 3 to 8) (size 9 to 14) (size 15 to 20)
#    0.000    1.250    5.000    2.250    0.000    4.000 
#    0.000    3.125    0.000    0.000    0.000    0.000 
#    0.000    0.000    0.000    0.000    0.000    0.000 
#
# Total GULP energy -89190.057017 kJ/mol
# GULP energy per Si atom -5574.378564 kJ/mol
# Density = 2.332612 g / cm^3
# Si number density = 23.379330 Si / 1000 Ang^3
#
#
#
# Elastic Constant Matrix: (Units=GPa)
#
#
# Indices 1 2 3 4 5 6 
#
# 1 65.8104 12.6546 30.5130 -1.3000 -2.3467 -15.9196
# 2 12.6546 42.7537 37.8831 3.8593 -2.6818 -23.2506
# 3 30.5130 37.8831 187.3505 4.8946 -0.2915 -19.8119
# 4 -1.3000 3.8593 4.8946 34.3308 -3.9632 2.1248
# 5 -2.3467 -2.6818 -0.2915 -3.9632 26.2592 5.5103
# 6 -15.9196 -23.2506 -19.8119 2.1248 5.5103 28.0879
#
#
#
# Elastic Compliance Matrix: (Units=1/GPa)
#
#
# Indices 1 2 3 4 5 6 
#
# 1 0.018443 0.002603 -0.002366 0.000012 -0.000423 0.011021
# 2 0.002603 0.050410 -0.006164 -0.007679 -0.004299 0.040280
# 3 -0.002366 -0.006164 0.006817 -0.000333 -0.000498 -0.001511
# 4 0.000012 -0.007679 -0.000333 0.031369 0.006077 -0.010149
# 5 -0.000423 -0.004299 -0.000498 0.006077 0.041179 -0.012688
# 6 0.011021 0.040280 -0.001511 -0.010149 -0.012688 0.077383
#
#
# Mechanical properties :
#
#
# Convention : Reuss Voigt Hill
#
# Bulk Modulus (GPa) = 15.66957 50.89069 33.28013
# Shear Modulus (GPa) = 19.32550 32.05984 25.69267
#
# Velocity S-wave (km/s) = 2.87819 3.70711 3.31863
# Velocity P-wave (km/s) = 4.21452 6.33547 5.38054
#
# Compressibility (1/GPa) = 0.06381797
#
# Stress axis : x y z
#
# Youngs Moduli (GPa) = 54.22232 19.83748 146.68659
#
# Poissons Ratio (x) = -0.05164 0.34700
# Poissons Ratio (y) = -0.14116 0.90411
# Poissons Ratio (z) = 0.12827 0.12227
#
# Static dielectric constant tensor:
#      x y z
#    x 1.920490 0.028290 -0.038980 
#    y 0.028290 1.997370 0.010700 
#    z -0.038980 0.010700 1.928620 
# 
# From -- ./inp_files/187861.got.cif
#   From: 2010.05.17/outbox.cif.g08.bks.cpg/sg2_94_cif.got.tgz:187861.got - 2010.06.03 11:33:40.
