data_PCOD9020257
_publ_section_title
;
Structure prediction by ZEFSAII (Michael W. Deem and Ramdas Pophale) SiO2 
 PCOD9020257
Probable space group: P -1
;
_chemical_formula_sum "Si O2"
_cell_formula_units_Z 10
_cell_length_a 16.493350
_cell_length_b 5.247827
_cell_length_c 5.068403
_cell_angle_alpha 93.558753
_cell_angle_beta 115.864442
_cell_angle_gamma 70.434664
_cell_volume 370.124166
_symmetry_space_group_name_H-M "P -1"
_symmetry_group_IT_number 2
_symmetry_cell_setting 'triclinic'
loop_
_space_group_symop_operation_xyz
x,y,z
-x,-y,-z
loop_
_atom_site_type_symbol
_atom_site_label
_atom_site_fract_x
_atom_site_fract_y
_atom_site_fract_z
Si Si1 0.311670 0.428766 0.097602
Si Si2 0.513873 0.248812 0.198280
Si Si3 0.998073 0.245060 0.817940
Si Si4 0.159656 0.900592 0.654233
Si Si5 0.280179 0.121449 0.511417
O O1 0.253402 0.732865 0.942017
O O2 0.299536 0.250208 0.820908
O O3 0.426503 0.347241 0.288184
O O4 0.265425 0.344548 0.280492
O O5 0.622850 0.125606 0.441931
O O6 0.500000 0.500000 0.000000
O O7 0.500000 0.000000 0.000000
O O8 0.900587 0.293317 0.517604
O O9 0.086110 0.139199 0.733899
O O10 0.000000 0.500000 0.000000
O O11 0.000000 0.000000 0.000000
O O12 0.195623 0.010703 0.452933
#
# Coordination Sequence:
#
# PCOD9020257 Si02
#       5
#     2   2   2   2   2
#     4  11  26  46  79 117 165 212 270 326 400 482
#     4  10  21  48  74 117 165 213 260 327 391 474
#     4  11  30  53  83 112 164 206 272 346 424 484
#     4  11  28  49  80 120 158 211 278 337 410 492
#     4  11  26  46  79 117 165 212 270 326 400 482
#
# _framework density 27.017959000000001
#
# number of rings (size 3 to 8) (size 9 to 14) (size 15 to 20)
#    0.000    1.200    2.000    0.600   11.200    1.600 
#    0.000    7.000    0.000    0.000    0.000    1.400 
#    0.000    0.000    0.000    0.000    0.000    0.000 
#
# Total GULP energy -56214.499504 kJ/mol
# GULP energy per Si atom -5621.449950 kJ/mol
# Density = 2.695647 g / cm^3
# Si number density = 27.017959 Si / 1000 Ang^3
#
#
#
# Elastic Constant Matrix: (Units=GPa)
#
#
# Indices 1 2 3 4 5 6 
#
# 1 219.5316 71.2566 48.9008 -5.5522 -7.5545 -14.8860
# 2 71.2566 158.8539 31.5235 14.1582 -4.6690 3.1879
# 3 48.9008 31.5235 92.6596 1.8278 -7.9925 3.1129
# 4 -5.5522 14.1582 1.8278 55.5496 7.6560 -7.0859
# 5 -7.5545 -4.6690 -7.9925 7.6560 59.0283 -16.3162
# 6 -14.8860 3.1879 3.1129 -7.0859 -16.3162 45.7529
#
#
#
# Elastic Compliance Matrix: (Units=1/GPa)
#
#
# Indices 1 2 3 4 5 6 
#
# 1 0.006167 -0.002448 -0.002476 0.001573 0.000856 0.002894
# 2 -0.002448 0.007898 -0.001293 -0.002424 -0.000001 -0.001635
# 3 -0.002476 -0.001293 0.012683 -0.000643 0.001018 -0.001315
# 4 0.001573 -0.002424 -0.000643 0.019435 -0.001737 0.003115
# 5 0.000856 -0.000001 0.001018 -0.001737 0.019300 0.006823
# 6 0.002894 -0.001635 -0.001315 0.003115 0.006823 0.025917
#
#
# Mechanical properties :
#
#
# Convention : Reuss Voigt Hill
#
# Bulk Modulus (GPa) = 69.85499 86.04522 77.95011
# Shear Modulus (GPa) = 46.03824 53.35711 49.69767
#
# Velocity S-wave (km/s) = 4.13242 4.44878 4.29351
# Velocity P-wave (km/s) = 6.97713 7.63580 7.31388
#
# Compressibility (1/GPa) = 0.01431537
#
# Stress axis : x y z
#
# Youngs Moduli (GPa) = 162.15885 126.60701 78.84339
#
# Poissons Ratio (x) = 0.30993 0.19522
# Poissons Ratio (y) = 0.39696 0.10191
# Poissons Ratio (z) = 0.40152 0.16365
#
# Static dielectric constant tensor:
#      x y z
#    x 2.065870 -0.021500 0.053080 
#    y -0.021500 2.009080 -0.024480 
#    z 0.053080 -0.024480 2.056880 
# 
# From -- ./inp_files/85497.got.cif
#   From: 2010.05.17/outbox.cif.g08.bks.cpg/sg2_43_cif.got.tgz:85497.got - 2010.06.03 11:33:40.
