data_PCOD9020490
_publ_section_title
;
Structure prediction by ZEFSAII (Michael W. Deem and Ramdas Pophale) SiO2 
 PCOD9020490
Probable space group: P -1
;
_chemical_formula_sum "Si O2"
_cell_formula_units_Z 14
_cell_length_a 8.582968
_cell_length_b 5.524087
_cell_length_c 18.069933
_cell_angle_alpha 117.293802
_cell_angle_beta 124.270023
_cell_angle_gamma 90.000380
_cell_volume 589.012784
_symmetry_space_group_name_H-M "P -1"
_symmetry_group_IT_number 2
_symmetry_cell_setting 'triclinic'
loop_
_space_group_symop_operation_xyz
x,y,z
-x,-y,-z
loop_
_atom_site_type_symbol
_atom_site_label
_atom_site_fract_x
_atom_site_fract_y
_atom_site_fract_z
Si Si1 0.745112 0.130813 0.420532
Si Si2 0.744030 0.620126 0.579432
Si Si3 0.681112 0.192253 0.794807
Si Si4 0.744030 0.118202 0.579433
Si Si5 0.291089 0.817723 0.878477
Si Si6 0.679615 0.818509 0.212346
Si Si7 0.923536 0.819499 0.879636
O O1 0.501679 0.998981 0.332644
O O2 0.798806 0.029032 0.499965
O O3 0.794897 0.011161 0.340772
O O4 0.798811 0.470900 0.499967
O O5 0.500000 0.500000 0.500000
O O6 0.176862 0.037707 0.358483
O O7 0.813176 0.464590 0.643048
O O8 0.557147 0.260405 0.840248
O O9 0.799427 0.489813 0.826186
O O10 0.799497 0.988932 0.826221
O O11 0.500000 0.000000 0.500000
O O12 0.280826 0.483590 0.821099
O O13 0.114571 0.827825 0.885203
O O14 0.280844 0.979728 0.821104
O O15 0.500000 0.000000 0.000000
O O16 0.000000 0.000000 0.000000
#
# Coordination Sequence:
#
# PCOD9020490 Si02
#       7
#     2   2   2   2   2   2   2
#     4   8  20  28  54  74 118 132 178 212 278 312
#     4   8  14  24  42  72 110 142 162 206 262 314
#     4  10  22  36  57  81 107 139 176 222 280 313
#     4   8  14  24  42  72 110 142 162 206 262 314
#     4  12  24  40  57  76 105 139 184 226 275 331
#     4  10  22  36  57  81 107 139 176 222 280 313
#     4  12  24  40  57  76 105 139 184 226 275 331
#
# _framework density 23.768585999999999
#
# number of rings (size 3 to 8) (size 9 to 14) (size 15 to 20)
#    1.714    0.571    0.000    4.286    4.000    0.000 
#    0.000    0.000    0.000    0.000    0.000    0.000 
#    0.000   22.857    0.000    0.000    0.000    0.000 
#
# Total GULP energy -78128.474076 kJ/mol
# GULP energy per Si atom -5580.605291 kJ/mol
# Density = 2.371449 g / cm^3
# Si number density = 23.768586 Si / 1000 Ang^3
#
#
#
# Elastic Constant Matrix: (Units=GPa)
#
#
# Indices 1 2 3 4 5 6 
#
# 1 165.1000 82.2840 50.5073 1.2490 -22.3561 -0.4586
# 2 82.2840 291.4163 60.5885 5.9079 -9.2867 13.0043
# 3 50.5073 60.5885 109.4679 1.7418 -14.7518 0.8848
# 4 1.2490 5.9079 1.7418 34.1086 -1.4242 -7.7768
# 5 -22.3561 -9.2867 -14.7518 -1.4242 48.9487 0.1537
# 6 -0.4586 13.0043 0.8848 -7.7768 0.1537 37.5093
#
#
#
# Elastic Compliance Matrix: (Units=1/GPa)
#
#
# Indices 1 2 3 4 5 6 
#
# 1 0.008003 -0.001723 -0.002400 0.000426 0.002615 0.000830
# 2 -0.001723 0.004340 -0.001643 -0.001011 -0.000483 -0.001695
# 3 -0.002400 -0.001643 0.011425 -0.000070 0.002032 0.000248
# 4 0.000426 -0.001011 -0.000070 0.031067 0.000864 0.006795
# 5 0.002615 -0.000483 0.002032 0.000864 0.022169 0.000240
# 6 0.000830 -0.001695 0.000248 0.006795 0.000240 0.028660
#
#
# Mechanical properties :
#
#
# Convention : Reuss Voigt Hill
#
# Bulk Modulus (GPa) = 81.72089 105.86042 93.79065
# Shear Modulus (GPa) = 41.22919 48.95362 45.09140
#
# Velocity S-wave (km/s) = 4.16938 4.54320 4.36030
# Velocity P-wave (km/s) = 7.59176 8.49444 8.05575
#
# Compressibility (1/GPa) = 0.01223677
#
# Stress axis : x y z
#
# Youngs Moduli (GPa) = 124.95256 230.39918 87.53115
#
# Poissons Ratio (x) = 0.39700 0.21007
# Poissons Ratio (y) = 0.21530 0.14377
# Poissons Ratio (z) = 0.29988 0.37843
#
# Static dielectric constant tensor:
#      x y z
#    x 1.964910 -0.000470 -0.029710 
#    y -0.000470 1.952330 0.004740 
#    z -0.029710 0.004740 1.860450 
# 
# From -- ./inp_files/584732.got.cif
#   From: 2010.05.17/outbox.cif.g08.bks.cpg/sg2_293_cif.got.tgz:584732.got - 2010.06.03 11:33:40.
