data_PCOD9020980
_publ_section_title
;
Structure prediction by ZEFSAII (Michael W. Deem and Ramdas Pophale) SiO2 
 PCOD9020980
Probable space group: P -1
;
_chemical_formula_sum "Si O2"
_cell_formula_units_Z 16
_cell_length_a 9.320763
_cell_length_b 9.174801
_cell_length_c 10.168835
_cell_angle_alpha 67.697876
_cell_angle_beta 101.723389
_cell_angle_gamma 66.771153
_cell_volume 672.647437
_symmetry_space_group_name_H-M "P -1"
_symmetry_group_IT_number 2
_symmetry_cell_setting 'triclinic'
loop_
_space_group_symop_operation_xyz
x,y,z
-x,-y,-z
loop_
_atom_site_type_symbol
_atom_site_label
_atom_site_fract_x
_atom_site_fract_y
_atom_site_fract_z
Si Si1 0.157141 0.854089 0.911441
Si Si2 0.642797 0.068050 0.306909
Si Si3 0.199684 0.432929 0.811664
Si Si4 0.209095 0.878893 0.200856
Si Si5 0.975728 0.826694 0.546295
Si Si6 0.380639 0.442428 0.078619
Si Si7 0.094783 0.608717 0.362430
Si Si8 0.589338 0.750250 0.336005
O O1 0.249055 0.894824 0.795842
O O2 0.237428 0.640438 0.032751
O O3 0.192032 0.932465 0.025331
O O4 0.954061 0.950510 0.817917
O O5 0.579963 0.943767 0.270780
O O6 0.498565 0.272597 0.253759
O O7 0.771335 0.933400 0.488597
O O8 0.103687 0.656268 0.719048
O O9 0.289432 0.368480 0.990312
O O10 0.353232 0.343119 0.765231
O O11 0.056006 0.392681 0.745944
O O12 0.166808 0.719570 0.266152
O O13 0.399020 0.799377 0.315838
O O14 0.019019 0.719417 0.449115
O O15 0.000000 0.000000 0.500000
O O16 0.500000 0.500000 0.000000
O O17 0.253611 0.404352 0.494030
#
# Coordination Sequence:
#
# PCOD9020980 Si02
#       8
#     2   2   2   2   2   2   2   2
#     4  10  22  41  58  90 124 167 213 247 321 384
#     4  11  20  40  64  94 123 154 216 272 299 370
#     4  11  21  39  66  93 126 162 206 273 307 362
#     4  11  23  38  64  84 131 174 202 254 313 390
#     4  11  20  36  67  92 121 161 207 264 313 359
#     4  10  22  37  63  95 127 156 210 266 314 361
#     4  11  22  42  61  94 127 166 216 252 315 385
#     4  11  21  38  62  96 122 158 219 259 312 367
#
# _framework density 23.786607
#
# number of rings (size 3 to 8) (size 9 to 14) (size 15 to 20)
#    0.000    1.250    3.750    4.125    0.000    5.000 
#    0.000    2.500    0.000    2.250    0.000    0.000 
#    0.000    0.000    0.000    0.000    0.000    0.000 
#
# Total GULP energy -89365.625776 kJ/mol
# GULP energy per Si atom -5585.351611 kJ/mol
# Density = 2.373247 g / cm^3
# Si number density = 23.786607 Si / 1000 Ang^3
#
#
#
# Elastic Constant Matrix: (Units=GPa)
#
#
# Indices 1 2 3 4 5 6 
#
# 1 103.9617 43.5164 27.2063 -12.8640 29.3641 0.0577
# 2 43.5164 118.0430 24.6303 -44.7595 16.1899 5.5576
# 3 27.2063 24.6303 58.3688 -26.0080 19.6223 -7.0083
# 4 -12.8640 -44.7595 -26.0080 55.4933 -3.9392 6.5190
# 5 29.3641 16.1899 19.6223 -3.9392 29.9992 -2.7201
# 6 0.0577 5.5576 -7.0083 6.5190 -2.7201 24.2334
#
#
#
# Elastic Compliance Matrix: (Units=1/GPa)
#
#
# Indices 1 2 3 4 5 6 
#
# 1 0.014856 -0.004064 -0.002253 -0.001613 -0.011139 -0.000571
# 2 -0.004064 0.015390 0.001755 0.012796 -0.004425 -0.006951
# 3 -0.002253 0.001755 0.028796 0.012963 -0.015631 0.002689
# 4 -0.001613 0.012796 0.012963 0.034448 -0.010152 -0.009588
# 5 -0.011139 -0.004425 -0.015631 -0.010152 0.056019 0.005540
# 6 -0.000571 -0.006951 0.002689 -0.009588 0.005540 0.046840
#
#
# Mechanical properties :
#
#
# Convention : Reuss Voigt Hill
#
# Bulk Modulus (GPa) = 20.03272 52.34218 36.18745
# Shear Modulus (GPa) = 22.51119 34.27987 28.39553
#
# Velocity S-wave (km/s) = 3.07967 3.80036 3.45883
# Velocity P-wave (km/s) = 4.59194 6.42725 5.58550
#
# Compressibility (1/GPa) = 0.04991834
#
# Stress axis : x y z
#
# Youngs Moduli (GPa) = 67.31121 64.97921 34.72709
#
# Poissons Ratio (x) = 0.26407 0.07823
# Poissons Ratio (y) = 0.27354 -0.06094
# Poissons Ratio (z) = 0.15163 -0.11402
#
# Static dielectric constant tensor:
#      x y z
#    x 1.904950 -0.020030 0.020110 
#    y -0.020030 1.945460 0.032960 
#    z 0.020110 0.032960 1.973300 
# 
# From -- ./inp_files/207343.got.cif
#   From: 2010.05.17/outbox.cif.g08.bks.cpg/sg2_104_cif.got.tgz:207343.got - 2010.06.03 11:33:40.
