data_PCOD9020041
_publ_section_title
;
Structure prediction by ZEFSAII (Michael W. Deem and Ramdas Pophale) SiO2 
 PCOD9020041
Probable space group: P -1
;
_chemical_formula_sum "Si O2"
_cell_formula_units_Z 14
_cell_length_a 13.724247
_cell_length_b 8.477956
_cell_length_c 14.324225
_cell_angle_alpha 128.779197
_cell_angle_beta 147.912401
_cell_angle_gamma 61.200116
_cell_volume 685.371473
_symmetry_space_group_name_H-M "P -1"
_symmetry_group_IT_number 2
_symmetry_cell_setting 'triclinic'
loop_
_space_group_symop_operation_xyz
x,y,z
-x,-y,-z
loop_
_atom_site_type_symbol
_atom_site_label
_atom_site_fract_x
_atom_site_fract_y
_atom_site_fract_z
Si Si1 0.957357 0.899110 0.327874
Si Si2 0.917058 0.446951 0.152669
Si Si3 0.247621 0.996269 0.450602
Si Si4 0.635936 0.134815 0.091990
Si Si5 0.642056 0.065936 0.860230
Si Si6 0.157204 0.456240 0.537041
Si Si7 0.023736 0.155187 0.989314
O O1 0.144418 0.894182 0.419617
O O2 0.859076 0.670665 0.175435
O O3 0.000000 0.000000 0.500000
O O4 0.829657 0.039675 0.221344
O O5 0.065459 0.462807 0.363075
O O6 0.008121 0.371440 0.104129
O O7 0.218547 0.234600 0.518811
O O8 0.464913 0.985862 0.625963
O O9 0.139398 0.900405 0.237269
O O10 0.677079 0.365726 0.246089
O O11 0.576940 0.118455 0.930549
O O12 0.500000 0.000000 0.000000
O O13 0.754006 0.272440 0.985901
O O14 0.784483 0.896269 0.918052
O O15 0.000000 0.500000 0.500000
O O16 0.000000 0.000000 0.000000
#
# Coordination Sequence:
#
# PCOD9020041 Si02
#       7
#     2   2   2   2   2   2   2
#     4  12  23  42  65  98 134 170 215 271 334 379
#     4  11  23  41  69  96 127 176 217 268 328 391
#     4  12  24  42  69  96 132 175 218 272 321 391
#     4  12  25  41  64  97 141 168 217 276 327 391
#     4  11  24  44  67  98 129 175 223 263 329 393
#     4  12  20  43  67  92 134 173 211 272 333 384
#     4  10  21  46  67  92 134 171 222 270 322 383
#
# _framework density 20.426880000000001
#
# number of rings (size 3 to 8) (size 9 to 14) (size 15 to 20)
#    0.000    0.571    8.571    0.857    2.000    3.429 
#    0.000    0.714    0.000    0.000    0.000    0.000 
#    0.000    0.000    0.000    0.000    0.000    0.000 
#
# Total GULP energy -78263.799267 kJ/mol
# GULP energy per Si atom -5590.271376 kJ/mol
# Density = 2.038039 g / cm^3
# Si number density = 20.426880 Si / 1000 Ang^3
#
#
#
# Elastic Constant Matrix: (Units=GPa)
#
#
# Indices 1 2 3 4 5 6 
#
# 1 84.3492 10.4260 46.0563 23.6732 -12.7420 0.4736
# 2 10.4260 73.8239 25.5290 19.9486 -7.9878 -4.4294
# 3 46.0563 25.5290 139.1432 3.0691 -19.4346 -14.5278
# 4 23.6732 19.9486 3.0691 31.5339 -0.7409 -3.5046
# 5 -12.7420 -7.9878 -19.4346 -0.7409 35.0356 7.3298
# 6 0.4736 -4.4294 -14.5278 -3.5046 7.3298 25.1537
#
#
#
# Elastic Compliance Matrix: (Units=1/GPa)
#
#
# Indices 1 2 3 4 5 6 
#
# 1 0.022057 0.005111 -0.007831 -0.019841 0.006226 -0.008617
# 2 0.005111 0.018850 -0.004549 -0.015527 0.003869 -0.002695
# 3 -0.007831 -0.004549 0.011289 0.008430 0.001152 0.006705
# 4 -0.019841 -0.015527 0.008430 0.056835 -0.007518 0.012618
# 5 0.006226 0.003869 0.001152 -0.007518 0.034217 -0.009789
# 6 -0.008617 -0.002695 0.006705 0.012618 -0.009789 0.047926
#
#
# Mechanical properties :
#
#
# Convention : Reuss Voigt Hill
#
# Bulk Modulus (GPa) = 26.55467 51.25990 38.90729
# Shear Modulus (GPa) = 22.90804 32.69830 27.80317
#
# Velocity S-wave (km/s) = 3.35246 4.00528 3.69332
# Velocity P-wave (km/s) = 5.29277 6.82191 6.10540
#
# Compressibility (1/GPa) = 0.03765816
#
# Stress axis : x y z
#
# Youngs Moduli (GPa) = 45.33658 53.05157 88.58533
#
# Poissons Ratio (x) = -0.27116 0.69372
# Poissons Ratio (y) = -0.23172 0.40295
# Poissons Ratio (z) = 0.35503 0.24132
#
# Static dielectric constant tensor:
#      x y z
#    x 1.781470 -0.012240 0.011120 
#    y -0.012240 1.764670 -0.022730 
#    z 0.011120 -0.022730 1.733230 
# 
# From -- ./inp_files/530176.got.cif
#   From: 2010.05.17/outbox.cif.g08.bks.cpg/sg2_266_cif.got.tgz:530176.got - 2010.06.03 11:33:40.
