data_PCOD9020451
_publ_section_title
;
Structure prediction by ZEFSAII (Michael W. Deem and Ramdas Pophale) SiO2 
 PCOD9020451
Probable space group: P -1
;
_chemical_formula_sum "Si O2"
_cell_formula_units_Z 13
_cell_length_a 8.796867
_cell_length_b 17.047340
_cell_length_c 5.791440
_cell_angle_alpha 87.427082
_cell_angle_beta 92.110769
_cell_angle_gamma 144.617044
_cell_volume 502.389679
_symmetry_space_group_name_H-M "P -1"
_symmetry_group_IT_number 2
_symmetry_cell_setting 'triclinic'
loop_
_space_group_symop_operation_xyz
x,y,z
-x,-y,-z
loop_
_atom_site_type_symbol
_atom_site_label
_atom_site_fract_x
_atom_site_fract_y
_atom_site_fract_z
Si Si1 0.934710 0.300478 0.155926
Si Si2 0.571266 0.758952 0.337435
Si Si3 0.650171 0.414720 0.050346
Si Si4 0.289025 0.891683 0.201259
Si Si5 0.675508 0.639544 0.610714
Si Si6 0.409956 0.087719 0.415116
Si Si7 0.000000 0.500000 0.500000
O O1 0.042924 0.281053 0.342625
O O2 0.648084 0.207154 0.233216
O O3 0.146761 0.460137 0.139519
O O4 0.923706 0.252580 0.915517
O O5 0.658595 0.713602 0.462015
O O6 0.708150 0.889216 0.454554
O O7 0.267696 0.650459 0.394865
O O8 0.538012 0.727410 0.067914
O O9 0.454761 0.396931 0.144999
O O10 0.826398 0.460820 0.267486
O O11 0.447288 0.906184 0.388465
O O12 0.215959 0.946388 0.290109
O O13 0.500000 0.000000 0.000000
O O14 0.500000 0.500000 0.500000
#
# Coordination Sequence:
#
# PCOD9020451 Si02
#       7
#     2   2   2   2   2   2   1
#     4  11  22  39  67  90 127 171 206 255 310 369
#     4  11  22  37  61  89 129 161 202 260 311 367
#     4  11  23  38  61  90 130 165 209 248 318 371
#     4   9  21  40  65  91 121 161 213 262 313 364
#     4  11  25  40  57  94 132 169 208 245 308 386
#     4  10  22  41  65  95 121 159 215 265 310 365
#     4  10  22  36  52  94 120 160 204 254 304 366
#
# _framework density 25.876329999999999
#
# number of rings (size 3 to 8) (size 9 to 14) (size 15 to 20)
#    0.000    1.538    1.538    2.769    4.308    6.154 
#    0.000    0.769    0.000    9.231    0.000    0.000 
#    0.000    0.000    0.000    0.000    0.000    0.000 
#
# Total GULP energy -72466.648562 kJ/mol
# GULP energy per Si atom -5574.357582 kJ/mol
# Density = 2.581743 g / cm^3
# Si number density = 25.876330 Si / 1000 Ang^3
#
#
#
# Elastic Constant Matrix: (Units=GPa)
#
#
# Indices 1 2 3 4 5 6 
#
# 1 121.7332 56.1862 39.3502 22.7009 1.8261 -31.0933
# 2 56.1862 82.6527 27.3870 23.7731 -22.9583 -19.9588
# 3 39.3502 27.3870 85.1411 20.9530 2.9752 -23.9703
# 4 22.7009 23.7731 20.9530 57.2256 -10.3513 -21.3138
# 5 1.8261 -22.9583 2.9752 -10.3513 49.1733 8.9371
# 6 -31.0933 -19.9588 -23.9703 -21.3138 8.9371 58.5422
#
#
#
# Elastic Compliance Matrix: (Units=1/GPa)
#
#
# Indices 1 2 3 4 5 6 
#
# 1 0.014657 -0.009706 -0.002118 -0.000446 -0.005830 0.004336
# 2 -0.009706 0.023364 -0.002971 -0.003252 0.010994 -0.001268
# 3 -0.002118 -0.002971 0.015559 -0.002874 -0.003532 0.003726
# 4 -0.000446 -0.003252 -0.002874 0.022464 0.002441 0.005284
# 5 -0.005830 0.010994 -0.003532 0.002441 0.027149 -0.004050
# 6 0.004336 -0.001268 0.003726 0.005284 -0.004050 0.023020
#
#
# Mechanical properties :
#
#
# Convention : Reuss Voigt Hill
#
# Bulk Modulus (GPa) = 41.68068 59.48595 50.58332
# Shear Modulus (GPa) = 30.52499 44.09514 37.31006
#
# Velocity S-wave (km/s) = 3.43833 4.13252 3.80130
# Velocity P-wave (km/s) = 5.64849 6.76822 6.23355
#
# Compressibility (1/GPa) = 0.02399193
#
# Stress axis : x y z
#
# Youngs Moduli (GPa) = 68.22539 42.80087 64.27048
#
# Poissons Ratio (x) = 0.41542 0.13611
# Poissons Ratio (y) = 0.66219 0.19092
# Poissons Ratio (z) = 0.14449 0.12714
#
# Static dielectric constant tensor:
#      x y z
#    x 2.106760 0.005950 -0.034310 
#    y 0.005950 2.269200 0.261450 
#    z -0.034310 0.261450 2.347760 
# 
# From -- ./inp_files/47923.got.cif
#   From: 2010.05.17/outbox.cif.g08.bks.cpg/sg2_24_cif.got.tgz:47923.got - 2010.06.03 11:33:40.
