data_PCOD9020971
_publ_section_title
;
Structure prediction by ZEFSAII (Michael W. Deem and Ramdas Pophale) SiO2 
 PCOD9020971
Probable space group: P -1
;
_chemical_formula_sum "Si O2"
_cell_formula_units_Z 16
_cell_length_a 9.188475
_cell_length_b 14.668936
_cell_length_c 12.549351
_cell_angle_alpha 151.027031
_cell_angle_beta 71.070094
_cell_angle_gamma 107.385183
_cell_volume 774.613434
_symmetry_space_group_name_H-M "P -1"
_symmetry_group_IT_number 2
_symmetry_cell_setting 'triclinic'
loop_
_space_group_symop_operation_xyz
x,y,z
-x,-y,-z
loop_
_atom_site_type_symbol
_atom_site_label
_atom_site_fract_x
_atom_site_fract_y
_atom_site_fract_z
Si Si1 0.309374 0.306821 0.856901
Si Si2 0.344574 0.035875 0.389455
Si Si3 0.039807 0.107633 0.992931
Si Si4 0.720261 0.993231 0.858314
Si Si5 0.455898 0.300867 0.249092
Si Si6 0.249567 0.420060 0.226730
Si Si7 0.706201 0.158436 0.430422
Si Si8 0.326049 0.706374 0.194408
O O1 0.272542 0.138101 0.613101
O O2 0.492003 0.293910 0.821785
O O3 0.248467 0.339112 0.022997
O O4 0.273608 0.491080 0.985931
O O5 0.283154 0.088530 0.343503
O O6 0.528069 0.086234 0.394202
O O7 0.311571 0.818569 0.204139
O O8 0.183411 0.996117 0.798413
O O9 0.094719 0.324703 0.214815
O O10 0.888041 0.079422 0.930436
O O11 0.000000 0.000000 0.000000
O O12 0.666122 0.828702 0.785488
O O13 0.599297 0.162355 0.064582
O O14 0.500000 0.500000 0.500000
O O15 0.384046 0.350015 0.201168
O O16 0.269510 0.644879 0.437973
O O17 0.743820 0.201325 0.588930
#
# Coordination Sequence:
#
# PCOD9020971 Si02
#       8
#     2   2   2   2   2   2   2   2
#     4   9  18  33  60  94 118 154 200 248 303 353
#     4  11  20  37  65  90 126 152 200 256 304 351
#     4  12  25  42  61  82 128 167 206 247 296 367
#     4  11  26  41  58  94 121 160 205 248 305 367
#     4  11  24  42  65  88 121 156 205 262 307 345
#     4  11  22  41  66  91 123 161 207 252 299 364
#     4  10  22  37  63  94 119 160 205 248 303 357
#     4   9  17  32  57  92 122 151 198 246 299 359
#
# _framework density 20.655466000000001
#
# number of rings (size 3 to 8) (size 9 to 14) (size 15 to 20)
#    0.000    1.500    1.250    6.000    3.500    2.500 
#    0.000    2.500    0.000    3.000    0.000    0.000 
#    0.000    0.000    0.000    0.000    0.000    0.000 
#
# Total GULP energy -89278.582251 kJ/mol
# GULP energy per Si atom -5579.911391 kJ/mol
# Density = 2.060845 g / cm^3
# Si number density = 20.655466 Si / 1000 Ang^3
#
#
#
# Elastic Constant Matrix: (Units=GPa)
#
#
# Indices 1 2 3 4 5 6 
#
# 1 57.6625 15.6817 6.0052 12.3963 20.2737 -6.8279
# 2 15.6817 129.6529 23.4424 40.5785 3.5905 -13.9197
# 3 6.0052 23.4424 50.1673 23.1381 9.2122 -7.0702
# 4 12.3963 40.5785 23.1381 27.6471 -3.4222 5.0521
# 5 20.2737 3.5905 9.2122 -3.4222 6.0382 3.2832
# 6 -6.8279 -13.9197 -7.0702 5.0521 3.2832 21.3403
#
#
#
# Elastic Compliance Matrix: (Units=1/GPa)
#
#
# Indices 1 2 3 4 5 6 
#
# 1 0.008766 -0.007867 -0.012767 0.022837 0.015466 -0.014343
# 2 -0.007867 0.011578 -0.004240 -0.007841 0.020269 0.002368
# 3 -0.012767 -0.004240 0.014723 0.004713 0.029767 -0.007668
# 4 0.022837 -0.007841 0.004713 0.022986 -0.071217 0.009269
# 5 0.015466 0.020269 0.029767 -0.071217 -0.009335 0.046327
# 6 -0.014343 0.002368 -0.007668 0.009269 0.046327 0.031953
#
#
# Mechanical properties :
#
#
# Convention : Reuss Voigt Hill
#
# Bulk Modulus (GPa) = -68.10462 36.41570 -15.84446
# Shear Modulus (GPa) = 39.83234 23.82870 31.83052
#
# Velocity S-wave (km/s) = 4.39614 3.40019 3.92984
# Velocity P-wave (km/s) = 2.69727 5.75182 3.59222
#
# Compressibility (1/GPa) = -0.01468329
#
# Stress axis : x y z
#
# Youngs Moduli (GPa) = 114.07737 86.36937 67.92287
#
# Poissons Ratio (x) = 0.67951 0.86718
# Poissons Ratio (y) = 0.89750 0.28802
# Poissons Ratio (z) = 1.45645 0.36624
#
# Static dielectric constant tensor:
#      x y z
#    x 1.707580 -0.000300 0.021120 
#    y -0.000300 1.761380 0.035660 
#    z 0.021120 0.035660 1.712170 
# 
# From -- ./inp_files/399966.got.cif
#   From: 2010.05.17/outbox.cif.g08.bks.cpg/sg2_200_cif.got.tgz:399966.got - 2010.06.03 11:33:40.
