data_PCOD9020807
_publ_section_title
;
Structure prediction by ZEFSAII (Michael W. Deem and Ramdas Pophale) SiO2 
 PCOD9020807
Probable space group: P -1
;
_chemical_formula_sum "Si O2"
_cell_formula_units_Z 16
_cell_length_a 26.337298
_cell_length_b 25.845480
_cell_length_c 8.819618
_cell_angle_alpha 140.818627
_cell_angle_beta 39.528672
_cell_angle_gamma 169.015578
_cell_volume 720.024047
_symmetry_space_group_name_H-M "P -1"
_symmetry_group_IT_number 2
_symmetry_cell_setting 'triclinic'
loop_
_space_group_symop_operation_xyz
x,y,z
-x,-y,-z
loop_
_atom_site_type_symbol
_atom_site_label
_atom_site_fract_x
_atom_site_fract_y
_atom_site_fract_z
Si Si1 0.025184 0.834870 0.590088
Si Si2 0.766740 0.674593 0.429667
Si Si3 0.833136 0.545968 0.951720
Si Si4 0.769114 0.763638 0.300627
Si Si5 0.835494 0.508086 0.505552
Si Si6 0.642595 0.054089 0.823743
Si Si7 0.475486 0.566978 0.149454
Si Si8 0.697232 0.022915 0.941507
O O1 0.941670 0.692960 0.595848
O O2 0.747392 0.597746 0.625935
O O3 0.239017 0.110911 0.779603
O O4 0.179416 0.933214 0.333466
O O5 0.790990 0.742753 0.365256
O O6 0.458215 0.388775 0.529936
O O7 0.846251 0.658075 0.189993
O O8 0.961474 0.923221 0.646234
O O9 0.804637 0.493399 0.721753
O O10 0.583061 0.271851 0.005480
O O11 0.092197 0.757185 0.909035
O O12 0.668179 0.590535 0.036880
O O13 0.558072 0.209637 0.387559
O O14 0.068796 0.671469 0.297896
O O15 0.672617 0.065419 0.960168
O O16 0.500000 0.000000 0.000000
O O17 0.500000 0.500000 0.000000
#
# Coordination Sequence:
#
# PCOD9020807 Si02
#       8
#     2   2   2   2   2   2   2   2
#     4  11  24  44  63  90 132 177 226 275 329 407
#     4  10  22  37  59  78 121 169 205 278 324 395
#     4  12  24  41  68 100 136 168 230 280 333 381
#     4  10  22  39  53  84 115 164 228 260 343 383
#     4  11  24  45  74 103 130 181 225 263 328 408
#     4  11  24  49  75 103 140 179 212 259 329 420
#     4  12  25  37  60  89 125 169 229 288 331 375
#     4  11  25  42  68 101 134 174 222 274 341 399
#
# _framework density 22.221478999999999
#
# number of rings (size 3 to 8) (size 9 to 14) (size 15 to 20)
#    0.000    1.000    0.000    7.500    5.250    3.000 
#    0.000    3.750    0.000    0.000    0.000    0.000 
#    0.000    0.000    0.000    0.000    0.000    0.000 
#
# Total GULP energy -89512.930313 kJ/mol
# GULP energy per Si atom -5594.558145 kJ/mol
# Density = 2.217090 g / cm^3
# Si number density = 22.221479 Si / 1000 Ang^3
#
#
#
# Elastic Constant Matrix: (Units=GPa)
#
#
# Indices 1 2 3 4 5 6 
#
# 1 101.3627 24.2707 28.5877 -3.7664 -2.8458 12.7790
# 2 24.2707 97.3575 -5.1632 5.7655 0.0903 6.1836
# 3 28.5877 -5.1632 38.2289 -3.5747 4.3112 -5.2699
# 4 -3.7664 5.7655 -3.5747 35.6933 13.1723 0.9618
# 5 -2.8458 0.0903 4.3112 13.1723 39.0099 -7.4268
# 6 12.7790 6.1836 -5.2699 0.9618 -7.4268 31.6072
#
#
#
# Elastic Compliance Matrix: (Units=1/GPa)
#
#
# Indices 1 2 3 4 5 6 
#
# 1 0.015625 -0.004174 -0.013307 0.000864 0.000894 -0.007536
# 2 -0.004174 0.011650 0.004574 -0.001797 -0.000196 0.000180
# 3 -0.013307 0.004574 0.038878 0.003134 -0.004466 0.009823
# 4 0.000864 -0.001797 0.003134 0.033288 -0.012156 -0.003344
# 5 0.000894 -0.000196 -0.004466 -0.012156 0.031578 0.006722
# 6 -0.007536 0.000180 0.009823 -0.003344 0.006722 0.037969
#
#
# Mechanical properties :
#
#
# Convention : Reuss Voigt Hill
#
# Bulk Modulus (GPa) = 24.79076 36.92659 30.85867
# Shear Modulus (GPa) = 24.00958 33.87902 28.94430
#
# Velocity S-wave (km/s) = 3.29061 3.90886 3.61298
# Velocity P-wave (km/s) = 5.06142 6.08488 5.59660
#
# Compressibility (1/GPa) = 0.04033762
#
# Stress axis : x y z
#
# Youngs Moduli (GPa) = 63.99803 85.83822 25.72142
#
# Poissons Ratio (x) = 0.35833 0.34229
# Poissons Ratio (y) = 0.26716 -0.11765
# Poissons Ratio (z) = 0.85165 -0.39262
#
# Static dielectric constant tensor:
#      x y z
#    x 1.891240 0.051410 0.066130 
#    y 0.051410 1.810370 0.006440 
#    z 0.066130 0.006440 1.897050 
# 
# From -- ./inp_files/358016.got.cif
#   From: 2010.05.17/outbox.cif.g08.bks.cpg/sg2_180_cif.got.tgz:358016.got - 2010.06.03 11:33:40.
