data_PCOD9020462
_publ_section_title
;
Structure prediction by ZEFSAII (Michael W. Deem and Ramdas Pophale) SiO2 
 PCOD9020462
Probable space group: P -1
;
_chemical_formula_sum "Si O2"
_cell_formula_units_Z 15
_cell_length_a 16.658170
_cell_length_b 5.039875
_cell_length_c 9.616204
_cell_angle_alpha 75.514224
_cell_angle_beta 111.184731
_cell_angle_gamma 69.113844
_cell_volume 633.268925
_symmetry_space_group_name_H-M "P -1"
_symmetry_group_IT_number 2
_symmetry_cell_setting 'triclinic'
loop_
_space_group_symop_operation_xyz
x,y,z
-x,-y,-z
loop_
_atom_site_type_symbol
_atom_site_label
_atom_site_fract_x
_atom_site_fract_y
_atom_site_fract_z
Si Si1 0.303770 0.359349 0.544820
Si Si2 0.258140 0.140748 0.999348
Si Si3 0.160008 0.704081 0.661545
Si Si4 0.964646 0.842442 0.878378
Si Si5 0.259103 0.981039 0.332365
Si Si6 0.000000 0.500000 0.500000
Si Si7 0.569840 0.130984 0.078516
Si Si8 0.079400 0.087813 0.789758
O O1 0.233900 0.590920 0.594411
O O2 0.331059 0.604811 0.454239
O O3 0.262494 0.208118 0.424672
O O4 0.380807 0.056315 0.723342
O O5 0.281185 0.095046 0.182913
O O6 0.346785 0.931482 0.976860
O O7 0.169129 0.060104 0.936131
O O8 0.219081 0.486795 0.860817
O O9 0.112111 0.061375 0.646700
O O10 0.075674 0.634662 0.572187
O O11 0.035674 0.859435 0.806006
O O12 0.849520 0.992128 0.752853
O O13 0.000000 0.500000 0.000000
O O14 0.000000 0.000000 0.000000
O O15 0.011527 0.566692 0.324699
O O16 0.500000 0.500000 0.000000
O O17 0.500000 0.000000 0.000000
#
# Coordination Sequence:
#
# PCOD9020462 Si02
#       8
#     2   2   2   2   2   1   2   2
#     4  11  27  44  72 103 145 180 233 293 369 420
#     4  10  25  43  73  99 139 184 237 285 362 432
#     4  10  23  39  64  92 137 189 243 288 344 411
#     4  12  25  42  64 100 148 200 249 281 335 407
#     4  12  25  45  67 107 149 192 229 294 349 416
#     4  10  22  36  54  98 126 186 240 308 338 388
#     4  11  26  51  80 107 135 177 234 296 368 453
#     4  11  23  40  67  97 139 191 254 293 344 408
#
# _framework density 23.686617999999999
#
# number of rings (size 3 to 8) (size 9 to 14) (size 15 to 20)
#    0.000    1.067    1.333    3.600   14.933    0.000 
#    0.000    4.000    0.000    0.000    0.000    0.000 
#    0.000    0.000    0.000    0.000    0.000    0.000 
#
# Total GULP energy -83590.596650 kJ/mol
# GULP energy per Si atom -5572.706443 kJ/mol
# Density = 2.363271 g / cm^3
# Si number density = 23.686618 Si / 1000 Ang^3
#
#
#
# Elastic Constant Matrix: (Units=GPa)
#
#
# Indices 1 2 3 4 5 6 
#
# 1 64.4604 25.6285 46.3649 -5.0089 -14.6735 5.4413
# 2 25.6285 144.5749 58.6692 -2.0021 -6.3243 16.2773
# 3 46.3649 58.6692 179.4556 2.6683 -21.2127 -1.7804
# 4 -5.0089 -2.0021 2.6683 46.6381 7.6135 6.4085
# 5 -14.6735 -6.3243 -21.2127 7.6135 28.9032 -2.1695
# 6 5.4413 16.2773 -1.7804 6.4085 -2.1695 43.9078
#
#
#
# Elastic Compliance Matrix: (Units=1/GPa)
#
#
# Indices 1 2 3 4 5 6 
#
# 1 0.020925 -0.001455 -0.004191 0.001634 0.006638 -0.002134
# 2 -0.001455 0.008573 -0.002630 0.001033 -0.001315 -0.003320
# 3 -0.004191 -0.002630 0.008026 -0.001971 0.003879 0.002299
# 4 0.001634 0.001033 -0.001971 0.023514 -0.006918 -0.004439
# 5 0.006638 -0.001315 0.003879 -0.006918 0.042570 0.002935
# 6 -0.002134 -0.003320 0.002299 -0.004439 0.002935 0.025157
#
#
# Mechanical properties :
#
#
# Convention : Reuss Voigt Hill
#
# Bulk Modulus (GPa) = 47.68799 72.20180 59.94489
# Shear Modulus (GPa) = 32.82832 41.07836 36.95334
#
# Velocity S-wave (km/s) = 3.72687 4.16894 3.95409
# Velocity P-wave (km/s) = 6.22061 7.32951 6.79771
#
# Compressibility (1/GPa) = 0.02096964
#
# Stress axis : x y z
#
# Youngs Moduli (GPa) = 47.79007 116.64751 124.59652
#
# Poissons Ratio (x) = 0.16974 0.52223
# Poissons Ratio (y) = 0.06954 0.32775
# Poissons Ratio (z) = 0.20030 0.30684
#
# Static dielectric constant tensor:
#      x y z
#    x 2.246440 -0.310400 -0.202450 
#    y -0.310400 2.453440 -0.405350 
#    z -0.202450 -0.405350 2.756830 
# 
# From -- ./inp_files/322354.got.cif
#   From: 2010.05.17/outbox.cif.g08.bks.cpg/sg2_162_cif.got.tgz:322354.got - 2010.06.03 11:33:40.
