data_PCOD9020413
_publ_section_title
;
Structure prediction by ZEFSAII (Michael W. Deem and Ramdas Pophale) SiO2 
 PCOD9020413
Probable space group: P -1
;
_chemical_formula_sum "Si O2"
_cell_formula_units_Z 14
_cell_length_a 9.235489
_cell_length_b 9.492495
_cell_length_c 9.561894
_cell_angle_alpha 89.194732
_cell_angle_beta 132.299267
_cell_angle_gamma 86.604011
_cell_volume 617.276736
_symmetry_space_group_name_H-M "P -1"
_symmetry_group_IT_number 2
_symmetry_cell_setting 'triclinic'
loop_
_space_group_symop_operation_xyz
x,y,z
-x,-y,-z
loop_
_atom_site_type_symbol
_atom_site_label
_atom_site_fract_x
_atom_site_fract_y
_atom_site_fract_z
Si Si1 0.399443 0.901002 0.829954
Si Si2 0.201241 0.590026 0.478740
Si Si3 0.440132 0.216929 0.324839
Si Si4 0.692861 0.316772 0.017092
Si Si5 0.379770 0.260543 0.599558
Si Si6 0.978339 0.212518 0.402382
Si Si7 0.872307 0.581669 0.036779
O O1 0.488615 0.906546 0.734356
O O2 0.164201 0.909362 0.662185
O O3 0.425689 0.744347 0.927613
O O4 0.500000 0.000000 0.000000
O O5 0.384366 0.679346 0.564300
O O6 0.286919 0.425921 0.531282
O O7 0.106157 0.652174 0.560747
O O8 0.027502 0.618668 0.253255
O O9 0.401009 0.194067 0.461253
O O10 0.251257 0.291898 0.123109
O O11 0.584626 0.260702 0.813413
O O12 0.915322 0.253764 0.200599
O O13 0.719142 0.480258 0.007083
O O14 0.208993 0.189562 0.571136
O O15 0.000000 0.500000 0.000000
#
# Coordination Sequence:
#
# PCOD9020413 Si02
#       7
#     2   2   2   2   2   2   2
#     4   9  22  46  62  77 115 158 204 252 282 330
#     4  11  20  32  54  84 127 158 179 230 286 363
#     4  11  23  36  59  89 122 156 190 239 294 348
#     4  10  22  35  61  83 117 159 191 229 297 347
#     4  12  20  35  56  90 122 151 188 234 297 355
#     4   9  22  35  56  82 111 155 194 236 283 343
#     4  12  21  34  57  93 129 151 183 234 302 356
#
# _framework density 22.680267000000001
#
# number of rings (size 3 to 8) (size 9 to 14) (size 15 to 20)
#    0.857    0.571    4.286    1.714    2.000    1.143 
#    0.000    2.143    0.000    0.000    0.000    0.000 
#    0.000    0.000    0.000    0.000    0.000    0.000 
#
# Total GULP energy -78082.793792 kJ/mol
# GULP energy per Si atom -5577.342414 kJ/mol
# Density = 2.262865 g / cm^3
# Si number density = 22.680267 Si / 1000 Ang^3
#
#
#
# Elastic Constant Matrix: (Units=GPa)
#
#
# Indices 1 2 3 4 5 6 
#
# 1 81.1893 19.7379 23.9437 15.6893 -11.5086 -9.8906
# 2 19.7379 47.8944 21.9165 11.1037 -4.6786 1.0931
# 3 23.9437 21.9165 186.0331 15.5269 0.0892 -18.8797
# 4 15.6893 11.1037 15.5269 38.3200 2.5742 -3.2733
# 5 -11.5086 -4.6786 0.0892 2.5742 36.2530 -1.2295
# 6 -9.8906 1.0931 -18.8797 -3.2733 -1.2295 11.8735
#
#
#
# Elastic Compliance Matrix: (Units=1/GPa)
#
#
# Indices 1 2 3 4 5 6 
#
# 1 0.017102 -0.005966 0.000369 -0.004535 0.005479 0.014700
# 2 -0.005966 0.026531 -0.003348 -0.005182 0.001431 -0.014017
# 3 0.000369 -0.003348 0.006968 -0.001037 0.000129 0.011423
# 4 -0.004535 -0.005182 -0.001037 0.030411 -0.004164 0.003002
# 5 0.005479 0.001431 0.000129 -0.004164 0.030027 0.006599
# 6 0.014700 -0.014017 0.011423 0.003002 0.006599 0.117431
#
#
# Mechanical properties :
#
#
# Convention : Reuss Voigt Hill
#
# Bulk Modulus (GPa) = 30.57023 49.59034 40.08029
# Shear Modulus (GPa) = 19.43528 33.92388 26.67958
#
# Velocity S-wave (km/s) = 2.93050 3.87168 3.43349
# Velocity P-wave (km/s) = 4.99585 6.47294 5.78176
#
# Compressibility (1/GPa) = 0.03271156
#
# Stress axis : x y z
#
# Youngs Moduli (GPa) = 58.47233 37.69152 143.51043
#
# Poissons Ratio (x) = 0.22486 -0.05301
# Poissons Ratio (y) = 0.34884 0.48054
# Poissons Ratio (z) = -0.02160 0.12621
#
# Static dielectric constant tensor:
#      x y z
#    x 1.861630 -0.000030 -0.015930 
#    y -0.000030 1.934190 -0.047890 
#    z -0.015930 -0.047890 1.852060 
# 
# From -- ./inp_files/188898.got.cif
#   From: 2010.05.17/outbox.cif.g08.bks.cpg/sg2_95_cif.got.tgz:188898.got - 2010.06.03 11:33:40.
