data_PCOD9020983
_publ_section_title
;
Structure prediction by ZEFSAII (Michael W. Deem and Ramdas Pophale) SiO2 
 PCOD9020983
Probable space group: P -1
;
_chemical_formula_sum "Si O2"
_cell_formula_units_Z 14
_cell_length_a 11.035600
_cell_length_b 5.036654
_cell_length_c 15.614161
_cell_angle_alpha 102.971652
_cell_angle_beta 47.579726
_cell_angle_gamma 79.529611
_cell_volume 553.346443
_symmetry_space_group_name_H-M "P -1"
_symmetry_group_IT_number 2
_symmetry_cell_setting 'triclinic'
loop_
_space_group_symop_operation_xyz
x,y,z
-x,-y,-z
loop_
_atom_site_type_symbol
_atom_site_label
_atom_site_fract_x
_atom_site_fract_y
_atom_site_fract_z
Si Si1 0.996213 0.361348 0.807563
Si Si2 0.124763 0.683653 0.640520
Si Si3 0.469386 0.132310 0.208268
Si Si4 0.281600 0.137340 0.784714
Si Si5 0.500895 0.457633 0.640964
Si Si6 0.645745 0.585677 0.891487
Si Si7 0.871086 0.970413 0.630930
O O1 0.125263 0.425176 0.683419
O O2 0.079860 0.359476 0.861001
O O3 0.790901 0.594596 0.891134
O O4 0.022373 0.017987 0.757848
O O5 0.323290 0.629246 0.508277
O O6 0.000160 0.713343 0.618767
O O7 0.455947 0.443713 0.278876
O O8 0.449876 0.152791 0.116665
O O9 0.655125 0.878112 0.147759
O O10 0.293354 0.101015 0.324546
O O11 0.427080 0.213351 0.669719
O O12 0.334183 0.783851 0.714399
O O13 0.775229 0.290358 0.750604
O O14 0.500000 0.500000 0.000000
O O15 0.000000 0.000000 0.500000
#
# Coordination Sequence:
#
# PCOD9020983 Si02
#       7
#     2   2   2   2   2   2   2
#     4  11  24  41  61  94 131 175 221 282 328 402
#     4  11  22  37  61  96 133 176 224 271 337 395
#     4  10  22  41  64  96 130 176 219 275 332 401
#     4  10  22  39  61  90 137 172 223 267 344 395
#     4  10  22  37  63  95 133 180 216 274 332 408
#     4  11  25  45  68  98 134 178 228 281 337 397
#     4  11  23  40  69 101 137 175 226 279 342 402
#
# _framework density 25.300605000000001
#
# number of rings (size 3 to 8) (size 9 to 14) (size 15 to 20)
#    0.857    0.571    1.429    4.286    4.000    5.143 
#    0.000    0.714    0.000    1.714    0.000    0.000 
#    0.000    0.000    0.000    0.000    0.000    0.000 
#
# Total GULP energy -78310.168120 kJ/mol
# GULP energy per Si atom -5593.583437 kJ/mol
# Density = 2.524302 g / cm^3
# Si number density = 25.300605 Si / 1000 Ang^3
#
#
#
# Elastic Constant Matrix: (Units=GPa)
#
#
# Indices 1 2 3 4 5 6 
#
# 1 202.1223 35.5740 58.1190 -11.7537 -11.3612 -66.3051
# 2 35.5740 86.3647 21.3227 -20.4137 -7.2385 -21.6391
# 3 58.1190 21.3227 114.3849 -9.8488 -0.9863 -20.6407
# 4 -11.7537 -20.4137 -9.8488 34.4752 -2.5719 -4.6618
# 5 -11.3612 -7.2385 -0.9863 -2.5719 26.0465 4.8356
# 6 -66.3051 -21.6391 -20.6407 -4.6618 4.8356 51.3329
#
#
#
# Elastic Compliance Matrix: (Units=1/GPa)
#
#
# Indices 1 2 3 4 5 6 
#
# 1 0.010145 0.001157 -0.002581 0.005344 0.002805 0.012775
# 2 0.001157 0.016639 -0.001099 0.011449 0.004608 0.008673
# 3 -0.002581 -0.001099 0.010495 0.001480 -0.001009 0.000652
# 4 0.005344 0.011449 0.001480 0.040612 0.006724 0.015379
# 5 0.002805 0.004608 -0.001009 0.006724 0.041171 0.001892
# 6 0.012775 0.008673 0.000652 0.015379 0.001892 0.041119
#
#
# Mechanical properties :
#
#
# Convention : Reuss Voigt Hill
#
# Bulk Modulus (GPa) = 31.02321 70.32259 50.67290
# Shear Modulus (GPa) = 28.41366 41.56134 34.98750
#
# Velocity S-wave (km/s) = 3.35482 4.05742 3.72273
# Velocity P-wave (km/s) = 5.22445 7.05729 6.20888
#
# Compressibility (1/GPa) = 0.03223393
#
# Stress axis : x y z
#
# Youngs Moduli (GPa) = 98.56823 60.10009 95.28160
#
# Poissons Ratio (x) = -0.06956 0.24592
# Poissons Ratio (y) = -0.11409 0.10474
# Poissons Ratio (z) = 0.25440 0.06606
#
# Static dielectric constant tensor:
#      x y z
#    x 2.089620 -0.030120 0.034340 
#    y -0.030120 2.018970 0.075760 
#    z 0.034340 0.075760 1.939390 
# 
# From -- ./inp_files/563852.got.cif
#   From: 2010.05.17/outbox.cif.g08.bks.cpg/sg2_282_cif.got.tgz:563852.got - 2010.06.03 11:33:40.
