data_PCOD9020424
_publ_section_title
;
Structure prediction by ZEFSAII (Michael W. Deem and Ramdas Pophale) SiO2 
 PCOD9020424
Probable space group: P -1
;
_chemical_formula_sum "Si O2"
_cell_formula_units_Z 16
_cell_length_a 16.091396
_cell_length_b 9.288327
_cell_length_c 10.697936
_cell_angle_alpha 85.317291
_cell_angle_beta 136.232863
_cell_angle_gamma 125.973159
_cell_volume 707.951137
_symmetry_space_group_name_H-M "P -1"
_symmetry_group_IT_number 2
_symmetry_cell_setting 'triclinic'
loop_
_space_group_symop_operation_xyz
x,y,z
-x,-y,-z
loop_
_atom_site_type_symbol
_atom_site_label
_atom_site_fract_x
_atom_site_fract_y
_atom_site_fract_z
Si Si1 0.087543 0.907571 0.948363
Si Si2 0.738985 0.108878 0.242569
Si Si3 0.949727 0.798631 0.521940
Si Si4 0.569476 0.989232 0.699298
Si Si5 0.580081 0.209144 0.911778
Si Si6 0.510108 0.438976 0.708958
Si Si7 0.546495 0.334374 0.212674
Si Si8 0.225322 0.294374 0.237842
O O1 0.034475 0.871249 0.748934
O O2 0.907072 0.705119 0.850987
O O3 0.257105 0.955300 0.144190
O O4 0.137424 0.107053 0.052049
O O5 0.638301 0.018452 0.272975
O O6 0.940175 0.222990 0.436038
O O7 0.599684 0.876292 0.025562
O O8 0.707764 0.241769 0.147530
O O9 0.730437 0.560772 0.324412
O O10 0.000000 0.000000 0.500000
O O11 0.425021 0.759253 0.640984
O O12 0.500000 0.000000 0.500000
O O13 0.630673 0.173948 0.843581
O O14 0.581279 0.379483 0.880525
O O15 0.543058 0.614889 0.811446
O O16 0.298607 0.270759 0.439707
O O17 0.604819 0.489664 0.674609
#
# Coordination Sequence:
#
# PCOD9020424 Si02
#       8
#     2   2   2   2   2   2   2   2
#     4  11  21  42  60  94 135 165 213 277 320 387
#     4  10  23  46  62  91 136 169 218 277 315 393
#     4  12  24  41  68  98 129 173 221 274 327 381
#     4  11  23  45  69  92 134 182 211 263 341 392
#     4  10  22  39  67  87 128 176 209 268 331 380
#     4  11  20  37  63  99 122 165 222 263 329 394
#     4  11  23  43  70  96 128 173 225 267 329 390
#     4  10  22  35  63  94 131 160 209 279 321 380
#
# _framework density 22.600431
#
# number of rings (size 3 to 8) (size 9 to 14) (size 15 to 20)
#    0.000    1.250    5.000    1.500    1.750    3.000 
#    2.250    6.875    0.000    0.000    0.000    0.000 
#    0.000    0.000    0.000    0.000    0.000    0.000 
#
# Total GULP energy -89236.055436 kJ/mol
# GULP energy per Si atom -5577.253465 kJ/mol
# Density = 2.254899 g / cm^3
# Si number density = 22.600431 Si / 1000 Ang^3
#
#
#
# Elastic Constant Matrix: (Units=GPa)
#
#
# Indices 1 2 3 4 5 6 
#
# 1 126.1630 21.7094 30.7659 -6.3528 39.7732 5.0190
# 2 21.7094 102.1286 38.4492 -22.1525 18.4111 -4.4752
# 3 30.7659 38.4492 60.5848 -2.6033 19.9909 5.1651
# 4 -6.3528 -22.1525 -2.6033 38.7343 -3.4129 3.1716
# 5 39.7732 18.4111 19.9909 -3.4129 36.7909 8.2378
# 6 5.0190 -4.4752 5.1651 3.1716 8.2378 36.7966
#
#
#
# Elastic Compliance Matrix: (Units=1/GPa)
#
#
# Indices 1 2 3 4 5 6 
#
# 1 0.012432 0.001055 -0.002896 0.001207 -0.012632 0.001563
# 2 0.001055 0.015517 -0.008998 0.007825 -0.004014 0.003231
# 3 -0.002896 -0.008998 0.025765 -0.004224 -0.006183 -0.002568
# 4 0.001207 0.007825 -0.004224 0.030325 0.000173 -0.001273
# 5 -0.012632 -0.004014 -0.006183 0.000173 0.048168 -0.008696
# 6 0.001563 0.003231 -0.002568 -0.001273 -0.008696 0.029773
#
#
# Mechanical properties :
#
#
# Convention : Reuss Voigt Hill
#
# Bulk Modulus (GPa) = 31.21559 52.30283 41.75921
# Shear Modulus (GPa) = 25.72852 35.66116 30.69484
#
# Velocity S-wave (km/s) = 3.37769 3.97658 3.68931
# Velocity P-wave (km/s) = 5.39014 6.65409 6.05519
#
# Compressibility (1/GPa) = 0.03203528
#
# Stress axis : x y z
#
# Youngs Moduli (GPa) = 80.43928 64.44378 38.81298
#
# Poissons Ratio (x) = -0.06800 0.11240
# Poissons Ratio (y) = -0.08487 0.34925
# Poissons Ratio (z) = 0.23295 0.57989
#
# Static dielectric constant tensor:
#      x y z
#    x 1.887390 0.072240 0.053870 
#    y 0.072240 1.973120 0.058590 
#    z 0.053870 0.058590 2.012110 
# 
# From -- ./inp_files/445939.got.cif
#   From: 2010.05.17/outbox.cif.g08.bks.cpg/sg2_223_cif.got.tgz:445939.got - 2010.06.03 11:33:40.
