data_PCOD9020059
_publ_section_title
;
Structure prediction by ZEFSAII (Michael W. Deem and Ramdas Pophale) SiO2 
 PCOD9020059
Probable space group: P -1
;
_chemical_formula_sum "Si O2"
_cell_formula_units_Z 14
_cell_length_a 5.076175
_cell_length_b 15.965783
_cell_length_c 13.443283
_cell_angle_alpha 149.968819
_cell_angle_beta 100.229284
_cell_angle_gamma 73.483096
_cell_volume 517.407844
_symmetry_space_group_name_H-M "P -1"
_symmetry_group_IT_number 2
_symmetry_cell_setting 'triclinic'
loop_
_space_group_symop_operation_xyz
x,y,z
-x,-y,-z
loop_
_atom_site_type_symbol
_atom_site_label
_atom_site_fract_x
_atom_site_fract_y
_atom_site_fract_z
Si Si1 0.786565 0.053022 0.846033
Si Si2 0.024649 0.633627 0.883350
Si Si3 0.602800 0.134757 0.260904
Si Si4 0.527626 0.376783 0.685883
Si Si5 0.925734 0.892713 0.474710
Si Si6 0.717523 0.608832 0.644700
Si Si7 0.228176 0.349965 0.916352
O O1 0.072049 0.955261 0.821078
O O2 0.807883 0.987906 0.666069
O O3 0.538530 0.991766 0.816263
O O4 0.799048 0.252083 0.043357
O O5 0.790847 0.625605 0.780965
O O6 0.191155 0.436262 0.721134
O O7 0.897138 0.718953 0.065622
O O8 0.581578 0.305574 0.503778
O O9 0.419531 0.206173 0.225783
O O10 0.773593 0.236654 0.611781
O O11 0.559114 0.553769 0.923630
O O12 0.707109 0.795682 0.313158
O O13 0.000000 0.000000 0.500000
O O14 0.500000 0.500000 0.500000
O O15 0.000000 0.500000 0.500000
O O16 0.000000 0.500000 0.000000
#
# Coordination Sequence:
#
# PCOD9020059 Si02
#       7
#     2   2   2   2   2   2   2
#     4  11  27  46  73 105 150 192 240 301 368 434
#     4  12  26  44  72 107 141 190 248 300 364 440
#     4  11  25  49  70 107 147 189 241 303 369 428
#     4  10  24  40  71  98 141 187 243 299 355 426
#     4  10  21  46  68 105 147 196 245 296 368 429
#     4  12  26  46  80 111 142 189 245 302 369 438
#     4  10  23  42  68  99 146 183 249 295 360 420
#
# _framework density 27.057959
#
# number of rings (size 3 to 8) (size 9 to 14) (size 15 to 20)
#    0.000    1.143    2.857    1.714    8.000    3.429 
#    2.571    3.571    0.000    0.000    0.000    0.000 
#    0.000    0.000    0.000    0.000    0.000    0.000 
#
# Total GULP energy -78380.020598 kJ/mol
# GULP energy per Si atom -5598.572900 kJ/mol
# Density = 2.699637 g / cm^3
# Si number density = 27.057959 Si / 1000 Ang^3
#
#
#
# Elastic Constant Matrix: (Units=GPa)
#
#
# Indices 1 2 3 4 5 6 
#
# 1 104.0320 33.6774 34.3750 -1.5152 16.4940 -3.0908
# 2 33.6774 164.4334 42.9306 -21.1721 4.9001 -14.3728
# 3 34.3750 42.9306 118.2414 -22.1135 13.3713 0.5096
# 4 -1.5152 -21.1721 -22.1135 39.8405 -2.5639 6.2343
# 5 16.4940 4.9001 13.3713 -2.5639 40.9234 7.5244
# 6 -3.0908 -14.3728 0.5096 6.2343 7.5244 42.1872
#
#
#
# Elastic Compliance Matrix: (Units=1/GPa)
#
#
# Indices 1 2 3 4 5 6 
#
# 1 0.011749 -0.001759 -0.002799 -0.002517 -0.004023 0.001385
# 2 -0.001759 0.007394 -0.001714 0.002611 0.000181 0.001993
# 3 -0.002799 -0.001714 0.011071 0.005236 -0.001700 -0.001393
# 4 -0.002517 0.002611 0.005236 0.030042 0.001625 -0.004087
# 5 -0.004023 0.000181 -0.001700 0.001625 0.027684 -0.005390
# 6 0.001385 0.001993 -0.001393 -0.004087 -0.005390 0.026067
#
#
# Mechanical properties :
#
#
# Convention : Reuss Voigt Hill
#
# Bulk Modulus (GPa) = 56.59140 67.63030 62.11085
# Shear Modulus (GPa) = 37.75298 42.97182 40.36240
#
# Velocity S-wave (km/s) = 3.73937 3.98947 3.86645
# Velocity P-wave (km/s) = 6.29319 6.80221 6.55264
#
# Compressibility (1/GPa) = 0.01767053
#
# Stress axis : x y z
#
# Youngs Moduli (GPa) = 85.11503 135.24122 90.32792
#
# Poissons Ratio (x) = 0.23785 0.25281
# Poissons Ratio (y) = 0.14969 0.15483
# Poissons Ratio (z) = 0.23822 0.23182
#
# Static dielectric constant tensor:
#      x y z
#    x 2.114020 0.004760 0.056210 
#    y 0.004760 2.076610 0.057050 
#    z 0.056210 0.057050 2.152420 
# 
# From -- ./inp_files/482084.got.cif
#   From: 2010.05.17/outbox.cif.g08.bks.cpg/sg2_242_cif.got.tgz:482084.got - 2010.06.03 11:33:40.
