data_PCOD9020276
_publ_section_title
;
Structure prediction by ZEFSAII (Michael W. Deem and Ramdas Pophale) SiO2 
 PCOD9020276
Probable space group: P -1
;
_chemical_formula_sum "Si O2"
_cell_formula_units_Z 16
_cell_length_a 5.773552
_cell_length_b 15.934806
_cell_length_c 10.181492
_cell_angle_alpha 138.886096
_cell_angle_beta 68.825607
_cell_angle_gamma 110.440325
_cell_volume 569.792907
_symmetry_space_group_name_H-M "P -1"
_symmetry_group_IT_number 2
_symmetry_cell_setting 'triclinic'
loop_
_space_group_symop_operation_xyz
x,y,z
-x,-y,-z
loop_
_atom_site_type_symbol
_atom_site_label
_atom_site_fract_x
_atom_site_fract_y
_atom_site_fract_z
Si Si1 0.277438 0.148704 0.540609
Si Si2 0.786508 0.344940 0.978404
Si Si3 0.747276 0.436131 0.836699
Si Si4 0.219403 0.952604 0.623491
Si Si5 0.912487 0.772596 0.055575
Si Si6 0.987163 0.149742 0.196749
Si Si7 0.321944 0.480475 0.318379
Si Si8 0.503972 0.258051 0.339189
O O1 0.481957 0.058500 0.444763
O O2 0.238228 0.233639 0.779315
O O3 0.379147 0.221250 0.469006
O O4 0.999336 0.080111 0.480078
O O5 0.567429 0.421074 0.158652
O O6 0.022600 0.453747 0.063413
O O7 0.762432 0.320810 0.799293
O O8 0.816237 0.231993 0.940215
O O9 0.753806 0.421067 0.662587
O O10 0.500000 0.500000 0.000000
O O11 0.126050 0.851431 0.635796
O O12 0.172700 0.100572 0.839608
O O13 0.867509 0.649483 0.821695
O O14 0.271959 0.218461 0.240027
O O15 0.755875 0.187459 0.199375
O O16 0.000000 0.000000 0.000000
O O17 0.400838 0.591774 0.537597
#
# Coordination Sequence:
#
# PCOD9020276 Si02
#       8
#     2   2   2   2   2   2   2   2
#     4  10  23  37  56  83 120 165 201 241 273 326
#     4   9  19  28  45  71 107 164 198 220 265 334
#     4   8  16  29  40  66 108 151 203 224 251 324
#     4  10  23  42  58  86 114 153 212 246 282 344
#     4  11  23  33  55  80 125 172 190 227 281 353
#     4  10  22  45  70  88 106 145 195 257 313 341
#     4  10  22  32  50  85 120 157 192 233 292 341
#     4  10  23  37  62  94 119 140 193 252 291 354
#
# _framework density 28.080376999999999
#
# number of rings (size 3 to 8) (size 9 to 14) (size 15 to 20)
#    0.000    2.250    0.000    1.125   17.500    1.000 
#    0.000    0.000    0.000    1.500    0.000    0.000 
#    0.000    0.000    0.000    0.000    0.000    0.000 
#
# Total GULP energy -89128.198866 kJ/mol
# GULP energy per Si atom -5570.512429 kJ/mol
# Density = 2.801646 g / cm^3
# Si number density = 28.080377 Si / 1000 Ang^3
#
#
#
# Elastic Constant Matrix: (Units=GPa)
#
#
# Indices 1 2 3 4 5 6 
#
# 1 187.6637 65.9763 43.1604 8.2378 2.2856 1.4377
# 2 65.9763 112.1654 27.8161 -2.5737 2.8540 -42.7309
# 3 43.1604 27.8161 101.3427 28.1739 4.4934 7.9984
# 4 8.2378 -2.5737 28.1739 34.8090 -2.9308 -1.5608
# 5 2.2856 2.8540 4.4934 -2.9308 54.2014 14.3498
# 6 1.4377 -42.7309 7.9984 -1.5608 14.3498 58.1981
#
#
#
# Elastic Compliance Matrix: (Units=1/GPa)
#
#
# Indices 1 2 3 4 5 6 
#
# 1 0.007914 -0.006615 -0.000648 -0.001961 0.001380 -0.005356
# 2 -0.006615 0.022055 -0.007119 0.009399 -0.004750 0.018758
# 3 -0.000648 -0.007119 0.016652 -0.014177 0.000365 -0.007970
# 4 -0.001961 0.009399 -0.014177 0.041841 0.000399 0.009922
# 5 0.001380 -0.004750 0.000365 0.000399 0.020943 -0.008725
# 6 -0.005356 0.018758 -0.007970 0.009922 -0.008725 0.034601
#
#
# Mechanical properties :
#
#
# Convention : Reuss Voigt Hill
#
# Bulk Modulus (GPa) = 56.00357 75.00860 65.50609
# Shear Modulus (GPa) = 27.97674 47.05631 37.51652
#
# Velocity S-wave (km/s) = 3.15986 4.09806 3.65915
# Velocity P-wave (km/s) = 5.77064 7.01158 6.42116
#
# Compressibility (1/GPa) = 0.01785600
#
# Stress axis : x y z
#
# Youngs Moduli (GPa) = 126.36585 45.34210 60.05398
#
# Poissons Ratio (x) = 0.29993 0.03890
# Poissons Ratio (y) = 0.83588 0.42754
# Poissons Ratio (z) = 0.08186 0.32280
#
# Static dielectric constant tensor:
#      x y z
#    x 2.249130 -0.040850 0.041800 
#    y -0.040850 2.336270 -0.121190 
#    z 0.041800 -0.121190 2.268450 
# 
# From -- ./inp_files/369160.got.cif
#   From: 2010.05.17/outbox.cif.g08.bks.cpg/sg2_185_cif.got.tgz:369160.got - 2010.06.03 11:33:40.
