data_PCOD9020446
_publ_section_title
;
Structure prediction by ZEFSAII (Michael W. Deem and Ramdas Pophale) SiO2 
 PCOD9020446
Probable space group: P -1
;
_chemical_formula_sum "Si O2"
_cell_formula_units_Z 15
_cell_length_a 6.654837
_cell_length_b 9.220716
_cell_length_c 19.149422
_cell_angle_alpha 100.626051
_cell_angle_beta 139.049186
_cell_angle_gamma 99.792472
_cell_volume 663.940851
_symmetry_space_group_name_H-M "P -1"
_symmetry_group_IT_number 2
_symmetry_cell_setting 'triclinic'
loop_
_space_group_symop_operation_xyz
x,y,z
-x,-y,-z
loop_
_atom_site_type_symbol
_atom_site_label
_atom_site_fract_x
_atom_site_fract_y
_atom_site_fract_z
Si Si1 0.903339 0.059828 0.591933
Si Si2 0.901304 0.143555 0.746772
Si Si3 0.502232 0.667388 0.876849
Si Si4 0.865553 0.169416 0.450016
Si Si5 0.000000 0.500000 0.000000
Si Si6 0.876938 0.479664 0.796731
Si Si7 0.166127 0.022184 0.929529
Si Si8 0.458645 0.662291 0.707763
O O1 0.076775 0.133602 0.718666
O O2 0.027109 0.191059 0.572004
O O3 0.500000 0.000000 0.500000
O O4 0.962681 0.908540 0.565206
O O5 0.835767 0.302148 0.744802
O O6 0.131677 0.135729 0.869240
O O7 0.524417 0.983136 0.648892
O O8 0.335910 0.628058 0.752686
O O9 0.206679 0.614362 0.852356
O O10 0.720365 0.571013 0.939642
O O11 0.759266 0.865131 0.972227
O O12 0.800799 0.309505 0.408502
O O13 0.053949 0.506638 0.101391
O O14 0.570126 0.524440 0.702287
O O15 0.819647 0.841775 0.821842
O O16 0.500000 0.000000 0.000000
#
# Coordination Sequence:
#
# PCOD9020446 Si02
#       8
#     2   2   2   2   1   2   2   2
#     4   9  19  38  65  88 113 143 189 244 300 348
#     4  10  22  36  60  88 115 155 197 238 288 351
#     4  11  22  36  56  79 121 161 201 241 281 340
#     4   9  20  40  62  90 114 144 191 247 295 348
#     4  10  22  36  52  76 112 166 196 240 276 330
#     4  11  22  40  55  83 121 159 201 234 290 342
#     4  11  21  37  56  84 121 158 204 240 282 339
#     4  10  23  37  58  84 119 156 196 243 292 340
#
# _framework density 22.592374
#
# number of rings (size 3 to 8) (size 9 to 14) (size 15 to 20)
#    0.000    1.867    2.667    0.800    1.867    3.200 
#    0.000    0.667    0.000    8.000    0.000    0.000 
#    0.000    0.000    0.000    0.000    0.000    0.000 
#
# Total GULP energy -83561.134601 kJ/mol
# GULP energy per Si atom -5570.742307 kJ/mol
# Density = 2.254095 g / cm^3
# Si number density = 22.592374 Si / 1000 Ang^3
#
#
#
# Elastic Constant Matrix: (Units=GPa)
#
#
# Indices 1 2 3 4 5 6 
#
# 1 141.9636 43.3839 36.8214 -19.4496 -18.9697 -20.4216
# 2 43.3839 111.4766 34.0725 -26.1655 1.3783 -12.8092
# 3 36.8214 34.0725 32.1192 -20.5367 -3.6173 0.0560
# 4 -19.4496 -26.1655 -20.5367 39.4416 2.9520 9.1868
# 5 -18.9697 1.3783 -3.6173 2.9520 27.8465 0.5741
# 6 -20.4216 -12.8092 0.0560 9.1868 0.5741 23.6518
#
#
#
# Elastic Compliance Matrix: (Units=1/GPa)
#
#
# Indices 1 2 3 4 5 6 
#
# 1 0.014792 0.000932 -0.022249 -0.008033 0.007657 0.016264
# 2 0.000932 0.014939 -0.017772 -0.000870 -0.002513 0.009337
# 3 -0.022249 -0.017772 0.101016 0.040595 -0.004536 -0.044731
# 4 -0.008033 -0.000870 0.040595 0.048408 -0.004748 -0.026191
# 5 0.007657 -0.002513 -0.004536 -0.004748 0.041040 0.006108
# 6 0.016264 0.009337 -0.044731 -0.026191 0.006108 0.071509
#
#
# Mechanical properties :
#
#
# Convention : Reuss Voigt Hill
#
# Bulk Modulus (GPa) = 19.02228 57.12388 38.07308
# Shear Modulus (GPa) = 12.90641 29.60675 21.25658
#
# Velocity S-wave (km/s) = 2.39272 3.62398 3.07069
# Velocity P-wave (km/s) = 4.00894 6.54602 5.42780
#
# Compressibility (1/GPa) = 0.05256994
#
# Stress axis : x y z
#
# Youngs Moduli (GPa) = 67.60437 66.93695 9.89947
#
# Poissons Ratio (x) = -0.06240 0.22025
# Poissons Ratio (y) = -0.06302 0.17593
# Poissons Ratio (z) = 1.50411 1.18960
#
# Static dielectric constant tensor:
#      x y z
#    x 1.798580 0.019560 -0.010250 
#    y 0.019560 1.858740 0.044560 
#    z -0.010250 0.044560 1.936000 
# 
# From -- ./inp_files/34474.got.cif
#   From: 2010.05.17/outbox.cif.g08.bks.cpg/sg2_18_cif.got.tgz:34474.got - 2010.06.03 11:33:40.
