data_PCOD9020183
_publ_section_title
;
Structure prediction by ZEFSAII (Michael W. Deem and Ramdas Pophale) SiO2 
 PCOD9020183
Probable space group: P -1
;
_chemical_formula_sum "Si O2"
_cell_formula_units_Z 14
_cell_length_a 24.852969
_cell_length_b 14.077090
_cell_length_c 13.510988
_cell_angle_alpha 31.487326
_cell_angle_beta 157.877072
_cell_angle_gamma 157.946973
_cell_volume 667.806003
_symmetry_space_group_name_H-M "P -1"
_symmetry_group_IT_number 2
_symmetry_cell_setting 'triclinic'
loop_
_space_group_symop_operation_xyz
x,y,z
-x,-y,-z
loop_
_atom_site_type_symbol
_atom_site_label
_atom_site_fract_x
_atom_site_fract_y
_atom_site_fract_z
Si Si1 0.460569 0.274810 0.579837
Si Si2 0.906601 0.882509 0.174801
Si Si3 0.894844 0.569949 0.048150
Si Si4 0.970851 0.179057 0.746172
Si Si5 0.849991 0.954927 0.363239
Si Si6 0.512888 0.363866 0.359194
Si Si7 0.832914 0.337660 0.943428
O O1 0.500000 0.500000 0.500000
O O2 0.439850 0.293310 0.411163
O O3 0.258224 0.008174 0.509420
O O4 0.661084 0.340577 0.874591
O O5 0.897126 0.720411 0.216755
O O6 0.015901 0.899574 0.440312
O O7 0.690195 0.777521 0.920310
O O8 0.045664 0.173898 0.115931
O O9 0.990881 0.648536 0.251459
O O10 0.926920 0.481765 0.081868
O O11 0.000000 0.000000 0.000000
O O12 0.669123 0.661978 0.340866
O O13 0.770385 0.074593 0.081669
O O14 0.000000 0.000000 0.500000
O O15 0.645506 0.299678 0.630759
O O16 0.000000 0.500000 0.000000
#
# Coordination Sequence:
#
# PCOD9020183 Si02
#       7
#     2   2   2   2   2   2   2
#     4  11  15  29  60  95 123 167 206 244 305 378
#     4  11  20  38  66  99 126 164 212 258 310 378
#     4  10  19  34  60  92 128 163 208 255 307 376
#     4  10  17  30  60 100 123 163 213 246 311 376
#     4  12  24  45  65  88 128 166 212 268 316 372
#     4  11  22  39  66  93 126 163 213 252 318 373
#     4  11  23  45  65  89 125 171 211 265 320 372
#
# _framework density 20.964172000000001
#
# number of rings (size 3 to 8) (size 9 to 14) (size 15 to 20)
#    0.000    1.143   10.000    0.000    0.000    0.571 
#    2.571    2.143    0.000   18.000    0.000    1.000 
#    0.000    0.000    0.000    0.000    0.000    0.000 
#
# Total GULP energy -78078.714561 kJ/mol
# GULP energy per Si atom -5577.051040 kJ/mol
# Density = 2.091646 g / cm^3
# Si number density = 20.964172 Si / 1000 Ang^3
#
#
#
# Elastic Constant Matrix: (Units=GPa)
#
#
# Indices 1 2 3 4 5 6 
#
# 1 100.9135 6.2219 26.2553 0.8679 20.5024 -6.1383
# 2 6.2219 50.3995 55.9678 -1.1515 9.3101 -2.7635
# 3 26.2553 55.9678 118.7332 11.7098 15.1291 12.0037
# 4 0.8679 -1.1515 11.7098 39.1529 -1.0829 1.7220
# 5 20.5024 9.3101 15.1291 -1.0829 27.3732 2.5177
# 6 -6.1383 -2.7635 12.0037 1.7220 2.5177 20.8181
#
#
#
# Elastic Compliance Matrix: (Units=1/GPa)
#
#
# Indices 1 2 3 4 5 6 
#
# 1 0.013922 0.008505 -0.006940 0.001273 -0.010390 0.010387
# 2 0.008505 0.057490 -0.031433 0.009337 -0.010831 0.028801
# 3 -0.006940 -0.031433 0.027444 -0.007959 0.002399 -0.021675
# 4 0.001273 0.009337 -0.007959 0.028031 0.001033 0.003760
# 5 -0.010390 -0.010831 0.002399 0.001033 0.047794 -0.011750
# 6 0.010387 0.028801 -0.021675 0.003760 -0.011750 0.068528
#
#
# Mechanical properties :
#
#
# Convention : Reuss Voigt Hill
#
# Bulk Modulus (GPa) = 25.56054 49.65959 37.61007
# Shear Modulus (GPa) = 15.82363 29.57560 22.69961
#
# Velocity S-wave (km/s) = 2.75033 3.76009 3.29413
# Velocity P-wave (km/s) = 4.72279 6.52613 5.69627
#
# Compressibility (1/GPa) = 0.03912280
#
# Stress axis : x y z
#
# Youngs Moduli (GPa) = 71.82685 17.39432 36.43815
#
# Poissons Ratio (x) = -0.14795 0.25287
# Poissons Ratio (y) = -0.61092 1.14535
# Poissons Ratio (z) = 0.49845 0.54675
#
# Static dielectric constant tensor:
#      x y z
#    x 1.609950 -0.047650 -0.144370 
#    y -0.047650 1.767170 -0.017020 
#    z -0.144370 -0.017020 1.693720 
# 
# From -- ./inp_files/337270.got.cif
#   From: 2010.05.17/outbox.cif.g08.bks.cpg/sg2_169_cif.got.tgz:337270.got - 2010.06.03 11:33:40.
