data_PCOD9020007
_publ_section_title
;
Structure prediction by ZEFSAII (Michael W. Deem and Ramdas Pophale) SiO2 
 PCOD9020007
Probable space group: P -1
;
_chemical_formula_sum "Si O2"
_cell_formula_units_Z 16
_cell_length_a 9.699515
_cell_length_b 11.660129
_cell_length_c 14.428140
_cell_angle_alpha 106.132062
_cell_angle_beta 26.517154
_cell_angle_gamma 93.542676
_cell_volume 629.957363
_symmetry_space_group_name_H-M "P -1"
_symmetry_group_IT_number 2
_symmetry_cell_setting 'triclinic'
loop_
_space_group_symop_operation_xyz
x,y,z
-x,-y,-z
loop_
_atom_site_type_symbol
_atom_site_label
_atom_site_fract_x
_atom_site_fract_y
_atom_site_fract_z
Si Si1 0.599884 0.622877 0.137861
Si Si2 0.705071 0.053204 0.766666
Si Si3 0.371020 0.425877 0.309964
Si Si4 0.237185 0.166167 0.801350
Si Si5 0.026648 0.298170 0.212668
Si Si6 0.452379 0.711199 0.649075
Si Si7 0.851520 0.766945 0.663007
Si Si8 0.830050 0.869688 0.383398
O O1 0.618702 0.485429 0.134520
O O2 0.688286 0.711812 0.179111
O O3 0.195224 0.707508 0.380013
O O4 0.825760 0.611158 0.909174
O O5 0.819724 0.135835 0.788291
O O6 0.713120 0.922904 0.779134
O O7 0.332306 0.150105 0.974725
O O8 0.000000 0.000000 0.500000
O O9 0.395661 0.416662 0.403883
O O10 0.424868 0.278955 0.218392
O O11 0.000000 0.500000 0.500000
O O12 0.179728 0.166576 0.726057
O O13 0.554877 0.023952 0.596432
O O14 0.897999 0.187097 0.066716
O O15 0.014732 0.295307 0.329839
O O16 0.679548 0.316926 0.375912
O O17 0.707063 0.776993 0.495271
#
# Coordination Sequence:
#
# PCOD9020007 Si02
#       8
#     2   2   2   2   2   2   2   2
#     4  10  21  46  63  89 133 172 220 274 335 374
#     4  12  22  41  67  99 141 179 206 267 336 397
#     4  10  25  44  71  91 127 178 228 281 330 386
#     4  10  22  40  66 100 134 172 213 272 326 402
#     4  11  25  39  70 101 133 172 218 270 333 401
#     4  11  24  44  66  97 132 176 222 271 331 394
#     4  11  22  43  66  98 134 173 221 269 323 395
#     4  11  23  39  67 100 138 172 212 264 335 400
#
# _framework density 25.398544000000001
#
# number of rings (size 3 to 8) (size 9 to 14) (size 15 to 20)
#    0.000    1.250    2.500    3.000    5.250    3.500 
#    0.000    8.125    0.000    0.000    0.000    0.000 
#    0.000    0.000    0.000    0.000    0.000    0.000 
#
# Total GULP energy -89603.536149 kJ/mol
# GULP energy per Si atom -5600.221009 kJ/mol
# Density = 2.534074 g / cm^3
# Si number density = 25.398544 Si / 1000 Ang^3
#
#
#
# Elastic Constant Matrix: (Units=GPa)
#
#
# Indices 1 2 3 4 5 6 
#
# 1 154.2405 59.5172 15.7450 -11.5720 -11.2911 -10.7205
# 2 59.5172 175.0126 22.0139 -54.1620 -12.6455 -2.5650
# 3 15.7450 22.0139 61.8684 -0.2624 4.8525 1.0749
# 4 -11.5720 -54.1620 -0.2624 26.9600 -5.1568 -1.0964
# 5 -11.2911 -12.6455 4.8525 -5.1568 47.7419 7.0937
# 6 -10.7205 -2.5650 1.0749 -1.0964 7.0937 37.5996
#
#
#
# Elastic Compliance Matrix: (Units=1/GPa)
#
#
# Indices 1 2 3 4 5 6 
#
# 1 0.007871 -0.003909 -0.000674 -0.004379 0.000148 0.001841
# 2 -0.003909 0.023895 -0.008201 0.048440 0.011471 -0.000002
# 3 -0.000674 -0.008201 0.019672 -0.017779 -0.006152 -0.000672
# 4 -0.004379 0.048440 -0.017779 0.137819 0.028304 0.001243
# 5 0.000148 0.011471 -0.006152 0.028304 0.028221 -0.003498
# 6 0.001841 -0.000002 -0.000672 0.001243 -0.003498 0.027836
#
#
# Mechanical properties :
#
#
# Convention : Reuss Voigt Hill
#
# Bulk Modulus (GPa) = 38.65840 65.07484 51.86662
# Shear Modulus (GPa) = 17.88862 42.04999 29.96930
#
# Velocity S-wave (km/s) = 2.65678 4.07333 3.43878
# Velocity P-wave (km/s) = 4.96639 6.91374 6.01934
#
# Compressibility (1/GPa) = 0.02586760
#
# Stress axis : x y z
#
# Youngs Moduli (GPa) = 127.04861 41.85021 50.83383
#
# Poissons Ratio (x) = 0.16360 0.03428
# Poissons Ratio (y) = 0.49667 0.41691
# Poissons Ratio (z) = 0.08567 0.34323
#
# Static dielectric constant tensor:
#      x y z
#    x 1.999410 -0.002680 0.042570 
#    y -0.002680 2.034220 0.059370 
#    z 0.042570 0.059370 2.021610 
# 
# From -- ./inp_files/500496.got.cif
#   From: 2010.05.17/outbox.cif.g08.bks.cpg/sg2_251_cif.got.tgz:500496.got - 2010.06.03 11:33:40.
