data_PCOD9020426
_publ_section_title
;
Structure prediction by ZEFSAII (Michael W. Deem and Ramdas Pophale) SiO2 
 PCOD9020426
Probable space group: P -1
;
_chemical_formula_sum "Si O2"
_cell_formula_units_Z 16
_cell_length_a 12.940720
_cell_length_b 8.851592
_cell_length_c 8.209957
_cell_angle_alpha 82.086573
_cell_angle_beta 66.913260
_cell_angle_gamma 59.233624
_cell_volume 740.989394
_symmetry_space_group_name_H-M "P -1"
_symmetry_group_IT_number 2
_symmetry_cell_setting 'triclinic'
loop_
_space_group_symop_operation_xyz
x,y,z
-x,-y,-z
loop_
_atom_site_type_symbol
_atom_site_label
_atom_site_fract_x
_atom_site_fract_y
_atom_site_fract_z
Si Si1 0.305354 0.036735 0.360386
Si Si2 0.862950 0.567487 0.488276
Si Si3 0.300293 0.422896 0.941270
Si Si4 0.543809 0.339642 0.619106
Si Si5 0.775034 0.877653 0.956812
Si Si6 0.630794 0.535405 0.761510
Si Si7 0.530862 0.070748 0.300849
Si Si8 0.055926 0.619398 0.879563
O O1 0.212904 0.218704 0.485594
O O2 0.251956 0.030480 0.216529
O O3 0.437365 0.040480 0.240650
O O4 0.349041 0.859849 0.462959
O O5 0.772612 0.507647 0.643082
O O6 0.884433 0.477172 0.313486
O O7 0.000000 0.500000 0.500000
O O8 0.410960 0.343791 0.747372
O O9 0.173322 0.595142 0.924443
O O10 0.250125 0.287178 0.033561
O O11 0.371453 0.451775 0.044988
O O12 0.500000 0.500000 0.500000
O O13 0.606452 0.387928 0.724128
O O14 0.925458 0.806624 0.915987
O O15 0.674615 0.980164 0.150070
O O16 0.531156 0.718711 0.704743
O O17 0.500000 0.000000 0.500000
O O18 0.000000 0.500000 0.000000
#
# Coordination Sequence:
#
# PCOD9020426 Si02
#       8
#     2   2   2   2   2   2   2   2
#     4  11  22  39  68  94 130 166 219 269 328 379
#     4  11  20  41  67 101 128 160 222 274 321 384
#     4  11  21  41  62  92 133 173 216 268 329 386
#     4  12  25  42  63  95 134 177 212 268 332 393
#     4  11  20  40  65 100 129 165 218 271 328 381
#     4  11  24  40  65  94 127 172 218 265 330 387
#     4  11  22  36  63  97 126 161 217 281 315 374
#     4  10  22  35  63  99 131 167 204 274 331 381
#
# _framework density 21.592749000000001
#
# number of rings (size 3 to 8) (size 9 to 14) (size 15 to 20)
#    0.000    1.000    5.000    3.750    7.000    0.000 
#    0.000    0.625    0.000    1.500    0.000    0.000 
#    0.000    0.000    0.000    0.000    0.000    0.000 
#
# Total GULP energy -89261.878371 kJ/mol
# GULP energy per Si atom -5578.867398 kJ/mol
# Density = 2.154360 g / cm^3
# Si number density = 21.592749 Si / 1000 Ang^3
#
#
#
# Elastic Constant Matrix: (Units=GPa)
#
#
# Indices 1 2 3 4 5 6 
#
# 1 88.1801 43.2640 9.2977 7.7998 0.8770 -20.9028
# 2 43.2640 107.0587 23.1083 10.6849 -7.9218 -24.6425
# 3 9.2977 23.1083 84.0196 16.4285 1.5725 -22.5419
# 4 7.7998 10.6849 16.4285 25.2283 -9.9713 0.9105
# 5 0.8770 -7.9218 1.5725 -9.9713 27.1121 3.0619
# 6 -20.9028 -24.6425 -22.5419 0.9105 3.0619 35.5618
#
#
#
# Elastic Compliance Matrix: (Units=1/GPa)
#
#
# Indices 1 2 3 4 5 6 
#
# 1 0.016367 -0.004915 0.003788 -0.008267 -0.006284 0.009368
# 2 -0.004915 0.013265 -0.001233 -0.002463 0.002595 0.005361
# 3 0.003788 -0.001233 0.019528 -0.017808 -0.009865 0.015056
# 4 -0.008267 -0.002463 -0.017808 0.066500 0.027514 -0.021926
# 5 -0.006284 0.002595 -0.009865 0.027514 0.050023 -0.013160
# 6 0.009368 0.005361 0.015056 -0.021926 -0.013160 0.048580
#
#
# Mechanical properties :
#
#
# Convention : Reuss Voigt Hill
#
# Bulk Modulus (GPa) = 22.50247 47.84428 35.17338
# Shear Modulus (GPa) = 21.38619 31.15302 26.26960
#
# Velocity S-wave (km/s) = 3.15053 3.80248 3.49175
# Velocity P-wave (km/s) = 4.86604 6.44082 5.70800
#
# Compressibility (1/GPa) = 0.04443956
#
# Stress axis : x y z
#
# Youngs Moduli (GPa) = 61.09827 75.38636 51.20861
#
# Poissons Ratio (x) = 0.37055 -0.19399
# Poissons Ratio (y) = 0.30032 0.06314
# Poissons Ratio (z) = -0.23145 0.09295
#
# Static dielectric constant tensor:
#      x y z
#    x 1.801210 -0.056120 0.029990 
#    y -0.056120 1.824410 -0.092880 
#    z 0.029990 -0.092880 1.533940 
# 
# From -- ./inp_files/243413.got.cif
#   From: 2010.05.17/outbox.cif.g08.bks.cpg/sg2_122_cif.got.tgz:243413.got - 2010.06.03 11:33:40.
