data_PCOD9020704
_publ_section_title
;
Structure prediction by ZEFSAII (Michael W. Deem and Ramdas Pophale) SiO2 
 PCOD9020704
Probable space group: P -1
;
_chemical_formula_sum "Si O2"
_cell_formula_units_Z 16
_cell_length_a 11.229106
_cell_length_b 9.560394
_cell_length_c 10.584332
_cell_angle_alpha 79.507855
_cell_angle_beta 137.847189
_cell_angle_gamma 93.038294
_cell_volume 744.005881
_symmetry_space_group_name_H-M "P -1"
_symmetry_group_IT_number 2
_symmetry_cell_setting 'triclinic'
loop_
_space_group_symop_operation_xyz
x,y,z
-x,-y,-z
loop_
_atom_site_type_symbol
_atom_site_label
_atom_site_fract_x
_atom_site_fract_y
_atom_site_fract_z
Si Si1 0.860501 0.636032 0.336520
Si Si2 0.933773 0.520686 0.802123
Si Si3 0.398630 0.062181 0.103111
Si Si4 0.001908 0.802017 0.213968
Si Si5 0.373979 0.899127 0.489013
Si Si6 0.527075 0.777162 0.125101
Si Si7 0.713941 0.470996 0.024530
Si Si8 0.590128 0.611061 0.634100
O O1 0.723977 0.696798 0.327893
O O2 0.731983 0.580400 0.135085
O O3 0.000000 0.500000 0.500000
O O4 0.970685 0.754473 0.342085
O O5 0.940340 0.355820 0.780618
O O6 0.756465 0.627683 0.671210
O O7 0.080747 0.590842 0.828500
O O8 0.000000 0.500000 0.000000
O O9 0.556391 0.096053 0.313910
O O10 0.430349 0.891963 0.128175
O O11 0.428745 0.137516 0.980659
O O12 0.199622 0.121341 0.991256
O O13 0.159050 0.903107 0.307240
O O14 0.448417 0.746049 0.518154
O O15 0.500000 0.000000 0.500000
O O16 0.402566 0.654747 0.021545
O O17 0.646528 0.552523 0.828532
O O18 0.500000 0.500000 0.500000
#
# Coordination Sequence:
#
# PCOD9020704 Si02
#       8
#     2   2   2   2   2   2   2   2
#     4  10  22  39  64  99 128 161 216 280 336 388
#     4   9  18  36  60  92 121 160 215 263 327 374
#     4  10  24  46  63  90 140 175 217 270 332 401
#     4  10  22  43  62  93 130 171 215 272 327 387
#     4  12  27  42  66  97 131 181 223 268 337 396
#     4  10  22  42  67  93 126 177 215 266 337 403
#     4  10  22  36  67  97 125 170 217 270 345 381
#     4  11  22  39  65  89 135 169 217 282 313 392
#
# _framework density 21.505205
#
# number of rings (size 3 to 8) (size 9 to 14) (size 15 to 20)
#    0.000    1.750    1.250    3.375    5.250    1.500 
#    2.250    1.875    0.000    0.000    0.000    0.000 
#    0.000    0.000    0.000    0.000    0.000    0.000 
#
# Total GULP energy -89107.576223 kJ/mol
# GULP energy per Si atom -5569.223514 kJ/mol
# Density = 2.145626 g / cm^3
# Si number density = 21.505205 Si / 1000 Ang^3
#
#
#
# Elastic Constant Matrix: (Units=GPa)
#
#
# Indices 1 2 3 4 5 6 
#
# 1 93.2618 28.9189 32.3420 9.4765 27.9197 -1.5299
# 2 28.9189 77.5718 22.7226 11.3482 11.7305 -2.4292
# 3 32.3420 22.7226 66.3301 9.8029 12.6711 -2.0096
# 4 9.4765 11.3482 9.8029 26.1681 1.6833 7.9082
# 5 27.9197 11.7305 12.6711 1.6833 35.3806 7.6667
# 6 -1.5299 -2.4292 -2.0096 7.9082 7.6667 36.8894
#
#
#
# Elastic Compliance Matrix: (Units=1/GPa)
#
#
# Indices 1 2 3 4 5 6 
#
# 1 0.016968 -0.002625 -0.004547 -0.003605 -0.011465 0.003439
# 2 -0.002625 0.015955 -0.002823 -0.005502 -0.002484 0.002484
# 3 -0.004547 -0.002823 0.019598 -0.005000 -0.002763 0.002339
# 4 -0.003605 -0.005502 -0.005000 0.047054 0.006887 -0.012303
# 5 -0.011465 -0.002484 -0.002763 0.006887 0.041141 -0.010816
# 6 0.003439 0.002484 0.002339 -0.012303 -0.010816 0.032427
#
#
# Mechanical properties :
#
#
# Convention : Reuss Voigt Hill
#
# Bulk Modulus (GPa) = 30.73985 45.01452 37.87719
# Shear Modulus (GPa) = 24.51256 29.89965 27.20611
#
# Velocity S-wave (km/s) = 3.37982 3.73278 3.56067
# Velocity P-wave (km/s) = 5.43655 6.28932 5.87842
#
# Compressibility (1/GPa) = 0.03253106
#
# Stress axis : x y z
#
# Youngs Moduli (GPa) = 58.93325 62.67598 51.02539
#
# Poissons Ratio (x) = 0.16453 0.23203
# Poissons Ratio (y) = 0.15470 0.14404
# Poissons Ratio (z) = 0.26799 0.17693
#
# Static dielectric constant tensor:
#      x y z
#    x 1.658840 -0.007220 -0.167680 
#    y -0.007220 1.810040 -0.001190 
#    z -0.167680 -0.001190 1.734010 
# 
# From -- ./inp_files/417250.got.cif
#   From: 2010.05.17/outbox.cif.g08.bks.cpg/sg2_209_cif.got.tgz:417250.got - 2010.06.03 11:33:40.
