data_PCOD9020396
_publ_section_title
;
Structure prediction by ZEFSAII (Michael W. Deem and Ramdas Pophale) SiO2 
 PCOD9020396
Probable space group: P -1
;
_chemical_formula_sum "Si O2"
_cell_formula_units_Z 16
_cell_length_a 9.106957
_cell_length_b 7.890126
_cell_length_c 17.940336
_cell_angle_alpha 41.711982
_cell_angle_beta 119.146570
_cell_angle_gamma 93.202497
_cell_volume 635.500210
_symmetry_space_group_name_H-M "P -1"
_symmetry_group_IT_number 2
_symmetry_cell_setting 'triclinic'
loop_
_space_group_symop_operation_xyz
x,y,z
-x,-y,-z
loop_
_atom_site_type_symbol
_atom_site_label
_atom_site_fract_x
_atom_site_fract_y
_atom_site_fract_z
Si Si1 0.232023 0.262421 0.277679
Si Si2 0.650026 0.746458 0.520300
Si Si3 0.927715 0.649429 0.262726
Si Si4 0.403389 0.420323 0.876451
Si Si5 0.216428 0.845998 0.050235
Si Si6 0.473105 0.216613 0.127384
Si Si7 0.301098 0.868793 0.236142
Si Si8 0.055019 0.836064 0.834858
O O1 0.296096 0.229566 0.389201
O O2 0.164585 0.589470 0.123165
O O3 0.063652 0.182788 0.257774
O O4 0.436194 0.036450 0.359322
O O5 0.629498 0.458276 0.609515
O O6 0.860026 0.639225 0.569035
O O7 0.770540 0.568271 0.219807
O O8 0.897177 0.900490 0.234375
O O9 0.931671 0.836164 0.129867
O O10 0.586162 0.285493 0.908215
O O11 0.465463 0.216476 0.034628
O O12 0.376899 0.716118 0.813826
O O13 0.247476 0.891584 0.128216
O O14 0.257705 0.515506 0.995651
O O15 0.476375 0.933340 0.253525
O O16 0.112201 0.092177 0.167076
#
# Coordination Sequence:
#
# PCOD9020396 Si02
#       8
#     2   2   2   2   2   2   2   2
#     4  10  22  40  61  87 122 152 199 242 304 354
#     4   9  22  41  61  86 119 160 190 246 302 357
#     4  11  22  37  59  86 121 156 199 239 293 343
#     4  11  23  38  56  86 124 160 199 241 290 346
#     4  11  22  38  61  87 123 160 194 245 289 354
#     4  11  22  35  58  90 122 154 195 251 290 348
#     4  10  22  35  59  89 121 153 194 240 307 348
#     4  11  23  34  59  91 122 152 191 247 302 349
#
# _framework density 25.177018
#
# number of rings (size 3 to 8) (size 9 to 14) (size 15 to 20)
#    0.000    1.500    2.500    2.250    3.500    4.500 
#    0.000    0.625    0.000    0.000    0.000   11.375 
#    0.000    0.000    0.000    0.000    0.000    0.000 
#
# Total GULP energy -89314.226262 kJ/mol
# GULP energy per Si atom -5582.139141 kJ/mol
# Density = 2.511971 g / cm^3
# Si number density = 25.177018 Si / 1000 Ang^3
#
#
#
# Elastic Constant Matrix: (Units=GPa)
#
#
# Indices 1 2 3 4 5 6 
#
# 1 93.0062 54.1910 1.8248 0.7397 15.8457 13.6530
# 2 54.1910 120.7705 34.5878 13.5556 14.2943 33.3054
# 3 1.8248 34.5878 56.0080 7.8636 31.8547 9.2636
# 4 0.7397 13.5556 7.8636 34.4673 -0.9845 5.7369
# 5 15.8457 14.2943 31.8547 -0.9845 34.9738 11.6039
# 6 13.6530 33.3054 9.2636 5.7369 11.6039 61.5743
#
#
#
# Elastic Compliance Matrix: (Units=1/GPa)
#
#
# Indices 1 2 3 4 5 6 
#
# 1 0.022895 -0.014862 0.023288 -0.001518 -0.027115 0.004710
# 2 -0.014862 0.021832 -0.024683 -0.000447 0.023316 -0.009153
# 3 0.023288 -0.024683 0.071811 -0.011110 -0.070037 0.011617
# 4 -0.001518 -0.000447 -0.011110 0.032666 0.012984 -0.003241
# 5 -0.027115 0.023316 -0.070037 0.012984 0.100909 -0.016289
# 6 0.004710 -0.009153 0.011617 -0.003241 -0.016289 0.021771
#
#
# Mechanical properties :
#
#
# Convention : Reuss Voigt Hill
#
# Bulk Modulus (GPa) = 11.90130 50.11021 31.00575
# Shear Modulus (GPa) = 15.04186 38.14849 26.59517
#
# Velocity S-wave (km/s) = 2.44692 3.89679 3.25364
# Velocity P-wave (km/s) = 3.56658 6.33980 5.14362
#
# Compressibility (1/GPa) = 0.08402443
#
# Stress axis : x y z
#
# Youngs Moduli (GPa) = 43.67789 45.80336 13.92549
#
# Poissons Ratio (x) = 0.68073 -0.32430
# Poissons Ratio (y) = 0.64914 0.34372
# Poissons Ratio (z) = -1.01718 1.13057
#
# Static dielectric constant tensor:
#      x y z
#    x 2.081510 0.016170 0.026300 
#    y 0.016170 2.140580 0.011240 
#    z 0.026300 0.011240 1.943390 
# 
# From -- ./inp_files/587770.got.cif
#   From: 2010.05.17/outbox.cif.g08.bks.cpg/sg2_294_cif.got.tgz:587770.got - 2010.06.03 11:33:40.
