data_PCOD9020809
_publ_section_title
;
Structure prediction by ZEFSAII (Michael W. Deem and Ramdas Pophale) SiO2 
 PCOD9020809
Probable space group: P -1
;
_chemical_formula_sum "Si O2"
_cell_formula_units_Z 14
_cell_length_a 9.228309
_cell_length_b 20.298241
_cell_length_c 12.677267
_cell_angle_alpha 150.856320
_cell_angle_beta 50.147606
_cell_angle_gamma 141.445316
_cell_volume 713.786099
_symmetry_space_group_name_H-M "P -1"
_symmetry_group_IT_number 2
_symmetry_cell_setting 'triclinic'
loop_
_space_group_symop_operation_xyz
x,y,z
-x,-y,-z
loop_
_atom_site_type_symbol
_atom_site_label
_atom_site_fract_x
_atom_site_fract_y
_atom_site_fract_z
Si Si1 0.944580 0.419425 0.696672
Si Si2 0.344879 0.417178 0.591011
Si Si3 0.183860 0.151934 0.888878
Si Si4 0.354740 0.800174 0.273554
Si Si5 0.054055 0.201806 0.613456
Si Si6 0.229985 0.361778 0.965649
Si Si7 0.141498 0.280584 0.288727
O O1 0.749867 0.298895 0.706121
O O2 0.195432 0.489442 0.732373
O O3 0.947425 0.310412 0.448530
O O4 0.901027 0.550465 0.860032
O O5 0.272531 0.339674 0.631791
O O6 0.229752 0.269935 0.348636
O O7 0.619772 0.548008 0.627344
O O8 0.450840 0.220649 0.886077
O O9 0.198787 0.281676 0.981640
O O10 0.070202 0.145327 0.043602
O O11 0.058669 0.975862 0.639374
O O12 0.131301 0.752782 0.244516
O O13 0.500000 0.000000 0.500000
O O14 0.125598 0.218384 0.723771
O O15 0.500000 0.500000 0.000000
#
# Coordination Sequence:
#
# PCOD9020809 Si02
#       7
#     2   2   2   2   2   2   2
#     4   9  19  36  58  86 113 148 193 235 286 330
#     4   8  18  36  58  89 108 148 191 245 282 333
#     4  11  22  37  57  88 119 155 188 234 295 347
#     4   9  19  36  57  88 113 149 191 238 288 332
#     4  10  22  37  59  84 118 152 194 243 286 335
#     4  12  23  36  59  86 117 157 193 238 282 345
#     4   9  19  36  61  87 115 144 195 241 290 337
#
# _framework density 19.613717999999999
#
# number of rings (size 3 to 8) (size 9 to 14) (size 15 to 20)
#    0.857    1.429    1.429    1.286    2.000    2.286 
#    0.000    0.000    0.000    1.714    0.000    0.000 
#    0.000    0.000    0.000    0.000    0.000    0.000 
#
# Total GULP energy -77984.143049 kJ/mol
# GULP energy per Si atom -5570.295932 kJ/mol
# Density = 1.956908 g / cm^3
# Si number density = 19.613718 Si / 1000 Ang^3
#
#
#
# Elastic Constant Matrix: (Units=GPa)
#
#
# Indices 1 2 3 4 5 6 
#
# 1 41.2541 -4.6729 25.6018 5.7234 2.1955 -11.5679
# 2 -4.6729 20.5732 -1.2076 4.0488 -5.3062 3.6621
# 3 25.6018 -1.2076 108.8694 -11.4988 8.4191 2.3352
# 4 5.7234 4.0488 -11.4988 23.0839 -3.6896 -2.2343
# 5 2.1955 -5.3062 8.4191 -3.6896 30.6767 0.6582
# 6 -11.5679 3.6621 2.3352 -2.2343 0.6582 21.1014
#
#
#
# Elastic Compliance Matrix: (Units=1/GPa)
#
#
# Indices 1 2 3 4 5 6 
#
# 1 0.039863 0.007562 -0.011252 -0.014968 -0.000691 0.020223
# 2 0.007562 0.056046 -0.002995 -0.012481 0.008621 -0.006840
# 3 -0.011252 -0.002995 0.013028 0.008882 -0.002089 -0.006085
# 4 -0.014968 -0.012481 0.008882 0.053988 0.002998 -0.001399
# 5 -0.000691 0.008621 -0.002089 0.002998 0.035125 -0.002422
# 6 0.020223 -0.006840 -0.006085 -0.001399 -0.002422 0.060264
#
#
# Mechanical properties :
#
#
# Convention : Reuss Voigt Hill
#
# Bulk Modulus (GPa) = 10.46380 23.34881 16.90630
# Shear Modulus (GPa) = 16.47232 25.03744 20.75488
#
# Velocity S-wave (km/s) = 2.90114 3.57673 3.25650
# Velocity P-wave (km/s) = 4.07046 5.38400 4.77264
#
# Compressibility (1/GPa) = 0.09556760
#
# Stress axis : x y z
#
# Youngs Moduli (GPa) = 25.08595 17.84255 76.75650
#
# Poissons Ratio (x) = -0.13492 0.86363
# Poissons Ratio (y) = -0.18969 0.22986
# Poissons Ratio (z) = 0.28226 0.05343
#
# Static dielectric constant tensor:
#      x y z
#    x 1.670840 0.017320 0.020930 
#    y 0.017320 1.659430 0.003680 
#    z 0.020930 0.003680 1.784540 
# 
# From -- ./inp_files/184112.got.cif
#   From: 2010.05.17/outbox.cif.g08.bks.cpg/sg2_93_cif.got.tgz:184112.got - 2010.06.03 11:33:40.
