data_PCOD9020286
_publ_section_title
;
Structure prediction by ZEFSAII (Michael W. Deem and Ramdas Pophale) SiO2 
 PCOD9020286
Probable space group: P -1
;
_chemical_formula_sum "Si O2"
_cell_formula_units_Z 14
_cell_length_a 12.902226
_cell_length_b 11.432341
_cell_length_c 14.680948
_cell_angle_alpha 150.032143
_cell_angle_beta 118.441054
_cell_angle_gamma 83.110152
_cell_volume 709.315367
_symmetry_space_group_name_H-M "P -1"
_symmetry_group_IT_number 2
_symmetry_cell_setting 'triclinic'
loop_
_space_group_symop_operation_xyz
x,y,z
-x,-y,-z
loop_
_atom_site_type_symbol
_atom_site_label
_atom_site_fract_x
_atom_site_fract_y
_atom_site_fract_z
Si Si1 0.463743 0.158433 0.719557
Si Si2 0.257964 0.457230 0.769158
Si Si3 0.480358 0.145187 0.005816
Si Si4 0.941456 0.861754 0.280901
Si Si5 0.127779 0.657607 0.986045
Si Si6 0.787969 0.142080 0.434265
Si Si7 0.550453 0.743374 0.430818
O O1 0.461046 0.259608 0.685707
O O2 0.313553 0.007224 0.617037
O O3 0.483196 0.902098 0.544225
O O4 0.616403 0.445941 0.034147
O O5 0.364938 0.651593 0.857912
O O6 0.102998 0.087548 0.442763
O O7 0.184165 0.589803 0.874241
O O8 0.468432 0.402219 0.202628
O O9 0.500000 0.000000 0.000000
O O10 0.326417 0.885557 0.704878
O O11 0.829571 0.938957 0.271664
O O12 0.869639 0.511374 0.036268
O O13 0.000000 0.000000 0.500000
O O14 0.264976 0.022381 0.307272
O O15 0.949000 0.478851 0.763051
#
# Coordination Sequence:
#
# PCOD9020286 Si02
#       7
#     2   2   2   2   2   2   2
#     4   9  19  32  54  88 108 143 163 223 289 317
#     4   8  17  35  55  77 109 143 179 210 269 329
#     4  11  24  38  55  77 103 150 196 223 245 305
#     4   8  16  29  55  83 109 132 172 208 272 341
#     4   9  19  35  52  88 112 139 162 219 290 331
#     4   9  19  35  58  77 109 145 180 210 269 337
#     4  10  22  33  52  81 124 126 177 227 270 317
#
# _framework density 19.737342000000002
#
# number of rings (size 3 to 8) (size 9 to 14) (size 15 to 20)
#    0.000    3.143    0.000    0.000   16.000    1.714 
#    0.000   10.000    0.000    0.000    0.000    0.000 
#    0.000    0.000    0.000    0.000    0.000    0.000 
#
# Total GULP energy -77982.554814 kJ/mol
# GULP energy per Si atom -5570.182487 kJ/mol
# Density = 1.969242 g / cm^3
# Si number density = 19.737342 Si / 1000 Ang^3
#
#
#
# Elastic Constant Matrix: (Units=GPa)
#
#
# Indices 1 2 3 4 5 6 
#
# 1 83.2657 22.0314 28.4855 -3.1346 15.5805 3.4969
# 2 22.0314 121.2659 40.1294 -4.7416 4.0740 -3.7008
# 3 28.4855 40.1294 86.1912 0.3788 16.5551 -5.6195
# 4 -3.1346 -4.7416 0.3788 14.0755 -7.2163 -0.3354
# 5 15.5805 4.0740 16.5551 -7.2163 36.1796 1.1568
# 6 3.4969 -3.7008 -5.6195 -0.3354 1.1568 16.2542
#
#
#
# Elastic Compliance Matrix: (Units=1/GPa)
#
#
# Indices 1 2 3 4 5 6 
#
# 1 0.014632 -0.001417 -0.003660 0.000620 -0.004202 -0.004424
# 2 -0.001417 0.010185 -0.004714 0.004545 0.002498 0.000910
# 3 -0.003660 -0.004714 0.016764 -0.006308 -0.007010 0.005879
# 4 0.000620 0.004545 -0.006308 0.082383 0.018568 -0.000901
# 5 -0.004202 0.002498 -0.007010 0.018568 0.036180 -0.003143
# 6 -0.004424 0.000910 0.005879 -0.000901 -0.003143 0.064919
#
#
# Mechanical properties :
#
#
# Convention : Reuss Voigt Hill
#
# Bulk Modulus (GPa) = 45.45676 52.44618 48.95147
# Shear Modulus (GPa) = 19.84288 26.64027 23.24158
#
# Velocity S-wave (km/s) = 3.17416 3.67787 3.43526
# Velocity P-wave (km/s) = 6.04273 6.68321 6.37102
#
# Compressibility (1/GPa) = 0.02199893
#
# Stress axis : x y z
#
# Youngs Moduli (GPa) = 68.34259 98.18011 59.65077
#
# Poissons Ratio (x) = 0.13909 0.21834
# Poissons Ratio (y) = 0.09682 0.28122
# Poissons Ratio (z) = 0.25016 0.46286
#
# Static dielectric constant tensor:
#      x y z
#    x 1.804830 -0.057100 0.003800 
#    y -0.057100 1.679080 0.031480 
#    z 0.003800 0.031480 1.785110 
# 
# From -- ./inp_files/387831.got.cif
#   From: 2010.05.17/outbox.cif.g08.bks.cpg/sg2_194_cif.got.tgz:387831.got - 2010.06.03 11:33:40.
