data_PCOD9020441
_publ_section_title
;
Structure prediction by ZEFSAII (Michael W. Deem and Ramdas Pophale) SiO2 
 PCOD9020441
Probable space group: P -1
;
_chemical_formula_sum "Si O2"
_cell_formula_units_Z 16
_cell_length_a 13.296983
_cell_length_b 15.567843
_cell_length_c 5.487612
_cell_angle_alpha 95.407479
_cell_angle_beta 100.962356
_cell_angle_gamma 34.989174
_cell_volume 635.666234
_symmetry_space_group_name_H-M "P -1"
_symmetry_group_IT_number 2
_symmetry_cell_setting 'triclinic'
loop_
_space_group_symop_operation_xyz
x,y,z
-x,-y,-z
loop_
_atom_site_type_symbol
_atom_site_label
_atom_site_fract_x
_atom_site_fract_y
_atom_site_fract_z
Si Si1 0.623249 0.304472 0.140376
Si Si2 0.866967 0.553862 0.154916
Si Si3 0.849015 0.734137 0.428352
Si Si4 0.973326 0.118214 0.456882
Si Si5 0.303129 0.995481 0.335523
Si Si6 0.734014 0.472208 0.119441
Si Si7 0.047470 0.198905 0.894693
Si Si8 0.528556 0.283951 0.596246
O O1 0.792625 0.247408 0.250254
O O2 0.419951 0.478527 0.063802
O O3 0.606154 0.262808 0.372966
O O4 0.640856 0.238653 0.877401
O O5 0.999440 0.413854 0.370157
O O6 0.767257 0.706302 0.256139
O O7 0.732565 0.570044 0.024942
O O8 0.000000 0.500000 0.000000
O O9 0.941186 0.728860 0.262296
O O10 0.717205 0.893608 0.540575
O O11 0.956246 0.182609 0.714941
O O12 0.145281 0.044175 0.393730
O O13 0.000000 0.000000 0.500000
O O14 0.472159 0.819180 0.423074
O O15 0.245732 0.040838 0.039014
O O16 0.928322 0.305732 0.099885
O O17 0.662444 0.540349 0.376906
#
# Coordination Sequence:
#
# PCOD9020441 Si02
#       8
#     2   2   2   2   2   2   2   2
#     4  10  24  42  63  94 134 177 220 264 336 383
#     4  11  20  40  66  97 125 170 215 271 328 403
#     4  10  22  35  68  99 127 159 226 273 324 382
#     4  11  23  39  66  95 126 179 229 269 315 388
#     4  11  22  40  66  95 131 169 225 275 318 390
#     4  10  24  40  64  96 135 170 211 274 342 390
#     4  11  23  39  65  97 131 167 226 273 323 387
#     4  10  24  41  66  91 137 176 211 273 333 387
#
# _framework density 25.170441
#
# number of rings (size 3 to 8) (size 9 to 14) (size 15 to 20)
#    0.750    0.750    3.750    0.750    5.250    1.500 
#    0.000    1.875    0.000    3.750    0.000    0.000 
#    0.000    0.000    0.000    0.000    0.000    0.000 
#
# Total GULP energy -89303.065684 kJ/mol
# GULP energy per Si atom -5581.441605 kJ/mol
# Density = 2.511315 g / cm^3
# Si number density = 25.170441 Si / 1000 Ang^3
#
#
#
# Elastic Constant Matrix: (Units=GPa)
#
#
# Indices 1 2 3 4 5 6 
#
# 1 110.5023 -1.7069 24.3737 5.1102 -12.7913 18.4584
# 2 -1.7069 77.4528 23.7117 0.1406 -10.5646 23.5967
# 3 24.3737 23.7117 88.5064 2.9317 -14.1826 19.3464
# 4 5.1102 0.1406 2.9317 37.8860 17.0121 4.5025
# 5 -12.7913 -10.5646 -14.1826 17.0121 36.2750 -2.7187
# 6 18.4584 23.5967 19.3464 4.5025 -2.7187 41.0570
#
#
#
# Elastic Compliance Matrix: (Units=1/GPa)
#
#
# Indices 1 2 3 4 5 6 
#
# 1 0.011114 0.003110 -0.001819 -0.003061 0.005156 -0.005250
# 2 0.003110 0.017417 -0.002529 -0.001434 0.005124 -0.009720
# 3 -0.001819 -0.002529 0.014225 -0.002719 0.005175 -0.003791
# 4 -0.003061 -0.001434 -0.002719 0.036030 -0.019590 -0.001767
# 5 0.005156 0.005124 0.005175 -0.019590 0.041880 -0.002780
# 6 -0.005250 -0.009720 -0.003791 -0.001767 -0.002780 0.034099
#
#
# Mechanical properties :
#
#
# Convention : Reuss Voigt Hill
#
# Bulk Modulus (GPa) = 24.82634 41.02427 32.92531
# Shear Modulus (GPa) = 29.29681 38.38247 33.83964
#
# Velocity S-wave (km/s) = 3.41535 3.90924 3.67061
# Velocity P-wave (km/s) = 5.04357 6.05889 5.57439
#
# Compressibility (1/GPa) = 0.04027980
#
# Stress axis : x y z
#
# Youngs Moduli (GPa) = 89.97556 57.41610 70.29861
#
# Poissons Ratio (x) = -0.17856 0.12785
# Poissons Ratio (y) = -0.27982 0.17781
# Poissons Ratio (z) = 0.16364 0.14522
#
# Static dielectric constant tensor:
#      x y z
#    x 2.025770 -0.022450 0.049610 
#    y -0.022450 2.130830 -0.041360 
#    z 0.049610 -0.041360 2.073310 
# 
# From -- ./inp_files/98328.got.cif
#   From: 2010.05.17/outbox.cif.g08.bks.cpg/sg2_50_cif.got.tgz:98328.got - 2010.06.03 11:33:40.
