data_PCOD9020398
_publ_section_title
;
Structure prediction by ZEFSAII (Michael W. Deem and Ramdas Pophale) SiO2 
 PCOD9020398
Probable space group: P -1
;
_chemical_formula_sum "Si O2"
_cell_formula_units_Z 16
_cell_length_a 12.017634
_cell_length_b 9.079441
_cell_length_c 23.501503
_cell_angle_alpha 61.705494
_cell_angle_beta 20.465881
_cell_angle_gamma 60.093943
_cell_volume 777.025494
_symmetry_space_group_name_H-M "P -1"
_symmetry_group_IT_number 2
_symmetry_cell_setting 'triclinic'
loop_
_space_group_symop_operation_xyz
x,y,z
-x,-y,-z
loop_
_atom_site_type_symbol
_atom_site_label
_atom_site_fract_x
_atom_site_fract_y
_atom_site_fract_z
Si Si1 0.345505 0.842915 0.215760
Si Si2 0.477206 0.547600 0.569046
Si Si3 0.488246 0.723172 0.902849
Si Si4 0.720537 0.801803 0.262526
Si Si5 0.344191 0.979995 0.309041
Si Si6 0.322301 0.915779 0.549376
Si Si7 0.173669 0.624310 0.243218
Si Si8 0.377951 0.904094 0.023124
O O1 0.355094 0.840384 0.279402
O O2 0.325050 0.674895 0.220546
O O3 0.650621 0.933812 0.035624
O O4 0.007940 0.965134 0.335380
O O5 0.500000 0.500000 0.500000
O O6 0.360510 0.383604 0.680217
O O7 0.272397 0.736738 0.633668
O O8 0.825401 0.569485 0.422878
O O9 0.595328 0.531667 0.868237
O O10 0.610979 0.764276 0.899035
O O11 0.611845 0.847009 0.775534
O O12 0.105596 0.776426 0.086213
O O13 0.601966 0.926620 0.244633
O O14 0.536811 0.870770 0.396723
O O15 0.000000 0.000000 0.500000
O O16 0.500000 0.000000 0.500000
O O17 0.148504 0.790588 0.184529
O O18 0.500000 0.000000 0.000000
#
# Coordination Sequence:
#
# PCOD9020398 Si02
#       8
#     2   2   2   2   2   2   2   2
#     4  10  22  38  63  92 120 167 204 254 300 372
#     4  10  22  35  59  90 122 158 197 247 304 365
#     4  11  24  38  62  92 123 163 205 255 306 367
#     4  11  24  42  63  91 123 163 204 257 308 361
#     4  11  22  45  66  87 118 165 215 250 303 369
#     4  11  21  38  63  93 129 156 204 252 312 362
#     4  11  21  40  57  92 130 159 203 248 316 367
#     4   9  20  34  58  88 125 160 195 246 306 362
#
# _framework density 20.591343999999999
#
# number of rings (size 3 to 8) (size 9 to 14) (size 15 to 20)
#    0.000    1.500    2.500    3.000    8.750    0.000 
#    0.000    4.375    0.000    0.000    0.000    0.000 
#    0.000    0.000    0.000    0.000    0.000    0.000 
#
# Total GULP energy -89121.407552 kJ/mol
# GULP energy per Si atom -5570.087972 kJ/mol
# Density = 2.054448 g / cm^3
# Si number density = 20.591344 Si / 1000 Ang^3
#
#
#
# Elastic Constant Matrix: (Units=GPa)
#
#
# Indices 1 2 3 4 5 6 
#
# 1 113.9993 36.2779 26.6481 0.6820 9.8286 22.9918
# 2 36.2779 98.5850 30.0720 -4.7035 -0.9800 29.3899
# 3 26.6481 30.0720 101.7027 -12.1830 1.0789 4.2767
# 4 0.6820 -4.7035 -12.1830 40.9781 -1.1257 -1.9428
# 5 9.8286 -0.9800 1.0789 -1.1257 36.4624 -1.0815
# 6 22.9918 29.3899 4.2767 -1.9428 -1.0815 40.2040
#
#
#
# Elastic Compliance Matrix: (Units=1/GPa)
#
#
# Indices 1 2 3 4 5 6 
#
# 1 0.011220 -0.002116 -0.002248 -0.001413 -0.003200 -0.004785
# 2 -0.002116 0.014701 -0.003380 0.000306 0.000804 -0.009141
# 3 -0.002248 -0.003380 0.011696 0.003263 0.000349 0.002680
# 4 -0.001413 0.000306 0.003263 0.025534 0.001125 0.001501
# 5 -0.003200 0.000804 0.000349 0.001125 0.028394 0.002024
# 6 -0.004785 -0.009141 0.002680 0.001501 0.002024 0.034134
#
#
# Mechanical properties :
#
#
# Convention : Reuss Voigt Hill
#
# Bulk Modulus (GPa) = 45.19047 55.58702 50.38874
# Shear Modulus (GPa) = 33.66031 38.28149 35.97090
#
# Velocity S-wave (km/s) = 4.04751 4.31641 4.18412
# Velocity P-wave (km/s) = 6.62096 7.20388 6.91856
#
# Compressibility (1/GPa) = 0.02212856
#
# Stress axis : x y z
#
# Youngs Moduli (GPa) = 89.12385 68.02423 85.50216
#
# Poissons Ratio (x) = 0.14392 0.19225
# Poissons Ratio (y) = 0.18856 0.28898
# Poissons Ratio (z) = 0.20039 0.22991
#
# Static dielectric constant tensor:
#      x y z
#    x 1.807040 0.034130 -0.057610 
#    y 0.034130 1.756360 -0.019090 
#    z -0.057610 -0.019090 1.856220 
# 
# From -- ./inp_files/239159.got.cif
#   From: 2010.05.17/outbox.cif.g08.bks.cpg/sg2_120_cif.got.tgz:239159.got - 2010.06.03 11:33:40.
