data_PCOD9020089
_publ_section_title
;
Structure prediction by ZEFSAII (Michael W. Deem and Ramdas Pophale) SiO2 
 PCOD9020089
Probable space group: P -1
;
_chemical_formula_sum "Si O2"
_cell_formula_units_Z 13
_cell_length_a 8.050388
_cell_length_b 14.923369
_cell_length_c 5.320931
_cell_angle_alpha 91.807827
_cell_angle_beta 117.120176
_cell_angle_gamma 113.627527
_cell_volume 502.956110
_symmetry_space_group_name_H-M "P -1"
_symmetry_group_IT_number 2
_symmetry_cell_setting 'triclinic'
loop_
_space_group_symop_operation_xyz
x,y,z
-x,-y,-z
loop_
_atom_site_type_symbol
_atom_site_label
_atom_site_fract_x
_atom_site_fract_y
_atom_site_fract_z
Si Si1 0.733956 0.364881 0.437747
Si Si2 0.047031 0.729168 0.105604
Si Si3 0.468539 0.300797 0.760440
Si Si4 0.286332 0.436546 0.507798
Si Si5 0.297315 0.922847 0.011448
Si Si6 0.069607 0.139240 0.634804
Si Si7 0.000000 0.000000 0.000000
O O1 0.904794 0.330899 0.645025
O O2 0.582428 0.329132 0.575121
O O3 0.788098 0.482079 0.449896
O O4 0.618388 0.312215 0.097702
O O5 0.914412 0.783153 0.125868
O O6 0.258770 0.823045 0.141086
O O7 0.901708 0.647009 0.795266
O O8 0.365557 0.376557 0.744417
O O9 0.274958 0.189114 0.607587
O O10 0.500000 0.500000 0.500000
O O11 0.120631 0.873031 0.669633
O O12 0.500000 0.000000 0.000000
O O13 0.214218 0.981623 0.146564
O O14 0.060145 0.046086 0.768546
#
# Coordination Sequence:
#
# PCOD9020089 Si02
#       7
#     2   2   2   2   2   2   1
#     4  11  26  41  72 110 148 196 249 307 373 446
#     4  11  25  45  68 107 148 189 246 316 376 444
#     4  11  24  44  72 103 147 199 246 303 373 454
#     4  10  21  46  70 104 147 198 249 300 371 451
#     4  11  26  47  72 106 146 191 251 320 387 457
#     4  11  24  45  71  99 144 191 249 307 379 458
#     4  10  26  44  72 102 138 192 250 310 382 462
#
# _framework density 25.847186000000001
#
# number of rings (size 3 to 8) (size 9 to 14) (size 15 to 20)
#    0.000    1.231    1.538    3.231    6.462    4.923 
#    0.000    4.615    0.000    0.000    0.000    0.000 
#    0.000    0.000    0.000    0.000    0.000    0.000 
#
# Total GULP energy -72505.115776 kJ/mol
# GULP energy per Si atom -5577.316598 kJ/mol
# Density = 2.578836 g / cm^3
# Si number density = 25.847186 Si / 1000 Ang^3
#
#
#
# Elastic Constant Matrix: (Units=GPa)
#
#
# Indices 1 2 3 4 5 6 
#
# 1 104.4052 28.2205 3.5256 6.0462 0.0852 7.0483
# 2 28.2205 105.0132 38.4668 -28.2456 -6.2592 26.4352
# 3 3.5256 38.4668 111.8762 -16.2178 4.9054 0.7352
# 4 6.0462 -28.2456 -16.2178 53.1127 2.7839 5.5510
# 5 0.0852 -6.2592 4.9054 2.7839 28.1558 -6.4693
# 6 7.0483 26.4352 0.7352 5.5510 -6.4693 45.4138
#
#
#
# Elastic Compliance Matrix: (Units=1/GPa)
#
#
# Indices 1 2 3 4 5 6 
#
# 1 0.010882 -0.004472 0.000700 -0.003507 -0.000513 0.001258
# 2 -0.004472 0.017682 -0.004546 0.009549 0.001381 -0.010496
# 3 0.000700 -0.004546 0.010677 0.000693 -0.002499 0.001924
# 4 -0.003507 0.009549 0.000693 0.025534 -0.002464 -0.008497
# 5 -0.000513 0.001381 -0.002499 -0.002464 0.037649 0.004981
# 6 0.001258 -0.010496 0.001924 -0.008497 0.004981 0.029651
#
#
# Mechanical properties :
#
#
# Convention : Reuss Voigt Hill
#
# Bulk Modulus (GPa) = 44.23594 51.30225 47.76909
# Shear Modulus (GPa) = 32.00106 42.07526 37.03816
#
# Velocity S-wave (km/s) = 3.52246 4.03904 3.78956
# Velocity P-wave (km/s) = 5.80476 6.45315 6.13752
#
# Compressibility (1/GPa) = 0.02260605
#
# Stress axis : x y z
#
# Youngs Moduli (GPa) = 91.89777 56.55353 93.66038
#
# Poissons Ratio (x) = 0.25288 -0.06559
# Poissons Ratio (y) = 0.41092 0.42580
# Poissons Ratio (z) = -0.06436 0.25710
#
# Static dielectric constant tensor:
#      x y z
#    x 2.176030 0.010680 -0.024140 
#    y 0.010680 2.128530 0.038380 
#    z -0.024140 0.038380 1.968550 
# 
# From -- ./inp_files/34250.got.cif
#   From: 2010.05.17/outbox.cif.g08.bks.cpg/sg2_18_cif.got.tgz:34250.got - 2010.06.03 11:33:40.
