data_PCOD9020828
_publ_section_title
;
Structure prediction by ZEFSAII (Michael W. Deem and Ramdas Pophale) SiO2 
 PCOD9020828
Probable space group: P -1
;
_chemical_formula_sum "Si O2"
_cell_formula_units_Z 16
_cell_length_a 9.880212
_cell_length_b 9.175637
_cell_length_c 10.542369
_cell_angle_alpha 82.597806
_cell_angle_beta 137.442710
_cell_angle_gamma 93.734934
_cell_volume 640.376058
_symmetry_space_group_name_H-M "P -1"
_symmetry_group_IT_number 2
_symmetry_cell_setting 'triclinic'
loop_
_space_group_symop_operation_xyz
x,y,z
-x,-y,-z
loop_
_atom_site_type_symbol
_atom_site_label
_atom_site_fract_x
_atom_site_fract_y
_atom_site_fract_z
Si Si1 0.875712 0.401746 0.778204
Si Si2 0.139969 0.202136 0.600498
Si Si3 0.586084 0.901653 0.414154
Si Si4 0.538164 0.639741 0.096539
Si Si5 0.410580 0.779163 0.562402
Si Si6 0.135101 0.884094 0.026090
Si Si7 0.305829 0.456681 0.133056
Si Si8 0.203770 0.873998 0.786494
O O1 0.755700 0.331642 0.588026
O O2 0.897960 0.268838 0.910094
O O3 0.747062 0.522063 0.757075
O O4 0.099744 0.454676 0.912298
O O5 0.273653 0.197631 0.566252
O O6 0.229976 0.327667 0.732988
O O7 0.916238 0.212007 0.394278
O O8 0.189789 0.043859 0.716972
O O9 0.542021 0.829369 0.526728
O O10 0.366008 0.924691 0.197997
O O11 0.676010 0.063014 0.468482
O O12 0.435195 0.590139 0.161820
O O13 0.500000 0.500000 0.000000
O O14 0.418348 0.789715 0.956165
O O15 0.559637 0.692718 0.770036
O O16 0.099813 0.871183 0.853645
O O17 0.000000 0.000000 0.000000
#
# Coordination Sequence:
#
# PCOD9020828 Si02
#       8
#     2   2   2   2   2   2   2   2
#     4  10  22  39  60  93 136 171 219 272 348 406
#     4  11  26  47  74 101 135 190 235 286 354 403
#     4  10  22  40  66 101 136 177 230 282 348 404
#     4  12  27  48  71  98 139 184 237 290 340 416
#     4  10  22  37  60 100 135 172 222 282 334 415
#     4  11  22  40  68 102 137 174 218 285 347 407
#     4  11  23  41  62  95 128 187 218 272 354 402
#     4  11  26  48  73 101 140 182 237 293 341 414
#
# _framework density 24.985319
#
# number of rings (size 3 to 8) (size 9 to 14) (size 15 to 20)
#    0.000    1.250    2.500    2.250    8.750    2.500 
#    2.250    0.000    0.000    0.000    0.000    0.000 
#    0.000    0.000    0.000    0.000    0.000    0.000 
#
# Total GULP energy -89598.956621 kJ/mol
# GULP energy per Si atom -5599.934789 kJ/mol
# Density = 2.492845 g / cm^3
# Si number density = 24.985319 Si / 1000 Ang^3
#
#
#
# Elastic Constant Matrix: (Units=GPa)
#
#
# Indices 1 2 3 4 5 6 
#
# 1 48.4493 -3.0079 15.7370 3.9946 -6.6893 0.4953
# 2 -3.0079 64.5895 25.6285 21.7196 2.7310 -7.0498
# 3 15.7370 25.6285 87.6120 13.7869 8.6700 8.4415
# 4 3.9946 21.7196 13.7869 40.9373 7.0860 -2.5452
# 5 -6.6893 2.7310 8.6700 7.0860 27.7014 8.9412
# 6 0.4953 -7.0498 8.4415 -2.5452 8.9412 31.6860
#
#
#
# Elastic Compliance Matrix: (Units=1/GPa)
#
#
# Indices 1 2 3 4 5 6 
#
# 1 0.024335 0.004447 -0.005782 -0.004304 0.008544 -0.000607
# 2 0.004447 0.022066 -0.006362 -0.009976 0.001750 0.005240
# 3 -0.005782 -0.006362 0.015244 -0.000782 -0.003940 -0.004337
# 4 -0.004304 -0.009976 -0.000782 0.032174 -0.009074 0.003201
# 5 0.008544 0.001750 -0.003940 -0.009074 0.045503 -0.012263
# 6 -0.000607 0.005240 -0.004337 0.003201 -0.012263 0.037608
#
#
# Mechanical properties :
#
#
# Convention : Reuss Voigt Hill
#
# Bulk Modulus (GPa) = 21.62048 30.81844 26.21946
# Shear Modulus (GPa) = 24.06846 30.88447 27.47647
#
# Velocity S-wave (km/s) = 3.10708 3.51964 3.31978
# Velocity P-wave (km/s) = 4.64155 5.37388 5.02108
#
# Compressibility (1/GPa) = 0.04625245
#
# Stress axis : x y z
#
# Youngs Moduli (GPa) = 41.09317 45.31786 65.59793
#
# Poissons Ratio (x) = -0.20153 0.37927
# Poissons Ratio (y) = -0.18274 0.41733
# Poissons Ratio (z) = 0.23759 0.28831
#
# Static dielectric constant tensor:
#      x y z
#    x 2.021160 -0.042740 -0.023590 
#    y -0.042740 1.983150 0.058690 
#    z -0.023590 0.058690 1.999120 
# 
# From -- ./inp_files/308687.got.cif
#   From: 2010.05.17/outbox.cif.g08.bks.cpg/sg2_155_cif.got.tgz:308687.got - 2010.06.03 11:33:40.
