data_PCOD9020726
_publ_section_title
;
Structure prediction by ZEFSAII (Michael W. Deem and Ramdas Pophale) SiO2 
 PCOD9020726
Probable space group: P -1
;
_chemical_formula_sum "Si O2"
_cell_formula_units_Z 16
_cell_length_a 12.934822
_cell_length_b 9.342325
_cell_length_c 9.971851
_cell_angle_alpha 78.975815
_cell_angle_beta 145.167247
_cell_angle_gamma 99.809351
_cell_volume 675.387516
_symmetry_space_group_name_H-M "P -1"
_symmetry_group_IT_number 2
_symmetry_cell_setting 'triclinic'
loop_
_space_group_symop_operation_xyz
x,y,z
-x,-y,-z
loop_
_atom_site_type_symbol
_atom_site_label
_atom_site_fract_x
_atom_site_fract_y
_atom_site_fract_z
Si Si1 0.227038 0.926750 0.750363
Si Si2 0.792928 0.537773 0.300513
Si Si3 0.082609 0.212321 0.426026
Si Si4 0.437926 0.134212 0.500020
Si Si5 0.718008 0.386365 0.700227
Si Si6 0.502593 0.922098 0.821770
Si Si7 0.897504 0.688740 0.881627
Si Si8 0.481957 0.609250 0.768754
O O1 0.397466 0.879249 0.853204
O O2 0.115227 0.790904 0.714485
O O3 0.125905 0.041316 0.525712
O O4 0.299386 0.022426 0.934998
O O5 0.794076 0.685632 0.365243
O O6 0.677232 0.426469 0.288703
O O7 0.000000 0.500000 0.500000
O O8 0.671936 0.556692 0.036061
O O9 0.084666 0.274465 0.266433
O O10 0.591404 0.261983 0.653960
O O11 0.248030 0.199113 0.240341
O O12 0.500000 0.000000 0.500000
O O13 0.413639 0.059748 0.632414
O O14 0.808880 0.527721 0.842088
O O15 0.589349 0.450500 0.436892
O O16 0.897495 0.308694 0.846613
O O17 0.498235 0.783596 0.746485
#
# Coordination Sequence:
#
# PCOD9020726 Si02
#       8
#     2   2   2   2   2   2   2   2
#     4  10  22  36  70  95 131 171 210 275 346 403
#     4  11  24  42  66  98 133 173 221 277 341 408
#     4  11  20  42  64  98 128 170 221 274 335 406
#     4  12  25  44  69 101 136 183 232 286 347 400
#     4  11  25  47  69  97 135 187 233 283 338 404
#     4  11  21  42  62 100 136 170 221 280 341 405
#     4  11  25  47  70  98 138 181 242 284 333 416
#     4  11  23  43  66  96 136 173 222 279 339 405
#
# _framework density 23.690100999999999
#
# number of rings (size 3 to 8) (size 9 to 14) (size 15 to 20)
#    0.000    1.000    5.000    1.875    0.000    1.500 
#    4.500    0.000    0.000    0.000    0.000    0.000 
#    0.000    0.000    0.000    0.000    0.000    0.000 
#
# Total GULP energy -89369.367859 kJ/mol
# GULP energy per Si atom -5585.585491 kJ/mol
# Density = 2.363618 g / cm^3
# Si number density = 23.690101 Si / 1000 Ang^3
#
#
#
# Elastic Constant Matrix: (Units=GPa)
#
#
# Indices 1 2 3 4 5 6 
#
# 1 81.1665 33.1602 24.2433 1.0484 20.5231 17.4459
# 2 33.1602 103.6815 18.2554 -0.6579 10.2644 22.6359
# 3 24.2433 18.2554 105.9347 -0.9492 25.9326 6.6520
# 4 1.0484 -0.6579 -0.9492 36.0830 -4.1701 3.6471
# 5 20.5231 10.2644 25.9326 -4.1701 36.1448 -0.1224
# 6 17.4459 22.6359 6.6520 3.6471 -0.1224 30.5514
#
#
#
# Elastic Compliance Matrix: (Units=1/GPa)
#
#
# Indices 1 2 3 4 5 6 
#
# 1 0.017638 -0.002967 -0.000946 -0.000818 -0.008614 -0.007605
# 2 -0.002967 0.012490 -0.000675 0.000907 -0.001299 -0.007527
# 3 -0.000946 -0.000675 0.011764 -0.000421 -0.007765 -0.001502
# 4 -0.000818 0.000907 -0.000421 0.028535 0.003789 -0.003504
# 5 -0.008614 -0.001299 -0.007765 0.003789 0.038959 0.007276
# 6 -0.007605 -0.007527 -0.001502 -0.003504 0.007276 0.043425
#
#
# Mechanical properties :
#
#
# Convention : Reuss Voigt Hill
#
# Bulk Modulus (GPa) = 30.56553 49.12229 39.84391
# Shear Modulus (GPa) = 28.91960 34.89743 31.90852
#
# Velocity S-wave (km/s) = 3.49771 3.84224 3.67401
# Velocity P-wave (km/s) = 5.40761 6.36114 5.90366
#
# Compressibility (1/GPa) = 0.03271659
#
# Stress axis : x y z
#
# Youngs Moduli (GPa) = 56.69522 80.06321 85.00502
#
# Poissons Ratio (x) = 0.23752 0.08046
# Poissons Ratio (y) = 0.16820 0.05735
# Poissons Ratio (z) = 0.05366 0.05401
#
# Static dielectric constant tensor:
#      x y z
#    x 2.001590 -0.055150 0.008870 
#    y -0.055150 1.953230 -0.021160 
#    z 0.008870 -0.021160 1.923090 
# 
# From -- ./inp_files/447287.got.cif
#   From: 2010.05.17/outbox.cif.g08.bks.cpg/sg2_224_cif.got.tgz:447287.got - 2010.06.03 11:33:40.
