data_PCOD9020542
_publ_section_title
;
Structure prediction by ZEFSAII (Michael W. Deem and Ramdas Pophale) SiO2 
 PCOD9020542
Probable space group: P -1
;
_chemical_formula_sum "Si O2"
_cell_formula_units_Z 16
_cell_length_a 17.306972
_cell_length_b 20.441940
_cell_length_c 11.232111
_cell_angle_alpha 41.797716
_cell_angle_beta 148.522611
_cell_angle_gamma 159.194717
_cell_volume 707.761584
_symmetry_space_group_name_H-M "P -1"
_symmetry_group_IT_number 2
_symmetry_cell_setting 'triclinic'
loop_
_space_group_symop_operation_xyz
x,y,z
-x,-y,-z
loop_
_atom_site_type_symbol
_atom_site_label
_atom_site_fract_x
_atom_site_fract_y
_atom_site_fract_z
Si Si1 0.842610 0.284722 0.138501
Si Si2 0.293211 0.888462 0.264970
Si Si3 0.920111 0.436311 0.618057
Si Si4 0.501566 0.796522 0.021365
Si Si5 0.586804 0.360702 0.470966
Si Si6 0.344460 0.025879 0.678510
Si Si7 0.674955 0.611206 0.781105
Si Si8 0.179689 0.217124 0.521131
O O1 0.653963 0.259352 0.987736
O O2 0.171636 0.501452 0.292897
O O3 0.796626 0.152392 0.320099
O O4 0.675661 0.182295 0.933280
O O5 0.289802 0.777358 0.355228
O O6 0.500000 0.000000 0.500000
O O7 0.399719 0.046129 0.122743
O O8 0.947837 0.710450 0.061425
O O9 0.771703 0.443626 0.482114
O O10 0.000000 0.500000 0.500000
O O11 0.231056 0.595356 0.869627
O O12 0.749869 0.858002 0.277596
O O13 0.371529 0.146058 0.489254
O O14 0.423916 0.367788 0.276685
O O15 0.129834 0.924877 0.644866
O O16 0.406180 0.394561 0.672433
O O17 0.768289 0.715986 0.635895
#
# Coordination Sequence:
#
# PCOD9020542 Si02
#       8
#     2   2   2   2   2   2   2   2
#     4  10  22  36  59  96 133 175 212 268 329 398
#     4  12  24  43  73  97 129 177 235 278 332 404
#     4  11  24  46  69  98 129 175 231 283 336 396
#     4  11  22  41  69  96 132 175 220 277 337 395
#     4  11  23  41  66  93 135 171 226 278 334 396
#     4  11  21  38  60  95 138 176 216 262 330 405
#     4  11  24  43  66 105 138 181 221 271 341 397
#     4  11  23  41  69 100 145 178 216 271 335 415
#
# _framework density 22.606482
#
# number of rings (size 3 to 8) (size 9 to 14) (size 15 to 20)
#    0.000    1.000    3.750    3.375    0.000    3.500 
#    0.000    1.250    2.750    0.000    0.000    0.000 
#    0.000    0.000    0.000    0.000    0.000    0.000 
#
# Total GULP energy -89285.702567 kJ/mol
# GULP energy per Si atom -5580.356410 kJ/mol
# Density = 2.255503 g / cm^3
# Si number density = 22.606482 Si / 1000 Ang^3
#
#
#
# Elastic Constant Matrix: (Units=GPa)
#
#
# Indices 1 2 3 4 5 6 
#
# 1 104.1983 14.1445 41.9338 -7.1025 22.4348 -14.4183
# 2 14.1445 103.5784 14.7872 -4.3341 -6.9865 -24.8023
# 3 41.9338 14.7872 96.6927 12.4443 7.9756 -11.6946
# 4 -7.1025 -4.3341 12.4443 40.4624 -5.9775 0.7745
# 5 22.4348 -6.9865 7.9756 -5.9775 37.2855 -1.9594
# 6 -14.4183 -24.8023 -11.6946 0.7745 -1.9594 34.8766
#
#
#
# Elastic Compliance Matrix: (Units=1/GPa)
#
#
# Indices 1 2 3 4 5 6 
#
# 1 0.013935 -0.000751 -0.005396 0.002973 -0.006739 0.002973
# 2 -0.000751 0.012199 -0.001104 0.001906 0.003708 0.008160
# 3 -0.005396 -0.001104 0.013816 -0.005450 -0.000700 0.001698
# 4 0.002973 0.001906 -0.005450 0.027730 0.004200 0.000377
# 5 -0.006739 0.003708 -0.000700 0.004200 0.032463 0.001347
# 6 0.002973 0.008160 0.001698 0.000377 0.001347 0.036342
#
#
# Mechanical properties :
#
#
# Convention : Reuss Voigt Hill
#
# Bulk Modulus (GPa) = 39.29594 49.57783 44.43688
# Shear Modulus (GPa) = 31.35412 38.09850 34.72631
#
# Velocity S-wave (km/s) = 3.72822 4.10968 3.92359
# Velocity P-wave (km/s) = 5.99610 6.67066 6.34235
#
# Compressibility (1/GPa) = 0.02544792
#
# Stress axis : x y z
#
# Youngs Moduli (GPa) = 71.75923 81.97679 72.38202
#
# Poissons Ratio (x) = 0.06155 0.39057
# Poissons Ratio (y) = 0.05388 0.07992
# Poissons Ratio (z) = 0.38721 0.09051
#
# Static dielectric constant tensor:
#      x y z
#    x 1.904500 -0.046110 -0.075330 
#    y -0.046110 1.927310 0.024720 
#    z -0.075330 0.024720 1.900520 
# 
# From -- ./inp_files/467111.got.cif
#   From: 2010.05.17/outbox.cif.g08.bks.cpg/sg2_234_cif.got.tgz:467111.got - 2010.06.03 11:33:40.
