data_PCOD9020453
_publ_section_title
;
Structure prediction by ZEFSAII (Michael W. Deem and Ramdas Pophale) SiO2 
 PCOD9020453
Probable space group: P -1
;
_chemical_formula_sum "Si O2"
_cell_formula_units_Z 16
_cell_length_a 19.803259
_cell_length_b 8.792913
_cell_length_c 12.268483
_cell_angle_alpha 100.610615
_cell_angle_beta 32.180555
_cell_angle_gamma 124.667685
_cell_volume 687.240635
_symmetry_space_group_name_H-M "P -1"
_symmetry_group_IT_number 2
_symmetry_cell_setting 'triclinic'
loop_
_space_group_symop_operation_xyz
x,y,z
-x,-y,-z
loop_
_atom_site_type_symbol
_atom_site_label
_atom_site_fract_x
_atom_site_fract_y
_atom_site_fract_z
Si Si1 0.216202 0.297687 0.250488
Si Si2 0.653293 0.905258 0.976806
Si Si3 0.459504 0.566725 0.459275
Si Si4 0.704326 0.100096 0.703840
Si Si5 0.515759 0.309335 0.230499
Si Si6 0.955394 0.630187 0.353521
Si Si7 0.232659 0.583542 0.635122
Si Si8 0.386209 0.015801 0.583098
O O1 0.370172 0.301053 0.038633
O O2 0.205774 0.399077 0.381377
O O3 0.269869 0.460904 0.096892
O O4 0.000000 0.000000 0.500000
O O5 0.739957 0.051035 0.763149
O O6 0.443887 0.773212 0.297247
O O7 0.831088 0.119840 0.848656
O O8 0.500000 0.500000 0.500000
O O9 0.457093 0.428622 0.355997
O O10 0.270399 0.496711 0.670241
O O11 0.634607 0.862125 0.288523
O O12 0.879107 0.387485 0.464462
O O13 0.640838 0.921735 0.670650
O O14 0.500000 0.000000 0.000000
O O15 0.516514 0.211895 0.328475
O O16 0.941559 0.622473 0.241458
O O17 0.219484 0.747133 0.716194
O O18 0.500000 0.000000 0.500000
#
# Coordination Sequence:
#
# PCOD9020453 Si02
#       8
#     2   2   2   2   2   2   2   2
#     4  10  22  36  53  88 127 160 195 236 287 368
#     4  11  23  37  57  88 124 163 194 241 296 363
#     4   9  20  34  59  92 109 151 209 252 299 355
#     4  12  21  35  57  88 124 159 202 237 293 366
#     4  11  18  34  60  86 119 160 198 239 303 357
#     4  11  23  38  56  90 126 156 202 240 289 372
#     4  11  19  37  64  85 116 157 196 248 309 351
#     4   9  19  35  58  90 112 145 206 260 300 349
#
# _framework density 23.281509
#
# number of rings (size 3 to 8) (size 9 to 14) (size 15 to 20)
#    0.000    1.500    5.000    0.375    1.750    1.000 
#    0.000    0.000    0.000    7.500    0.000    0.000 
#    0.000    0.000    0.000    0.000    0.000    0.000 
#
# Total GULP energy -89132.789696 kJ/mol
# GULP energy per Si atom -5570.799356 kJ/mol
# Density = 2.322852 g / cm^3
# Si number density = 23.281509 Si / 1000 Ang^3
#
#
#
# Elastic Constant Matrix: (Units=GPa)
#
#
# Indices 1 2 3 4 5 6 
#
# 1 151.0522 51.3757 31.9788 -17.8125 37.8024 12.9585
# 2 51.3757 221.1266 36.8526 0.8494 9.9719 16.0355
# 3 31.9788 36.8526 62.4468 -13.6773 14.2134 -0.2414
# 4 -17.8125 0.8494 -13.6773 24.4733 1.5900 0.3350
# 5 37.8024 9.9719 14.2134 1.5900 29.1750 -6.3432
# 6 12.9585 16.0355 -0.2414 0.3350 -6.3432 42.4416
#
#
#
# Elastic Compliance Matrix: (Units=1/GPa)
#
#
# Indices 1 2 3 4 5 6 
#
# 1 0.014302 -0.002192 0.001423 0.012713 -0.020628 -0.006714
# 2 -0.002192 0.005615 -0.003692 -0.004016 0.002713 -0.001036
# 3 0.001423 -0.003692 0.023841 0.015363 -0.013253 -0.001006
# 4 0.012713 -0.004016 0.015363 0.060711 -0.027381 -0.006848
# 5 -0.020628 0.002713 -0.013253 -0.027381 0.071526 0.016104
# 6 -0.006714 -0.001036 -0.001006 -0.006848 0.016104 0.028458
#
#
# Mechanical properties :
#
#
# Convention : Reuss Voigt Hill
#
# Bulk Modulus (GPa) = 28.70602 75.00442 51.85522
# Shear Modulus (GPa) = 22.22340 40.17920 31.20130
#
# Velocity S-wave (km/s) = 3.09293 4.15878 3.66481
# Velocity P-wave (km/s) = 5.01116 7.43955 6.34266
#
# Compressibility (1/GPa) = 0.03483590
#
# Stress axis : x y z
#
# Youngs Moduli (GPa) = 69.92132 178.09126 41.94406
#
# Poissons Ratio (x) = 0.39032 -0.05969
# Poissons Ratio (y) = 0.15325 0.15487
# Poissons Ratio (z) = -0.09950 0.65758
#
# Static dielectric constant tensor:
#      x y z
#    x 1.942430 -0.000730 -0.047280 
#    y -0.000730 1.886370 0.064690 
#    z -0.047280 0.064690 1.922500 
# 
# From -- ./inp_files/284819.got.cif
#   From: 2010.05.17/outbox.cif.g08.bks.cpg/sg2_143_cif.got.tgz:284819.got - 2010.06.03 11:33:40.
