data_PCOD9020826
_publ_section_title
;
Structure prediction by ZEFSAII (Michael W. Deem and Ramdas Pophale) SiO2 
 PCOD9020826
Probable space group: P -1
;
_chemical_formula_sum "Si O2"
_cell_formula_units_Z 16
_cell_length_a 10.764490
_cell_length_b 8.710343
_cell_length_c 23.204636
_cell_angle_alpha 52.356768
_cell_angle_beta 157.511378
_cell_angle_gamma 124.745945
_cell_volume 658.856743
_symmetry_space_group_name_H-M "P -1"
_symmetry_group_IT_number 2
_symmetry_cell_setting 'triclinic'
loop_
_space_group_symop_operation_xyz
x,y,z
-x,-y,-z
loop_
_atom_site_type_symbol
_atom_site_label
_atom_site_fract_x
_atom_site_fract_y
_atom_site_fract_z
Si Si1 0.563716 0.699830 0.446492
Si Si2 0.719130 0.839379 0.916393
Si Si3 0.413133 0.186466 0.454024
Si Si4 0.653279 0.131861 0.128803
Si Si5 0.955299 0.532333 0.906575
Si Si6 0.541693 0.746059 0.098460
Si Si7 0.210027 0.674709 0.665099
Si Si8 0.385840 0.438965 0.612543
O O1 0.500000 0.500000 0.500000
O O2 0.484106 0.848751 0.427637
O O3 0.426412 0.693737 0.324363
O O4 0.944792 0.712093 0.592625
O O5 0.514464 0.865977 0.881013
O O6 0.487301 0.833286 0.760960
O O7 0.872886 0.626680 0.023673
O O8 0.000000 0.000000 0.000000
O O9 0.613385 0.362667 0.469605
O O10 0.022407 0.217211 0.274460
O O11 0.500000 0.000000 0.500000
O O12 0.668253 0.918822 0.153692
O O13 0.415289 0.235220 0.956349
O O14 0.582719 0.496587 0.739494
O O15 0.000000 0.500000 0.000000
O O16 0.145049 0.734539 0.932347
O O17 0.660949 0.541108 0.219823
O O18 0.967247 0.661888 0.509318
#
# Coordination Sequence:
#
# PCOD9020826 Si02
#       8
#     2   2   2   2   2   2   2   2
#     4   8  17  32  56  87 127 157 200 255 315 389
#     4  11  24  42  64  88 126 178 221 270 325 376
#     4  11  19  33  60 101 138 163 199 268 334 384
#     4  11  21  37  60  94 137 159 218 267 322 388
#     4  11  23  43  65  88 127 176 224 267 320 390
#     4  10  22  37  59  94 128 168 207 267 330 384
#     4   9  19  38  62  85 124 162 211 262 319 385
#     4   9  19  39  60  93 123 165 217 259 324 391
#
# _framework density 24.284490000000002
#
# number of rings (size 3 to 8) (size 9 to 14) (size 15 to 20)
#    0.750    1.250    2.500    1.500    0.000    4.000 
#    2.250    3.125    0.000    0.000    0.000    0.000 
#    0.000    0.000    0.000    0.000    0.000    0.000 
#
# Total GULP energy -89081.843572 kJ/mol
# GULP energy per Si atom -5567.615223 kJ/mol
# Density = 2.422922 g / cm^3
# Si number density = 24.284490 Si / 1000 Ang^3
#
#
#
# Elastic Constant Matrix: (Units=GPa)
#
#
# Indices 1 2 3 4 5 6 
#
# 1 70.5380 4.4140 30.1752 7.4092 -11.3490 -21.0531
# 2 4.4140 83.7922 20.0434 33.0717 -0.9372 -10.8909
# 3 30.1752 20.0434 98.4583 53.3888 -15.4935 -5.8265
# 4 7.4092 33.0717 53.3888 52.2186 -8.8653 3.2077
# 5 -11.3490 -0.9372 -15.4935 -8.8653 42.2347 11.6762
# 6 -21.0531 -10.8909 -5.8265 3.2077 11.6762 28.7033
#
#
#
# Elastic Compliance Matrix: (Units=1/GPa)
#
#
# Indices 1 2 3 4 5 6 
#
# 1 0.021276 0.001446 -0.007564 0.002836 -0.000433 0.014477
# 2 0.001446 0.021457 0.008478 -0.024380 -0.005539 0.015901
# 3 -0.007564 0.008478 0.030994 -0.036561 -0.000420 0.008217
# 4 0.002836 -0.024380 -0.036561 0.074929 0.010012 -0.027038
# 5 -0.000433 -0.005539 -0.000420 0.010012 0.029730 -0.015717
# 6 0.014477 0.015901 0.008217 -0.027038 -0.015717 0.062574
#
#
# Mechanical properties :
#
#
# Convention : Reuss Voigt Hill
#
# Bulk Modulus (GPa) = 12.74757 40.22819 26.48788
# Shear Modulus (GPa) = 19.05562 37.84174 28.44868
#
# Velocity S-wave (km/s) = 2.80426 3.95177 3.42640
# Velocity P-wave (km/s) = 3.96810 6.11746 5.15602
#
# Compressibility (1/GPa) = 0.07844630
#
# Stress axis : x y z
#
# Youngs Moduli (GPa) = 47.00233 46.60433 32.26421
#
# Poissons Ratio (x) = -0.06739 0.24405
# Poissons Ratio (y) = -0.06797 -0.27353
# Poissons Ratio (z) = 0.35554 -0.39511
#
# Static dielectric constant tensor:
#      x y z
#    x 2.096150 0.036760 -0.046830 
#    y 0.036760 2.001040 0.010150 
#    z -0.046830 0.010150 2.118810 
# 
# From -- ./inp_files/618220.got.cif
#   From: 2010.05.17/outbox.cif.g08.bks.cpg/sg2_310_cif.got.tgz:618220.got - 2010.06.03 11:33:40.
