data_PCOD9020427
_publ_section_title
;
Structure prediction by ZEFSAII (Michael W. Deem and Ramdas Pophale) SiO2 
 PCOD9020427
Probable space group: P -1
;
_chemical_formula_sum "Si O2"
_cell_formula_units_Z 14
_cell_length_a 14.600932
_cell_length_b 8.608027
_cell_length_c 5.107705
_cell_angle_alpha 65.607257
_cell_angle_beta 94.807516
_cell_angle_gamma 73.091919
_cell_volume 543.851793
_symmetry_space_group_name_H-M "P -1"
_symmetry_group_IT_number 2
_symmetry_cell_setting 'triclinic'
loop_
_space_group_symop_operation_xyz
x,y,z
-x,-y,-z
loop_
_atom_site_type_symbol
_atom_site_label
_atom_site_fract_x
_atom_site_fract_y
_atom_site_fract_z
Si Si1 0.840510 0.015802 0.013702
Si Si2 0.372102 0.774797 0.297709
Si Si3 0.976874 0.167460 0.178688
Si Si4 0.510713 0.287188 0.136014
Si Si5 0.671712 0.575642 0.324918
Si Si6 0.189237 0.280248 0.448733
Si Si7 0.129976 0.494460 0.773872
O O1 0.819017 0.907591 0.329583
O O2 0.876266 0.178996 0.000732
O O3 0.935552 0.885426 0.970611
O O4 0.739522 0.092380 0.778136
O O5 0.447923 0.794324 0.517529
O O6 0.407961 0.803607 0.000957
O O7 0.370793 0.567818 0.456964
O O8 0.956111 0.344855 0.224181
O O9 0.000000 0.000000 0.500000
O O10 0.407099 0.296988 0.985961
O O11 0.500000 0.500000 0.000000
O O12 0.709548 0.693826 0.454153
O O13 0.771663 0.456681 0.278589
O O14 0.166516 0.333011 0.107978
O O15 0.114630 0.428735 0.528327
#
# Coordination Sequence:
#
# PCOD9020427 Si02
#       7
#     2   2   2   2   2   2   2
#     4  11  27  44  64  98 133 167 220 267 330 381
#     4  11  23  38  66  95 129 168 215 270 316 374
#     4  11  26  44  71  95 127 172 217 275 320 393
#     4  10  22  35  64 100 124 167 218 266 312 379
#     4   9  21  39  67  94 131 164 218 262 316 378
#     4  10  25  42  67  95 135 175 209 266 321 392
#     4  10  24  42  69  93 131 173 213 264 323 382
#
# _framework density 25.742307
#
# number of rings (size 3 to 8) (size 9 to 14) (size 15 to 20)
#    0.857    0.857    0.000    3.429   18.000    1.143 
#    0.000    1.429    0.000    0.000    0.000    0.000 
#    0.000    0.000    0.000    0.000    0.000    0.000 
#
# Total GULP energy -78371.091288 kJ/mol
# GULP energy per Si atom -5597.935092 kJ/mol
# Density = 2.568372 g / cm^3
# Si number density = 25.742307 Si / 1000 Ang^3
#
#
#
# Elastic Constant Matrix: (Units=GPa)
#
#
# Indices 1 2 3 4 5 6 
#
# 1 89.0820 26.4415 13.2308 4.5461 11.7266 -1.3353
# 2 26.4415 60.8298 10.2777 14.3550 5.6800 1.4829
# 3 13.2308 10.2777 83.8379 0.6271 -9.0361 4.0959
# 4 4.5461 14.3550 0.6271 35.0476 -2.7321 0.2928
# 5 11.7266 5.6800 -9.0361 -2.7321 45.2028 4.9616
# 6 -1.3353 1.4829 4.0959 0.2928 4.9616 40.1868
#
#
#
# Elastic Compliance Matrix: (Units=1/GPa)
#
#
# Indices 1 2 3 4 5 6 
#
# 1 0.013540 -0.005325 -0.001908 0.000187 -0.003351 0.001253
# 2 -0.005325 0.021199 -0.001903 -0.008118 -0.002104 -0.000446
# 3 -0.001908 -0.001903 0.012925 0.001089 0.003577 -0.001760
# 4 0.000187 -0.008118 0.001089 0.032065 0.003175 -0.000431
# 5 -0.003351 -0.002104 0.003577 0.003175 0.024542 -0.003451
# 6 0.001253 -0.000446 -0.001760 -0.000431 -0.003451 0.025551
#
#
# Mechanical properties :
#
#
# Convention : Reuss Voigt Hill
#
# Bulk Modulus (GPa) = 34.02166 37.07219 35.54693
# Shear Modulus (GPa) = 31.66760 36.34077 34.00418
#
# Velocity S-wave (km/s) = 3.51119 3.76135 3.63842
# Velocity P-wave (km/s) = 5.44820 5.77029 5.61156
#
# Compressibility (1/GPa) = 0.02939304
#
# Stress axis : x y z
#
# Youngs Moduli (GPa) = 73.85578 47.17293 77.36666
#
# Poissons Ratio (x) = 0.25120 0.14760
# Poissons Ratio (y) = 0.39328 0.14720
# Poissons Ratio (z) = 0.14090 0.08975
#
# Static dielectric constant tensor:
#      x y z
#    x 2.057630 0.016880 0.026500 
#    y 0.016880 2.055630 -0.010560 
#    z 0.026500 -0.010560 1.990390 
# 
# From -- ./inp_files/89912.got.cif
#   From: 2010.05.17/outbox.cif.g08.bks.cpg/sg2_45_cif.got.tgz:89912.got - 2010.06.03 11:33:40.
