data_PCOD9020695
_publ_section_title
;
Structure prediction by ZEFSAII (Michael W. Deem and Ramdas Pophale) SiO2 
 PCOD9020695
Probable space group: P -1
;
_chemical_formula_sum "Si O2"
_cell_formula_units_Z 15
_cell_length_a 12.382551
_cell_length_b 10.836162
_cell_length_c 13.426419
_cell_angle_alpha 33.819501
_cell_angle_beta 60.960251
_cell_angle_gamma 85.858861
_cell_volume 642.474970
_symmetry_space_group_name_H-M "P -1"
_symmetry_group_IT_number 2
_symmetry_cell_setting 'triclinic'
loop_
_space_group_symop_operation_xyz
x,y,z
-x,-y,-z
loop_
_atom_site_type_symbol
_atom_site_label
_atom_site_fract_x
_atom_site_fract_y
_atom_site_fract_z
Si Si1 0.560390 0.578681 0.306696
Si Si2 0.806104 0.226320 0.579247
Si Si3 0.500000 0.000000 0.000000
Si Si4 0.566394 0.817712 0.792464
Si Si5 0.813428 0.373181 0.154895
Si Si6 0.045781 0.881576 0.975082
Si Si7 0.661773 0.076055 0.207565
Si Si8 0.915438 0.951943 0.814097
O O1 0.500000 0.500000 0.500000
O O2 0.761596 0.819049 0.047030
O O3 0.492370 0.284068 0.474715
O O4 0.489557 0.718563 0.201139
O O5 0.892407 0.520546 0.277183
O O6 0.692719 0.206726 0.725874
O O7 0.679848 0.936406 0.759769
O O8 0.939953 0.212924 0.571192
O O9 0.413151 0.800849 0.896249
O O10 0.681812 0.082082 0.480493
O O11 0.500000 0.500000 0.000000
O O12 0.741287 0.250205 0.158943
O O13 0.845328 0.670915 0.964046
O O14 0.000000 0.500000 0.000000
O O15 0.063651 0.030964 0.762011
O O16 0.200626 0.913255 0.912443
O O17 0.000000 0.000000 0.000000
#
# Coordination Sequence:
#
# PCOD9020695 Si02
#       8
#     2   2   1   2   2   2   2   2
#     4  11  22  41  67  97 134 177 227 286 343 413
#     4  11  24  45  68 100 142 179 235 291 355 415
#     4  10  22  36  66  96 128 176 222 276 340 402
#     4  12  26  44  72 109 141 181 243 298 358 433
#     4  12  24  46  71  98 141 189 231 292 361 422
#     4  12  25  46  69 102 144 189 235 289 356 430
#     4  12  24  42  73 100 139 186 235 289 356 421
#     4  11  23  44  69  96 139 182 230 292 349 423
#
# _framework density 23.347213
#
# number of rings (size 3 to 8) (size 9 to 14) (size 15 to 20)
#    0.000    0.533    4.000    4.400    3.733    2.667 
#    0.000    2.667    0.000    0.000    0.000    0.000 
#    0.000    0.000    0.000    0.000    0.000    0.000 
#
# Total GULP energy -83634.851630 kJ/mol
# GULP energy per Si atom -5575.656775 kJ/mol
# Density = 2.329407 g / cm^3
# Si number density = 23.347213 Si / 1000 Ang^3
#
#
#
# Elastic Constant Matrix: (Units=GPa)
#
#
# Indices 1 2 3 4 5 6 
#
# 1 109.8450 28.7931 23.2101 -21.5947 12.3532 -26.9192
# 2 28.7931 84.2186 7.1449 -19.7557 8.6954 -17.4479
# 3 23.2101 7.1449 34.7002 -13.7488 7.9524 -9.5857
# 4 -21.5947 -19.7557 -13.7488 35.0862 -9.2695 -0.7070
# 5 12.3532 8.6954 7.9524 -9.2695 36.2901 -6.2120
# 6 -26.9192 -17.4479 -9.5857 -0.7070 -6.2120 51.0543
#
#
#
# Elastic Compliance Matrix: (Units=1/GPa)
#
#
# Indices 1 2 3 4 5 6 
#
# 1 0.012915 -0.001631 -0.004613 0.005129 -0.000766 0.005364
# 2 -0.001631 0.015318 0.002901 0.008677 -0.000686 0.004957
# 3 -0.004613 0.002901 0.038878 0.013274 -0.003288 0.005642
# 4 0.005129 0.008677 0.013274 0.043524 0.006009 0.009496
# 5 -0.000766 -0.000686 -0.003288 0.006009 0.030675 0.002560
# 6 0.005364 0.004957 0.005642 0.009496 0.002560 0.025611
#
#
# Mechanical properties :
#
#
# Convention : Reuss Voigt Hill
#
# Bulk Modulus (GPa) = 16.54922 38.56222 27.55572
# Shear Modulus (GPa) = 25.80658 35.79382 30.80020
#
# Velocity S-wave (km/s) = 3.32827 3.91974 3.63605
# Velocity P-wave (km/s) = 4.67692 6.08593 5.42734
#
# Compressibility (1/GPa) = 0.06042582
#
# Stress axis : x y z
#
# Youngs Moduli (GPa) = 77.43011 65.28099 25.72133
#
# Poissons Ratio (x) = 0.10645 0.11866
# Poissons Ratio (y) = 0.12626 -0.07462
# Poissons Ratio (z) = 0.35721 -0.18938
#
# Static dielectric constant tensor:
#      x y z
#    x 1.571500 0.108640 -0.393190 
#    y 0.108640 1.842470 0.138860 
#    z -0.393190 0.138860 1.522880 
# 
# From -- ./inp_files/519479.got.cif
#   From: 2010.05.17/outbox.cif.g08.bks.cpg/sg2_260_cif.got.tgz:519479.got - 2010.06.03 11:33:40.
