data_PCOD9020836
_publ_section_title
;
Structure prediction by ZEFSAII (Michael W. Deem and Ramdas Pophale) SiO2 
 PCOD9020836
Probable space group: P -1
;
_chemical_formula_sum "Si O2"
_cell_formula_units_Z 16
_cell_length_a 16.042378
_cell_length_b 5.684365
_cell_length_c 8.895313
_cell_angle_alpha 70.712863
_cell_angle_beta 124.187093
_cell_angle_gamma 112.475658
_cell_volume 612.918843
_symmetry_space_group_name_H-M "P -1"
_symmetry_group_IT_number 2
_symmetry_cell_setting 'triclinic'
loop_
_space_group_symop_operation_xyz
x,y,z
-x,-y,-z
loop_
_atom_site_type_symbol
_atom_site_label
_atom_site_fract_x
_atom_site_fract_y
_atom_site_fract_z
Si Si1 0.364469 0.364858 0.063571
Si Si2 0.674827 0.228863 0.864127
Si Si3 0.390692 0.558307 0.717102
Si Si4 0.891507 0.163874 0.787567
Si Si5 0.722118 0.665597 0.619486
Si Si6 0.073365 0.381370 0.487894
Si Si7 0.065683 0.011005 0.813171
Si Si8 0.449667 0.089098 0.575838
O O1 0.294241 0.532432 0.039475
O O2 0.488622 0.402627 0.219508
O O3 0.311046 0.057820 0.063751
O O4 0.377304 0.474340 0.888300
O O5 0.717845 0.375830 0.724070
O O6 0.549463 0.178420 0.762342
O O7 0.312430 0.346424 0.584278
O O8 0.373621 0.841682 0.623432
O O9 0.864491 0.389961 0.608760
O O10 0.816992 0.888893 0.720370
O O11 0.896450 0.157378 0.978154
O O12 0.003654 0.161288 0.829273
O O13 0.618192 0.718219 0.579529
O O14 0.000000 0.500000 0.500000
O O15 0.008480 0.188500 0.335485
O O16 0.122757 0.218999 0.696813
O O17 0.500000 0.000000 0.500000
#
# Coordination Sequence:
#
# PCOD9020836 Si02
#       8
#     2   2   2   2   2   2   2   2
#     4  10  23  39  62  88 121 169 222 269 330 389
#     4  11  22  40  61  87 124 170 220 269 327 391
#     4  10  22  37  60  86 116 162 216 273 323 381
#     4  10  22  38  62 101 129 162 212 266 325 390
#     4  12  23  38  60  94 124 164 220 271 324 381
#     4   9  18  38  68  95 121 172 211 247 321 401
#     4   9  19  41  68  92 130 169 206 255 323 406
#     4  11  21  38  63  83 118 171 224 266 321 386
#
# _framework density 26.104600000000001
#
# number of rings (size 3 to 8) (size 9 to 14) (size 15 to 20)
#    0.000    1.750    2.500    2.250    1.750    2.500 
#    2.250    3.750    0.000    0.000    0.000    0.000 
#    0.000    0.000    0.000    0.000    0.000    0.000 
#
# Total GULP energy -89166.977443 kJ/mol
# GULP energy per Si atom -5572.936090 kJ/mol
# Density = 2.604518 g / cm^3
# Si number density = 26.104600 Si / 1000 Ang^3
#
#
#
# Elastic Constant Matrix: (Units=GPa)
#
#
# Indices 1 2 3 4 5 6 
#
# 1 72.2000 5.2157 30.8978 -14.3309 -10.0507 -1.7893
# 2 5.2157 142.9184 59.5317 -25.0745 -9.3769 8.5322
# 3 30.8978 59.5317 165.3990 -14.5067 -23.5171 14.3425
# 4 -14.3309 -25.0745 -14.5067 33.5035 6.4268 -9.8433
# 5 -10.0507 -9.3769 -23.5171 6.4268 34.8069 -3.9125
# 6 -1.7893 8.5322 14.3425 -9.8433 -3.9125 43.2994
#
#
#
# Elastic Compliance Matrix: (Units=1/GPa)
#
#
# Indices 1 2 3 4 5 6 
#
# 1 0.017057 0.002063 -0.003204 0.008022 0.002216 0.003383
# 2 0.002063 0.009418 -0.003287 0.006803 -0.000249 0.000842
# 3 -0.003204 -0.003287 0.008445 -0.001601 0.003933 -0.002291
# 4 0.008022 0.006803 -0.001601 0.040846 -0.003521 0.008489
# 5 0.002216 -0.000249 0.003933 -0.003521 0.032722 0.000994
# 6 0.003383 0.000842 -0.002291 0.008489 0.000994 0.025847
#
#
# Mechanical properties :
#
#
# Convention : Reuss Voigt Hill
#
# Bulk Modulus (GPa) = 38.36711 63.53420 50.95066
# Shear Modulus (GPa) = 32.92111 41.31343 37.11727
#
# Velocity S-wave (km/s) = 3.55508 3.98252 3.77486
# Velocity P-wave (km/s) = 5.61968 6.74822 6.20964
#
# Compressibility (1/GPa) = 0.02606399
#
# Stress axis : x y z
#
# Youngs Moduli (GPa) = 58.62755 106.18276 118.41413
#
# Poissons Ratio (x) = -0.21902 0.37935
# Poissons Ratio (y) = -0.12093 0.38921
# Poissons Ratio (z) = 0.18782 0.34901
#
# Static dielectric constant tensor:
#      x y z
#    x 2.167730 -0.067140 -0.003120 
#    y -0.067140 2.183070 0.076560 
#    z -0.003120 0.076560 2.134860 
# 
# From -- ./inp_files/339680.got.cif
#   From: 2010.05.17/outbox.cif.g08.bks.cpg/sg2_170_cif.got.tgz:339680.got - 2010.06.03 11:33:40.
