data_PCOD9020565
_publ_section_title
;
Structure prediction by ZEFSAII (Michael W. Deem and Ramdas Pophale) SiO2 
 PCOD9020565
Probable space group: P -1
;
_chemical_formula_sum "Si O2"
_cell_formula_units_Z 16
_cell_length_a 17.697526
_cell_length_b 5.280777
_cell_length_c 12.878543
_cell_angle_alpha 110.667578
_cell_angle_beta 139.464910
_cell_angle_gamma 83.255104
_cell_volume 709.025862
_symmetry_space_group_name_H-M "P -1"
_symmetry_group_IT_number 2
_symmetry_cell_setting 'triclinic'
loop_
_space_group_symop_operation_xyz
x,y,z
-x,-y,-z
loop_
_atom_site_type_symbol
_atom_site_label
_atom_site_fract_x
_atom_site_fract_y
_atom_site_fract_z
Si Si1 0.736500 0.289063 0.625408
Si Si2 0.154499 0.180331 0.789687
Si Si3 0.309799 0.487005 0.178374
Si Si4 0.452100 0.003065 0.280076
Si Si5 0.778905 0.716041 0.542300
Si Si6 0.924891 0.716864 0.490227
Si Si7 0.361847 0.934783 0.962253
Si Si8 0.450598 0.576045 0.851064
O O1 0.756289 0.445495 0.778425
O O2 0.591662 0.159094 0.451105
O O3 0.773901 0.503978 0.600914
O O4 0.801131 0.036114 0.647538
O O5 0.169854 0.285756 0.702124
O O6 0.226961 0.942233 0.840630
O O7 0.214358 0.397797 0.971774
O O8 0.015352 0.026319 0.634709
O O9 0.374358 0.237002 0.234834
O O10 0.407876 0.767930 0.286953
O O11 0.417548 0.841168 0.110472
O O12 0.864783 0.665033 0.532114
O O13 0.645670 0.649755 0.343374
O O14 0.000000 0.500000 0.500000
O O15 0.376859 0.795564 0.848692
O O16 0.441788 0.251887 0.080526
O O17 0.500000 0.500000 0.000000
#
# Coordination Sequence:
#
# PCOD9020565 Si02
#       8
#     2   2   2   2   2   2   2   2
#     4  12  25  46  65 103 143 185 229 272 336 414
#     4  10  25  43  70  98 130 173 235 286 342 402
#     4  11  25  43  71 100 139 185 232 275 332 403
#     4  11  22  40  68 102 140 185 223 274 334 404
#     4  12  27  42  70  98 140 182 225 282 350 402
#     4  11  26  47  73  97 132 176 233 292 355 409
#     4  10  22  36  60  98 133 170 215 279 335 412
#     4  11  22  35  59  95 141 176 212 268 347 412
#
# _framework density 22.566172999999999
#
# number of rings (size 3 to 8) (size 9 to 14) (size 15 to 20)
#    0.000    1.000    1.250    4.500   17.500    0.000 
#    0.000    1.250    0.000    0.000    0.000    0.000 
#    0.000    0.000    0.000    0.000    0.000    0.000 
#
# Total GULP energy -89496.996349 kJ/mol
# GULP energy per Si atom -5593.562272 kJ/mol
# Density = 2.251481 g / cm^3
# Si number density = 22.566173 Si / 1000 Ang^3
#
#
#
# Elastic Constant Matrix: (Units=GPa)
#
#
# Indices 1 2 3 4 5 6 
#
# 1 138.3634 52.3519 42.0184 11.4651 -29.0366 18.0997
# 2 52.3519 113.7738 9.8941 11.9848 -15.5075 9.9884
# 3 42.0184 9.8941 80.2963 6.2028 -19.0406 -1.7322
# 4 11.4651 11.9848 6.2028 22.8137 -3.4598 -5.9174
# 5 -29.0366 -15.5075 -19.0406 -3.4598 30.1024 0.4672
# 6 18.0997 9.9884 -1.7322 -5.9174 0.4672 40.3259
#
#
#
# Elastic Compliance Matrix: (Units=1/GPa)
#
#
# Indices 1 2 3 4 5 6 
#
# 1 0.012312 -0.003478 -0.004167 -0.003560 0.007123 -0.005448
# 2 -0.003478 0.011312 0.001424 -0.004638 0.002869 -0.001893
# 3 -0.004167 0.001424 0.016225 -0.001543 0.006770 0.001910
# 4 -0.003560 -0.004638 -0.001543 0.050949 -0.001101 0.010169
# 5 0.007123 0.002869 0.006770 -0.001101 0.045791 -0.004309
# 6 -0.005448 -0.001893 0.001910 0.010169 -0.004309 0.029336
#
#
# Mechanical properties :
#
#
# Convention : Reuss Voigt Hill
#
# Bulk Modulus (GPa) = 36.48967 60.10693 48.29830
# Shear Modulus (GPa) = 26.66626 33.85967 30.26296
#
# Velocity S-wave (km/s) = 3.44130 3.87778 3.66604
# Velocity P-wave (km/s) = 5.65644 6.83690 6.27449
#
# Compressibility (1/GPa) = 0.02740502
#
# Stress axis : x y z
#
# Youngs Moduli (GPa) = 81.22483 88.40237 61.63411
#
# Poissons Ratio (x) = 0.30750 0.25685
# Poissons Ratio (y) = 0.28254 -0.08778
# Poissons Ratio (z) = 0.33849 -0.12590
#
# Static dielectric constant tensor:
#      x y z
#    x 1.859500 -0.050650 -0.022020 
#    y -0.050650 1.931960 0.037300 
#    z -0.022020 0.037300 1.898270 
# 
# From -- ./inp_files/442194.got.cif
#   From: 2010.05.17/outbox.cif.g08.bks.cpg/sg2_222_cif.got.tgz:442194.got - 2010.06.03 11:33:40.
