data_PCOD9020838
_publ_section_title
;
Structure prediction by ZEFSAII (Michael W. Deem and Ramdas Pophale) SiO2 
 PCOD9020838
Probable space group: P -1
;
_chemical_formula_sum "Si O2"
_cell_formula_units_Z 16
_cell_length_a 13.564712
_cell_length_b 7.823285
_cell_length_c 22.105851
_cell_angle_alpha 119.568136
_cell_angle_beta 157.270013
_cell_angle_gamma 72.841403
_cell_volume 693.149595
_symmetry_space_group_name_H-M "P -1"
_symmetry_group_IT_number 2
_symmetry_cell_setting 'triclinic'
loop_
_space_group_symop_operation_xyz
x,y,z
-x,-y,-z
loop_
_atom_site_type_symbol
_atom_site_label
_atom_site_fract_x
_atom_site_fract_y
_atom_site_fract_z
Si Si1 0.313526 0.917586 0.940540
Si Si2 0.824476 0.569203 0.216986
Si Si3 0.906089 0.734518 0.091153
Si Si4 0.678083 0.705414 0.281795
Si Si5 0.263613 0.702146 0.388231
Si Si6 0.704309 0.755648 0.855372
Si Si7 0.203317 0.247867 0.229738
Si Si8 0.731773 0.124112 0.323982
O O1 0.543915 0.988160 0.137138
O O2 0.137818 0.650883 0.792333
O O3 0.500000 0.000000 0.000000
O O4 0.141167 0.054100 0.881261
O O5 0.835630 0.674511 0.306249
O O6 0.049917 0.718681 0.319844
O O7 0.500000 0.500000 0.000000
O O8 0.192529 0.771239 0.295094
O O9 0.629727 0.510199 0.921468
O O10 0.866441 0.693468 0.989207
O O11 0.929928 0.753678 0.480820
O O12 0.661610 0.930840 0.300441
O O13 0.174456 0.442283 0.281468
O O14 0.577648 0.804339 0.615241
O O15 0.684453 0.672077 0.761226
O O16 0.395002 0.714693 0.697899
O O17 0.902302 0.024965 0.012426
#
# Coordination Sequence:
#
# PCOD9020838 Si02
#       8
#     2   2   2   2   2   2   2   2
#     4  11  20  35  54  87 127 165 191 245 304 365
#     4  12  20  37  64  90 125 165 198 244 312 381
#     4  11  22  37  64  92 131 156 203 264 316 358
#     4  11  21  37  60  92 126 167 198 249 305 386
#     4  11  22  40  65  92 117 162 213 254 304 368
#     4  10  22  42  61  86 119 165 206 265 304 357
#     4  10  23  43  66  83 119 168 216 254 301 369
#     4  10  22  37  60  86 125 162 210 238 308 378
#
# _framework density 23.083041000000001
#
# number of rings (size 3 to 8) (size 9 to 14) (size 15 to 20)
#    0.000    1.250    3.750    3.000    0.000    3.000 
#    2.250    0.000    0.000    0.000    0.000    0.000 
#    0.000    0.000    0.000    0.000    0.000    0.000 
#
# Total GULP energy -89399.962025 kJ/mol
# GULP energy per Si atom -5587.497627 kJ/mol
# Density = 2.303050 g / cm^3
# Si number density = 23.083041 Si / 1000 Ang^3
#
#
#
# Elastic Constant Matrix: (Units=GPa)
#
#
# Indices 1 2 3 4 5 6 
#
# 1 92.8473 4.0624 10.8610 -7.7369 -15.0977 9.0608
# 2 4.0624 67.0577 27.4228 -9.2285 -4.1278 5.7222
# 3 10.8610 27.4228 89.4550 -23.1206 -4.9462 1.3041
# 4 -7.7369 -9.2285 -23.1206 39.8918 4.3747 -8.9147
# 5 -15.0977 -4.1278 -4.9462 4.3747 24.6694 -3.9347
# 6 9.0608 5.7222 1.3041 -8.9147 -3.9347 26.9253
#
#
#
# Elastic Compliance Matrix: (Units=1/GPa)
#
#
# Indices 1 2 3 4 5 6 
#
# 1 0.012324 0.000442 -0.001100 0.000424 0.006834 -0.003049
# 2 0.000442 0.017422 -0.005211 0.000183 0.001581 -0.003307
# 3 -0.001100 -0.005211 0.014949 0.007956 0.000595 0.003475
# 4 0.000424 0.000183 0.007956 0.032237 -0.002272 0.009774
# 5 0.006834 0.001581 0.000595 -0.002272 0.046033 0.003310
# 6 -0.003049 -0.003307 0.003475 0.009774 0.003310 0.042420
#
#
# Mechanical properties :
#
#
# Convention : Reuss Voigt Hill
#
# Bulk Modulus (GPa) = 30.34325 37.11694 33.73010
# Shear Modulus (GPa) = 26.58043 32.09820 29.33931
#
# Velocity S-wave (km/s) = 3.39708 3.73306 3.56902
# Velocity P-wave (km/s) = 5.34422 5.89030 5.62389
#
# Compressibility (1/GPa) = 0.03295625
#
# Stress axis : x y z
#
# Youngs Moduli (GPa) = 81.14344 57.39982 66.89600
#
# Poissons Ratio (x) = -0.02540 0.07358
# Poissons Ratio (y) = -0.03590 0.34862
# Poissons Ratio (z) = 0.08925 0.29914
#
# Static dielectric constant tensor:
#      x y z
#    x 1.911590 0.051590 -0.010070 
#    y 0.051590 1.879910 -0.027540 
#    z -0.010070 -0.027540 1.946130 
# 
# From -- ./inp_files/285433.got.cif
#   From: 2010.05.17/outbox.cif.g08.bks.cpg/sg2_143_cif.got.tgz:285433.got - 2010.06.03 11:33:40.
