data_PCOD9020026
_publ_section_title
;
Structure prediction by ZEFSAII (Michael W. Deem and Ramdas Pophale) SiO2 
 PCOD9020026
Probable space group: P -1
;
_chemical_formula_sum "Si O2"
_cell_formula_units_Z 14
_cell_length_a 14.039635
_cell_length_b 8.377183
_cell_length_c 11.041130
_cell_angle_alpha 89.344508
_cell_angle_beta 101.554112
_cell_angle_gamma 146.337733
_cell_volume 675.771943
_symmetry_space_group_name_H-M "P -1"
_symmetry_group_IT_number 2
_symmetry_cell_setting 'triclinic'
loop_
_space_group_symop_operation_xyz
x,y,z
-x,-y,-z
loop_
_atom_site_type_symbol
_atom_site_label
_atom_site_fract_x
_atom_site_fract_y
_atom_site_fract_z
Si Si1 0.482744 0.324778 0.225720
Si Si2 0.199221 0.980052 0.354865
Si Si3 0.846703 0.911620 0.418184
Si Si4 0.078632 0.355694 0.076085
Si Si5 0.658271 0.089940 0.024928
Si Si6 0.927097 0.322158 0.266336
Si Si7 0.770433 0.762958 0.855752
O O1 0.694841 0.607073 0.304469
O O2 0.412027 0.127572 0.095257
O O3 0.427230 0.431681 0.185356
O O4 0.362682 0.123610 0.318462
O O5 0.039842 0.630866 0.341004
O O6 0.249429 0.139914 0.489210
O O7 0.141800 0.039743 0.245359
O O8 0.917223 0.159772 0.356085
O O9 0.000000 0.000000 0.500000
O O10 0.220838 0.413140 0.141469
O O11 0.036064 0.407620 0.176847
O O12 0.162304 0.574128 0.987282
O O13 0.893952 0.007221 0.992568
O O14 0.500000 0.000000 0.000000
O O15 0.731712 0.108303 0.164951
#
# Coordination Sequence:
#
# PCOD9020026 Si02
#       7
#     2   2   2   2   2   2   2
#     4  10  23  46  67  92 137 171 218 270 329 385
#     4  10  21  46  66  89 130 182 215 261 318 391
#     4  12  28  43  65  98 132 178 229 267 316 383
#     4  11  19  41  64 103 128 172 210 267 338 402
#     4  12  25  39  69 102 134 163 217 277 336 390
#     4  12  23  44  69  94 137 169 215 274 333 383
#     4   9  20  35  74  90 129 174 215 259 331 391
#
# _framework density 20.717048999999999
#
# number of rings (size 3 to 8) (size 9 to 14) (size 15 to 20)
#    0.857    0.286    4.286    2.143    4.000    2.857 
#    0.000    0.714    0.000    0.000    0.000    0.000 
#    0.000    0.000    0.000    0.000    0.000    0.000 
#
# Total GULP energy -78116.688457 kJ/mol
# GULP energy per Si atom -5579.763461 kJ/mol
# Density = 2.066990 g / cm^3
# Si number density = 20.717049 Si / 1000 Ang^3
#
#
#
# Elastic Constant Matrix: (Units=GPa)
#
#
# Indices 1 2 3 4 5 6 
#
# 1 95.9500 11.6346 25.7249 -0.7602 26.8700 -3.5146
# 2 11.6346 64.7254 20.1750 0.5725 18.3362 -18.0670
# 3 25.7249 20.1750 44.6419 0.0925 24.8556 -10.0761
# 4 -0.7602 0.5725 0.0925 38.1231 -0.6703 4.0622
# 5 26.8700 18.3362 24.8556 -0.6703 42.3494 -0.2932
# 6 -3.5146 -18.0670 -10.0761 4.0622 -0.2932 24.8151
#
#
#
# Elastic Compliance Matrix: (Units=1/GPa)
#
#
# Indices 1 2 3 4 5 6 
#
# 1 0.013267 0.000951 -0.004473 0.000081 -0.006198 0.000669
# 2 0.000951 0.023179 -0.002134 -0.002235 -0.009309 0.016400
# 3 -0.004473 -0.002134 0.040138 -0.002015 -0.019729 0.014207
# 4 0.000081 -0.002235 -0.002015 0.027042 0.002480 -0.006832
# 5 -0.006198 -0.009309 -0.019729 0.002480 0.043087 -0.015563
# 6 0.000669 0.016400 0.014207 -0.006832 -0.015563 0.059036
#
#
# Mechanical properties :
#
#
# Convention : Reuss Voigt Hill
#
# Bulk Modulus (GPa) = 15.32054 35.59846 25.45950
# Shear Modulus (GPa) = 20.93636 30.90971 25.92303
#
# Velocity S-wave (km/s) = 3.18242 3.86682 3.54119
# Velocity P-wave (km/s) = 4.57328 6.09565 5.38850
#
# Compressibility (1/GPa) = 0.06527184
#
# Stress axis : x y z
#
# Youngs Moduli (GPa) = 75.37526 43.14318 24.91379
#
# Poissons Ratio (x) = -0.04105 0.11144
# Poissons Ratio (y) = -0.07172 0.05318
# Poissons Ratio (z) = 0.33716 0.09209
#
# Static dielectric constant tensor:
#      x y z
#    x 1.740740 0.013160 0.013120 
#    y 0.013160 1.749530 -0.017910 
#    z 0.013120 -0.017910 1.758910 
# 
# From -- ./inp_files/447361.got.cif
#   From: 2010.05.17/outbox.cif.g08.bks.cpg/sg2_224_cif.got.tgz:447361.got - 2010.06.03 11:33:40.
