data_PCOD9020576
_publ_section_title
;
Structure prediction by ZEFSAII (Michael W. Deem and Ramdas Pophale) SiO2 
 PCOD9020576
Probable space group: P -1
;
_chemical_formula_sum "Si O2"
_cell_formula_units_Z 16
_cell_length_a 11.917775
_cell_length_b 16.421518
_cell_length_c 16.724019
_cell_angle_alpha 25.551271
_cell_angle_beta 144.502861
_cell_angle_gamma 136.317442
_cell_volume 818.889009
_symmetry_space_group_name_H-M "P -1"
_symmetry_group_IT_number 2
_symmetry_cell_setting 'triclinic'
loop_
_space_group_symop_operation_xyz
x,y,z
-x,-y,-z
loop_
_atom_site_type_symbol
_atom_site_label
_atom_site_fract_x
_atom_site_fract_y
_atom_site_fract_z
Si Si1 0.019560 0.355166 0.846231
Si Si2 0.559949 0.975081 0.966351
Si Si3 0.675706 0.453165 0.042483
Si Si4 0.015187 0.082043 0.775103
Si Si5 0.572925 0.403666 0.544435
Si Si6 0.400897 0.799074 0.634786
Si Si7 0.858146 0.669833 0.238846
Si Si8 0.555284 0.367603 0.884062
O O1 0.800936 0.433816 0.637736
O O2 0.131255 0.479354 0.863222
O O3 0.134511 0.336625 0.846163
O O4 0.010770 0.138303 0.060099
O O5 0.558255 0.178580 0.743421
O O6 0.500000 0.000000 0.000000
O O7 0.422601 0.836791 0.962787
O O8 0.777912 0.880451 0.177463
O O9 0.607535 0.274042 0.213458
O O10 0.523016 0.631318 0.809257
O O11 0.700532 0.411237 0.000606
O O12 0.819417 0.185995 0.538462
O O13 0.056918 0.144183 0.835598
O O14 0.500000 0.500000 0.500000
O O15 0.463262 0.487492 0.328814
O O16 0.500000 0.000000 0.500000
O O17 0.647790 0.638341 0.180144
O O18 0.000000 0.500000 0.500000
#
# Coordination Sequence:
#
# PCOD9020576 Si02
#       8
#     2   2   2   2   2   2   2   2
#     4  11  22  40  59  94 125 166 201 251 312 375
#     4  10  22  41  66  91 117 155 213 266 311 358
#     4  11  24  39  60  89 132 168 205 244 310 379
#     4  10  22  36  61  92 121 161 209 258 301 369
#     4  11  23  41  69  89 118 160 212 264 310 360
#     4  11  22  39  58  88 134 175 200 243 308 378
#     4  11  19  34  59  90 123 154 204 252 305 364
#     4  11  23  39  61  94 122 162 202 260 308 368
#
# _framework density 19.538668000000001
#
# number of rings (size 3 to 8) (size 9 to 14) (size 15 to 20)
#    0.000    1.250    3.750    3.375    1.750    1.000 
#    0.000    0.625    0.000    1.500    0.000    0.000 
#    0.000    0.000    0.000    0.000    0.000    0.000 
#
# Total GULP energy -89331.220986 kJ/mol
# GULP energy per Si atom -5583.201312 kJ/mol
# Density = 1.949420 g / cm^3
# Si number density = 19.538668 Si / 1000 Ang^3
#
#
#
# Elastic Constant Matrix: (Units=GPa)
#
#
# Indices 1 2 3 4 5 6 
#
# 1 73.0660 39.9588 11.7410 4.8746 -20.0280 -21.1571
# 2 39.9588 135.8965 46.1244 5.0784 -24.4007 -19.7567
# 3 11.7410 46.1244 73.1304 -9.2543 -24.8432 1.7385
# 4 4.8746 5.0784 -9.2543 32.5363 -2.3735 -7.5139
# 5 -20.0280 -24.4007 -24.8432 -2.3735 29.1266 4.2260
# 6 -21.1571 -19.7567 1.7385 -7.5139 4.2260 28.7059
#
#
#
# Elastic Compliance Matrix: (Units=1/GPa)
#
#
# Indices 1 2 3 4 5 6 
#
# 1 0.022183 -0.003460 0.003118 0.001923 0.013385 0.012313
# 2 -0.003460 0.011706 -0.007053 -0.002050 0.000471 0.005328
# 3 0.003118 -0.007053 0.025264 0.008112 0.019138 -0.004780
# 4 0.001923 -0.002050 0.008112 0.035427 0.008313 0.007565
# 5 0.013385 0.000471 0.019138 0.008313 0.060601 0.002285
# 6 0.012313 0.005328 -0.004780 0.007565 0.002285 0.049511
#
#
# Mechanical properties :
#
#
# Convention : Reuss Voigt Hill
#
# Bulk Modulus (GPa) = 22.54115 53.08236 37.81175
# Shear Modulus (GPa) = 21.34296 30.35833 25.85064
#
# Velocity S-wave (km/s) = 3.30865 3.94605 3.64132
# Velocity P-wave (km/s) = 5.11448 6.92738 6.08878
#
# Compressibility (1/GPa) = 0.04436332
#
# Stress axis : x y z
#
# Youngs Moduli (GPa) = 45.07926 85.42972 39.58214
#
# Poissons Ratio (x) = 0.29555 -0.12343
# Poissons Ratio (y) = 0.15595 0.27919
# Poissons Ratio (z) = -0.14057 0.60257
#
# Static dielectric constant tensor:
#      x y z
#    x 1.666360 0.005570 0.004280 
#    y 0.005570 1.729140 0.004300 
#    z 0.004280 0.004300 1.696870 
# 
# From -- ./inp_files/446653.got.cif
#   From: 2010.05.17/outbox.cif.g08.bks.cpg/sg2_224_cif.got.tgz:446653.got - 2010.06.03 11:33:40.
