data_PCOD9020596
_publ_section_title
;
Structure prediction by ZEFSAII (Michael W. Deem and Ramdas Pophale) SiO2 
 PCOD9020596
Probable space group: P -1
;
_chemical_formula_sum "Si O2"
_cell_formula_units_Z 16
_cell_length_a 10.851720
_cell_length_b 20.879503
_cell_length_c 8.755890
_cell_angle_alpha 105.276280
_cell_angle_beta 94.856744
_cell_angle_gamma 150.205819
_cell_volume 719.671762
_symmetry_space_group_name_H-M "P -1"
_symmetry_group_IT_number 2
_symmetry_cell_setting 'triclinic'
loop_
_space_group_symop_operation_xyz
x,y,z
-x,-y,-z
loop_
_atom_site_type_symbol
_atom_site_label
_atom_site_fract_x
_atom_site_fract_y
_atom_site_fract_z
Si Si1 0.665227 0.455732 0.093615
Si Si2 0.149133 0.800398 0.274132
Si Si3 0.683977 0.885046 0.450276
Si Si4 0.222791 0.574329 0.444128
Si Si5 0.676926 0.681310 0.569709
Si Si6 0.136515 0.213412 0.660604
Si Si7 0.213681 0.339174 0.150054
Si Si8 0.242184 0.644730 0.984635
O O1 0.440450 0.396011 0.125275
O O2 0.022740 0.665798 0.235270
O O3 0.484300 0.362230 0.851801
O O4 0.657496 0.375721 0.095918
O O5 0.896630 0.725599 0.279727
O O6 0.500000 0.000000 0.500000
O O7 0.054916 0.765847 0.063593
O O8 0.457092 0.738259 0.464236
O O9 0.507817 0.810108 0.222758
O O10 0.000000 0.000000 0.500000
O O11 0.852707 0.036900 0.617133
O O12 0.448551 0.628193 0.567302
O O13 0.000000 0.500000 0.500000
O O14 0.955167 0.411949 0.195043
O O15 0.891849 0.815132 0.537690
O O16 0.436824 0.508496 0.352804
O O17 0.891802 0.753656 0.767936
O O18 0.000000 0.500000 0.000000
#
# Coordination Sequence:
#
# PCOD9020596 Si02
#       8
#     2   2   2   2   2   2   2   2
#     4  11  19  40  62  90 124 168 223 262 321 382
#     4  11  24  37  62  96 129 163 214 276 327 373
#     4  11  21  39  66  96 124 170 228 264 307 391
#     4  11  24  41  62  97 135 175 208 270 338 382
#     4  11  20  40  67  88 127 169 222 255 329 393
#     4  11  20  40  65  93 123 168 222 273 309 390
#     4  10  22  38  65  90 117 173 217 268 317 393
#     4  10  22  36  62  92 129 171 215 265 326 385
#
# _framework density 22.232358000000001
#
# number of rings (size 3 to 8) (size 9 to 14) (size 15 to 20)
#    0.000    1.250    5.000    2.250    3.500    0.000 
#    0.000    3.750    0.000    0.000    0.000    0.000 
#    0.000    0.000    0.000    0.000    0.000    0.000 
#
# Total GULP energy -89118.075630 kJ/mol
# GULP energy per Si atom -5569.879727 kJ/mol
# Density = 2.218176 g / cm^3
# Si number density = 22.232358 Si / 1000 Ang^3
#
#
#
# Elastic Constant Matrix: (Units=GPa)
#
#
# Indices 1 2 3 4 5 6 
#
# 1 78.3815 8.9284 -12.5143 -4.8491 -10.5565 2.2618
# 2 8.9284 84.5976 32.7244 1.1347 -8.0035 0.5498
# 3 -12.5143 32.7244 104.8085 -1.3762 4.8805 -2.5304
# 4 -4.8491 1.1347 -1.3762 36.7109 -4.0363 -7.7423
# 5 -10.5565 -8.0035 4.8805 -4.0363 28.4944 -3.3688
# 6 2.2618 0.5498 -2.5304 -7.7423 -3.3688 30.9627
#
#
#
# Elastic Compliance Matrix: (Units=1/GPa)
#
#
# Indices 1 2 3 4 5 6 
#
# 1 0.014096 -0.001886 0.002093 0.002591 0.004741 0.000339
# 2 -0.001886 0.014304 -0.004892 -0.000467 0.004068 -0.000190
# 3 0.002093 -0.004892 0.011458 0.000768 -0.002357 0.000806
# 4 0.002591 -0.000467 0.000768 0.029963 0.005889 0.008015
# 5 0.004741 0.004068 -0.002357 0.005889 0.039846 0.005197
# 6 0.000339 -0.000190 0.000806 0.008015 0.005197 0.034911
#
#
# Mechanical properties :
#
#
# Convention : Reuss Voigt Hill
#
# Bulk Modulus (GPa) = 32.79752 36.22940 34.51346
# Shear Modulus (GPa) = 30.46734 35.14355 32.80544
#
# Velocity S-wave (km/s) = 3.70591 3.98016 3.84548
# Velocity P-wave (km/s) = 5.75291 6.11992 5.93925
#
# Compressibility (1/GPa) = 0.03049011
#
# Stress axis : x y z
#
# Youngs Moduli (GPa) = 70.94074 69.90920 87.27720
#
# Poissons Ratio (x) = 0.13184 -0.18270
# Poissons Ratio (y) = 0.13379 0.42692
# Poissons Ratio (z) = -0.14851 0.34197
#
# Static dielectric constant tensor:
#      x y z
#    x 2.018720 -0.030110 0.005440 
#    y -0.030110 1.872260 0.002780 
#    z 0.005440 0.002780 1.887600 
# 
# From -- ./inp_files/281985.got.cif
#   From: 2010.05.17/outbox.cif.g08.bks.cpg/sg2_141_cif.got.tgz:281985.got - 2010.06.03 11:33:40.
