data_PCOD9020291
_publ_section_title
;
Structure prediction by ZEFSAII (Michael W. Deem and Ramdas Pophale) SiO2 
 PCOD9020291
Probable space group: P -1
;
_chemical_formula_sum "Si O2"
_cell_formula_units_Z 16
_cell_length_a 10.391393
_cell_length_b 13.488895
_cell_length_c 15.310115
_cell_angle_alpha 57.606203
_cell_angle_beta 41.227229
_cell_angle_gamma 89.891684
_cell_volume 827.948933
_symmetry_space_group_name_H-M "P -1"
_symmetry_group_IT_number 2
_symmetry_cell_setting 'triclinic'
loop_
_space_group_symop_operation_xyz
x,y,z
-x,-y,-z
loop_
_atom_site_type_symbol
_atom_site_label
_atom_site_fract_x
_atom_site_fract_y
_atom_site_fract_z
Si Si1 0.929663 0.772573 0.648772
Si Si2 0.808322 0.019469 0.755590
Si Si3 0.706147 0.432221 0.881615
Si Si4 0.770709 0.362928 0.064055
Si Si5 0.772333 0.236549 0.780695
Si Si6 0.118773 0.359698 0.009520
Si Si7 0.203382 0.981366 0.580143
Si Si8 0.644972 0.415479 0.710367
O O1 0.914188 0.628166 0.709223
O O2 0.006945 0.866341 0.474950
O O3 0.143873 0.908333 0.547907
O O4 0.619331 0.675772 0.883029
O O5 0.811681 0.125304 0.773462
O O6 0.949393 0.961142 0.743411
O O7 0.477162 0.869201 0.970843
O O8 0.716742 0.439585 0.766815
O O9 0.765622 0.364194 0.960701
O O10 0.799818 0.509033 0.018878
O O11 0.489843 0.180292 0.334498
O O12 0.026458 0.397864 0.956447
O O13 0.640439 0.273617 0.760553
O O14 0.085556 0.415043 0.556692
O O15 0.382267 0.387214 0.846539
O O16 0.858579 0.161319 0.263050
#
# Coordination Sequence:
#
# PCOD9020291 Si02
#       8
#     2   2   2   2   2   2   2   2
#     4  11  20  32  59  88 125 147 186 243 306 345
#     4  11  20  34  51  91 118 147 191 247 288 337
#     4  11  19  36  58  89 120 153 186 240 300 352
#     4  11  24  35  59  88 122 158 188 230 305 361
#     4  10  22  33  55  82 113 155 200 238 282 335
#     4  11  22  41  55  86 124 156 191 239 291 356
#     4  12  21  36  60  90 120 156 186 238 302 356
#     4  11  20  38  59  83 114 155 195 243 287 335
#
# _framework density 19.324863000000001
#
# number of rings (size 3 to 8) (size 9 to 14) (size 15 to 20)
#    0.000    1.000    6.250    2.250    1.750    0.000 
#    0.000    0.000    0.000    3.000    0.000    2.625 
#    0.000    0.000    0.000    0.000    0.000    0.000 
#
# Total GULP energy -89106.840763 kJ/mol
# GULP energy per Si atom -5569.177548 kJ/mol
# Density = 1.928088 g / cm^3
# Si number density = 19.324863 Si / 1000 Ang^3
#
#
#
# Elastic Constant Matrix: (Units=GPa)
#
#
# Indices 1 2 3 4 5 6 
#
# 1 66.6548 9.2710 -1.6084 5.8566 1.1393 -15.0354
# 2 9.2710 50.2203 7.7485 -3.1569 1.9198 -18.2928
# 3 -1.6084 7.7485 87.2444 -4.1297 0.9630 -10.5640
# 4 5.8566 -3.1569 -4.1297 28.2875 -9.0802 2.1867
# 5 1.1393 1.9198 0.9630 -9.0802 20.5958 -0.8609
# 6 -15.0354 -18.2928 -10.5640 2.1867 -0.8609 26.4613
#
#
#
# Elastic Compliance Matrix: (Units=1/GPa)
#
#
# Indices 1 2 3 4 5 6 
#
# 1 0.018093 0.000395 0.001470 -0.005330 -0.002976 0.011484
# 2 0.000395 0.026717 -0.000057 0.001050 -0.001271 0.018543
# 3 0.001470 -0.000057 0.012220 0.001058 0.000053 0.005589
# 4 -0.005330 0.001050 0.001058 0.043196 0.018990 -0.004832
# 5 -0.002976 -0.001271 0.000053 0.018990 0.057112 -0.002260
# 6 0.011484 0.018543 0.005589 -0.004832 -0.002260 0.059693
#
#
# Mechanical properties :
#
#
# Convention : Reuss Voigt Hill
#
# Bulk Modulus (GPa) = 16.48904 26.10463 21.29684
# Shear Modulus (GPa) = 21.40133 27.64947 24.52540
#
# Velocity S-wave (km/s) = 3.33145 3.78666 3.56632
# Velocity P-wave (km/s) = 4.83209 5.71454 5.29175
#
# Compressibility (1/GPa) = 0.06064634
#
# Stress axis : x y z
#
# Youngs Moduli (GPa) = 55.27043 37.42906 81.83031
#
# Poissons Ratio (x) = -0.01478 -0.12025
# Poissons Ratio (y) = -0.02183 0.00462
# Poissons Ratio (z) = -0.08122 0.00212
#
# Static dielectric constant tensor:
#      x y z
#    x 1.677180 0.001330 0.008600 
#    y 0.001330 1.791370 -0.060750 
#    z 0.008600 -0.060750 1.739580 
# 
# From -- ./inp_files/335555.got.cif
#   From: 2010.05.17/outbox.cif.g08.bks.cpg/sg2_168_cif.got.tgz:335555.got - 2010.06.03 11:33:40.
