data_PCOD9020515
_publ_section_title
;
Structure prediction by ZEFSAII (Michael W. Deem and Ramdas Pophale) SiO2 
 PCOD9020515
Probable space group: P -1
;
_chemical_formula_sum "Si O2"
_cell_formula_units_Z 16
_cell_length_a 14.677923
_cell_length_b 11.570597
_cell_length_c 9.207417
_cell_angle_alpha 68.099207
_cell_angle_beta 77.880995
_cell_angle_gamma 29.898075
_cell_volume 701.113041
_symmetry_space_group_name_H-M "P -1"
_symmetry_group_IT_number 2
_symmetry_cell_setting 'triclinic'
loop_
_space_group_symop_operation_xyz
x,y,z
-x,-y,-z
loop_
_atom_site_type_symbol
_atom_site_label
_atom_site_fract_x
_atom_site_fract_y
_atom_site_fract_z
Si Si1 0.959372 0.920130 0.640071
Si Si2 0.376772 0.675567 0.624636
Si Si3 0.367142 0.204916 0.577321
Si Si4 0.879718 0.409167 0.763589
Si Si5 0.287372 0.873004 0.873065
Si Si6 0.370856 0.382633 0.731841
Si Si7 0.227588 0.746423 0.198000
Si Si8 0.468293 0.187154 0.105257
O O1 0.760961 0.107253 0.552548
O O2 0.927128 0.996833 0.780335
O O3 0.000000 0.000000 0.500000
O O4 0.143942 0.623852 0.697683
O O5 0.279908 0.825151 0.738054
O O6 0.393325 0.505885 0.684342
O O7 0.588777 0.480192 0.655205
O O8 0.181123 0.454587 0.430973
O O9 0.437221 0.244742 0.623681
O O10 0.500000 0.000000 0.500000
O O11 0.379475 0.086115 0.753273
O O12 0.852518 0.292844 0.800829
O O13 0.732752 0.612480 0.846266
O O14 0.099343 0.170202 0.831490
O O15 0.465687 0.755554 0.883696
O O16 0.293660 0.753689 0.039874
O O17 0.456890 0.215892 0.922857
#
# Coordination Sequence:
#
# PCOD9020515 Si02
#       8
#     2   2   2   2   2   2   2   2
#     4  10  22  36  58  93 127 168 207 256 323 382
#     4  11  21  37  63  99 134 166 208 257 327 390
#     4  10  24  43  67  90 119 175 224 266 319 371
#     4  11  22  40  65  93 134 171 213 263 315 382
#     4  12  23  40  65 102 134 170 209 260 326 389
#     4  11  20  41  65  89 128 162 214 268 318 375
#     4  12  21  38  62  98 137 167 208 259 329 392
#     4  11  23  42  65  93 129 175 218 262 312 378
#
# _framework density 22.820857
#
# number of rings (size 3 to 8) (size 9 to 14) (size 15 to 20)
#    0.000    1.000    2.500    6.750    0.000    0.500 
#    0.000    0.000    2.750    4.500    0.000    0.000 
#    0.000    0.000    0.000    0.000    0.000    0.000 
#
# Total GULP energy -89451.101858 kJ/mol
# GULP energy per Si atom -5590.693866 kJ/mol
# Density = 2.276892 g / cm^3
# Si number density = 22.820857 Si / 1000 Ang^3
#
#
#
# Elastic Constant Matrix: (Units=GPa)
#
#
# Indices 1 2 3 4 5 6 
#
# 1 45.4628 17.0522 8.4269 -1.1624 2.3416 4.3292
# 2 17.0522 64.0646 8.6374 6.4803 -0.8916 -2.8142
# 3 8.4269 8.6374 110.0742 -11.8242 -7.5931 12.4002
# 4 -1.1624 6.4803 -11.8242 42.6766 7.3780 6.0558
# 5 2.3416 -0.8916 -7.5931 7.3780 29.9801 -3.1466
# 6 4.3292 -2.8142 12.4002 6.0558 -3.1466 33.2626
#
#
#
# Elastic Compliance Matrix: (Units=1/GPa)
#
#
# Indices 1 2 3 4 5 6 
#
# 1 0.025540 -0.007218 -0.000829 0.002817 -0.003582 -0.004477
# 2 -0.007218 0.018418 -0.001682 -0.004429 0.002210 0.004140
# 3 -0.000829 -0.001682 0.010232 0.003462 0.001297 -0.004357
# 4 0.002817 -0.004429 0.003462 0.027449 -0.007038 -0.007695
# 5 -0.003582 0.002210 0.001297 -0.007038 0.036274 0.004882
# 6 -0.004477 0.004140 -0.004357 -0.007695 0.004882 0.034484
#
#
# Mechanical properties :
#
#
# Convention : Reuss Voigt Hill
#
# Bulk Modulus (GPa) = 28.79204 31.98161 30.38682
# Shear Modulus (GPa) = 27.25805 33.54955 30.40380
#
# Velocity S-wave (km/s) = 3.45981 3.83838 3.65400
# Velocity P-wave (km/s) = 5.34830 5.80421 5.58091
#
# Compressibility (1/GPa) = 0.03473183
#
# Stress axis : x y z
#
# Youngs Moduli (GPa) = 39.15465 54.29524 97.72880
#
# Poissons Ratio (x) = 0.39188 0.08102
# Poissons Ratio (y) = 0.28260 0.16442
# Poissons Ratio (z) = 0.03246 0.09135
#
# Static dielectric constant tensor:
#      x y z
#    x 1.857960 -0.008170 0.017800 
#    y -0.008170 1.902340 -0.005230 
#    z 0.017800 -0.005230 1.880190 
# 
# From -- ./inp_files/257612.got.cif
#   From: 2010.05.17/outbox.cif.g08.bks.cpg/sg2_129_cif.got.tgz:257612.got - 2010.06.03 11:33:40.
