data_PCOD9020689
_publ_section_title
;
Structure prediction by ZEFSAII (Michael W. Deem and Ramdas Pophale) SiO2 
 PCOD9020689
Probable space group: P -1
;
_chemical_formula_sum "Si O2"
_cell_formula_units_Z 16
_cell_length_a 10.289264
_cell_length_b 27.602458
_cell_length_c 15.077624
_cell_angle_alpha 14.744294
_cell_angle_beta 42.346649
_cell_angle_gamma 35.700174
_cell_volume 604.333034
_symmetry_space_group_name_H-M "P -1"
_symmetry_group_IT_number 2
_symmetry_cell_setting 'triclinic'
loop_
_space_group_symop_operation_xyz
x,y,z
-x,-y,-z
loop_
_atom_site_type_symbol
_atom_site_label
_atom_site_fract_x
_atom_site_fract_y
_atom_site_fract_z
Si Si1 0.782732 0.262173 0.365840
Si Si2 0.242846 0.160727 0.886098
Si Si3 0.952380 0.893828 0.330638
Si Si4 0.494776 0.946893 0.492422
Si Si5 0.618466 0.489930 0.315643
Si Si6 0.213231 0.127093 0.148543
Si Si7 0.174714 0.600317 0.447442
Si Si8 0.301172 0.650353 0.940178
O O1 0.751065 0.383159 0.075166
O O2 0.967407 0.242063 0.375500
O O3 0.845401 0.009416 0.760765
O O4 0.529568 0.410090 0.278855
O O5 0.266115 0.221534 0.867511
O O6 0.046638 0.357033 0.571666
O O7 0.500000 0.000000 0.000000
O O8 0.720224 0.910944 0.393031
O O9 0.172337 0.746509 0.415942
O O10 0.894932 0.144021 0.939451
O O11 0.500000 0.000000 0.500000
O O12 0.285298 0.129232 0.209827
O O13 0.520316 0.704374 0.918474
O O14 0.399244 0.495198 0.455679
O O15 0.734175 0.526037 0.280201
O O16 0.936268 0.244329 0.074157
O O17 0.348569 0.849411 0.559869
#
# Coordination Sequence:
#
# PCOD9020689 Si02
#       8
#     2   2   2   2   2   2   2   2
#     4   9  19  37  61  89 122 159 204 255 321 371
#     4  10  23  43  63  88 127 168 208 264 317 381
#     4  11  22  40  69  94 128 171 215 271 321 388
#     4  12  24  41  64 100 137 164 217 278 325 375
#     4  11  24  42  68  97 128 178 216 266 326 389
#     4  10  22  36  66  89 125 166 205 260 322 376
#     4  10  24  46  66  93 133 173 220 266 322 392
#     4   9  18  36  60  92 119 157 207 257 310 384
#
# _framework density 26.475467999999999
#
# number of rings (size 3 to 8) (size 9 to 14) (size 15 to 20)
#    0.000    1.750    1.250    2.250    8.750    0.000 
#    6.750    0.625    0.000    0.000    0.000    0.000 
#    0.000    0.000    0.000    0.000    0.000    0.000 
#
# Total GULP energy -89491.458474 kJ/mol
# GULP energy per Si atom -5593.216155 kJ/mol
# Density = 2.641521 g / cm^3
# Si number density = 26.475468 Si / 1000 Ang^3
#
#
#
# Elastic Constant Matrix: (Units=GPa)
#
#
# Indices 1 2 3 4 5 6 
#
# 1 120.8757 36.7122 31.4619 -2.0541 38.5671 7.5644
# 2 36.7122 147.5402 22.8558 -16.8276 11.5498 8.9932
# 3 31.4619 22.8558 95.3137 -1.1704 18.3743 -4.1430
# 4 -2.0541 -16.8276 -1.1704 37.1595 5.5267 6.4505
# 5 38.5671 11.5498 18.3743 5.5267 55.1447 -10.6272
# 6 7.5644 8.9932 -4.1430 6.4505 -10.6272 32.9244
#
#
#
# Elastic Compliance Matrix: (Units=1/GPa)
#
#
# Indices 1 2 3 4 5 6 
#
# 1 0.012699 -0.001411 -0.002308 0.002464 -0.009277 -0.006300
# 2 -0.001411 0.008141 -0.001316 0.004353 -0.001363 -0.003358
# 3 -0.002308 -0.001316 0.011972 -0.000433 -0.001682 0.001938
# 4 0.002464 0.004353 -0.000433 0.031990 -0.007734 -0.010573
# 5 -0.009277 -0.001363 -0.001682 -0.007734 0.028767 0.013093
# 6 -0.006300 -0.003358 0.001938 -0.010573 0.013093 0.039279
#
#
# Mechanical properties :
#
#
# Convention : Reuss Voigt Hill
#
# Bulk Modulus (GPa) = 43.97393 60.64325 52.30859
# Shear Modulus (GPa) = 33.22294 43.22570 38.22432
#
# Velocity S-wave (km/s) = 3.54624 4.04501 3.80381
# Velocity P-wave (km/s) = 5.78041 6.69114 6.25238
#
# Compressibility (1/GPa) = 0.02274075
#
# Stress axis : x y z
#
# Youngs Moduli (GPa) = 78.74937 122.84156 83.52493
#
# Poissons Ratio (x) = 0.17332 0.19281
# Poissons Ratio (y) = 0.11111 0.10993
# Poissons Ratio (z) = 0.18179 0.16167
#
# Static dielectric constant tensor:
#      x y z
#    x 2.155490 0.019600 -0.038830 
#    y 0.019600 2.063270 0.029110 
#    z -0.038830 0.029110 2.134850 
# 
# From -- ./inp_files/508959.got.cif
#   From: 2010.05.17/outbox.cif.g08.bks.cpg/sg2_255_cif.got.tgz:508959.got - 2010.06.03 11:33:40.
