data_PCOD9020650
_publ_section_title
;
Structure prediction by ZEFSAII (Michael W. Deem and Ramdas Pophale) SiO2 
 PCOD9020650
Probable space group: P -1
;
_chemical_formula_sum "Si O2"
_cell_formula_units_Z 13
_cell_length_a 7.916115
_cell_length_b 15.168899
_cell_length_c 6.344144
_cell_angle_alpha 75.402081
_cell_angle_beta 100.745003
_cell_angle_gamma 130.145626
_cell_volume 563.230133
_symmetry_space_group_name_H-M "P -1"
_symmetry_group_IT_number 2
_symmetry_cell_setting 'triclinic'
loop_
_space_group_symop_operation_xyz
x,y,z
-x,-y,-z
loop_
_atom_site_type_symbol
_atom_site_label
_atom_site_fract_x
_atom_site_fract_y
_atom_site_fract_z
Si Si1 0.505999 0.072972 0.150016
Si Si2 0.051762 0.525495 0.254792
Si Si3 0.257306 0.272930 0.272889
Si Si4 0.082842 0.319884 0.809344
Si Si5 0.636228 0.316953 0.048142
Si Si6 0.500000 0.500000 0.500000
Si Si7 0.139291 0.880350 0.456194
O O1 0.562258 0.194334 0.023492
O O2 0.694090 0.102546 0.339131
O O3 0.276828 0.995880 0.274612
O O4 0.500000 0.000000 0.000000
O O5 0.000000 0.500000 0.500000
O O6 0.011562 0.618679 0.157503
O O7 0.870212 0.403687 0.172218
O O8 0.303475 0.594040 0.189440
O O9 0.457028 0.287266 0.195960
O O10 0.358337 0.386857 0.368912
O O11 0.084567 0.163086 0.451692
O O12 0.122289 0.266876 0.046158
O O13 0.308330 0.420490 0.684311
O O14 0.925635 0.221770 0.658900
#
# Coordination Sequence:
#
# PCOD9020650 Si02
#       7
#     2   2   2   2   2   1   2
#     4  11  23  46  68  92 127 173 222 275 325 386
#     4  11  24  40  62  95 134 172 214 271 321 392
#     4  11  23  41  65 100 132 173 214 268 326 394
#     4  11  22  41  66  94 133 174 213 264 329 397
#     4  11  25  40  63  98 129 168 221 271 320 385
#     4  10  22  36  64  90 132 176 204 252 326 392
#     4  10  23  41  70  93 122 178 218 264 333 389
#
# _framework density 23.081150000000001
#
# number of rings (size 3 to 8) (size 9 to 14) (size 15 to 20)
#    0.000    1.231    1.538    4.154    2.154    4.308 
#    0.000    3.077    0.000    0.000    0.000    0.000 
#    0.000    0.000    0.000    0.000    0.000    0.000 
#
# Total GULP energy -72419.409562 kJ/mol
# GULP energy per Si atom -5570.723812 kJ/mol
# Density = 2.302862 g / cm^3
# Si number density = 23.081150 Si / 1000 Ang^3
#
#
#
# Elastic Constant Matrix: (Units=GPa)
#
#
# Indices 1 2 3 4 5 6 
#
# 1 77.8969 49.4161 38.0650 -5.8038 -42.8012 13.5469
# 2 49.4161 156.4244 68.5020 -7.9373 -29.0096 25.8152
# 3 38.0650 68.5020 144.6691 8.3676 -47.6330 16.4670
# 4 -5.8038 -7.9373 8.3676 60.3938 18.6908 -18.8076
# 5 -42.8012 -29.0096 -47.6330 18.6908 44.8115 -7.1286
# 6 13.5469 25.8152 16.4670 -18.8076 -7.1286 33.8873
#
#
#
# Elastic Compliance Matrix: (Units=1/GPa)
#
#
# Indices 1 2 3 4 5 6 
#
# 1 0.047215 -0.007912 0.016603 -0.025561 0.064872 -0.021455
# 2 -0.007912 0.010213 -0.005586 0.003464 -0.008614 -0.001792
# 3 0.016603 -0.005586 0.021413 -0.019364 0.040698 -0.014973
# 4 -0.025561 0.003464 -0.019364 0.043862 -0.056361 0.029477
# 5 0.064872 -0.008614 0.040698 -0.056361 0.138915 -0.041206
# 6 -0.021455 -0.001792 -0.014973 0.029477 -0.041206 0.054419
#
#
# Mechanical properties :
#
#
# Convention : Reuss Voigt Hill
#
# Bulk Modulus (GPa) = 11.75772 76.77296 44.26534
# Shear Modulus (GPa) = 14.78517 42.68568 28.73542
#
# Velocity S-wave (km/s) = 2.53370 4.30510 3.53225
# Velocity P-wave (km/s) = 3.69657 7.61881 5.98794
#
# Compressibility (1/GPa) = 0.08505050
#
# Stress axis : x y z
#
# Youngs Moduli (GPa) = 21.17990 97.91524 46.70006
#
# Poissons Ratio (x) = 0.77471 -0.77538
# Poissons Ratio (y) = 0.16758 0.26089
# Poissons Ratio (z) = -0.35166 0.54700
#
# Static dielectric constant tensor:
#      x y z
#    x 1.912450 0.049940 -0.036320 
#    y 0.049940 1.842960 -0.102430 
#    z -0.036320 -0.102430 1.999040 
# 
# From -- ./inp_files/38844.got.cif
#   From: 2010.05.17/outbox.cif.g08.bks.cpg/sg2_20_cif.got.tgz:38844.got - 2010.06.03 11:33:40.
