data_PCOD9020732
_publ_section_title
;
Structure prediction by ZEFSAII (Michael W. Deem and Ramdas Pophale) SiO2 
 PCOD9020732
Probable space group: P -1
;
_chemical_formula_sum "Si O2"
_cell_formula_units_Z 14
_cell_length_a 16.744721
_cell_length_b 11.655885
_cell_length_c 16.614226
_cell_angle_alpha 150.736423
_cell_angle_beta 28.625208
_cell_angle_gamma 147.755452
_cell_volume 713.676035
_symmetry_space_group_name_H-M "P -1"
_symmetry_group_IT_number 2
_symmetry_cell_setting 'triclinic'
loop_
_space_group_symop_operation_xyz
x,y,z
-x,-y,-z
loop_
_atom_site_type_symbol
_atom_site_label
_atom_site_fract_x
_atom_site_fract_y
_atom_site_fract_z
Si Si1 0.480379 0.996201 0.612714
Si Si2 0.104774 0.595324 0.048142
Si Si3 0.875151 0.882362 0.698002
Si Si4 0.894020 0.427020 0.294546
Si Si5 0.811023 0.865660 0.298956
Si Si6 0.999538 0.265794 0.257722
Si Si7 0.714799 0.504135 0.732491
O O1 0.294791 0.794208 0.676446
O O2 0.631435 0.922567 0.480801
O O3 0.500000 0.000000 0.500000
O O4 0.527551 0.287080 0.770386
O O5 0.976518 0.506697 0.183581
O O6 0.171327 0.892698 0.163862
O O7 0.231229 0.430188 0.841678
O O8 0.000000 0.500000 0.000000
O O9 0.884757 0.677656 0.499613
O O10 0.730340 0.735815 0.803148
O O11 0.061215 0.998790 0.655766
O O12 0.002943 0.312733 0.189445
O O13 0.927543 0.994239 0.196104
O O14 0.854325 0.386794 0.494011
O O15 0.189632 0.405244 0.212941
#
# Coordination Sequence:
#
# PCOD9020732 Si02
#       7
#     2   2   2   2   2   2   2
#     4  11  17  30  53  88 109 127 164 226 275 309
#     4  10  22  37  52  74 108 146 179 214 252 304
#     4   9  17  34  56  76 100 144 186 205 240 318
#     4  11  19  31  58  83 102 132 183 219 255 308
#     4   9  18  34  54  77 111 138 164 216 273 307
#     4   8  14  27  49  79  98 133 169 212 252 311
#     4   8  14  27  51  77 105 128 164 212 266 300
#
# _framework density 19.616744000000001
#
# number of rings (size 3 to 8) (size 9 to 14) (size 15 to 20)
#    0.000    2.571    4.286    3.000    0.000    0.571 
#    0.000    3.571    0.000   14.571    0.000    0.000 
#    0.000    0.000    0.000    0.000    0.000    0.000 
#
# Total GULP energy -77981.109764 kJ/mol
# GULP energy per Si atom -5570.079269 kJ/mol
# Density = 1.957210 g / cm^3
# Si number density = 19.616744 Si / 1000 Ang^3
#
#
#
# Elastic Constant Matrix: (Units=GPa)
#
#
# Indices 1 2 3 4 5 6 
#
# 1 94.1980 64.1683 26.4424 4.7789 8.3481 -14.1255
# 2 64.1683 135.3297 33.9471 18.9423 -3.1828 -8.7512
# 3 26.4424 33.9471 31.0874 2.4847 2.3841 -4.7892
# 4 4.7789 18.9423 2.4847 12.7051 -8.8003 -5.5501
# 5 8.3481 -3.1828 2.3841 -8.8003 19.9261 7.9564
# 6 -14.1255 -8.7512 -4.7892 -5.5501 7.9564 34.1623
#
#
#
# Elastic Compliance Matrix: (Units=1/GPa)
#
#
# Indices 1 2 3 4 5 6 
#
# 1 0.019869 -0.007633 -0.006445 0.000584 -0.011788 0.008197
# 2 -0.007633 0.016346 -0.010070 -0.021985 -0.001232 -0.003665
# 3 -0.006445 -0.010070 0.048804 0.007435 -0.002849 0.003469
# 4 0.000584 -0.021985 0.007435 0.155099 0.061222 0.006591
# 5 -0.011788 -0.001232 -0.002849 0.061222 0.088827 -0.016331
# 6 0.008197 -0.003665 0.003469 0.006591 -0.016331 0.037083
#
#
# Mechanical properties :
#
#
# Convention : Reuss Voigt Hill
#
# Bulk Modulus (GPa) = 27.23074 56.63677 41.93376
# Shear Modulus (GPa) = 11.72154 22.42917 17.07536
#
# Velocity S-wave (km/s) = 2.44709 3.38504 2.95354
# Velocity P-wave (km/s) = 4.67930 6.64924 5.74927
#
# Compressibility (1/GPa) = 0.03672320
#
# Stress axis : x y z
#
# Youngs Moduli (GPa) = 50.32910 61.17636 20.49017
#
# Poissons Ratio (x) = 0.46699 0.13205
# Poissons Ratio (y) = 0.38419 0.20634
# Poissons Ratio (z) = 0.32435 0.61604
#
# Static dielectric constant tensor:
#      x y z
#    x 1.697330 0.001920 0.015990 
#    y 0.001920 1.713460 0.053080 
#    z 0.015990 0.053080 1.766700 
# 
# From -- ./inp_files/181235.got.cif
#   From: 2010.05.17/outbox.cif.g08.bks.cpg/sg2_91_cif.got.tgz:181235.got - 2010.06.03 11:33:40.
