data_PCOD9020674
_publ_section_title
;
Structure prediction by ZEFSAII (Michael W. Deem and Ramdas Pophale) SiO2 
 PCOD9020674
Probable space group: P -1
;
_chemical_formula_sum "Si O2"
_cell_formula_units_Z 16
_cell_length_a 13.454437
_cell_length_b 5.562400
_cell_length_c 9.796178
_cell_angle_alpha 112.543344
_cell_angle_beta 96.992276
_cell_angle_gamma 77.474257
_cell_volume 660.394735
_symmetry_space_group_name_H-M "P -1"
_symmetry_group_IT_number 2
_symmetry_cell_setting 'triclinic'
loop_
_space_group_symop_operation_xyz
x,y,z
-x,-y,-z
loop_
_atom_site_type_symbol
_atom_site_label
_atom_site_fract_x
_atom_site_fract_y
_atom_site_fract_z
Si Si1 0.581786 0.600139 0.227143
Si Si2 0.084121 0.593573 0.233866
Si Si3 0.734678 0.820537 0.705579
Si Si4 0.797078 0.046257 0.512456
Si Si5 0.290255 0.795396 0.993002
Si Si6 0.309249 0.946373 0.754750
Si Si7 0.413632 0.539300 0.379300
Si Si8 0.927597 0.288620 0.062945
O O1 0.619318 0.876934 0.271684
O O2 0.470372 0.627692 0.276527
O O3 0.612939 0.436679 0.058154
O O4 0.647359 0.370380 0.288101
O O5 0.177550 0.364094 0.237131
O O6 0.109533 0.837884 0.380725
O O7 0.981288 0.476634 0.208713
O O8 0.084639 0.629736 0.079644
O O9 0.627900 0.733221 0.694759
O O10 0.773438 0.813864 0.555525
O O11 0.727808 0.103754 0.835860
O O12 0.690198 0.257339 0.559652
O O13 0.794003 0.001374 0.340326
O O14 0.301952 0.020372 0.930761
O O15 0.186375 0.710644 0.907231
O O16 0.500000 0.500000 0.500000
O O17 0.000000 0.000000 0.000000
#
# Coordination Sequence:
#
# PCOD9020674 Si02
#       8
#     2   2   2   2   2   2   2   2
#     4  10  24  41  62  92 129 176 216 259 327 379
#     4  10  22  36  66 100 127 158 218 275 322 383
#     4  11  23  38  65  95 131 163 225 268 322 376
#     4  11  22  39  64  95 129 171 219 275 310 384
#     4  10  23  41  62  96 130 172 207 274 326 391
#     4  10  24  41  66  87 136 173 215 263 327 380
#     4  11  22  39  63  94 127 177 222 266 316 381
#     4  11  20  39  67  96 125 164 212 266 332 393
#
# _framework density 24.227936
#
# number of rings (size 3 to 8) (size 9 to 14) (size 15 to 20)
#    0.750    0.750    3.750    0.750    5.250    1.500 
#    0.000    1.875    0.000    3.750    0.000    0.000 
#    0.000    0.000    0.000    0.000    0.000    0.000 
#
# Total GULP energy -89197.896844 kJ/mol
# GULP energy per Si atom -5574.868553 kJ/mol
# Density = 2.417279 g / cm^3
# Si number density = 24.227936 Si / 1000 Ang^3
#
#
#
# Elastic Constant Matrix: (Units=GPa)
#
#
# Indices 1 2 3 4 5 6 
#
# 1 100.2109 24.2496 6.1552 -2.3494 23.2183 15.7638
# 2 24.2496 85.7269 15.7004 -21.9207 14.5083 8.7366
# 3 6.1552 15.7004 63.0791 -20.4438 19.8699 -2.6789
# 4 -2.3494 -21.9207 -20.4438 34.5237 -4.9649 8.1664
# 5 23.2183 14.5083 19.8699 -4.9649 37.4362 5.2052
# 6 15.7638 8.7366 -2.6789 8.1664 5.2052 42.7256
#
#
#
# Elastic Compliance Matrix: (Units=1/GPa)
#
#
# Indices 1 2 3 4 5 6 
#
# 1 0.012637 -0.002284 0.001502 0.000009 -0.007301 -0.003213
# 2 -0.002284 0.015898 0.000547 0.010787 -0.003039 -0.004065
# 3 0.001502 0.000547 0.023395 0.012638 -0.011861 -0.000169
# 4 0.000009 0.010787 0.012638 0.045052 -0.003585 -0.009591
# 5 -0.007301 -0.003039 -0.011861 -0.003585 0.038436 -0.001426
# 6 -0.003213 -0.004065 -0.000169 -0.009591 -0.001426 0.027418
#
#
# Mechanical properties :
#
#
# Convention : Reuss Voigt Hill
#
# Bulk Modulus (GPa) = 19.43313 37.91414 28.67364
# Shear Modulus (GPa) = 27.70675 36.46454 32.08565
#
# Velocity S-wave (km/s) = 3.38536 3.88372 3.64307
# Velocity P-wave (km/s) = 4.82901 5.98281 5.43660
#
# Compressibility (1/GPa) = 0.05145851
#
# Stress axis : x y z
#
# Youngs Moduli (GPa) = 79.13380 62.90153 42.74346
#
# Poissons Ratio (x) = 0.14368 -0.06419
# Poissons Ratio (y) = 0.18075 -0.02336
# Poissons Ratio (z) = -0.11885 -0.03438
#
# Static dielectric constant tensor:
#      x y z
#    x 2.005750 0.113900 -0.058120 
#    y 0.113900 2.068900 -0.005420 
#    z -0.058120 -0.005420 2.036570 
# 
# From -- ./inp_files/409484.got.cif
#   From: 2010.05.17/outbox.cif.g08.bks.cpg/sg2_205_cif.got.tgz:409484.got - 2010.06.03 11:33:40.
