data_PCOD9020099
_publ_section_title
;
Structure prediction by ZEFSAII (Michael W. Deem and Ramdas Pophale) SiO2 
 PCOD9020099
Probable space group: P -1
;
_chemical_formula_sum "Si O2"
_cell_formula_units_Z 15
_cell_length_a 8.055855
_cell_length_b 17.748452
_cell_length_c 7.135952
_cell_angle_alpha 50.051145
_cell_angle_beta 74.798199
_cell_angle_gamma 60.971766
_cell_volume 682.060879
_symmetry_space_group_name_H-M "P -1"
_symmetry_group_IT_number 2
_symmetry_cell_setting 'triclinic'
loop_
_space_group_symop_operation_xyz
x,y,z
-x,-y,-z
loop_
_atom_site_type_symbol
_atom_site_label
_atom_site_fract_x
_atom_site_fract_y
_atom_site_fract_z
Si Si1 0.681116 0.295247 0.508872
Si Si2 0.505676 0.370971 0.838698
Si Si3 0.091393 0.947018 0.254525
Si Si4 0.220282 0.052650 0.357842
Si Si5 0.423141 0.168923 0.291348
Si Si6 0.068192 0.479311 0.723103
Si Si7 0.938600 0.675797 0.716356
Si Si8 0.500000 0.500000 0.000000
O O1 0.632461 0.330246 0.682207
O O2 0.730963 0.169700 0.650887
O O3 0.875527 0.305436 0.390466
O O4 0.525210 0.386528 0.280512
O O5 0.289660 0.453058 0.716488
O O6 0.560663 0.431850 0.889567
O O7 0.488197 0.263144 0.085509
O O8 0.943227 0.926881 0.470046
O O9 0.144857 0.032836 0.213942
O O10 0.000000 0.000000 0.000000
O O11 0.310203 0.139094 0.206557
O O12 0.395154 0.938456 0.538952
O O13 0.256029 0.217474 0.416739
O O14 0.000000 0.500000 0.500000
O O15 0.947304 0.585055 0.712467
O O16 0.049984 0.379671 0.994642
#
# Coordination Sequence:
#
# PCOD9020099 Si02
#       8
#     2   2   2   2   2   2   2   1
#     4  12  25  43  68 103 138 181 226 284 345 405
#     4  11  25  43  66 100 135 181 230 277 342 412
#     4  11  24  45  69 105 138 176 231 287 340 415
#     4  10  22  44  73  95 135 183 225 287 351 396
#     4  10  21  46  70  97 134 180 233 285 342 408
#     4  10  23  41  62  91 135 176 227 278 335 409
#     4  10  22  42  63  98 134 178 225 281 342 398
#     4  12  26  44  70  98 144 180 226 276 344 416
#
# _framework density 21.992170000000002
#
# number of rings (size 3 to 8) (size 9 to 14) (size 15 to 20)
#    0.000    1.333    2.667    2.000    1.867    2.133 
#    4.800    7.333    0.000    0.000    0.000    0.000 
#    0.000    0.000    0.000    0.000    0.000    0.000 
#
# Total GULP energy -83547.022357 kJ/mol
# GULP energy per Si atom -5569.801490 kJ/mol
# Density = 2.194212 g / cm^3
# Si number density = 21.992170 Si / 1000 Ang^3
#
#
#
# Elastic Constant Matrix: (Units=GPa)
#
#
# Indices 1 2 3 4 5 6 
#
# 1 42.5355 22.2054 5.2040 11.4731 -6.5607 2.0969
# 2 22.2054 165.5028 43.9098 4.9079 8.8101 7.9148
# 3 5.2040 43.9098 69.2151 24.7177 13.8146 20.5086
# 4 11.4731 4.9079 24.7177 41.0882 2.7469 -2.8675
# 5 -6.5607 8.8101 13.8146 2.7469 27.2342 5.9090
# 6 2.0969 7.9148 20.5086 -2.8675 5.9090 24.4497
#
#
#
# Elastic Compliance Matrix: (Units=1/GPa)
#
#
# Indices 1 2 3 4 5 6 
#
# 1 0.031464 -0.005869 0.007996 -0.014318 0.009350 -0.011444
# 2 -0.005869 0.008830 -0.009099 0.006625 -0.001727 0.006472
# 3 0.007996 -0.009099 0.040503 -0.027480 -0.005618 -0.033580
# 4 -0.014318 0.006625 -0.027480 0.046201 -0.002418 0.028136
# 5 0.009350 -0.001727 -0.005618 -0.002418 0.044023 -0.006453
# 6 -0.011444 0.006472 -0.033580 0.028136 -0.006453 0.072813
#
#
# Mechanical properties :
#
#
# Convention : Reuss Voigt Hill
#
# Bulk Modulus (GPa) = 14.95828 46.65465 30.80647
# Shear Modulus (GPa) = 17.85315 32.28336 25.06826
#
# Velocity S-wave (km/s) = 2.85229 3.83554 3.37986
# Velocity P-wave (km/s) = 4.20284 6.39339 5.41014
#
# Compressibility (1/GPa) = 0.06685260
#
# Stress axis : x y z
#
# Youngs Moduli (GPa) = 31.78285 113.25523 24.68926
#
# Poissons Ratio (x) = 0.66464 -0.19740
# Poissons Ratio (y) = 0.18652 0.22465
# Poissons Ratio (z) = -0.25412 1.03050
#
# Static dielectric constant tensor:
#      x y z
#    x 1.851440 -0.010700 -0.004910 
#    y -0.010700 1.851590 -0.042740 
#    z -0.004910 -0.042740 1.830250 
# 
# From -- ./inp_files/46660.got.cif
#   From: 2010.05.17/outbox.cif.g08.bks.cpg/sg2_24_cif.got.tgz:46660.got - 2010.06.03 11:33:40.
