data_PCOD9020945
_publ_section_title
;
Structure prediction by ZEFSAII (Michael W. Deem and Ramdas Pophale) SiO2 
 PCOD9020945
Probable space group: P -1
;
_chemical_formula_sum "Si O2"
_cell_formula_units_Z 12
_cell_length_a 15.639036
_cell_length_b 8.832132
_cell_length_c 8.831871
_cell_angle_alpha 64.220627
_cell_angle_beta 138.932939
_cell_angle_gamma 139.505302
_cell_volume 492.253348
_symmetry_space_group_name_H-M "P -1"
_symmetry_group_IT_number 2
_symmetry_cell_setting 'triclinic'
loop_
_space_group_symop_operation_xyz
x,y,z
-x,-y,-z
loop_
_atom_site_type_symbol
_atom_site_label
_atom_site_fract_x
_atom_site_fract_y
_atom_site_fract_z
Si Si1 0.847783 0.868080 0.489852
Si Si2 0.991915 0.818482 0.977062
Si Si3 0.499781 0.263854 0.909939
Si Si4 0.936113 0.621169 0.302320
Si Si5 0.509567 0.978350 0.270503
Si Si6 0.211341 0.747846 0.229938
O O1 0.871292 0.741473 0.698640
O O2 0.626161 0.693552 0.237000
O O3 0.000000 0.000000 0.500000
O O4 0.913288 0.101953 0.557431
O O5 0.929369 0.630136 0.107052
O O6 0.193094 0.934456 0.136275
O O7 0.000000 0.000000 0.000000
O O8 0.727560 0.485445 0.136590
O O9 0.436127 0.051934 0.026710
O O10 0.469897 0.168932 0.738976
O O11 0.000000 0.500000 0.500000
O O12 0.360545 0.824244 0.273913
O O13 0.705856 0.220932 0.508541
O O14 0.000000 0.500000 0.000000
#
# Coordination Sequence:
#
# PCOD9020945 Si02
#       6
#     2   2   2   2   2   2
#     4  11  25  43  63  94 136 172 211 271 334 390
#     4  10  22  41  63  90 131 173 208 262 331 388
#     4  11  22  40  64  92 130 171 215 266 326 392
#     4  11  23  42  69  95 125 174 226 265 319 393
#     4  10  22  37  62  96 126 162 214 277 326 371
#     4  11  22  40  65  94 126 166 221 272 319 384
#
# _framework density 24.377692
#
# number of rings (size 3 to 8) (size 9 to 14) (size 15 to 20)
#    0.000    1.333    0.000    7.000    0.000    5.333 
#    0.000    7.500    0.000    0.000    0.000    0.000 
#    0.000    0.000    0.000    0.000    0.000    0.000 
#
# Total GULP energy -67038.818748 kJ/mol
# GULP energy per Si atom -5586.568229 kJ/mol
# Density = 2.432221 g / cm^3
# Si number density = 24.377692 Si / 1000 Ang^3
#
#
#
# Elastic Constant Matrix: (Units=GPa)
#
#
# Indices 1 2 3 4 5 6 
#
# 1 128.8354 15.2738 70.9212 -8.0194 23.9666 11.6540
# 2 15.2738 46.4032 34.9384 -8.7558 -4.1902 9.6636
# 3 70.9212 34.9384 169.6372 -13.8505 16.5699 14.2658
# 4 -8.0194 -8.7558 -13.8505 51.6726 -4.5238 -2.9895
# 5 23.9666 -4.1902 16.5699 -4.5238 42.9276 8.3612
# 6 11.6540 9.6636 14.2658 -2.9895 8.3612 34.2928
#
#
#
# Elastic Compliance Matrix: (Units=1/GPa)
#
#
# Indices 1 2 3 4 5 6 
#
# 1 0.010912 -0.000933 -0.003860 0.000061 -0.004546 -0.000726
# 2 -0.000933 0.028616 -0.005326 0.003495 0.007093 -0.006956
# 3 -0.003860 -0.005326 0.008857 0.000706 -0.001629 -0.000413
# 4 0.000061 0.003495 0.000706 0.020332 0.002189 -0.000061
# 5 -0.004546 0.007093 -0.001629 0.002189 0.028665 -0.006575
# 6 -0.000726 -0.006956 -0.000413 -0.000061 -0.006575 0.033137
#
#
# Mechanical properties :
#
#
# Convention : Reuss Voigt Hill
#
# Bulk Modulus (GPa) = 35.52785 65.23805 50.38295
# Shear Modulus (GPa) = 31.22242 40.69476 35.95859
#
# Velocity S-wave (km/s) = 3.58268 4.09019 3.84482
# Velocity P-wave (km/s) = 5.63202 7.00897 6.35788
#
# Compressibility (1/GPa) = 0.02814693
#
# Stress axis : x y z
#
# Youngs Moduli (GPa) = 91.63891 34.94513 112.90334
#
# Poissons Ratio (x) = 0.03262 0.43580
# Poissons Ratio (y) = 0.08554 0.60133
# Poissons Ratio (z) = 0.35372 0.18612
#
# Static dielectric constant tensor:
#      x y z
#    x 1.995350 -0.027870 0.007860 
#    y -0.027870 2.019150 0.037440 
#    z 0.007860 0.037440 1.963680 
# 
# From -- ./inp_files/295088.got.cif
#   From: 2010.05.17/outbox.cif.g08.bks.cpg/sg2_148_cif.got.tgz:295088.got - 2010.06.03 11:33:40.
