data_PCOD9020804
_publ_section_title
;
Structure prediction by ZEFSAII (Michael W. Deem and Ramdas Pophale) SiO2 
 PCOD9020804
Probable space group: P -1
;
_chemical_formula_sum "Si O2"
_cell_formula_units_Z 16
_cell_length_a 8.461675
_cell_length_b 11.457136
_cell_length_c 18.597433
_cell_angle_alpha 141.252856
_cell_angle_beta 45.635598
_cell_angle_gamma 108.101543
_cell_volume 686.923665
_symmetry_space_group_name_H-M "P -1"
_symmetry_group_IT_number 2
_symmetry_cell_setting 'triclinic'
loop_
_space_group_symop_operation_xyz
x,y,z
-x,-y,-z
loop_
_atom_site_type_symbol
_atom_site_label
_atom_site_fract_x
_atom_site_fract_y
_atom_site_fract_z
Si Si1 0.498198 0.917974 0.682873
Si Si2 0.248156 0.981147 0.562445
Si Si3 0.011007 0.885381 0.842130
Si Si4 0.462875 0.309921 0.953433
Si Si5 0.104104 0.360559 0.700451
Si Si6 0.431162 0.489954 0.754280
Si Si7 0.161345 0.917716 0.144351
Si Si8 0.418227 0.722706 0.738544
O O1 0.200916 0.975642 0.804221
O O2 0.674906 0.772730 0.492332
O O3 0.594544 0.767827 0.652427
O O4 0.489684 0.142296 0.802575
O O5 0.352377 0.734778 0.386331
O O6 0.500000 0.000000 0.500000
O O7 0.065551 0.174232 0.659697
O O8 0.106206 0.019652 0.701729
O O9 0.774722 0.311544 0.270135
O O10 0.890237 0.893012 0.806289
O O11 0.778658 0.053409 0.048231
O O12 0.648429 0.153135 0.882199
O O13 0.500000 0.500000 0.000000
O O14 0.171074 0.440601 0.140861
O O15 0.213624 0.451062 0.770200
O O16 0.544896 0.542644 0.672789
O O17 0.296375 0.695059 0.947831
#
# Coordination Sequence:
#
# PCOD9020804 Si02
#       8
#     2   2   2   2   2   2   2   2
#     4  10  22  42  66  90 131 159 208 263 304 370
#     4  10  22  37  58  95 123 153 206 257 309 352
#     4   8  16  37  67  91 119 157 198 262 314 348
#     4  12  26  42  61  87 127 181 208 240 315 377
#     4  11  24  40  63  96 122 171 206 253 313 372
#     4  10  22  40  69  96 122 154 213 258 314 368
#     4  11  22  41  60  92 125 163 205 260 306 362
#     4   8  17  37  68  96 121 158 200 263 319 361
#
# _framework density 23.292254
#
# number of rings (size 3 to 8) (size 9 to 14) (size 15 to 20)
#    0.750    1.250    1.250    3.000    1.750    4.000 
#    0.000    2.500    0.000    3.750    0.000    0.000 
#    0.000    0.000    0.000    0.000    0.000    0.000 
#
# Total GULP energy -89181.559341 kJ/mol
# GULP energy per Si atom -5573.847459 kJ/mol
# Density = 2.323924 g / cm^3
# Si number density = 23.292254 Si / 1000 Ang^3
#
#
#
# Elastic Constant Matrix: (Units=GPa)
#
#
# Indices 1 2 3 4 5 6 
#
# 1 38.9996 -6.1610 12.2611 -1.6540 -3.4253 -7.4195
# 2 -6.1610 40.2027 12.9350 -5.3839 2.3450 -4.6019
# 3 12.2611 12.9350 91.3461 -8.3216 12.7904 1.0077
# 4 -1.6540 -5.3839 -8.3216 36.9705 -2.5881 8.2865
# 5 -3.4253 2.3450 12.7904 -2.5881 20.9874 5.8107
# 6 -7.4195 -4.6019 1.0077 8.2865 5.8107 23.5581
#
#
#
# Elastic Compliance Matrix: (Units=1/GPa)
#
#
# Indices 1 2 3 4 5 6 
#
# 1 0.031196 0.007570 -0.006152 -0.000936 0.004921 0.010682
# 2 0.007570 0.028784 -0.004896 0.001588 -0.000989 0.007902
# 3 -0.006152 -0.004896 0.013798 0.002059 -0.007992 -0.002237
# 4 -0.000936 0.001588 0.002059 0.030856 0.005629 -0.012315
# 5 0.004921 -0.000989 -0.007992 0.005629 0.058177 -0.014631
# 6 0.010682 0.007902 -0.002237 -0.012315 -0.014631 0.055392
#
#
# Mechanical properties :
#
#
# Convention : Reuss Voigt Hill
#
# Bulk Modulus (GPa) = 14.96485 23.17983 19.07234
# Shear Modulus (GPa) = 20.20754 26.40409 23.30582
#
# Velocity S-wave (km/s) = 2.94864 3.37055 3.16663
# Velocity P-wave (km/s) = 4.24634 5.01207 4.64501
#
# Compressibility (1/GPa) = 0.06682328
#
# Stress axis : x y z
#
# Youngs Moduli (GPa) = 32.05538 34.74117 72.47536
#
# Poissons Ratio (x) = -0.26300 0.44584
# Poissons Ratio (y) = -0.24267 0.35485
# Poissons Ratio (z) = 0.19719 0.17010
#
# Static dielectric constant tensor:
#      x y z
#    x 1.981180 -0.039890 -0.024320 
#    y -0.039890 1.953200 0.044370 
#    z -0.024320 0.044370 1.830320 
# 
# From -- ./inp_files/560013.got.cif
#   From: 2010.05.17/outbox.cif.g08.bks.cpg/sg2_281_cif.got.tgz:560013.got - 2010.06.03 11:33:40.
