data_PCOD9020570
_publ_section_title
;
Structure prediction by ZEFSAII (Michael W. Deem and Ramdas Pophale) SiO2 
 PCOD9020570
Probable space group: P -1
;
_chemical_formula_sum "Si O2"
_cell_formula_units_Z 16
_cell_length_a 9.265874
_cell_length_b 14.615163
_cell_length_c 17.618092
_cell_angle_alpha 25.119845
_cell_angle_beta 126.568702
_cell_angle_gamma 139.116573
_cell_volume 628.196761
_symmetry_space_group_name_H-M "P -1"
_symmetry_group_IT_number 2
_symmetry_cell_setting 'triclinic'
loop_
_space_group_symop_operation_xyz
x,y,z
-x,-y,-z
loop_
_atom_site_type_symbol
_atom_site_label
_atom_site_fract_x
_atom_site_fract_y
_atom_site_fract_z
Si Si1 0.797715 0.674412 0.627009
Si Si2 0.730564 0.070132 0.385432
Si Si3 0.550890 0.043007 0.764986
Si Si4 0.048894 0.348263 0.544358
Si Si5 0.205775 0.079790 0.713125
Si Si6 0.700791 0.375053 0.332144
Si Si7 0.326879 0.219602 0.883569
Si Si8 0.099410 0.191909 0.048099
O O1 0.766808 0.840211 0.554799
O O2 0.852853 0.850906 0.436471
O O3 0.545624 0.375628 0.777887
O O4 0.005374 0.667076 0.711998
O O5 0.616987 0.086920 0.262670
O O6 0.541590 0.926945 0.499357
O O7 0.784650 0.355803 0.583996
O O8 0.407365 0.067530 0.766197
O O9 0.614175 0.871717 0.954782
O O10 0.238751 0.316518 0.597945
O O11 0.910780 0.370607 0.419256
O O12 0.867084 0.041702 0.756123
O O13 0.992260 0.812710 0.893687
O O14 0.724231 0.579758 0.251499
O O15 0.712181 0.510251 0.154343
O O16 0.108609 0.958779 0.965951
#
# Coordination Sequence:
#
# PCOD9020570 Si02
#       8
#     2   2   2   2   2   2   2   2
#     4   9  19  42  58  86 113 159 207 242 294 335
#     4   9  21  37  65  80 117 162 196 253 288 338
#     4  11  21  36  59  94 120 155 195 247 303 345
#     4  10  22  36  61  85 125 159 185 248 294 355
#     4   9  22  38  60  83 123 159 196 241 295 355
#     4  11  22  40  57  92 122 156 200 236 301 357
#     4  11  23  33  62  92 122 152 195 252 293 359
#     4  10  22  37  57  93 118 159 187 240 302 355
#
# _framework density 25.469726000000001
#
# number of rings (size 3 to 8) (size 9 to 14) (size 15 to 20)
#    0.750    1.250    1.250    3.000    3.500    3.000 
#    0.000    1.250    0.000    0.000    0.000    0.000 
#    0.000    0.000    0.000    0.000    0.000    0.000 
#
# Total GULP energy -89350.860245 kJ/mol
# GULP energy per Si atom -5584.428765 kJ/mol
# Density = 2.541176 g / cm^3
# Si number density = 25.469726 Si / 1000 Ang^3
#
#
#
# Elastic Constant Matrix: (Units=GPa)
#
#
# Indices 1 2 3 4 5 6 
#
# 1 87.4197 19.9936 56.4283 -2.7062 -9.0462 13.0037
# 2 19.9936 46.0717 12.2867 5.3243 2.0233 14.8263
# 3 56.4283 12.2867 138.7989 22.5356 -6.8335 -1.1652
# 4 -2.7062 5.3243 22.5356 29.1398 4.9933 3.1601
# 5 -9.0462 2.0233 -6.8335 4.9933 50.5221 5.5658
# 6 13.0037 14.8263 -1.1652 3.1601 5.5658 18.9766
#
#
#
# Elastic Compliance Matrix: (Units=1/GPa)
#
#
# Indices 1 2 3 4 5 6 
#
# 1 0.022208 -0.003018 -0.010707 0.012123 0.003268 -0.016494
# 2 -0.003018 0.030584 -0.001183 -0.002730 0.000731 -0.021659
# 3 -0.010707 -0.001183 0.013817 -0.012683 0.000017 0.011217
# 4 0.012123 -0.002730 -0.012683 0.047729 -0.002595 -0.014140
# 5 0.003268 0.000731 0.000017 -0.002595 0.021567 -0.008702
# 6 -0.016494 -0.021659 0.011217 -0.014140 -0.008702 0.086517
#
#
# Mechanical properties :
#
#
# Convention : Reuss Voigt Hill
#
# Bulk Modulus (GPa) = 27.18014 49.96749 38.57381
# Shear Modulus (GPa) = 18.90346 31.96648 25.43497
#
# Velocity S-wave (km/s) = 2.72728 3.54655 3.16355
# Velocity P-wave (km/s) = 4.54006 6.03587 5.34059
#
# Compressibility (1/GPa) = 0.03679157
#
# Stress axis : x y z
#
# Youngs Moduli (GPa) = 45.02926 32.69657 72.37698
#
# Poissons Ratio (x) = 0.09869 0.77496
# Poissons Ratio (y) = 0.13592 0.08561
# Poissons Ratio (z) = 0.48214 0.03867
#
# Static dielectric constant tensor:
#      x y z
#    x 2.123600 -0.008540 -0.062660 
#    y -0.008540 2.020800 -0.079560 
#    z -0.062660 -0.079560 2.025340 
# 
# From -- ./inp_files/596224.got.cif
#   From: 2010.05.17/outbox.cif.g08.bks.cpg/sg2_299_cif.got.tgz:596224.got - 2010.06.03 11:33:40.
