data_PCOD9020979
_publ_section_title
;
Structure prediction by ZEFSAII (Michael W. Deem and Ramdas Pophale) SiO2 
 PCOD9020979
Probable space group: P -1
;
_chemical_formula_sum "Si O2"
_cell_formula_units_Z 16
_cell_length_a 10.877240
_cell_length_b 9.179510
_cell_length_c 15.224016
_cell_angle_alpha 40.346499
_cell_angle_beta 84.329725
_cell_angle_gamma 66.944756
_cell_volume 853.131543
_symmetry_space_group_name_H-M "P -1"
_symmetry_group_IT_number 2
_symmetry_cell_setting 'triclinic'
loop_
_space_group_symop_operation_xyz
x,y,z
-x,-y,-z
loop_
_atom_site_type_symbol
_atom_site_label
_atom_site_fract_x
_atom_site_fract_y
_atom_site_fract_z
Si Si1 0.614338 0.809415 0.355540
Si Si2 0.632249 0.387218 0.412780
Si Si3 0.672076 0.843211 0.709593
Si Si4 0.988951 0.476215 0.909617
Si Si5 0.915365 0.307692 0.352953
Si Si6 0.362699 0.393745 0.357057
Si Si7 0.925738 0.080813 0.874832
Si Si8 0.079988 0.337732 0.655167
O O1 0.598856 0.594983 0.397282
O O2 0.651401 0.716197 0.497031
O O3 0.750975 0.812515 0.304938
O O4 0.461585 0.067071 0.256414
O O5 0.752355 0.391264 0.342717
O O6 0.497846 0.433057 0.343831
O O7 0.688440 0.099803 0.580827
O O8 0.822256 0.604290 0.836557
O O9 0.629282 0.781071 0.645908
O O10 0.049865 0.614656 0.778608
O O11 0.000000 0.500000 0.000000
O O12 0.081916 0.170683 0.032607
O O13 0.952936 0.460286 0.354926
O O14 0.000000 0.000000 0.500000
O O15 0.224464 0.666004 0.227048
O O16 0.021224 0.146877 0.773159
O O17 0.000000 0.000000 0.000000
O O18 0.000000 0.500000 0.500000
#
# Coordination Sequence:
#
# PCOD9020979 Si02
#       8
#     2   2   2   2   2   2   2   2
#     4  10  22  37  63  95 125 160 214 262 307 371
#     4  10  22  37  65  92 125 163 210 266 309 363
#     4  11  21  40  61  93 126 165 211 258 315 371
#     4  12  28  43  65  95 130 173 208 260 325 380
#     4  11  23  42  64  95 128 162 218 265 305 375
#     4  11  21  38  64  92 125 168 206 260 315 370
#     4  12  24  45  65  91 134 168 211 258 322 383
#     4  11  23  40  67  96 122 168 216 261 311 368
#
# _framework density 18.754435000000001
#
# number of rings (size 3 to 8) (size 9 to 14) (size 15 to 20)
#    0.000    1.000    5.000    3.000    5.250    1.000 
#    0.000    2.500    0.000    0.000    0.000    0.000 
#    0.000    0.000    0.000    0.000    0.000    0.000 
#
# Total GULP energy -89294.877310 kJ/mol
# GULP energy per Si atom -5580.929832 kJ/mol
# Density = 1.871175 g / cm^3
# Si number density = 18.754435 Si / 1000 Ang^3
#
#
#
# Elastic Constant Matrix: (Units=GPa)
#
#
# Indices 1 2 3 4 5 6 
#
# 1 66.7467 16.7791 25.3519 8.4358 -2.8970 -18.5939
# 2 16.7791 110.4878 25.3470 6.3171 -5.7830 -4.6145
# 3 25.3519 25.3470 80.5482 9.2232 -12.2207 -14.1518
# 4 8.4358 6.3171 9.2232 38.9676 -0.5868 5.7279
# 5 -2.8970 -5.7830 -12.2207 -0.5868 33.0687 0.9042
# 6 -18.5939 -4.6145 -14.1518 5.7279 0.9042 35.3185
#
#
#
# Elastic Compliance Matrix: (Units=1/GPa)
#
#
# Indices 1 2 3 4 5 6 
#
# 1 0.020009 -0.001552 -0.003614 -0.004645 -0.000200 0.009642
# 2 -0.001552 0.009920 -0.002546 -0.000592 0.000660 -0.000462
# 3 -0.003614 -0.002546 0.016329 -0.003286 0.005085 0.004710
# 4 -0.004645 -0.000592 -0.003286 0.028773 -0.000982 -0.008480
# 5 -0.000200 0.000660 0.005085 -0.000982 0.032163 0.001354
# 6 0.009642 -0.000462 0.004710 -0.008480 0.001354 0.036557
#
#
# Mechanical properties :
#
#
# Convention : Reuss Voigt Hill
#
# Bulk Modulus (GPa) = 32.43234 43.63765 38.03499
# Shear Modulus (GPa) = 29.50666 34.15794 31.83230
#
# Velocity S-wave (km/s) = 3.97081 4.27233 4.12433
# Velocity P-wave (km/s) = 6.19304 6.90330 6.55779
#
# Compressibility (1/GPa) = 0.03083342
#
# Stress axis : x y z
#
# Youngs Moduli (GPa) = 49.97746 100.80973 61.24055
#
# Poissons Ratio (x) = 0.15644 0.22132
# Poissons Ratio (y) = 0.07756 0.15595
# Poissons Ratio (z) = 0.18061 0.25671
#
# Static dielectric constant tensor:
#      x y z
#    x 1.666430 -0.014300 0.006340 
#    y -0.014300 1.627450 -0.009850 
#    z 0.006340 -0.009850 1.617830 
# 
# From -- ./inp_files/262371.got.cif
#   From: 2010.05.17/outbox.cif.g08.bks.cpg/sg2_132_cif.got.tgz:262371.got - 2010.06.03 11:33:40.
