data_PCOD9020599
_publ_section_title
;
Structure prediction by ZEFSAII (Michael W. Deem and Ramdas Pophale) SiO2 
 PCOD9020599
Probable space group: P -1
;
_chemical_formula_sum "Si O2"
_cell_formula_units_Z 16
_cell_length_a 11.647154
_cell_length_b 14.744140
_cell_length_c 11.525786
_cell_angle_alpha 30.158342
_cell_angle_beta 82.192682
_cell_angle_gamma 62.155074
_cell_volume 701.188022
_symmetry_space_group_name_H-M "P -1"
_symmetry_group_IT_number 2
_symmetry_cell_setting 'triclinic'
loop_
_space_group_symop_operation_xyz
x,y,z
-x,-y,-z
loop_
_atom_site_type_symbol
_atom_site_label
_atom_site_fract_x
_atom_site_fract_y
_atom_site_fract_z
Si Si1 0.054742 0.735743 0.067415
Si Si2 0.626372 0.449038 0.181356
Si Si3 0.285740 0.226352 0.730225
Si Si4 0.536252 0.668896 0.291924
Si Si5 0.512912 0.947663 0.692762
Si Si6 0.359011 0.466568 0.183930
Si Si7 0.169842 0.306396 0.919897
Si Si8 0.136441 0.728468 0.463003
O O1 0.129432 0.490512 0.403408
O O2 0.198232 0.681876 0.039813
O O3 0.932394 0.762168 0.970255
O O4 0.966309 0.986997 0.876647
O O5 0.526564 0.377237 0.300101
O O6 0.795386 0.288508 0.401816
O O7 0.510120 0.735409 0.930778
O O8 0.653261 0.453801 0.035917
O O9 0.407849 0.265577 0.680879
O O10 0.240429 0.213927 0.881255
O O11 0.379873 0.957282 0.954224
O O12 0.500000 0.500000 0.500000
O O13 0.699767 0.482769 0.399413
O O14 0.500000 0.000000 0.500000
O O15 0.379453 0.227915 0.452454
O O16 0.683539 0.821626 0.867535
O O17 0.063070 0.608107 0.607965
#
# Coordination Sequence:
#
# PCOD9020599 Si02
#       8
#     2   2   2   2   2   2   2   2
#     4  12  25  37  61  97 131 167 206 254 323 377
#     4   9  20  41  61  86 122 161 210 264 310 366
#     4  10  24  39  61  93 127 168 214 255 303 376
#     4  10  22  39  64  91 118 167 218 261 298 368
#     4   9  19  39  67  89 114 163 214 256 309 370
#     4  10  22  36  62  93 120 160 212 261 310 375
#     4  10  22  42  62  85 134 169 201 258 321 372
#     4  10  23  40  61  88 125 169 203 261 320 367
#
# _framework density 22.818415000000002
#
# number of rings (size 3 to 8) (size 9 to 14) (size 15 to 20)
#    0.000    2.000    0.000    1.875    8.750    4.500 
#    0.000    5.625    0.000    0.000    0.000    0.000 
#    0.000    0.000    0.000    0.000    0.000    0.000 
#
# Total GULP energy -89236.272458 kJ/mol
# GULP energy per Si atom -5577.267029 kJ/mol
# Density = 2.276648 g / cm^3
# Si number density = 22.818415 Si / 1000 Ang^3
#
#
#
# Elastic Constant Matrix: (Units=GPa)
#
#
# Indices 1 2 3 4 5 6 
#
# 1 68.4991 15.2243 21.0625 -1.4382 -22.3709 -0.5340
# 2 15.2243 74.5570 43.2759 -5.8774 1.3162 4.8199
# 3 21.0625 43.2759 129.7148 -36.3437 -24.9192 7.5675
# 4 -1.4382 -5.8774 -36.3437 31.9551 9.9393 -4.4310
# 5 -22.3709 1.3162 -24.9192 9.9393 39.5925 -2.7151
# 6 -0.5340 4.8199 7.5675 -4.4310 -2.7151 22.2023
#
#
#
# Elastic Compliance Matrix: (Units=1/GPa)
#
#
# Indices 1 2 3 4 5 6 
#
# 1 0.019609 -0.004238 -0.000782 -0.004182 0.011934 0.002283
# 2 -0.004238 0.018899 -0.007918 -0.003907 -0.007243 -0.003171
# 3 -0.000782 -0.007918 0.015700 0.014475 0.006068 -0.000020
# 4 -0.004182 -0.003907 0.014475 0.049133 -0.005115 0.004994
# 5 0.011934 -0.007243 0.006068 -0.005115 0.037575 0.003366
# 6 0.002283 -0.003171 -0.000020 0.004994 0.003366 0.047199
#
#
# Mechanical properties :
#
#
# Convention : Reuss Voigt Hill
#
# Bulk Modulus (GPa) = 35.29680 47.98848 41.64264
# Shear Modulus (GPa) = 22.37779 31.63053 27.00416
#
# Velocity S-wave (km/s) = 3.13499 3.72719 3.44384
# Velocity P-wave (km/s) = 5.34849 6.29276 5.83974
#
# Compressibility (1/GPa) = 0.02833118
#
# Stress axis : x y z
#
# Youngs Moduli (GPa) = 50.99737 52.91356 63.69284
#
# Poissons Ratio (x) = 0.22424 0.04984
# Poissons Ratio (y) = 0.21612 0.50432
# Poissons Ratio (z) = 0.03990 0.41897
#
# Static dielectric constant tensor:
#      x y z
#    x 1.898850 0.022430 0.015150 
#    y 0.022430 1.877930 0.020480 
#    z 0.015150 0.020480 1.960640 
# 
# From -- ./inp_files/433660.got.cif
#   From: 2010.05.17/outbox.cif.g08.bks.cpg/sg2_217_cif.got.tgz:433660.got - 2010.06.03 11:33:40.
