data_PCOD9020755
_publ_section_title
;
Structure prediction by ZEFSAII (Michael W. Deem and Ramdas Pophale) SiO2 
 PCOD9020755
Probable space group: P -1
;
_chemical_formula_sum "Si O2"
_cell_formula_units_Z 16
_cell_length_a 21.731181
_cell_length_b 22.311553
_cell_length_c 14.171978
_cell_angle_alpha 145.619689
_cell_angle_beta 34.081901
_cell_angle_gamma 167.422625
_cell_volume 830.366092
_symmetry_space_group_name_H-M "P -1"
_symmetry_group_IT_number 2
_symmetry_cell_setting 'triclinic'
loop_
_space_group_symop_operation_xyz
x,y,z
-x,-y,-z
loop_
_atom_site_type_symbol
_atom_site_label
_atom_site_fract_x
_atom_site_fract_y
_atom_site_fract_z
Si Si1 0.598681 0.120604 0.287815
Si Si2 0.178113 0.546350 0.062161
Si Si3 0.215771 0.242288 0.464967
Si Si4 0.449842 0.063211 0.204230
Si Si5 0.139110 0.417230 0.739902
Si Si6 0.478077 0.097789 0.611515
Si Si7 0.589096 0.756235 0.925847
Si Si8 0.914143 0.661750 0.858735
O O1 0.599980 0.186342 0.274317
O O2 0.536684 0.137568 0.478188
O O3 0.896613 0.324782 0.190516
O O4 0.364066 0.819123 0.178610
O O5 0.082217 0.422783 0.920051
O O6 0.367231 0.622603 0.967145
O O7 0.500000 0.500000 0.500000
O O8 0.143429 0.296175 0.593950
O O9 0.274507 0.219545 0.271646
O O10 0.000000 0.000000 0.500000
O O11 0.571341 0.271183 0.261606
O O12 0.109474 0.773601 0.265141
O O13 0.500000 0.000000 0.000000
O O14 0.730366 0.388508 0.722155
O O15 0.500000 0.000000 0.500000
O O16 0.158505 0.861718 0.725826
O O17 0.381642 0.537636 0.993818
O O18 0.850804 0.070849 0.024290
#
# Coordination Sequence:
#
# PCOD9020755 Si02
#       8
#     2   2   2   2   2   2   2   2
#     4  12  24  36  61  89 121 170 205 248 303 360
#     4  12  21  34  57  87 122 163 207 234 301 366
#     4  12  25  40  62  93 126 160 210 257 309 376
#     4  12  23  41  59  87 125 168 214 246 290 370
#     4  12  24  40  59  87 127 167 203 253 295 357
#     4  11  21  38  56  87 123 154 206 261 308 367
#     4  11  22  38  59  88 120 163 198 246 319 373
#     4  10  22  37  56  80 119 157 196 250 304 374
#
# _framework density 19.268609000000001
#
# number of rings (size 3 to 8) (size 9 to 14) (size 15 to 20)
#    0.000    0.500    3.750    6.750    1.750    0.000 
#    0.000    0.000    0.000    0.000    0.000   17.500 
#    0.000    0.000    0.000    0.000    0.000    0.000 
#
# Total GULP energy -89121.447412 kJ/mol
# GULP energy per Si atom -5570.090463 kJ/mol
# Density = 1.922475 g / cm^3
# Si number density = 19.268609 Si / 1000 Ang^3
#
#
#
# Elastic Constant Matrix: (Units=GPa)
#
#
# Indices 1 2 3 4 5 6 
#
# 1 54.0074 13.6693 36.1471 6.1922 1.1022 -1.8817
# 2 13.6693 143.0688 51.0450 -2.3188 -2.6700 -1.6812
# 3 36.1471 51.0450 130.4805 -7.3803 12.3472 -8.8330
# 4 6.1922 -2.3188 -7.3803 28.8479 -5.4268 3.6746
# 5 1.1022 -2.6700 12.3472 -5.4268 23.4361 -4.0395
# 6 -1.8817 -1.6812 -8.8330 3.6746 -4.0395 26.4551
#
#
#
# Elastic Compliance Matrix: (Units=1/GPa)
#
#
# Indices 1 2 3 4 5 6 
#
# 1 0.024068 0.000189 -0.007210 -0.006830 0.001184 0.000446
# 2 0.000189 0.008300 -0.003569 0.000280 0.002838 -0.000256
# 3 -0.007210 -0.003569 0.011864 0.003051 -0.005268 0.001993
# 4 -0.006830 0.000280 0.003051 0.038741 0.007070 -0.003751
# 5 0.001184 0.002838 -0.005268 0.007070 0.048191 0.004882
# 6 0.000446 -0.000256 0.001993 -0.003751 0.004882 0.039747
#
#
# Mechanical properties :
#
#
# Convention : Reuss Voigt Hill
#
# Bulk Modulus (GPa) = 43.38068 58.80884 51.09476
# Shear Modulus (GPa) = 25.02828 30.86084 27.94456
#
# Velocity S-wave (km/s) = 3.60796 4.00636 3.81236
# Velocity P-wave (km/s) = 6.31815 7.21027 6.77890
#
# Compressibility (1/GPa) = 0.02305174
#
# Stress axis : x y z
#
# Youngs Moduli (GPa) = 41.54899 120.48868 84.29076
#
# Poissons Ratio (x) = -0.02283 0.60772
# Poissons Ratio (y) = -0.00787 0.30087
# Poissons Ratio (z) = 0.29956 0.43007
#
# Static dielectric constant tensor:
#      x y z
#    x 2.109400 -0.059990 -0.094350 
#    y -0.059990 1.682070 -0.022610 
#    z -0.094350 -0.022610 1.703310 
# 
# From -- ./inp_files/543363.got.cif
#   From: 2010.05.17/outbox.cif.g08.bks.cpg/sg2_272_cif.got.tgz:543363.got - 2010.06.03 11:33:40.
