data_PCOD9020455
_publ_section_title
;
Structure prediction by ZEFSAII (Michael W. Deem and Ramdas Pophale) SiO2 
 PCOD9020455
Probable space group: P -1
;
_chemical_formula_sum "Si O2"
_cell_formula_units_Z 14
_cell_length_a 13.495447
_cell_length_b 8.296786
_cell_length_c 10.553440
_cell_angle_alpha 125.810464
_cell_angle_beta 139.462311
_cell_angle_gamma 63.550688
_cell_volume 622.826774
_symmetry_space_group_name_H-M "P -1"
_symmetry_group_IT_number 2
_symmetry_cell_setting 'triclinic'
loop_
_space_group_symop_operation_xyz
x,y,z
-x,-y,-z
loop_
_atom_site_type_symbol
_atom_site_label
_atom_site_fract_x
_atom_site_fract_y
_atom_site_fract_z
Si Si1 0.923238 0.190957 0.450924
Si Si2 0.024378 0.412492 0.167736
Si Si3 0.338997 0.010528 0.233832
Si Si4 0.735501 0.226539 0.711696
Si Si5 0.613271 0.987306 0.987064
Si Si6 0.295789 0.386751 0.247827
Si Si7 0.014742 0.105376 0.236098
O O1 0.935450 0.377514 0.638311
O O2 0.004391 0.225723 0.411139
O O3 0.000000 0.000000 0.500000
O O4 0.752128 0.126645 0.225614
O O5 0.118975 0.389956 0.120273
O O6 0.064895 0.241847 0.231017
O O7 0.844222 0.383369 0.962603
O O8 0.357144 0.896154 0.330131
O O9 0.435704 0.945186 0.172702
O O10 0.357496 0.249325 0.360500
O O11 0.159500 0.965839 0.997800
O O12 0.654772 0.382858 0.610501
O O13 0.861397 0.071462 0.708729
O O14 0.669224 0.761042 0.904113
O O15 0.500000 0.000000 0.000000
#
# Coordination Sequence:
#
# PCOD9020455 Si02
#       7
#     2   2   2   2   2   2   2
#     4  11  21  31  49  83 109 132 172 220 263 303
#     4  11  18  29  47  77 107 136 168 214 263 307
#     4   8  17  30  48  73  99 130 183 204 247 302
#     4  11  16  29  52  75 106 137 173 212 252 313
#     4   9  19  39  55  69 104 145 175 210 259 316
#     4  10  18  30  52  74  97 139 180 205 253 310
#     4  10  17  31  46  72 109 144 161 207 264 317
#
# _framework density 22.478161
#
# number of rings (size 3 to 8) (size 9 to 14) (size 15 to 20)
#    0.857    1.143    2.857    3.429    0.000    0.000 
#    0.000    1.429    0.000    0.000    0.000    4.000 
#    0.000    0.000    0.000    0.000    0.000    0.000 
#
# Total GULP energy -78005.872460 kJ/mol
# GULP energy per Si atom -5571.848033 kJ/mol
# Density = 2.242700 g / cm^3
# Si number density = 22.478161 Si / 1000 Ang^3
#
#
#
# Elastic Constant Matrix: (Units=GPa)
#
#
# Indices 1 2 3 4 5 6 
#
# 1 185.0513 47.0550 15.8722 11.8057 -5.7658 8.5285
# 2 47.0550 137.8335 14.7879 11.7347 1.5261 14.9725
# 3 15.8722 14.7879 42.8051 9.1988 -0.7024 -9.4702
# 4 11.8057 11.7347 9.1988 32.7129 2.5741 -4.6593
# 5 -5.7658 1.5261 -0.7024 2.5741 28.7588 11.6954
# 6 8.5285 14.9725 -9.4702 -4.6593 11.6954 42.2170
#
#
#
# Elastic Compliance Matrix: (Units=1/GPa)
#
#
# Indices 1 2 3 4 5 6 
#
# 1 0.006225 -0.001619 -0.001782 -0.001603 0.002194 -0.001868
# 2 -0.001619 0.008721 -0.002746 -0.002404 0.000951 -0.003911
# 3 -0.001782 -0.002746 0.027670 -0.004897 -0.002191 0.007607
# 4 -0.001603 -0.002404 -0.004897 0.034607 -0.005630 0.005457
# 5 0.002194 0.000951 -0.002191 -0.005630 0.041001 -0.013252
# 6 -0.001868 -0.003911 0.007607 0.005457 -0.013252 0.031431
#
#
# Mechanical properties :
#
#
# Convention : Reuss Voigt Hill
#
# Bulk Modulus (GPa) = 32.97679 57.90223 45.43951
# Shear Modulus (GPa) = 29.06014 39.93605 34.49810
#
# Velocity S-wave (km/s) = 3.59948 4.21962 3.92182
# Velocity P-wave (km/s) = 5.65486 7.03956 6.38486
#
# Compressibility (1/GPa) = 0.03032436
#
# Stress axis : x y z
#
# Youngs Moduli (GPa) = 160.63986 114.66118 36.13985
#
# Poissons Ratio (x) = 0.18563 0.06439
# Poissons Ratio (y) = 0.26006 0.09923
# Poissons Ratio (z) = 0.28620 0.31482
#
# Static dielectric constant tensor:
#      x y z
#    x 1.898310 0.008540 0.044590 
#    y 0.008540 1.949030 -0.094280 
#    z 0.044590 -0.094280 1.905520 
# 
# From -- ./inp_files/330086.got.cif
#   From: 2010.05.17/outbox.cif.g08.bks.cpg/sg2_166_cif.got.tgz:330086.got - 2010.06.03 11:33:40.
