data_PCOD9020353
_publ_section_title
;
Structure prediction by ZEFSAII (Michael W. Deem and Ramdas Pophale) SiO2 
 PCOD9020353
Probable space group: P -1
;
_chemical_formula_sum "Si O2"
_cell_formula_units_Z 16
_cell_length_a 5.302955
_cell_length_b 16.359910
_cell_length_c 25.454394
_cell_angle_alpha 159.964113
_cell_angle_beta 101.541974
_cell_angle_gamma 81.008634
_cell_volume 737.978574
_symmetry_space_group_name_H-M "P -1"
_symmetry_group_IT_number 2
_symmetry_cell_setting 'triclinic'
loop_
_space_group_symop_operation_xyz
x,y,z
-x,-y,-z
loop_
_atom_site_type_symbol
_atom_site_label
_atom_site_fract_x
_atom_site_fract_y
_atom_site_fract_z
Si Si1 0.021324 0.055824 0.597726
Si Si2 0.649542 0.324245 0.105694
Si Si3 0.906681 0.767149 0.522429
Si Si4 0.222610 0.259889 0.130266
Si Si5 0.954319 0.252622 0.217027
Si Si6 0.481986 0.788606 0.326893
Si Si7 0.613121 0.817605 0.741518
Si Si8 0.510328 0.261905 0.429513
O O1 0.328208 0.110004 0.650286
O O2 0.824805 0.256451 0.721332
O O3 0.920811 0.863391 0.521510
O O4 0.000000 0.000000 0.500000
O O5 0.950574 0.330480 0.137559
O O6 0.602124 0.546652 0.201367
O O7 0.462971 0.369358 0.173888
O O8 0.566222 0.060371 0.918200
O O9 0.816231 0.486835 0.348676
O O10 0.198864 0.779031 0.564741
O O11 0.700326 0.853211 0.606955
O O12 0.195901 0.298344 0.213978
O O13 0.211883 0.975625 0.949739
O O14 0.079749 0.202656 0.247721
O O15 0.500000 0.000000 0.500000
O O16 0.492002 0.550409 0.592435
O O17 0.544607 0.849298 0.697440
#
# Coordination Sequence:
#
# PCOD9020353 Si02
#       8
#     2   2   2   2   2   2   2   2
#     4  10  22  39  58  85 115 150 193 244 293 350
#     4  11  22  37  60  82 121 159 191 235 290 352
#     4  11  22  37  62  86 117 155 194 242 298 335
#     4  10  22  35  53  87 124 155 184 226 291 362
#     4   9  21  35  56  87 123 157 186 231 284 363
#     4  10  22  36  57  84 112 153 193 239 284 347
#     4   9  21  40  60  88 121 156 199 234 288 340
#     4  10  22  39  62  89 117 154 199 243 277 349
#
# _framework density 21.680845000000001
#
# number of rings (size 3 to 8) (size 9 to 14) (size 15 to 20)
#    0.000    2.000    0.000    2.250    7.000   13.000 
#    0.000    0.000    0.000    4.500    0.000    0.000 
#    0.000    0.000    0.000    0.000    0.000    0.000 
#
# Total GULP energy -89181.694313 kJ/mol
# GULP energy per Si atom -5573.855895 kJ/mol
# Density = 2.163150 g / cm^3
# Si number density = 21.680845 Si / 1000 Ang^3
#
#
#
# Elastic Constant Matrix: (Units=GPa)
#
#
# Indices 1 2 3 4 5 6 
#
# 1 153.3664 43.8618 11.6489 -6.2754 -12.3381 13.7087
# 2 43.8618 105.8078 14.5923 -11.5226 -8.0071 -4.9685
# 3 11.6489 14.5923 46.0845 -2.9332 -12.3688 -14.0103
# 4 -6.2754 -11.5226 -2.9332 31.7311 -8.8242 0.0872
# 5 -12.3381 -8.0071 -12.3688 -8.8242 13.4445 3.9569
# 6 13.7087 -4.9685 -14.0103 0.0872 3.9569 32.8360
#
#
#
# Elastic Compliance Matrix: (Units=1/GPa)
#
#
# Indices 1 2 3 4 5 6 
#
# 1 0.008753 -0.002693 0.000076 0.003689 0.010480 -0.005302
# 2 -0.002693 0.011920 0.000050 0.006036 0.008057 0.001962
# 3 0.000076 0.000050 0.036651 0.014579 0.040229 0.010727
# 4 0.003689 0.006036 0.014579 0.050820 0.054059 -0.001056
# 5 0.010480 0.008057 0.040229 0.054059 0.162988 -0.005776
# 6 -0.005302 0.001962 0.010727 -0.001056 -0.005776 0.038241
#
#
# Mechanical properties :
#
#
# Convention : Reuss Voigt Hill
#
# Bulk Modulus (GPa) = 19.16118 49.49607 34.32862
# Shear Modulus (GPa) = 15.06467 31.27939 23.17203
#
# Velocity S-wave (km/s) = 2.63884 3.80244 3.27277
# Velocity P-wave (km/s) = 4.25930 6.49284 5.49084
#
# Compressibility (1/GPa) = 0.05218886
#
# Stress axis : x y z
#
# Youngs Moduli (GPa) = 114.25012 83.89411 27.28451
#
# Poissons Ratio (x) = 0.22592 -0.00208
# Poissons Ratio (y) = 0.30767 -0.00135
# Poissons Ratio (z) = -0.00869 -0.00416
#
# Static dielectric constant tensor:
#      x y z
#    x 1.903830 -0.036900 0.022510 
#    y -0.036900 1.869100 0.011380 
#    z 0.022510 0.011380 1.807890 
# 
# From -- ./inp_files/367872.got.cif
#   From: 2010.05.17/outbox.cif.g08.bks.cpg/sg2_184_cif.got.tgz:367872.got - 2010.06.03 11:33:40.
