data_PCOD9020483
_publ_section_title
;
Structure prediction by ZEFSAII (Michael W. Deem and Ramdas Pophale) SiO2 
 PCOD9020483
Probable space group: P -1
;
_chemical_formula_sum "Si O2"
_cell_formula_units_Z 16
_cell_length_a 15.232066
_cell_length_b 9.115706
_cell_length_c 13.643492
_cell_angle_alpha 42.520587
_cell_angle_beta 35.335450
_cell_angle_gamma 60.805285
_cell_volume 708.614119
_symmetry_space_group_name_H-M "P -1"
_symmetry_group_IT_number 2
_symmetry_cell_setting 'triclinic'
loop_
_space_group_symop_operation_xyz
x,y,z
-x,-y,-z
loop_
_atom_site_type_symbol
_atom_site_label
_atom_site_fract_x
_atom_site_fract_y
_atom_site_fract_z
Si Si1 0.945973 0.799819 0.383509
Si Si2 0.671084 0.514035 0.875900
Si Si3 0.474125 0.231845 0.773703
Si Si4 0.861532 0.294823 0.925548
Si Si5 0.067042 0.810850 0.481920
Si Si6 0.115692 0.782958 0.843955
Si Si7 0.625347 0.889271 0.863913
Si Si8 0.246392 0.448341 0.764420
O O1 0.806037 0.567983 0.643252
O O2 0.043482 0.794888 0.199414
O O3 0.052165 0.833160 0.367690
O O4 0.861550 0.996324 0.351598
O O5 0.700235 0.317235 0.013001
O O6 0.707183 0.738020 0.800715
O O7 0.500000 0.500000 0.000000
O O8 0.324594 0.272251 0.832799
O O9 0.626192 0.412084 0.498624
O O10 0.504381 0.984712 0.863766
O O11 0.449804 0.255273 0.900819
O O12 0.968460 0.554103 0.724423
O O13 0.837265 0.161201 0.114250
O O14 0.246101 0.887537 0.320313
O O15 0.000000 0.000000 0.500000
O O16 0.210977 0.620056 0.792778
O O17 0.925947 0.664590 0.068968
#
# Coordination Sequence:
#
# PCOD9020483 Si02
#       8
#     2   2   2   2   2   2   2   2
#     4  11  24  42  64  96 130 167 213 264 318 375
#     4  11  24  41  63  89 130 171 204 260 323 386
#     4  10  22  36  56  92 132 158 198 272 312 380
#     4  11  24  42  64  96 130 167 213 264 318 375
#     4  11  21  38  71  97 122 161 222 266 311 368
#     4  11  23  40  67  87 125 171 221 262 313 377
#     4  11  21  38  64  94 122 163 215 255 322 372
#     4  10  22  38  60  91 125 164 213 264 320 361
#
# _framework density 22.579284999999999
#
# number of rings (size 3 to 8) (size 9 to 14) (size 15 to 20)
#    0.000    1.250    2.500    4.875    3.500    6.000 
#    0.000    0.625    0.000    0.000    0.000    0.000 
#    0.000    0.000    0.000    0.000    0.000    0.000 
#
# Total GULP energy -89438.054326 kJ/mol
# GULP energy per Si atom -5589.878395 kJ/mol
# Density = 2.252789 g / cm^3
# Si number density = 22.579285 Si / 1000 Ang^3
#
#
#
# Elastic Constant Matrix: (Units=GPa)
#
#
# Indices 1 2 3 4 5 6 
#
# 1 133.6624 16.1486 27.5397 8.8277 8.2160 -24.0053
# 2 16.1486 63.6292 -2.1652 17.7661 3.0608 -12.9523
# 3 27.5397 -2.1652 70.1710 9.5357 9.1821 -3.3309
# 4 8.8277 17.7661 9.5357 22.9896 -2.4154 -1.5521
# 5 8.2160 3.0608 9.1821 -2.4154 39.3700 -5.1567
# 6 -24.0053 -12.9523 -3.3309 -1.5521 -5.1567 38.0606
#
#
#
# Elastic Compliance Matrix: (Units=1/GPa)
#
#
# Indices 1 2 3 4 5 6 
#
# 1 0.009297 -0.001106 -0.003228 -0.001085 -0.000501 0.005093
# 2 -0.001106 0.022857 0.004393 -0.018941 -0.002908 0.006299
# 3 -0.003228 0.004393 0.017571 -0.009903 -0.004373 0.000000
# 4 -0.001085 -0.018941 -0.009903 0.063127 0.007301 -0.004434
# 5 -0.000501 -0.002908 -0.004373 0.007301 0.027505 0.002336
# 6 0.005093 0.006299 0.000000 -0.004434 0.002336 0.031766
#
#
# Mechanical properties :
#
#
# Convention : Reuss Voigt Hill
#
# Bulk Modulus (GPa) = 20.06285 38.94545 29.50415
# Shear Modulus (GPa) = 26.50832 35.14666 30.82749
#
# Velocity S-wave (km/s) = 3.43010 3.94964 3.69900
# Velocity P-wave (km/s) = 4.95906 6.17133 5.59811
#
# Compressibility (1/GPa) = 0.04984338
#
# Stress axis : x y z
#
# Youngs Moduli (GPa) = 107.55662 43.75053 56.91066
#
# Poissons Ratio (x) = 0.04837 0.18372
# Poissons Ratio (y) = 0.11891 -0.24999
# Poissons Ratio (z) = 0.34722 -0.19218
#
# Static dielectric constant tensor:
#      x y z
#    x 1.853600 -0.001580 -0.038460 
#    y -0.001580 1.851270 -0.015660 
#    z -0.038460 -0.015660 1.852280 
# 
# From -- ./inp_files/446756.got.cif
#   From: 2010.05.17/outbox.cif.g08.bks.cpg/sg2_224_cif.got.tgz:446756.got - 2010.06.03 11:33:40.
