data_PCOD9020127
_publ_section_title
;
Structure prediction by ZEFSAII (Michael W. Deem and Ramdas Pophale) SiO2 
 PCOD9020127
Probable space group: P -1
;
_chemical_formula_sum "Si O2"
_cell_formula_units_Z 16
_cell_length_a 5.329838
_cell_length_b 10.342843
_cell_length_c 14.051479
_cell_angle_alpha 54.101588
_cell_angle_beta 82.319847
_cell_angle_gamma 90.567805
_cell_volume 618.069455
_symmetry_space_group_name_H-M "P -1"
_symmetry_group_IT_number 2
_symmetry_cell_setting 'triclinic'
loop_
_space_group_symop_operation_xyz
x,y,z
-x,-y,-z
loop_
_atom_site_type_symbol
_atom_site_label
_atom_site_fract_x
_atom_site_fract_y
_atom_site_fract_z
Si Si1 0.147949 0.547914 0.629331
Si Si2 0.280598 0.777074 0.040622
Si Si3 0.871594 0.798417 0.659998
Si Si4 0.740120 0.764235 0.159900
Si Si5 0.225855 0.462800 0.076185
Si Si6 0.536818 0.974407 0.228483
Si Si7 0.745045 0.895287 0.439582
Si Si8 0.886908 0.285116 0.619100
O O1 0.298337 0.426553 0.735078
O O2 0.274442 0.639629 0.490378
O O3 0.044888 0.679918 0.645762
O O4 0.944197 0.415031 0.643353
O O5 0.511629 0.811781 0.086324
O O6 0.226807 0.588250 0.107651
O O7 0.009200 0.818080 0.073626
O O8 0.377143 0.861666 0.900834
O O9 0.795978 0.711243 0.800101
O O10 0.661218 0.827649 0.576980
O O11 0.030129 0.965140 0.607788
O O12 0.718377 0.855569 0.220418
O O13 0.500000 0.500000 0.000000
O O14 0.000000 0.500000 0.000000
O O15 0.568845 0.974654 0.339752
O O16 0.260238 0.880285 0.265006
O O17 0.869802 0.756933 0.435219
#
# Coordination Sequence:
#
# PCOD9020127 Si02
#       8
#     2   2   2   2   2   2   2   2
#     4  10  21  46  72 104 148 185 244 300 367 439
#     4  12  28  46  73 107 148 193 250 302 367 434
#     4  10  23  47  74 104 146 189 249 296 370 439
#     4  12  25  46  72 108 145 194 239 306 364 434
#     4  12  27  48  74 103 144 198 243 301 360 438
#     4  12  26  42  72 105 147 187 246 300 369 437
#     4  10  23  46  72 105 144 192 240 306 367 436
#     4  10  23  43  71 108 141 192 238 302 368 435
#
# _framework density 25.887056000000001
#
# number of rings (size 3 to 8) (size 9 to 14) (size 15 to 20)
#    0.000    1.000    2.500    3.000    3.500    1.500 
#    2.250    3.125    0.000    0.000    0.000    0.000 
#    0.000    0.000    0.000    0.000    0.000    0.000 
#
# Total GULP energy -89544.981586 kJ/mol
# GULP energy per Si atom -5596.561349 kJ/mol
# Density = 2.582814 g / cm^3
# Si number density = 25.887056 Si / 1000 Ang^3
#
#
#
# Elastic Constant Matrix: (Units=GPa)
#
#
# Indices 1 2 3 4 5 6 
#
# 1 106.3711 34.4125 28.7161 23.8635 -10.7939 23.5960
# 2 34.4125 99.1909 8.7378 10.5726 1.5256 -8.4145
# 3 28.7161 8.7378 127.6144 3.8874 13.6984 25.6829
# 4 23.8635 10.5726 3.8874 42.2173 2.0993 6.2793
# 5 -10.7939 1.5256 13.6984 2.0993 41.7657 7.2777
# 6 23.5960 -8.4145 25.6829 6.2793 7.2777 42.5088
#
#
#
# Elastic Compliance Matrix: (Units=1/GPa)
#
#
# Indices 1 2 3 4 5 6 
#
# 1 0.015794 -0.005490 -0.001918 -0.006388 0.006785 -0.008913
# 2 -0.005490 0.012732 -0.000631 -0.000864 -0.002775 0.006552
# 3 -0.001918 -0.000631 0.009483 0.001177 -0.002862 -0.004473
# 4 -0.006388 -0.000864 0.001177 0.027697 -0.003245 -0.000872
# 5 0.006785 -0.002775 -0.002862 -0.003245 0.028106 -0.006919
# 6 -0.008913 0.006552 -0.004473 -0.000872 -0.006919 0.033785
#
#
# Mechanical properties :
#
#
# Convention : Reuss Voigt Hill
#
# Bulk Modulus (GPa) = 45.59767 52.98993 49.29380
# Shear Modulus (GPa) = 33.11630 42.71902 37.91766
#
# Velocity S-wave (km/s) = 3.58056 4.06668 3.83134
# Velocity P-wave (km/s) = 5.89459 6.52416 6.21735
#
# Compressibility (1/GPa) = 0.02193094
#
# Stress axis : x y z
#
# Youngs Moduli (GPa) = 63.31688 78.54048 105.45687
#
# Poissons Ratio (x) = 0.43118 0.20227
# Poissons Ratio (y) = 0.34761 0.06652
# Poissons Ratio (z) = 0.12145 0.04954
#
# Static dielectric constant tensor:
#      x y z
#    x 2.091520 -0.014420 0.071460 
#    y -0.014420 2.003020 0.012280 
#    z 0.071460 0.012280 2.082230 
# 
# From -- ./inp_files/482646.got.cif
#   From: 2010.05.17/outbox.cif.g08.bks.cpg/sg2_242_cif.got.tgz:482646.got - 2010.06.03 11:33:40.
