data_PCOD9020906
_publ_section_title
;
Structure prediction by ZEFSAII (Michael W. Deem and Ramdas Pophale) SiO2 
 PCOD9020906
Probable space group: P -1
;
_chemical_formula_sum "Si O2"
_cell_formula_units_Z 16
_cell_length_a 19.246791
_cell_length_b 11.088093
_cell_length_c 15.345692
_cell_angle_alpha 153.221304
_cell_angle_beta 139.564687
_cell_angle_gamma 35.397400
_cell_volume 847.645846
_symmetry_space_group_name_H-M "P -1"
_symmetry_group_IT_number 2
_symmetry_cell_setting 'triclinic'
loop_
_space_group_symop_operation_xyz
x,y,z
-x,-y,-z
loop_
_atom_site_type_symbol
_atom_site_label
_atom_site_fract_x
_atom_site_fract_y
_atom_site_fract_z
Si Si1 0.618047 0.771994 0.520680
Si Si2 0.225229 0.226482 0.470537
Si Si3 0.872145 0.311921 0.186917
Si Si4 0.486116 0.082730 0.895493
Si Si5 0.545914 0.262530 0.523632
Si Si6 0.663256 0.704953 0.940508
Si Si7 0.879190 0.238137 0.948671
Si Si8 0.383803 0.647384 0.044895
O O1 0.729202 0.620454 0.461819
O O2 0.570146 0.615507 0.444221
O O3 0.500000 0.000000 0.500000
O O4 0.647348 0.008772 0.752325
O O5 0.126930 0.457548 0.591720
O O6 0.345067 0.020774 0.507698
O O7 0.179025 0.992151 0.239973
O O8 0.875408 0.386182 0.135055
O O9 0.739384 0.345075 0.097421
O O10 0.983461 0.979093 0.087903
O O11 0.478438 0.874443 0.676401
O O12 0.621496 0.939673 0.972025
O O13 0.400008 0.114051 0.915126
O O14 0.431988 0.427603 0.033050
O O15 0.598346 0.499367 0.719099
O O16 0.798660 0.477964 0.953469
O O17 0.500000 0.500000 0.000000
#
# Coordination Sequence:
#
# PCOD9020906 Si02
#       8
#     2   2   2   2   2   2   2   2
#     4  10  18  29  48  76 109 130 162 217 260 311
#     4  10  17  31  48  74 104 131 169 211 261 303
#     4  11  20  32  52  74 105 136 169 216 261 305
#     4  11  19  33  51  76 107 135 171 209 263 304
#     4  10  18  32  49  75 105 133 166 210 261 306
#     4  10  21  33  51  74 108 138 171 211 250 316
#     4  10  20  34  49  73 106 138 174 210 256 308
#     4  12  19  33  53  80 105 130 171 214 263 303
#
# _framework density 18.875807999999999
#
# number of rings (size 3 to 8) (size 9 to 14) (size 15 to 20)
#    0.000    1.500    5.000    3.000    0.000    0.000 
#    0.000    0.000    0.000    0.750    0.000    0.875 
#    0.000    0.125    0.000    0.000    0.000    0.000 
#
# Total GULP energy -89117.792238 kJ/mol
# GULP energy per Si atom -5569.862015 kJ/mol
# Density = 1.883285 g / cm^3
# Si number density = 18.875808 Si / 1000 Ang^3
#
#
#
# Elastic Constant Matrix: (Units=GPa)
#
#
# Indices 1 2 3 4 5 6 
#
# 1 58.0603 26.6123 19.5330 -2.9434 -14.4616 -17.5573
# 2 26.6123 108.1150 2.7003 -4.8530 -1.7360 -13.3743
# 3 19.5330 2.7003 60.1613 4.3559 -23.2685 -2.0182
# 4 -2.9434 -4.8530 4.3559 19.4331 -2.2004 -5.7578
# 5 -14.4616 -1.7360 -23.2685 -2.2004 27.6126 1.6976
# 6 -17.5573 -13.3743 -2.0182 -5.7578 1.6976 22.4932
#
#
#
# Elastic Compliance Matrix: (Units=1/GPa)
#
#
# Indices 1 2 3 4 5 6 
#
# 1 0.032000 -0.003849 -0.006175 0.013869 0.010891 0.024863
# 2 -0.003849 0.010862 0.000229 0.003249 -0.001151 0.004393
# 3 -0.006175 0.000229 0.026075 -0.006198 0.018588 -0.005333
# 4 0.013869 0.003249 -0.006198 0.064805 0.005666 0.028363
# 5 0.010891 -0.001151 0.018588 0.005666 0.057557 0.006591
# 6 0.024863 0.004393 -0.005333 0.028363 0.006591 0.072762
#
#
# Mechanical properties :
#
#
# Convention : Reuss Voigt Hill
#
# Bulk Modulus (GPa) = 20.26460 36.00311 28.13386
# Shear Modulus (GPa) = 16.66113 25.74049 21.20081
#
# Velocity S-wave (km/s) = 2.97420 3.69680 3.35501
# Velocity P-wave (km/s) = 4.74906 6.11039 5.47222
#
# Compressibility (1/GPa) = 0.04934713
#
# Stress axis : x y z
#
# Youngs Moduli (GPa) = 31.25047 92.06403 38.35020
#
# Poissons Ratio (x) = 0.35438 0.23680
# Poissons Ratio (y) = 0.12029 -0.00879
# Poissons Ratio (z) = 0.19296 -0.02109
#
# Static dielectric constant tensor:
#      x y z
#    x 1.757090 0.009740 0.046950 
#    y 0.009740 1.696240 -0.028500 
#    z 0.046950 -0.028500 1.893860 
# 
# From -- ./inp_files/253016.got.cif
#   From: 2010.05.17/outbox.cif.g08.bks.cpg/sg2_127_cif.got.tgz:253016.got - 2010.06.03 11:33:40.
