data_PCOD9020332
_publ_section_title
;
Structure prediction by ZEFSAII (Michael W. Deem and Ramdas Pophale) SiO2 
 PCOD9020332
Probable space group: P -1
;
_chemical_formula_sum "Si O2"
_cell_formula_units_Z 16
_cell_length_a 8.974388
_cell_length_b 18.817635
_cell_length_c 10.568015
_cell_angle_alpha 60.089653
_cell_angle_beta 86.874657
_cell_angle_gamma 39.254494
_cell_volume 779.723327
_symmetry_space_group_name_H-M "P -1"
_symmetry_group_IT_number 2
_symmetry_cell_setting 'triclinic'
loop_
_space_group_symop_operation_xyz
x,y,z
-x,-y,-z
loop_
_atom_site_type_symbol
_atom_site_label
_atom_site_fract_x
_atom_site_fract_y
_atom_site_fract_z
Si Si1 0.296674 0.308190 0.314905
Si Si2 0.841532 0.455055 0.395682
Si Si3 0.941078 0.626652 0.992005
Si Si4 0.820063 0.018785 0.692484
Si Si5 0.645517 0.226877 0.733066
Si Si6 0.075040 0.178256 0.745914
Si Si7 0.569496 0.250474 0.992824
Si Si8 0.751029 0.869430 0.932157
O O1 0.143198 0.330178 0.189636
O O2 0.637335 0.125830 0.480753
O O3 0.125467 0.363536 0.402004
O O4 0.230421 0.434217 0.172923
O O5 0.686853 0.577931 0.409236
O O6 0.924307 0.325153 0.548511
O O7 0.587250 0.589041 0.180934
O O8 0.681169 0.693199 0.004087
O O9 0.933002 0.716757 0.980474
O O10 0.690698 0.140661 0.697992
O O11 0.762751 0.952941 0.794732
O O12 0.170464 0.865747 0.816639
O O13 0.866620 0.198190 0.730972
O O14 0.695042 0.164472 0.925823
O O15 0.406652 0.005961 0.832695
O O16 0.123658 0.181543 0.886622
#
# Coordination Sequence:
#
# PCOD9020332 Si02
#       8
#     2   2   2   2   2   2   2   2
#     4  10  23  42  64  84 117 154 212 240 290 344
#     4   9  20  37  61  86 120 158 194 237 295 351
#     4  10  23  44  63  83 114 164 199 250 286 345
#     4  12  22  39  60  94 121 155 192 248 294 355
#     4  10  22  34  60  84 129 155 182 235 303 359
#     4  11  21  37  57  97 123 155 188 242 297 364
#     4   9  21  37  61  84 122 155 191 235 302 348
#     4  11  24  34  64  91 124 147 205 241 295 344
#
# _framework density 20.520099999999999
#
# number of rings (size 3 to 8) (size 9 to 14) (size 15 to 20)
#    0.750    1.000    2.500    1.500    5.250    1.500 
#    0.000    0.000    0.000    4.500    0.000    0.000 
#    0.000    0.000    0.000    0.000    0.000    0.000 
#
# Total GULP energy -89284.740259 kJ/mol
# GULP energy per Si atom -5580.296266 kJ/mol
# Density = 2.047340 g / cm^3
# Si number density = 20.520100 Si / 1000 Ang^3
#
#
#
# Elastic Constant Matrix: (Units=GPa)
#
#
# Indices 1 2 3 4 5 6 
#
# 1 68.1584 19.0051 30.4779 1.8027 -8.0010 6.7148
# 2 19.0051 45.8889 11.0799 -3.2487 -12.2138 21.1692
# 3 30.4779 11.0799 131.7144 -14.0849 -7.3897 4.7746
# 4 1.8027 -3.2487 -14.0849 18.0373 -1.7832 -3.6885
# 5 -8.0010 -12.2138 -7.3897 -1.7832 16.2057 -7.0701
# 6 6.7148 21.1692 4.7746 -3.6885 -7.0701 27.0501
#
#
#
# Elastic Compliance Matrix: (Units=1/GPa)
#
#
# Indices 1 2 3 4 5 6 
#
# 1 0.018921 -0.007465 -0.004369 -0.006167 0.001708 0.001522
# 2 -0.007465 0.041446 0.000700 0.005267 0.017345 -0.025454
# 3 -0.004369 0.000700 0.009679 0.008773 0.004244 0.001134
# 4 -0.006167 0.005267 0.008773 0.067389 0.016415 0.009340
# 5 0.001708 0.017345 0.004244 0.016415 0.083419 0.009295
# 6 0.001522 -0.025454 0.001134 0.009340 0.009295 0.060013
#
#
# Mechanical properties :
#
#
# Convention : Reuss Voigt Hill
#
# Bulk Modulus (GPa) = 20.93022 40.76527 30.84774
# Shear Modulus (GPa) = 15.67094 24.60521 20.13808
#
# Velocity S-wave (km/s) = 2.76649 3.46653 3.13610
# Velocity P-wave (km/s) = 4.51958 5.99429 5.30840
#
# Compressibility (1/GPa) = 0.04777781
#
# Stress axis : x y z
#
# Youngs Moduli (GPa) = 52.85239 24.12761 103.31274
#
# Poissons Ratio (x) = 0.18012 0.45137
# Poissons Ratio (y) = 0.39456 -0.07232
# Poissons Ratio (z) = 0.23091 -0.01689
#
# Static dielectric constant tensor:
#      x y z
#    x 1.693560 -0.034640 0.017630 
#    y -0.034640 1.771400 -0.023180 
#    z 0.017630 -0.023180 1.767780 
# 
# From -- ./inp_files/402030.got.cif
#   From: 2010.05.17/outbox.cif.g08.bks.cpg/sg2_202_cif.got.tgz:402030.got - 2010.06.03 11:33:40.
