data_PCOD9020577
_publ_section_title
;
Structure prediction by ZEFSAII (Michael W. Deem and Ramdas Pophale) SiO2 
 PCOD9020577
Probable space group: P -1
;
_chemical_formula_sum "Si O2"
_cell_formula_units_Z 16
_cell_length_a 12.321213
_cell_length_b 13.699050
_cell_length_c 5.212324
_cell_angle_alpha 77.074163
_cell_angle_beta 106.487351
_cell_angle_gamma 116.768271
_cell_volume 748.465682
_symmetry_space_group_name_H-M "P -1"
_symmetry_group_IT_number 2
_symmetry_cell_setting 'triclinic'
loop_
_space_group_symop_operation_xyz
x,y,z
-x,-y,-z
loop_
_atom_site_type_symbol
_atom_site_label
_atom_site_fract_x
_atom_site_fract_y
_atom_site_fract_z
Si Si1 0.728317 0.865479 0.396045
Si Si2 0.467293 0.377027 0.119278
Si Si3 0.861726 0.998649 0.907188
Si Si4 0.221425 0.316527 0.196734
Si Si5 0.203427 0.535444 0.177663
Si Si6 0.057817 0.748704 0.110263
Si Si7 0.061070 0.615622 0.692317
Si Si8 0.459168 0.701327 0.286347
O O1 0.768230 0.763818 0.529759
O O2 0.577015 0.818828 0.333554
O O3 0.792901 0.946259 0.628091
O O4 0.784278 0.926542 0.135224
O O5 0.319284 0.314767 0.053778
O O6 0.505201 0.369154 0.439337
O O7 0.500000 0.500000 0.000000
O O8 0.528907 0.327326 0.983833
O O9 0.872179 0.121894 0.874649
O O10 0.000000 0.000000 0.000000
O O11 0.255198 0.441340 0.237570
O O12 0.086469 0.274867 0.009171
O O13 0.310922 0.652646 0.264003
O O14 0.080086 0.475898 0.303287
O O15 0.151168 0.556440 0.857560
O O16 0.073425 0.679875 0.400489
O O17 0.087397 0.702703 0.892256
#
# Coordination Sequence:
#
# PCOD9020577 Si02
#       8
#     2   2   2   2   2   2   2   2
#     4  11  24  39  59  96 127 154 208 239 312 378
#     4  11  22  35  52  89 125 168 196 229 291 374
#     4  12  24  41  64  90 121 163 197 262 308 362
#     4  10  22  36  61  92 131 163 194 244 301 381
#     4  10  23  41  64  89 128 167 205 245 302 352
#     4  11  24  41  65  86 122 161 203 265 310 339
#     4  10  25  42  62  94 119 162 215 252 290 370
#     4  11  24  38  60  86 129 166 197 249 297 370
#
# _framework density 21.377064000000001
#
# number of rings (size 3 to 8) (size 9 to 14) (size 15 to 20)
#    0.000    1.250    2.500    3.000    7.000    6.500 
#    0.000    0.000    0.000    4.500    0.000    0.000 
#    0.000    0.000    0.000    0.000    0.000    0.000 
#
# Total GULP energy -89352.043344 kJ/mol
# GULP energy per Si atom -5584.502709 kJ/mol
# Density = 2.132841 g / cm^3
# Si number density = 21.377064 Si / 1000 Ang^3
#
#
#
# Elastic Constant Matrix: (Units=GPa)
#
#
# Indices 1 2 3 4 5 6 
#
# 1 52.1568 40.4829 20.1240 2.6539 3.3570 8.7649
# 2 40.4829 132.0626 48.1878 7.9115 1.2400 12.4618
# 3 20.1240 48.1878 104.2097 -7.9012 -11.2869 -2.2967
# 4 2.6539 7.9115 -7.9012 39.3771 6.2656 5.0461
# 5 3.3570 1.2400 -11.2869 6.2656 24.3895 0.0382
# 6 8.7649 12.4618 -2.2967 5.0461 0.0382 34.7117
#
#
#
# Elastic Compliance Matrix: (Units=1/GPa)
#
#
# Indices 1 2 3 4 5 6 
#
# 1 0.026399 -0.006716 -0.002558 0.000355 -0.004560 -0.004471
# 2 -0.006716 0.011623 -0.004426 -0.002279 -0.001126 -0.002437
# 3 -0.002558 -0.004426 0.013026 0.002370 0.005992 0.002746
# 4 0.000355 -0.002279 0.002370 0.027650 -0.005935 -0.003128
# 5 -0.004560 -0.001126 0.005992 -0.005935 0.045979 0.002764
# 6 -0.004471 -0.002437 0.002746 -0.003128 0.002764 0.031446
#
#
# Mechanical properties :
#
#
# Convention : Reuss Voigt Hill
#
# Bulk Modulus (GPa) = 42.28628 56.22429 49.25528
# Shear Modulus (GPa) = 26.12243 31.67127 28.89685
#
# Velocity S-wave (km/s) = 3.49948 3.85327 3.68063
# Velocity P-wave (km/s) = 6.01270 6.79377 6.41513
#
# Compressibility (1/GPa) = 0.02364833
#
# Stress axis : x y z
#
# Youngs Moduli (GPa) = 37.87974 86.03644 76.76989
#
# Poissons Ratio (x) = 0.57780 0.19638
# Poissons Ratio (y) = 0.25439 0.33980
# Poissons Ratio (z) = 0.09690 0.38081
#
# Static dielectric constant tensor:
#      x y z
#    x 1.822480 0.002480 0.012970 
#    y 0.002480 1.861330 -0.015150 
#    z 0.012970 -0.015150 1.824470 
# 
# From -- ./inp_files/97609.got.cif
#   From: 2010.05.17/outbox.cif.g08.bks.cpg/sg2_49_cif.got.tgz:97609.got - 2010.06.03 11:33:40.
