data_PCOD9020494
_publ_section_title
;
Structure prediction by ZEFSAII (Michael W. Deem and Ramdas Pophale) SiO2 
 PCOD9020494
Probable space group: P -1
;
_chemical_formula_sum "Si O2"
_cell_formula_units_Z 14
_cell_length_a 15.618095
_cell_length_b 22.596017
_cell_length_c 5.888939
_cell_angle_alpha 93.706836
_cell_angle_beta 74.559419
_cell_angle_gamma 27.830523
_cell_volume 696.909320
_symmetry_space_group_name_H-M "P -1"
_symmetry_group_IT_number 2
_symmetry_cell_setting 'triclinic'
loop_
_space_group_symop_operation_xyz
x,y,z
-x,-y,-z
loop_
_atom_site_type_symbol
_atom_site_label
_atom_site_fract_x
_atom_site_fract_y
_atom_site_fract_z
Si Si1 0.210782 0.856261 0.624268
Si Si2 0.739809 0.104282 0.792770
Si Si3 0.408837 0.082627 0.338203
Si Si4 0.482614 0.638312 0.762676
Si Si5 0.249792 0.025002 0.030501
Si Si6 0.939781 0.305813 0.631911
Si Si7 0.242980 0.669925 0.870399
O O1 0.288297 0.868152 0.448744
O O2 0.441823 0.678689 0.536149
O O3 0.041469 0.922915 0.590671
O O4 0.000000 0.000000 0.000000
O O5 0.659751 0.094096 0.963610
O O6 0.591190 0.254399 0.034407
O O7 0.110873 0.252627 0.588910
O O8 0.500000 0.000000 0.500000
O O9 0.500000 0.000000 0.000000
O O10 0.520814 0.078929 0.254607
O O11 0.755554 0.445771 0.602241
O O12 0.292624 0.702381 0.960298
O O13 0.125558 0.140282 0.352015
O O14 0.015883 0.164385 0.052889
O O15 0.785688 0.366228 0.944799
O O16 0.500000 0.500000 0.500000
#
# Coordination Sequence:
#
# PCOD9020494 Si02
#       7
#     2   2   2   2   2   2   2
#     4   9  20  34  54  78 125 165 203 236 315 383
#     4  10  22  36  57  87 126 164 207 257 316 384
#     4  10  22  46  68  95 124 174 226 273 318 379
#     4  11  23  36  55  93 127 163 197 257 326 384
#     4  11  23  40  65  91 121 167 220 266 315 385
#     4  11  25  39  63  90 129 162 214 268 324 379
#     4  12  24  35  61  96 130 160 207 260 330 390
#
# _framework density 20.088695999999999
#
# number of rings (size 3 to 8) (size 9 to 14) (size 15 to 20)
#    0.000    1.429    4.286    0.429    8.000    0.000 
#    0.000    0.714    0.000    0.857    0.000    0.000 
#    0.000    0.000    0.000    0.000    0.000    0.000 
#
# Total GULP energy -78034.934641 kJ/mol
# GULP energy per Si atom -5573.923903 kJ/mol
# Density = 2.004297 g / cm^3
# Si number density = 20.088696 Si / 1000 Ang^3
#
#
#
# Elastic Constant Matrix: (Units=GPa)
#
#
# Indices 1 2 3 4 5 6 
#
# 1 125.8368 52.7454 44.1380 1.1597 -31.8737 17.3331
# 2 52.7454 122.1085 37.2835 -25.8614 -27.8575 11.5773
# 3 44.1380 37.2835 65.8029 -17.4786 -8.9812 20.8431
# 4 1.1597 -25.8614 -17.4786 28.5459 10.4263 -4.3079
# 5 -31.8737 -27.8575 -8.9812 10.4263 41.6993 -0.7925
# 6 17.3331 11.5773 20.8431 -4.3079 -0.7925 43.0151
#
#
#
# Elastic Compliance Matrix: (Units=1/GPa)
#
#
# Indices 1 2 3 4 5 6 
#
# 1 0.017039 -0.004616 -0.010963 -0.016068 0.011565 -0.001708
# 2 -0.004616 0.013406 -0.001349 0.010601 0.002487 0.000013
# 3 -0.010963 -0.001349 0.029841 0.019148 -0.007791 -0.007905
# 4 -0.016068 0.010601 0.019148 0.063233 -0.016879 0.000365
# 5 0.011565 0.002487 -0.007791 -0.016879 0.036976 -0.002563
# 6 -0.001708 0.000013 -0.007905 0.000365 -0.002563 0.027752
#
#
# Mechanical properties :
#
#
# Convention : Reuss Voigt Hill
#
# Bulk Modulus (GPa) = 37.83214 64.67580 51.25397
# Shear Modulus (GPa) = 21.65317 34.62415 28.13866
#
# Velocity S-wave (km/s) = 3.28667 4.15609 3.74668
# Velocity P-wave (km/s) = 5.76857 7.43611 6.65478
#
# Compressibility (1/GPa) = 0.02643255
#
# Stress axis : x y z
#
# Youngs Moduli (GPa) = 58.68747 74.59103 33.51097
#
# Poissons Ratio (x) = 0.34430 0.36737
# Poissons Ratio (y) = 0.27089 0.04519
# Poissons Ratio (z) = 0.64337 0.10060
#
# Static dielectric constant tensor:
#      x y z
#    x 1.764910 -0.015140 0.059610 
#    y -0.015140 1.749180 -0.058480 
#    z 0.059610 -0.058480 1.804070 
# 
# From -- ./inp_files/67434.got.cif
#   From: 2010.05.17/outbox.cif.g08.bks.cpg/sg2_34_cif.got.tgz:67434.got - 2010.06.03 11:33:40.
