data_PCOD9020284
_publ_section_title
;
Structure prediction by ZEFSAII (Michael W. Deem and Ramdas Pophale) SiO2 
 PCOD9020284
Probable space group: P -1
;
_chemical_formula_sum "Si O2"
_cell_formula_units_Z 11
_cell_length_a 7.778773
_cell_length_b 12.019310
_cell_length_c 9.541619
_cell_angle_alpha 145.828840
_cell_angle_beta 120.018179
_cell_angle_gamma 46.920315
_cell_volume 361.379881
_symmetry_space_group_name_H-M "P -1"
_symmetry_group_IT_number 2
_symmetry_cell_setting 'triclinic'
loop_
_space_group_symop_operation_xyz
x,y,z
-x,-y,-z
loop_
_atom_site_type_symbol
_atom_site_label
_atom_site_fract_x
_atom_site_fract_y
_atom_site_fract_z
Si Si1 0.921515 0.783780 0.951752
Si Si2 0.381972 0.369381 0.259299
Si Si3 0.132376 0.325024 0.697150
Si Si4 0.500000 0.500000 0.000000
Si Si5 0.747861 0.080640 0.880593
Si Si6 0.265258 0.934119 0.560026
O O1 0.760012 0.686734 0.743621
O O2 0.140047 0.557764 0.900950
O O3 0.048442 0.858341 0.974749
O O4 0.753730 0.994378 0.210728
O O5 0.500000 0.500000 0.500000
O O6 0.586366 0.154394 0.027890
O O7 0.150788 0.539219 0.243661
O O8 0.268691 0.132019 0.672786
O O9 0.168325 0.174234 0.414768
O O10 0.412023 0.738027 0.119694
O O11 0.558938 0.329880 0.696678
O O12 0.000000 0.000000 0.500000
#
# Coordination Sequence:
#
# PCOD9020284 Si02
#       6
#     2   2   2   1   2   2
#     4  10  23  40  68  94 128 175 206 262 334 367
#     4  10  25  45  64  93 129 171 225 263 305 386
#     4   9  22  40  63  97 129 164 213 267 313 386
#     4  10  22  32  70  98 124 170 202 248 336 384
#     4  11  22  42  66  95 133 166 209 272 316 381
#     4  11  18  38  65  95 137 163 202 269 320 388
#
# _framework density 30.438883000000001
#
# number of rings (size 3 to 8) (size 9 to 14) (size 15 to 20)
#    1.091    0.727    3.636    1.636    0.000    2.909 
#    0.000    4.545    0.000    0.000    0.000    0.000 
#    0.000    0.000    0.000    0.000    0.000    0.000 
#
# Total GULP energy -61515.492067 kJ/mol
# GULP energy per Si atom -5592.317461 kJ/mol
# Density = 3.036960 g / cm^3
# Si number density = 30.438883 Si / 1000 Ang^3
#
#
#
# Elastic Constant Matrix: (Units=GPa)
#
#
# Indices 1 2 3 4 5 6 
#
# 1 227.2630 51.0276 70.7733 8.7189 13.9020 35.3952
# 2 51.0276 87.0360 33.3394 29.9694 3.0740 11.6321
# 3 70.7733 33.3394 223.8384 32.7043 -13.5484 28.3096
# 4 8.7189 29.9694 32.7043 55.3950 -4.8232 -4.9835
# 5 13.9020 3.0740 -13.5484 -4.8232 70.3710 23.0944
# 6 35.3952 11.6321 28.3096 -4.9835 23.0944 61.9939
#
#
#
# Elastic Compliance Matrix: (Units=1/GPa)
#
#
# Indices 1 2 3 4 5 6 
#
# 1 0.005778 -0.003069 -0.001382 0.001356 -0.000604 -0.001758
# 2 -0.003069 0.016537 0.000031 -0.008669 -0.000031 -0.002050
# 3 -0.001382 0.000031 0.005899 -0.003363 0.002156 -0.002984
# 4 0.001356 -0.008669 -0.003363 0.024893 -0.000309 0.004504
# 5 -0.000604 -0.000031 0.002156 -0.000309 0.017022 -0.007000
# 6 -0.001758 -0.002050 -0.002984 0.004504 -0.007000 0.021852
#
#
# Mechanical properties :
#
#
# Convention : Reuss Voigt Hill
#
# Bulk Modulus (GPa) = 51.61352 94.26865 72.94109
# Shear Modulus (GPa) = 46.60724 63.08514 54.84619
#
# Velocity S-wave (km/s) = 3.91727 4.55743 4.24942
# Velocity P-wave (km/s) = 6.11990 7.66359 6.93483
#
# Compressibility (1/GPa) = 0.01937477
#
# Stress axis : x y z
#
# Youngs Moduli (GPa) = 173.05646 60.47029 169.51593
#
# Poissons Ratio (x) = 0.18558 0.23431
# Poissons Ratio (y) = 0.53111 -0.00531
# Poissons Ratio (z) = 0.23921 -0.00189
#
# Static dielectric constant tensor:
#      x y z
#    x 2.072980 0.182270 -0.006560 
#    y 0.182270 2.453220 -0.065210 
#    z -0.006560 -0.065210 2.274170 
# 
# From -- ./inp_files/394991.got.cif
#   From: 2010.05.17/outbox.cif.g08.bks.cpg/sg2_198_cif.got.tgz:394991.got - 2010.06.03 11:33:40.
