data_PCOD9020251
_publ_section_title
;
Structure prediction by ZEFSAII (Michael W. Deem and Ramdas Pophale) SiO2 
 PCOD9020251
Probable space group: P -1
;
_chemical_formula_sum "Si O2"
_cell_formula_units_Z 14
_cell_length_a 7.761031
_cell_length_b 15.618354
_cell_length_c 10.938782
_cell_angle_alpha 149.639621
_cell_angle_beta 51.639527
_cell_angle_gamma 118.534490
_cell_volume 519.881198
_symmetry_space_group_name_H-M "P -1"
_symmetry_group_IT_number 2
_symmetry_cell_setting 'triclinic'
loop_
_space_group_symop_operation_xyz
x,y,z
-x,-y,-z
loop_
_atom_site_type_symbol
_atom_site_label
_atom_site_fract_x
_atom_site_fract_y
_atom_site_fract_z
Si Si1 0.706674 0.308845 0.262173
Si Si2 0.000000 0.000000 0.500000
Si Si3 0.098212 0.666734 0.211506
Si Si4 0.425102 0.522389 0.215053
Si Si5 0.500000 0.000000 0.000000
Si Si6 0.940270 0.588420 0.429851
Si Si7 0.099731 0.118020 0.000493
Si Si8 0.470925 0.112288 0.437225
O O1 0.629898 0.418333 0.549309
O O2 0.782898 0.444717 0.302526
O O3 0.922072 0.170177 0.035620
O O4 0.533286 0.186665 0.152131
O O5 0.239835 0.058332 0.509152
O O6 0.953773 0.174705 0.656750
O O7 0.970952 0.705017 0.443516
O O8 0.360739 0.617739 0.050696
O O9 0.000000 0.500000 0.000000
O O10 0.189139 0.490235 0.225749
O O11 0.495323 0.689950 0.323779
O O12 0.500847 0.918275 0.760634
O O13 0.878350 0.707917 0.721553
O O14 0.331880 0.009674 0.732030
O O15 0.000000 0.000000 0.000000
#
# Coordination Sequence:
#
# PCOD9020251 Si02
#       8
#     2   1   2   2   1   2   2   2
#     4  10  23  41  73 110 143 185 238 304 375 430
#     4  12  30  46  70  98 150 206 236 294 376 422
#     4  12  28  50  67 102 153 191 247 295 358 445
#     4  10  21  48  70 104 146 186 238 307 359 432
#     4  10  22  40  70 102 148 176 244 288 356 442
#     4  11  25  44  75 108 138 192 245 300 372 428
#     4  11  20  43  74 108 145 179 244 311 361 434
#     4  11  24  43  69 103 143 196 239 298 361 430
#
# _framework density 26.92923
#
# number of rings (size 3 to 8) (size 9 to 14) (size 15 to 20)
#    0.000    1.143    5.714    2.143    8.000    0.000 
#    0.000    2.143    0.000    0.000    0.000    0.000 
#    0.000    0.000    0.000    0.000    0.000    0.000 
#
# Total GULP energy -78071.223637 kJ/mol
# GULP energy per Si atom -5576.515974 kJ/mol
# Density = 2.686794 g / cm^3
# Si number density = 26.929230 Si / 1000 Ang^3
#
#
#
# Elastic Constant Matrix: (Units=GPa)
#
#
# Indices 1 2 3 4 5 6 
#
# 1 61.3136 20.3186 30.8640 -5.4886 -31.9834 6.5394
# 2 20.3186 143.3827 59.8068 49.5079 -8.0593 25.9654
# 3 30.8640 59.8068 81.9886 14.9066 -29.0930 -13.4217
# 4 -5.4886 49.5079 14.9066 42.6485 -1.6368 1.7246
# 5 -31.9834 -8.0593 -29.0930 -1.6368 54.5114 4.9766
# 6 6.5394 25.9654 -13.4217 1.7246 4.9766 47.4799
#
#
#
# Elastic Compliance Matrix: (Units=1/GPa)
#
#
# Indices 1 2 3 4 5 6 
#
# 1 0.029871 -0.003133 -0.006845 0.010674 0.014298 -0.006222
# 2 -0.003133 0.026803 -0.019548 -0.024236 -0.007384 -0.018098
# 3 -0.006845 -0.019548 0.034009 0.009493 0.009714 0.019884
# 4 0.010674 -0.024236 0.009493 0.049472 0.008153 0.011816
# 5 0.014298 -0.007384 0.009714 0.008153 0.030955 0.001274
# 6 -0.006222 -0.018098 0.019884 0.011816 0.001274 0.036874
#
#
# Mechanical properties :
#
#
# Convention : Reuss Voigt Hill
#
# Bulk Modulus (GPa) = 31.61507 56.51818 44.06663
# Shear Modulus (GPa) = 18.01281 40.64101 29.32691
#
# Velocity S-wave (km/s) = 2.58910 3.88903 3.30364
# Velocity P-wave (km/s) = 4.55011 6.41867 5.56340
#
# Compressibility (1/GPa) = 0.03163048
#
# Stress axis : x y z
#
# Youngs Moduli (GPa) = 33.47719 37.30957 29.40379
#
# Poissons Ratio (x) = 0.11689 0.20127
# Poissons Ratio (y) = 0.10488 0.57480
# Poissons Ratio (z) = 0.22915 0.72934
#
# Static dielectric constant tensor:
#      x y z
#    x 2.161790 0.028510 0.042440 
#    y 0.028510 2.091300 -0.085760 
#    z 0.042440 -0.085760 2.158210 
# 
# From -- ./inp_files/399898.got.cif
#   From: 2010.05.17/outbox.cif.g08.bks.cpg/sg2_200_cif.got.tgz:399898.got - 2010.06.03 11:33:40.
