data_PCOD9020001
_publ_section_title
;
Structure prediction by ZEFSAII (Michael W. Deem and Ramdas Pophale) SiO2 
 PCOD9020001
Probable space group: P -1
;
_chemical_formula_sum "Si O2"
_cell_formula_units_Z 16
_cell_length_a 8.876414
_cell_length_b 8.044260
_cell_length_c 11.895251
_cell_angle_alpha 105.091678
_cell_angle_beta 51.737686
_cell_angle_gamma 80.341675
_cell_volume 580.111700
_symmetry_space_group_name_H-M "P -1"
_symmetry_group_IT_number 2
_symmetry_cell_setting 'triclinic'
loop_
_space_group_symop_operation_xyz
x,y,z
-x,-y,-z
loop_
_atom_site_type_symbol
_atom_site_label
_atom_site_fract_x
_atom_site_fract_y
_atom_site_fract_z
Si Si1 0.130841 0.930671 0.169107
Si Si2 0.681690 0.503358 0.000512
Si Si3 0.267634 0.780177 0.327798
Si Si4 0.524712 0.121548 0.173611
Si Si5 0.156554 0.815696 0.826532
Si Si6 0.625234 0.954272 0.549942
Si Si7 0.725615 0.518859 0.406241
Si Si8 0.129935 0.444769 0.295655
O O1 0.164733 0.715707 0.079356
O O2 0.207775 0.895967 0.256556
O O3 0.310577 0.965291 0.020055
O O4 0.906721 0.087264 0.251203
O O5 0.796753 0.584098 0.874617
O O6 0.500000 0.500000 0.000000
O O7 0.521299 0.633330 0.192204
O O8 0.145761 0.643070 0.354720
O O9 0.230376 0.935680 0.470074
O O10 0.621457 0.236234 0.224891
O O11 0.505869 0.995542 0.262378
O O12 0.303001 0.270494 0.253767
O O13 0.155611 0.612713 0.778836
O O14 0.000000 0.000000 0.000000
O O15 0.721060 0.726508 0.450918
O O16 0.500000 0.000000 0.500000
O O17 0.500000 0.500000 0.500000
O O18 0.905013 0.433702 0.406133
#
# Coordination Sequence:
#
# PCOD9020001 Si02
#       8
#     2   2   2   2   2   2   2   2
#     4   9  18  40  79 119 152 191 261 330 393 463
#     4   8  15  37  73 121 153 180 245 340 393 447
#     4  10  21  45  78 121 156 196 264 328 391 479
#     4  11  21  46  75 114 151 202 260 323 392 457
#     4  10  24  43  76 112 152 198 256 328 393 458
#     4  12  31  46  70 107 158 217 255 318 396 471
#     4  12  28  55  70 109 163 210 266 325 387 474
#     4  10  22  44  85 112 150 205 260 324 397 454
#
# _framework density 27.580895000000002
#
# number of rings (size 3 to 8) (size 9 to 14) (size 15 to 20)
#    0.000    2.000    5.000    0.000    3.500    5.500 
#    0.000    0.000    0.000   10.500    0.000    0.000 
#    0.000    0.000    0.000    0.000    0.000    0.000 
#
# Total GULP energy -89109.818599 kJ/mol
# GULP energy per Si atom -5569.363662 kJ/mol
# Density = 2.751812 g / cm^3
# Si number density = 27.580895 Si / 1000 Ang^3
#
#
#
# Elastic Constant Matrix: (Units=GPa)
#
#
# Indices 1 2 3 4 5 6 
#
# 1 227.5365 68.4853 51.3488 12.2698 13.8321 -6.3624
# 2 68.4853 109.3873 43.6975 2.3900 21.0625 -14.6234
# 3 51.3488 43.6975 107.4856 -4.5393 18.0200 15.0385
# 4 12.2698 2.3900 -4.5393 60.9644 12.8613 17.5416
# 5 13.8321 21.0625 18.0200 12.8613 42.7221 10.0086
# 6 -6.3624 -14.6234 15.0385 17.5416 10.0086 55.0493
#
#
#
# Elastic Compliance Matrix: (Units=1/GPa)
#
#
# Indices 1 2 3 4 5 6 
#
# 1 0.005734 -0.002814 -0.001874 -0.001542 0.000596 0.000810
# 2 -0.002814 0.014633 -0.004574 -0.000942 -0.005523 0.006116
# 3 -0.001874 -0.004574 0.013471 0.003789 -0.002591 -0.005848
# 4 -0.001542 -0.000942 0.003789 0.020099 -0.005057 -0.006949
# 5 0.000596 -0.005523 -0.002591 -0.005057 0.029597 -0.004460
# 6 0.000810 0.006116 -0.005848 -0.006949 -0.004460 0.024506
#
#
# Mechanical properties :
#
#
# Convention : Reuss Voigt Hill
#
# Bulk Modulus (GPa) = 65.30039 85.71920 75.50979
# Shear Modulus (GPa) = 37.97438 50.47236 44.22337
#
# Velocity S-wave (km/s) = 3.71460 4.28246 4.00860
# Velocity P-wave (km/s) = 6.49038 7.45649 6.99015
#
# Compressibility (1/GPa) = 0.01531385
#
# Stress axis : x y z
#
# Youngs Moduli (GPa) = 174.38529 68.34081 74.23578
#
# Poissons Ratio (x) = 0.19234 0.13909
# Poissons Ratio (y) = 0.49080 0.33954
# Poissons Ratio (z) = 0.32673 0.31258
#
# Static dielectric constant tensor:
#      x y z
#    x 2.262300 0.037080 -0.161830 
#    y 0.037080 2.291910 0.010630 
#    z -0.161830 0.010630 2.466400 
# 
# From -- ./inp_files/417559.got.cif
#   From: 2010.05.17/outbox.cif.g08.bks.cpg/sg2_209_cif.got.tgz:417559.got - 2010.06.03 11:33:40.
