data_PCOD9020830
_publ_section_title
;
Structure prediction by ZEFSAII (Michael W. Deem and Ramdas Pophale) SiO2 
 PCOD9020830
Probable space group: P -1
;
_chemical_formula_sum "Si O2"
_cell_formula_units_Z 16
_cell_length_a 8.158702
_cell_length_b 5.181590
_cell_length_c 30.131950
_cell_angle_alpha 104.079787
_cell_angle_beta 47.092796
_cell_angle_gamma 77.816929
_cell_volume 767.339248
_symmetry_space_group_name_H-M "P -1"
_symmetry_group_IT_number 2
_symmetry_cell_setting 'triclinic'
loop_
_space_group_symop_operation_xyz
x,y,z
-x,-y,-z
loop_
_atom_site_type_symbol
_atom_site_label
_atom_site_fract_x
_atom_site_fract_y
_atom_site_fract_z
Si Si1 0.358044 0.817454 0.390821
Si Si2 0.680459 0.546938 0.782408
Si Si3 0.252432 0.137971 0.850738
Si Si4 0.815213 0.392884 0.509399
Si Si5 0.455035 0.846669 0.277559
Si Si6 0.880506 0.415598 0.400395
Si Si7 0.765402 0.902903 0.365885
Si Si8 0.835223 0.229382 0.079426
O O1 0.380125 0.588421 0.416071
O O2 0.495804 0.707921 0.313409
O O3 0.495412 0.986884 0.395602
O O4 0.043976 0.017898 0.446062
O O5 0.611960 0.362039 0.750602
O O6 0.482174 0.608476 0.861809
O O7 0.991394 0.347146 0.720562
O O8 0.557540 0.899606 0.801210
O O9 0.301035 0.153668 0.790341
O O10 0.125043 0.483982 0.908421
O O11 0.118573 0.967701 0.891554
O O12 0.739916 0.508450 0.477947
O O13 0.000000 0.500000 0.500000
O O14 0.196908 0.200911 0.341789
O O15 0.802134 0.710404 0.396325
O O16 0.810897 0.181929 0.379749
O O17 0.000000 0.000000 0.000000
#
# Coordination Sequence:
#
# PCOD9020830 Si02
#       8
#     2   2   2   2   2   2   2   2
#     4  10  24  37  57  79 109 135 191 223 282 323
#     4   8  18  30  55  74 109 134 182 210 269 313
#     4   9  16  28  48  77 104 139 178 210 259 311
#     4  10  24  41  56  79 103 148 181 231 270 345
#     4   9  17  36  53  78 101 151 171 230 260 326
#     4  10  22  37  60  72 113 137 179 219 292 319
#     4  11  22  39  55  86 103 145 175 234 273 329
#     4   9  16  27  47  80 114 138 171 219 259 306
#
# _framework density 20.851272000000002
#
# number of rings (size 3 to 8) (size 9 to 14) (size 15 to 20)
#    0.750    1.750    1.250    0.375    8.750    1.000 
#    0.000    0.000    0.000    0.000    0.000    4.375 
#    0.000    0.125    0.000    0.000    0.000    0.000 
#
# Total GULP energy -89102.462523 kJ/mol
# GULP energy per Si atom -5568.903908 kJ/mol
# Density = 2.080381 g / cm^3
# Si number density = 20.851272 Si / 1000 Ang^3
#
#
#
# Elastic Constant Matrix: (Units=GPa)
#
#
# Indices 1 2 3 4 5 6 
#
# 1 46.7441 5.4160 15.2387 -0.0015 -3.1610 -1.8552
# 2 5.4160 93.3957 16.2652 -8.1741 2.2171 8.8857
# 3 15.2387 16.2652 112.7532 -3.4916 9.8752 -15.1690
# 4 -0.0015 -8.1741 -3.4916 30.3826 2.9662 -3.0608
# 5 -3.1610 2.2171 9.8752 2.9662 13.6037 1.1225
# 6 -1.8552 8.8857 -15.1690 -3.0608 1.1225 21.5014
#
#
#
# Elastic Compliance Matrix: (Units=1/GPa)
#
#
# Indices 1 2 3 4 5 6 
#
# 1 0.023369 -0.000906 -0.004020 -0.001696 0.008961 -0.001155
# 2 -0.000906 0.011988 -0.002345 0.002363 -0.000455 -0.006326
# 3 -0.004020 -0.002345 0.012156 0.002848 -0.010836 0.010169
# 4 -0.001696 0.002363 0.002848 0.035624 -0.011154 0.006540
# 5 0.008961 -0.000455 -0.010836 -0.011154 0.087021 -0.012815
# 6 -0.001155 -0.006326 0.010169 0.006540 -0.012815 0.057798
#
#
# Mechanical properties :
#
#
# Convention : Reuss Voigt Hill
#
# Bulk Modulus (GPa) = 30.33115 36.30365 33.31740
# Shear Modulus (GPa) = 19.72476 27.49573 23.61025
#
# Velocity S-wave (km/s) = 3.07901 3.63528 3.36864
# Velocity P-wave (km/s) = 5.21712 5.92190 5.58065
#
# Compressibility (1/GPa) = 0.03296940
#
# Stress axis : x y z
#
# Youngs Moduli (GPa) = 42.79209 83.42001 82.26449
#
# Poissons Ratio (x) = 0.07560 0.33073
# Poissons Ratio (y) = 0.03878 0.19290
# Poissons Ratio (z) = 0.17204 0.19561
#
# Static dielectric constant tensor:
#      x y z
#    x 1.769830 -0.027720 -0.040710 
#    y -0.027720 1.891140 0.041580 
#    z -0.040710 0.041580 1.820030 
# 
# From -- ./inp_files/616264.got.cif
#   From: 2010.05.17/outbox.cif.g08.bks.cpg/sg2_309_cif.got.tgz:616264.got - 2010.06.03 11:33:40.
