data_PCOD9020950
_publ_section_title
;
Structure prediction by ZEFSAII (Michael W. Deem and Ramdas Pophale) SiO2 
 PCOD9020950
Probable space group: P -1
;
_chemical_formula_sum "Si O2"
_cell_formula_units_Z 16
_cell_length_a 6.032616
_cell_length_b 15.666758
_cell_length_c 16.359157
_cell_angle_alpha 144.180921
_cell_angle_beta 54.026641
_cell_angle_gamma 122.328019
_cell_volume 726.677626
_symmetry_space_group_name_H-M "P -1"
_symmetry_group_IT_number 2
_symmetry_cell_setting 'triclinic'
loop_
_space_group_symop_operation_xyz
x,y,z
-x,-y,-z
loop_
_atom_site_type_symbol
_atom_site_label
_atom_site_fract_x
_atom_site_fract_y
_atom_site_fract_z
Si Si1 0.032055 0.944711 0.858482
Si Si2 0.360583 0.105711 0.374324
Si Si3 0.992610 0.099428 0.826170
Si Si4 0.778680 0.615656 0.619775
Si Si5 0.275353 0.618113 0.226760
Si Si6 0.403752 0.921793 0.374905
Si Si7 0.126447 0.385370 0.939787
Si Si8 0.742451 0.586976 0.412003
O O1 0.349557 0.933225 0.755343
O O2 0.881963 0.778799 0.754144
O O3 0.922861 0.054718 0.899895
O O4 0.000000 0.000000 0.000000
O O5 0.365697 0.279093 0.508606
O O6 0.126477 0.038037 0.309774
O O7 0.299675 0.032621 0.418804
O O8 0.322693 0.122158 0.763126
O O9 0.922335 0.245330 0.907649
O O10 0.736605 0.620198 0.534971
O O11 0.475432 0.553612 0.670519
O O12 0.000000 0.500000 0.500000
O O13 0.212833 0.769735 0.315099
O O14 0.602459 0.651306 0.196665
O O15 0.060636 0.583154 0.318335
O O16 0.226365 0.477047 0.069932
O O17 0.500000 0.000000 0.500000
O O18 0.000000 0.500000 0.000000
#
# Coordination Sequence:
#
# PCOD9020950 Si02
#       8
#     2   2   2   2   2   2   2   2
#     4  11  25  44  68  96 136 184 230 293 353 401
#     4  11  22  41  66  97 132 173 227 282 336 415
#     4  10  22  41  63  93 132 172 224 278 336 414
#     4  11  24  45  66  97 137 174 237 293 338 408
#     4  10  23  40  63  95 131 173 221 270 338 410
#     4  10  22  37  62  97 133 166 211 273 338 410
#     4  10  22  42  64  94 137 175 221 273 335 422
#     4  11  24  41  70  95 130 180 228 284 345 399
#
# _framework density 22.018018000000001
#
# number of rings (size 3 to 8) (size 9 to 14) (size 15 to 20)
#    0.000    1.500    2.500    1.500    1.750    8.500 
#    0.000    0.000    0.000    0.000    0.000    0.000 
#    0.000    0.000    0.000    0.000    0.000    0.000 
#
# Total GULP energy -89340.789671 kJ/mol
# GULP energy per Si atom -5583.799354 kJ/mol
# Density = 2.196790 g / cm^3
# Si number density = 22.018018 Si / 1000 Ang^3
#
#
#
# Elastic Constant Matrix: (Units=GPa)
#
#
# Indices 1 2 3 4 5 6 
#
# 1 47.5632 39.3605 6.2310 -7.2163 -7.2060 -5.7167
# 2 39.3605 166.1981 51.9772 2.8305 -0.2356 5.2141
# 3 6.2310 51.9772 72.5392 -4.6284 5.8414 6.8397
# 4 -7.2163 2.8305 -4.6284 32.9089 -2.1547 5.3818
# 5 -7.2060 -0.2356 5.8414 -2.1547 30.9629 7.0375
# 6 -5.7167 5.2141 6.8397 5.3818 7.0375 42.0445
#
#
#
# Elastic Compliance Matrix: (Units=1/GPa)
#
#
# Indices 1 2 3 4 5 6 
#
# 1 0.029858 -0.008237 0.003084 0.007683 0.006260 0.002549
# 2 -0.008237 0.010131 -0.006655 -0.003538 -0.000665 -0.000730
# 3 0.003084 -0.006655 0.018913 0.004093 -0.002163 -0.001994
# 4 0.007683 -0.003538 0.004093 0.033929 0.004315 -0.004248
# 5 0.006260 -0.000665 -0.002163 0.004315 0.035646 -0.005234
# 6 0.002549 -0.000730 -0.001994 -0.004248 -0.005234 0.025965
#
#
# Mechanical properties :
#
#
# Convention : Reuss Voigt Hill
#
# Bulk Modulus (GPa) = 28.34178 53.49310 40.91744
# Shear Modulus (GPa) = 26.34038 33.76538 30.05288
#
# Velocity S-wave (km/s) = 3.46252 3.92028 3.69849
# Velocity P-wave (km/s) = 5.37452 6.69622 6.07144
#
# Compressibility (1/GPa) = 0.03528360
#
# Stress axis : x y z
#
# Youngs Moduli (GPa) = 33.49204 98.70299 52.87374
#
# Poissons Ratio (x) = 0.81306 -0.16304
# Poissons Ratio (y) = 0.27589 0.35189
# Poissons Ratio (z) = -0.10327 0.65691
#
# Static dielectric constant tensor:
#      x y z
#    x 1.859330 -0.014400 -0.053860 
#    y -0.014400 1.843720 0.012950 
#    z -0.053860 0.012950 1.821770 
# 
# From -- ./inp_files/69199.got.cif
#   From: 2010.05.17/outbox.cif.g08.bks.cpg/sg2_35_cif.got.tgz:69199.got - 2010.06.03 11:33:40.
