data_PCOD9020090
_publ_section_title
;
Structure prediction by ZEFSAII (Michael W. Deem and Ramdas Pophale) SiO2 
 PCOD9020090
Probable space group: P -1
;
_chemical_formula_sum "Si O2"
_cell_formula_units_Z 14
_cell_length_a 8.573462
_cell_length_b 5.363725
_cell_length_c 16.571785
_cell_angle_alpha 53.640690
_cell_angle_beta 105.157440
_cell_angle_gamma 93.558807
_cell_volume 588.102769
_symmetry_space_group_name_H-M "P -1"
_symmetry_group_IT_number 2
_symmetry_cell_setting 'triclinic'
loop_
_space_group_symop_operation_xyz
x,y,z
-x,-y,-z
loop_
_atom_site_type_symbol
_atom_site_label
_atom_site_fract_x
_atom_site_fract_y
_atom_site_fract_z
Si Si1 0.953811 0.471162 0.905859
Si Si2 0.965677 0.714597 0.604796
Si Si3 0.216331 0.393574 0.829339
Si Si4 0.835793 0.142187 0.698992
Si Si5 0.324101 0.714452 0.188074
Si Si6 0.423405 0.805060 0.883891
Si Si7 0.381931 0.095681 0.392863
O O1 0.104729 0.304892 0.906775
O O2 0.779656 0.342893 0.894185
O O3 0.926070 0.799920 0.790639
O O4 0.000000 0.500000 0.000000
O O5 0.927372 0.395072 0.617342
O O6 0.797781 0.833687 0.605565
O O7 0.109768 0.581890 0.709390
O O8 0.000000 0.000000 0.500000
O O9 0.331655 0.641827 0.831598
O O10 0.305808 0.070116 0.866259
O O11 0.812242 0.236709 0.770741
O O12 0.657380 0.147207 0.634468
O O13 0.427722 0.394874 0.292746
O O14 0.426743 0.000288 0.151803
O O15 0.500000 0.500000 0.000000
O O16 0.500000 0.000000 0.500000
#
# Coordination Sequence:
#
# PCOD9020090 Si02
#       7
#     2   2   2   2   2   2   2
#     4  11  25  47  82 110 147 209 264 328 393 464
#     4  11  25  44  73 112 151 204 253 322 400 460
#     4  12  27  53  77 118 159 200 268 333 381 480
#     4  10  21  46  70 104 157 187 273 313 374 476
#     4  10  25  47  72 106 151 200 263 316 384 477
#     4  12  31  51  76 111 163 208 259 324 408 462
#     4  10  23  43  73 107 146 198 261 316 387 469
#
# _framework density 23.805363
#
# number of rings (size 3 to 8) (size 9 to 14) (size 15 to 20)
#    0.000    1.143    4.286    1.286    8.000    6.857 
#    0.000    0.714    0.000    0.000    0.000    0.000 
#    0.000    0.000    0.000    0.000    0.000    0.000 
#
# Total GULP energy -78175.725396 kJ/mol
# GULP energy per Si atom -5583.980385 kJ/mol
# Density = 2.375118 g / cm^3
# Si number density = 23.805363 Si / 1000 Ang^3
#
#
#
# Elastic Constant Matrix: (Units=GPa)
#
#
# Indices 1 2 3 4 5 6 
#
# 1 77.6231 42.9142 58.1348 -9.2471 1.0637 8.4226
# 2 42.9142 169.5857 106.6932 1.2473 15.6667 34.7821
# 3 58.1348 106.6932 205.4468 -4.4185 14.8472 31.1535
# 4 -9.2471 1.2473 -4.4185 43.5317 13.1710 -0.1100
# 5 1.0637 15.6667 14.8472 13.1710 31.8264 0.0107
# 6 8.4226 34.7821 31.1535 -0.1100 0.0107 61.2660
#
#
#
# Elastic Compliance Matrix: (Units=1/GPa)
#
#
# Indices 1 2 3 4 5 6 
#
# 1 0.017267 -0.002234 -0.003871 0.003014 0.001081 0.000868
# 2 -0.002234 0.009760 -0.003728 -0.000270 -0.002878 -0.003338
# 3 -0.003871 -0.003728 0.008318 0.000805 -0.002249 -0.001579
# 4 0.003014 -0.000270 0.000805 0.027211 -0.011604 -0.000619
# 5 0.001081 -0.002878 -0.002249 -0.011604 0.038651 0.002601
# 6 0.000868 -0.003338 -0.001579 -0.000619 0.002601 0.018900
#
#
# Mechanical properties :
#
#
# Convention : Reuss Voigt Hill
#
# Bulk Modulus (GPa) = 63.77919 96.46000 80.11960
# Shear Modulus (GPa) = 34.48302 43.65237 39.06770
#
# Velocity S-wave (km/s) = 3.81010 4.28684 4.05548
# Velocity P-wave (km/s) = 6.79749 8.06913 7.46046
#
# Compressibility (1/GPa) = 0.01567909
#
# Stress axis : x y z
#
# Youngs Moduli (GPa) = 57.91422 102.45806 120.22082
#
# Poissons Ratio (x) = 0.22893 0.46532
# Poissons Ratio (y) = 0.12940 0.44819
# Poissons Ratio (z) = 0.22416 0.38197
#
# Static dielectric constant tensor:
#      x y z
#    x 1.964510 -0.052270 0.015710 
#    y -0.052270 2.210100 0.041600 
#    z 0.015710 0.041600 1.889520 
# 
# From -- ./inp_files/525598.got.cif
#   From: 2010.05.17/outbox.cif.g08.bks.cpg/sg2_263_cif.got.tgz:525598.got - 2010.06.03 11:33:40.
