data_PCOD9020109
_publ_section_title
;
Structure prediction by ZEFSAII (Michael W. Deem and Ramdas Pophale) SiO2 
 PCOD9020109
Probable space group: P -1
;
_chemical_formula_sum "Si O2"
_cell_formula_units_Z 14
_cell_length_a 10.985597
_cell_length_b 9.095375
_cell_length_c 8.678589
_cell_angle_alpha 130.169980
_cell_angle_beta 61.472309
_cell_angle_gamma 102.906791
_cell_volume 577.514757
_symmetry_space_group_name_H-M "P -1"
_symmetry_group_IT_number 2
_symmetry_cell_setting 'triclinic'
loop_
_space_group_symop_operation_xyz
x,y,z
-x,-y,-z
loop_
_atom_site_type_symbol
_atom_site_label
_atom_site_fract_x
_atom_site_fract_y
_atom_site_fract_z
Si Si1 0.017973 0.667721 0.984678
Si Si2 0.336553 0.169617 0.106527
Si Si3 0.019726 0.199551 0.213963
Si Si4 0.881513 0.036899 0.460786
Si Si5 0.563751 0.452795 0.636716
Si Si6 0.438208 0.854481 0.315960
Si Si7 0.669840 0.256089 0.133088
O O1 0.166519 0.740943 0.974351
O O2 0.898334 0.837969 0.219159
O O3 0.000000 0.500000 0.000000
O O4 0.015721 0.633976 0.779737
O O5 0.179967 0.187124 0.152152
O O6 0.351665 0.364613 0.322577
O O7 0.445543 0.176807 0.906789
O O8 0.361243 0.960129 0.030570
O O9 0.928144 0.196667 0.421393
O O10 0.000000 0.000000 0.000000
O O11 0.716052 0.080742 0.618932
O O12 0.000000 0.000000 0.500000
O O13 0.579851 0.340243 0.709923
O O14 0.612212 0.299026 0.370308
O O15 0.406880 0.561232 0.789446
O O16 0.500000 0.000000 0.500000
#
# Coordination Sequence:
#
# PCOD9020109 Si02
#       7
#     2   2   2   2   2   2   2
#     4  11  25  43  74 101 147 196 248 297 382 445
#     4  12  24  44  78 101 146 196 246 304 368 442
#     4  10  21  46  71 100 146 200 237 298 381 439
#     4  11  26  45  74 110 148 192 250 305 376 444
#     4  11  27  43  72 110 141 192 249 297 376 444
#     4  12  25  46  74 106 153 198 241 308 377 449
#     4  11  24  47  70 103 149 187 243 312 367 436
#
# _framework density 24.241806
#
# number of rings (size 3 to 8) (size 9 to 14) (size 15 to 20)
#    0.000    0.857    4.286    3.429    6.000    3.429 
#    0.000    2.143    0.000    0.000    0.000    0.000 
#    0.000    0.000    0.000    0.000    0.000    0.000 
#
# Total GULP energy -78295.149530 kJ/mol
# GULP energy per Si atom -5592.510681 kJ/mol
# Density = 2.418663 g / cm^3
# Si number density = 24.241806 Si / 1000 Ang^3
#
#
#
# Elastic Constant Matrix: (Units=GPa)
#
#
# Indices 1 2 3 4 5 6 
#
# 1 122.8551 26.5839 39.3961 -13.5591 -20.9388 11.1078
# 2 26.5839 164.1868 45.8916 -12.3531 0.7293 -11.7062
# 3 39.3961 45.8916 64.4305 -14.8386 -17.8765 -1.7354
# 4 -13.5591 -12.3531 -14.8386 37.2415 2.8764 7.7498
# 5 -20.9388 0.7293 -17.8765 2.8764 46.0628 -5.9335
# 6 11.1078 -11.7062 -1.7354 7.7498 -5.9335 34.9707
#
#
#
# Elastic Compliance Matrix: (Units=1/GPa)
#
#
# Indices 1 2 3 4 5 6 
#
# 1 0.010950 -0.000394 -0.005352 0.002388 0.002239 -0.004025
# 2 -0.000394 0.008013 -0.006114 -0.000182 -0.002392 0.002139
# 3 -0.005352 -0.006114 0.026680 0.005844 0.007783 0.001003
# 4 0.002388 -0.000182 0.005844 0.031504 0.000431 -0.007438
# 5 0.002239 -0.002392 0.007783 0.000431 0.026173 0.003219
# 6 -0.004025 0.002139 0.001003 -0.007438 0.003219 0.032834
#
#
# Mechanical properties :
#
#
# Convention : Reuss Voigt Hill
#
# Bulk Modulus (GPa) = 45.61495 63.91285 54.76390
# Shear Modulus (GPa) = 29.90737 39.62838 34.76788
#
# Velocity S-wave (km/s) = 3.51623 4.04754 3.79121
# Velocity P-wave (km/s) = 5.94497 6.94733 6.46561
#
# Compressibility (1/GPa) = 0.02192263
#
# Stress axis : x y z
#
# Youngs Moduli (GPa) = 91.32132 124.79970 37.48115
#
# Poissons Ratio (x) = 0.04922 0.20059
# Poissons Ratio (y) = 0.03601 0.22917
# Poissons Ratio (z) = 0.48873 0.76305
#
# Static dielectric constant tensor:
#      x y z
#    x 2.011810 -0.030310 0.028770 
#    y -0.030310 1.958580 0.011370 
#    z 0.028770 0.011370 2.003670 
# 
# From -- ./inp_files/186314.got.cif
#   From: 2010.05.17/outbox.cif.g08.bks.cpg/sg2_94_cif.got.tgz:186314.got - 2010.06.03 11:33:40.
