data_PCOD9020974
_publ_section_title
;
Structure prediction by ZEFSAII (Michael W. Deem and Ramdas Pophale) SiO2 
 PCOD9020974
Probable space group: P -1
;
_chemical_formula_sum "Si O2"
_cell_formula_units_Z 16
_cell_length_a 12.270232
_cell_length_b 9.416074
_cell_length_c 9.982494
_cell_angle_alpha 42.388418
_cell_angle_beta 105.545859
_cell_angle_gamma 90.218352
_cell_volume 714.843053
_symmetry_space_group_name_H-M "P -1"
_symmetry_group_IT_number 2
_symmetry_cell_setting 'triclinic'
loop_
_space_group_symop_operation_xyz
x,y,z
-x,-y,-z
loop_
_atom_site_type_symbol
_atom_site_label
_atom_site_fract_x
_atom_site_fract_y
_atom_site_fract_z
Si Si1 0.648939 0.667177 0.971866
Si Si2 0.620435 0.796377 0.173069
Si Si3 0.384726 0.787622 0.770423
Si Si4 0.039014 0.676277 0.305277
Si Si5 0.229284 0.064468 0.322493
Si Si6 0.029072 0.860768 0.899021
Si Si7 0.305352 0.682659 0.393493
Si Si8 0.280253 0.855634 0.962113
O O1 0.517944 0.785647 0.787150
O O2 0.747033 0.715270 0.877396
O O3 0.658527 0.756669 0.059767
O O4 0.648961 0.417138 0.161284
O O5 0.608153 0.564739 0.384077
O O6 0.717636 0.890177 0.212528
O O7 0.500000 0.000000 0.000000
O O8 0.290843 0.999940 0.530451
O O9 0.374711 0.752596 0.949948
O O10 0.177001 0.645647 0.391580
O O11 0.000000 0.500000 0.500000
O O12 0.973048 0.917672 0.174136
O O13 0.018942 0.687281 0.131225
O O14 0.298200 0.873287 0.369489
O O15 0.090489 0.086138 0.262597
O O16 0.158479 0.806129 0.915286
O O17 0.311033 0.767451 0.184897
#
# Coordination Sequence:
#
# PCOD9020974 Si02
#       8
#     2   2   2   2   2   2   2   2
#     4  11  24  44  64  92 125 169 219 257 311 384
#     4  12  23  41  66  97 125 166 214 263 315 370
#     4  11  25  44  64  89 130 172 209 260 321 371
#     4   9  17  32  57  88 126 163 198 253 309 363
#     4  11  22  41  68  92 127 171 210 258 315 379
#     4   9  21  35  59  97 125 159 208 258 309 371
#     4  10  22  37  63  94 126 162 209 256 313 372
#     4  11  23  43  63  97 134 160 209 268 310 372
#
# _framework density 22.382535000000001
#
# number of rings (size 3 to 8) (size 9 to 14) (size 15 to 20)
#    0.000    1.500    3.750    1.875    1.750    2.000 
#    4.500    0.625    0.000    0.000    0.000    0.000 
#    0.000    0.000    0.000    0.000    0.000    0.000 
#
# Total GULP energy -89320.335675 kJ/mol
# GULP energy per Si atom -5582.520980 kJ/mol
# Density = 2.233159 g / cm^3
# Si number density = 22.382535 Si / 1000 Ang^3
#
#
#
# Elastic Constant Matrix: (Units=GPa)
#
#
# Indices 1 2 3 4 5 6 
#
# 1 71.4814 -1.0984 2.9595 -1.7457 -11.6916 11.8913
# 2 -1.0984 46.5238 2.7604 -1.3880 -9.6067 2.8537
# 3 2.9595 2.7604 62.3851 -0.6749 -10.7608 4.7120
# 4 -1.7457 -1.3880 -0.6749 20.6785 -1.2759 0.2460
# 5 -11.6916 -9.6067 -10.7608 -1.2759 29.2166 -3.2183
# 6 11.8913 2.8537 4.7120 0.2460 -3.2183 23.0860
#
#
#
# Elastic Compliance Matrix: (Units=1/GPa)
#
#
# Indices 1 2 3 4 5 6 
#
# 1 0.016507 0.002319 0.000938 0.002102 0.006920 -0.008038
# 2 0.002319 0.023560 0.000597 0.002367 0.008662 -0.003046
# 3 0.000938 0.000597 0.017361 0.001135 0.006665 -0.003183
# 4 0.002102 0.002367 0.001135 0.048999 0.004005 -0.001571
# 5 0.006920 0.008662 0.006665 0.004005 0.042461 -0.000119
# 6 -0.008038 -0.003046 -0.003183 -0.001571 -0.000119 0.048483
#
#
# Mechanical properties :
#
#
# Convention : Reuss Voigt Hill
#
# Bulk Modulus (GPa) = 15.35262 21.07035 18.21149
# Shear Modulus (GPa) = 23.65473 26.31415 24.98444
#
# Velocity S-wave (km/s) = 3.25443 3.43250 3.34465
# Velocity P-wave (km/s) = 4.58212 5.01434 4.80310
#
# Compressibility (1/GPa) = 0.06513545
#
# Stress axis : x y z
#
# Youngs Moduli (GPa) = 60.58101 42.44508 57.60076
#
# Poissons Ratio (x) = -0.09842 -0.05402
# Poissons Ratio (y) = -0.14047 -0.03441
# Poissons Ratio (z) = -0.05681 -0.02536
#
# Static dielectric constant tensor:
#      x y z
#    x 1.856160 -0.009310 0.053410 
#    y -0.009310 1.857970 -0.036330 
#    z 0.053410 -0.036330 1.859410 
# 
# From -- ./inp_files/242144.got.cif
#   From: 2010.05.17/outbox.cif.g08.bks.cpg/sg2_122_cif.got.tgz:242144.got - 2010.06.03 11:33:40.
