data_PCOD9020351
_publ_section_title
;
Structure prediction by ZEFSAII (Michael W. Deem and Ramdas Pophale) SiO2 
 PCOD9020351
Probable space group: P -1
;
_chemical_formula_sum "Si O2"
_cell_formula_units_Z 16
_cell_length_a 10.755174
_cell_length_b 17.306309
_cell_length_c 7.254482
_cell_angle_alpha 100.089957
_cell_angle_beta 87.400942
_cell_angle_gamma 152.340143
_cell_volume 599.058152
_symmetry_space_group_name_H-M "P -1"
_symmetry_group_IT_number 2
_symmetry_cell_setting 'triclinic'
loop_
_space_group_symop_operation_xyz
x,y,z
-x,-y,-z
loop_
_atom_site_type_symbol
_atom_site_label
_atom_site_fract_x
_atom_site_fract_y
_atom_site_fract_z
Si Si1 0.168995 0.520030 0.572074
Si Si2 0.908009 0.186249 0.697967
Si Si3 0.500566 0.795877 0.932100
Si Si4 0.585680 0.398073 0.761852
Si Si5 0.419151 0.031909 0.737593
Si Si6 0.485175 0.465048 0.275574
Si Si7 0.905363 0.853043 0.068875
Si Si8 0.167443 0.747408 0.782501
O O1 0.287939 0.611001 0.798556
O O2 0.418883 0.640284 0.461731
O O3 0.000000 0.500000 0.500000
O O4 0.946895 0.328971 0.450679
O O5 0.758750 0.066030 0.476754
O O6 0.210544 0.393571 0.732417
O O7 0.988409 0.158995 0.813569
O O8 0.689545 0.129118 0.750962
O O9 0.409251 0.822467 0.831791
O O10 0.808843 0.945895 0.920457
O O11 0.498717 0.835166 0.148500
O O12 0.565648 0.481153 0.798645
O O13 0.330134 0.232032 0.837387
O O14 0.912958 0.573443 0.852231
O O15 0.239749 0.879559 0.833984
O O16 0.500000 0.500000 0.500000
O O17 0.252622 0.274147 0.148110
#
# Coordination Sequence:
#
# PCOD9020351 Si02
#       8
#     2   2   2   2   2   2   2   2
#     4   8  19  34  56  84 114 158 194 229 282 349
#     4  10  22  35  52  90 117 150 186 249 288 342
#     4  11  20  33  58  86 114 149 197 235 283 343
#     4   9  19  34  56  80 114 153 190 227 286 337
#     4  11  21  34  60  87 115 148 198 245 288 327
#     4  11  22  36  57  87 121 148 190 235 301 342
#     4  11  22  34  58  87 117 149 191 240 291 341
#     4   9  18  34  56  82 112 154 189 234 284 338
#
# _framework density 26.708590999999998
#
# number of rings (size 3 to 8) (size 9 to 14) (size 15 to 20)
#    0.750    1.250    1.250    4.125    3.500    0.500 
#    0.000    0.000    0.000   11.250    0.000    0.000 
#    0.000    0.000    0.000    0.000    0.000    0.000 
#
# Total GULP energy -89394.837898 kJ/mol
# GULP energy per Si atom -5587.177369 kJ/mol
# Density = 2.664780 g / cm^3
# Si number density = 26.708591 Si / 1000 Ang^3
#
#
#
# Elastic Constant Matrix: (Units=GPa)
#
#
# Indices 1 2 3 4 5 6 
#
# 1 115.4221 30.5439 41.4062 8.6354 -7.4413 20.8660
# 2 30.5439 119.2068 29.5361 11.5864 0.1260 33.0128
# 3 41.4062 29.5361 183.8094 34.0874 -18.6698 4.4623
# 4 8.6354 11.5864 34.0874 41.7853 5.4977 0.6854
# 5 -7.4413 0.1260 -18.6698 5.4977 47.2311 2.9281
# 6 20.8660 33.0128 4.4623 0.6854 2.9281 45.1110
#
#
#
# Elastic Compliance Matrix: (Units=1/GPa)
#
#
# Indices 1 2 3 4 5 6 
#
# 1 0.010444 -0.001084 -0.001886 -0.000412 0.001194 -0.003923
# 2 -0.001084 0.011202 -0.000999 -0.001956 0.000102 -0.007574
# 3 -0.001886 -0.000999 0.007421 -0.005830 0.003271 0.000745
# 4 -0.000412 -0.001956 -0.005830 0.030069 -0.005997 0.002132
# 5 0.001194 0.000102 0.003271 -0.005997 0.023499 -0.002385
# 6 -0.003923 -0.007574 0.000745 0.002132 -0.002385 0.029574
#
#
# Mechanical properties :
#
#
# Convention : Reuss Voigt Hill
#
# Bulk Modulus (GPa) = 47.32495 69.04563 58.18529
# Shear Modulus (GPa) = 39.31171 47.95562 43.63366
#
# Velocity S-wave (km/s) = 3.84066 4.24195 4.04628
# Velocity P-wave (km/s) = 6.11760 7.06397 6.60775
#
# Compressibility (1/GPa) = 0.02113050
#
# Stress axis : x y z
#
# Youngs Moduli (GPa) = 95.74866 89.27313 134.75267
#
# Poissons Ratio (x) = 0.09675 0.25408
# Poissons Ratio (y) = 0.10377 0.13459
# Poissons Ratio (z) = 0.18054 0.08917
#
# Static dielectric constant tensor:
#      x y z
#    x 2.063110 -0.034780 0.046130 
#    y -0.034780 2.158670 -0.107990 
#    z 0.046130 -0.107990 2.146110 
# 
# From -- ./inp_files/320612.got.cif
#   From: 2010.05.17/outbox.cif.g08.bks.cpg/sg2_161_cif.got.tgz:320612.got - 2010.06.03 11:33:40.
