data_PCOD9020416
_publ_section_title
;
Structure prediction by ZEFSAII (Michael W. Deem and Ramdas Pophale) SiO2 
 PCOD9020416
Probable space group: P -1
;
_chemical_formula_sum "Si O2"
_cell_formula_units_Z 14
_cell_length_a 10.925611
_cell_length_b 13.144451
_cell_length_c 16.785600
_cell_angle_alpha 22.392202
_cell_angle_beta 44.504662
_cell_angle_gamma 41.479242
_cell_volume 606.229310
_symmetry_space_group_name_H-M "P -1"
_symmetry_group_IT_number 2
_symmetry_cell_setting 'triclinic'
loop_
_space_group_symop_operation_xyz
x,y,z
-x,-y,-z
loop_
_atom_site_type_symbol
_atom_site_label
_atom_site_fract_x
_atom_site_fract_y
_atom_site_fract_z
Si Si1 0.760981 0.007217 0.833816
Si Si2 0.173146 0.221290 0.867117
Si Si3 0.863621 0.014141 0.396334
Si Si4 0.598256 0.534163 0.050398
Si Si5 0.772765 0.442618 0.862505
Si Si6 0.544132 0.158176 0.669342
Si Si7 0.808541 0.389526 0.289287
O O1 0.957315 0.043765 0.700480
O O2 0.617481 0.182880 0.707137
O O3 0.730571 0.015326 0.937984
O O4 0.776957 0.680855 0.045424
O O5 0.324492 0.232803 0.725062
O O6 0.115211 0.514187 0.734587
O O7 0.980137 0.219447 0.923872
O O8 0.698748 0.287758 0.243185
O O9 0.917523 0.128209 0.372458
O O10 0.789458 0.753087 0.620196
O O11 0.379181 0.590675 0.103651
O O12 0.692855 0.427558 0.998446
O O13 0.624678 0.831046 0.842267
O O14 0.624957 0.328666 0.446563
#
# Coordination Sequence:
#
# PCOD9020416 Si02
#       7
#     2   2   2   2   2   2   2
#     4  10  23  35  63  91 123 150 195 243 304 355
#     4  10  23  41  58  92 124 158 196 239 303 359
#     4  12  21  40  64  93 119 152 201 256 296 349
#     4  11  23  41  63  88 116 162 205 249 292 343
#     4  11  24  41  62  86 121 159 208 247 288 349
#     4  12  22  40  63  86 130 157 192 247 296 362
#     4  10  22  35  61  93 120 153 194 238 309 354
#
# _framework density 23.093571000000001
#
# number of rings (size 3 to 8) (size 9 to 14) (size 15 to 20)
#    0.857    0.286    4.286    2.571    2.000    1.714 
#    0.000    0.000    0.000    1.714    0.000    0.000 
#    0.000    0.000    0.000    0.000    0.000    0.000 
#
# Total GULP energy -78198.541572 kJ/mol
# GULP energy per Si atom -5585.610112 kJ/mol
# Density = 2.304101 g / cm^3
# Si number density = 23.093571 Si / 1000 Ang^3
#
#
#
# Elastic Constant Matrix: (Units=GPa)
#
#
# Indices 1 2 3 4 5 6 
#
# 1 85.9477 2.1483 14.2252 5.1853 -3.8455 -22.4177
# 2 2.1483 30.6079 -13.9839 9.3215 -3.6159 -8.3317
# 3 14.2252 -13.9839 87.6497 9.2244 -7.7721 1.7645
# 4 5.1853 9.3215 9.2244 36.0622 -6.8362 -12.1852
# 5 -3.8455 -3.6159 -7.7721 -6.8362 23.0355 2.2634
# 6 -22.4177 -8.3317 1.7645 -12.1852 2.2634 37.9601
#
#
#
# Elastic Compliance Matrix: (Units=1/GPa)
#
#
# Indices 1 2 3 4 5 6 
#
# 1 0.014399 -0.000198 -0.002657 0.001971 0.001163 0.009147
# 2 -0.000198 0.041484 0.008108 -0.009964 0.005759 0.005070
# 3 -0.002657 0.008108 0.014120 -0.005335 0.004247 -0.002412
# 4 0.001971 -0.009964 -0.005335 0.036180 0.006676 0.010441
# 5 0.001163 0.005759 0.004247 0.006676 0.047821 0.001045
# 6 0.009147 0.005070 -0.002412 0.010441 0.001045 0.036259
#
#
# Mechanical properties :
#
#
# Convention : Reuss Voigt Hill
#
# Bulk Modulus (GPa) = 12.42086 23.22051 17.82068
# Shear Modulus (GPa) = 24.20210 32.86593 28.53402
#
# Velocity S-wave (km/s) = 3.24080 3.77658 3.51890
# Velocity P-wave (km/s) = 4.40385 5.39384 4.92379
#
# Compressibility (1/GPa) = 0.08050971
#
# Stress axis : x y z
#
# Youngs Moduli (GPa) = 69.45167 24.10552 70.81928
#
# Poissons Ratio (x) = 0.00477 0.18816
# Poissons Ratio (y) = 0.01373 -0.57419
# Poissons Ratio (z) = 0.18453 -0.19544
#
# Static dielectric constant tensor:
#      x y z
#    x 1.888390 -0.018870 0.048460 
#    y -0.018870 1.871650 -0.038050 
#    z 0.048460 -0.038050 1.863730 
# 
# From -- ./inp_files/255477.got.cif
#   From: 2010.05.17/outbox.cif.g08.bks.cpg/sg2_128_cif.got.tgz:255477.got - 2010.06.03 11:33:40.
