data_PCOD9020254
_publ_section_title
;
Structure prediction by ZEFSAII (Michael W. Deem and Ramdas Pophale) SiO2 
 PCOD9020254
Probable space group: P -1
;
_chemical_formula_sum "Si O2"
_cell_formula_units_Z 16
_cell_length_a 4.991255
_cell_length_b 24.742672
_cell_length_c 5.096914
_cell_angle_alpha 109.270864
_cell_angle_beta 86.216307
_cell_angle_gamma 72.835099
_cell_volume 558.325703
_symmetry_space_group_name_H-M "P -1"
_symmetry_group_IT_number 2
_symmetry_cell_setting 'triclinic'
loop_
_space_group_symop_operation_xyz
x,y,z
-x,-y,-z
loop_
_atom_site_type_symbol
_atom_site_label
_atom_site_fract_x
_atom_site_fract_y
_atom_site_fract_z
Si Si1 0.469166 0.363629 0.649146
Si Si2 0.969806 0.186353 0.950915
Si Si3 0.434850 0.930096 0.748219
Si Si4 0.197382 0.495687 0.730170
Si Si5 0.778189 0.719031 0.715690
Si Si6 0.417293 0.800646 0.480388
Si Si7 0.889376 0.943821 0.132799
Si Si8 0.901937 0.372039 0.028688
O O1 0.428490 0.429326 0.636226
O O2 0.454518 0.315731 0.352435
O O3 0.193692 0.370778 0.863800
O O4 0.736563 0.343910 0.790876
O O5 0.100093 0.113402 0.781580
O O6 0.745541 0.213446 0.778335
O O7 0.187728 0.222940 0.038919
O O8 0.794059 0.191513 0.242597
O O9 0.468052 0.864022 0.535183
O O10 0.717039 0.934687 0.870525
O O11 0.281191 0.987176 0.662540
O O12 0.000000 0.500000 0.500000
O O13 0.000000 0.500000 0.000000
O O14 0.281968 0.556116 0.821434
O O15 0.707975 0.750661 0.481828
O O16 0.019175 0.663772 0.760480
O O17 0.203995 0.938737 0.013446
#
# Coordination Sequence:
#
# PCOD9020254 Si02
#       8
#     2   2   2   2   2   2   2   2
#     4  11  26  46  73 104 142 186 236 292 352 418
#     4  11  26  45  69 100 142 187 235 291 352 418
#     4   9  18  39  67  98 134 177 231 290 350 412
#     4  10  21  48  72 107 141 183 232 298 350 415
#     4  12  26  43  69 100 146 186 238 284 352 420
#     4  11  26  45  69 100 142 187 235 291 352 418
#     4   9  18  39  67  98 134 177 231 290 350 412
#     4  11  26  46  73 104 142 186 236 292 352 418
#
# _framework density 28.657111
#
# number of rings (size 3 to 8) (size 9 to 14) (size 15 to 20)
#    0.000    1.500    2.500    1.125    7.000    0.500 
#    0.000    2.500    0.000    7.500    0.000    0.000 
#    0.000    0.000    0.000    0.000    0.000    0.000 
#
# Total GULP energy -89660.140478 kJ/mol
# GULP energy per Si atom -5603.758780 kJ/mol
# Density = 2.859189 g / cm^3
# Si number density = 28.657111 Si / 1000 Ang^3
#
#
#
# Elastic Constant Matrix: (Units=GPa)
#
#
# Indices 1 2 3 4 5 6 
#
# 1 148.8042 60.3781 58.8388 -21.2549 22.9448 0.8882
# 2 60.3781 274.5688 86.4127 31.4954 28.4847 -2.2364
# 3 58.8388 86.4127 147.8555 -20.8456 33.9650 7.3148
# 4 -21.2549 31.4954 -20.8456 68.0816 -0.7632 8.8356
# 5 22.9448 28.4847 33.9650 -0.7632 64.6745 -13.8076
# 6 0.8882 -2.2364 7.3148 8.8356 -13.8076 45.5262
#
#
#
# Elastic Compliance Matrix: (Units=1/GPa)
#
#
# Indices 1 2 3 4 5 6 
#
# 1 0.008731 -0.001576 -0.001671 0.003066 -0.001724 -0.001097
# 2 -0.001576 0.005525 -0.003338 -0.004293 0.000198 0.001732
# 3 -0.001671 -0.003338 0.011412 0.005034 -0.004810 -0.004401
# 4 0.003066 -0.004293 0.005034 0.019894 -0.002845 -0.005803
# 5 -0.001724 0.000198 -0.004810 -0.002845 0.020071 0.007456
# 6 -0.001097 0.001732 -0.004401 -0.005803 0.007456 0.026166
#
#
# Mechanical properties :
#
#
# Convention : Reuss Voigt Hill
#
# Bulk Modulus (GPa) = 80.01493 109.16530 94.59012
# Shear Modulus (GPa) = 45.81481 60.02973 52.92227
#
# Velocity S-wave (km/s) = 4.00274 4.58182 4.30203
# Velocity P-wave (km/s) = 7.02458 8.13431 7.59973
#
# Compressibility (1/GPa) = 0.01249767
#
# Stress axis : x y z
#
# Youngs Moduli (GPa) = 114.53915 180.98631 87.62872
#
# Poissons Ratio (x) = 0.28521 0.14640
# Poissons Ratio (y) = 0.18050 0.29254
# Poissons Ratio (z) = 0.19136 0.60421
#
# Static dielectric constant tensor:
#      x y z
#    x 2.235340 -0.001480 -0.183050 
#    y -0.001480 2.217730 0.087800 
#    z -0.183050 0.087800 2.283510 
# 
# From -- ./inp_files/14721.got.cif
#   From: 2010.05.17/outbox.cif.g08.bks.cpg/sg2_8_cif.got.tgz:14721.got - 2010.06.03 11:33:40.
