data_PCOD9020978
_publ_section_title
;
Structure prediction by ZEFSAII (Michael W. Deem and Ramdas Pophale) SiO2 
 PCOD9020978
Probable space group: P -1
;
_chemical_formula_sum "Si O2"
_cell_formula_units_Z 16
_cell_length_a 15.207862
_cell_length_b 14.502928
_cell_length_c 6.330993
_cell_angle_alpha 108.883454
_cell_angle_beta 116.145001
_cell_angle_gamma 37.205444
_cell_volume 756.988534
_symmetry_space_group_name_H-M "P -1"
_symmetry_group_IT_number 2
_symmetry_cell_setting 'triclinic'
loop_
_space_group_symop_operation_xyz
x,y,z
-x,-y,-z
loop_
_atom_site_type_symbol
_atom_site_label
_atom_site_fract_x
_atom_site_fract_y
_atom_site_fract_z
Si Si1 0.591883 0.486449 0.398862
Si Si2 0.896215 0.731965 0.003303
Si Si3 0.115186 0.898217 0.243367
Si Si4 0.360357 0.182658 0.954181
Si Si5 0.753882 0.557087 0.741103
Si Si6 0.659602 0.272808 0.993804
Si Si7 0.827764 0.647469 0.516527
Si Si8 0.139942 0.018469 0.738020
O O1 0.500000 0.500000 0.500000
O O2 0.692649 0.494926 0.609582
O O3 0.676139 0.336641 0.247916
O O4 0.507353 0.604733 0.195323
O O5 0.798682 0.738310 0.060274
O O6 0.862457 0.865125 0.149997
O O7 0.078282 0.574543 0.071310
O O8 0.833433 0.745474 0.721398
O O9 0.026606 0.892949 0.297705
O O10 0.158619 0.958450 0.478384
O O11 0.257851 0.753616 0.152427
O O12 0.000000 0.000000 0.000000
O O13 0.313879 0.237128 0.706590
O O14 0.371287 0.279201 0.151301
O O15 0.500000 0.000000 0.000000
O O16 0.791043 0.584947 0.584174
O O17 0.735947 0.119742 0.066263
O O18 0.000000 0.500000 0.500000
#
# Coordination Sequence:
#
# PCOD9020978 Si02
#       8
#     2   2   2   2   2   2   2   2
#     4  11  26  42  66  93 137 180 232 284 338 406
#     4  11  24  40  70 103 131 179 230 270 339 418
#     4   9  20  37  59  89 128 168 220 274 330 394
#     4  11  25  44  70 103 137 172 222 288 346 402
#     4  11  25  43  70  99 133 180 230 273 342 416
#     4  10  23  43  59  93 134 179 228 277 342 406
#     4  11  21  46  69  99 137 171 225 284 337 415
#     4  10  22  37  63  94 134 168 224 283 335 400
#
# _framework density 21.136382999999999
#
# number of rings (size 3 to 8) (size 9 to 14) (size 15 to 20)
#    0.000    1.500    2.500    1.500    7.000   11.000 
#    0.000    0.000    0.000    0.000    0.000    0.000 
#    0.000    0.000    0.000    0.000    0.000    0.000 
#
# Total GULP energy -89123.342306 kJ/mol
# GULP energy per Si atom -5570.208894 kJ/mol
# Density = 2.108828 g / cm^3
# Si number density = 21.136383 Si / 1000 Ang^3
#
#
#
# Elastic Constant Matrix: (Units=GPa)
#
#
# Indices 1 2 3 4 5 6 
#
# 1 58.3483 12.9510 43.8493 22.5956 9.1430 8.8303
# 2 12.9510 86.6187 34.9314 0.4583 -2.1545 11.8326
# 3 43.8493 34.9314 106.4356 11.0295 -11.0998 9.1213
# 4 22.5956 0.4583 11.0295 50.8565 2.7538 -4.8135
# 5 9.1430 -2.1545 -11.0998 2.7538 26.7467 4.9020
# 6 8.8303 11.8326 9.1213 -4.8135 4.9020 18.4093
#
#
#
# Elastic Compliance Matrix: (Units=1/GPa)
#
#
# Indices 1 2 3 4 5 6 
#
# 1 0.037731 0.001750 -0.015409 -0.013623 -0.015741 -0.010959
# 2 0.001750 0.014239 -0.004634 -0.000657 0.000142 -0.007905
# 3 -0.015409 -0.004634 0.018517 0.002030 0.012672 -0.001648
# 4 -0.013623 -0.000657 0.002030 0.026469 0.000381 0.012770
# 5 -0.015741 0.000142 0.012672 0.000381 0.050215 -0.012091
# 6 -0.010959 -0.007905 -0.001648 0.012770 -0.012091 0.072033
#
#
# Mechanical properties :
#
#
# Convention : Reuss Voigt Hill
#
# Bulk Modulus (GPa) = 29.49802 48.31843 38.90822
# Shear Modulus (GPa) = 18.72027 29.84722 24.28375
#
# Velocity S-wave (km/s) = 2.97928 3.76190 3.39323
# Velocity P-wave (km/s) = 5.08145 6.46368 5.81379
#
# Compressibility (1/GPa) = 0.03390058
#
# Stress axis : x y z
#
# Youngs Moduli (GPa) = 26.50365 70.23076 54.00469
#
# Poissons Ratio (x) = -0.12294 0.83218
# Poissons Ratio (y) = -0.04639 0.25025
# Poissons Ratio (z) = 0.40841 0.32544
#
# Static dielectric constant tensor:
#      x y z
#    x 1.799050 -0.113330 0.023730 
#    y -0.113330 1.949270 -0.059130 
#    z 0.023730 -0.059130 1.827720 
# 
# From -- ./inp_files/98515.got.cif
#   From: 2010.05.17/outbox.cif.g08.bks.cpg/sg2_50_cif.got.tgz:98515.got - 2010.06.03 11:33:40.
