data_PCOD9020806
_publ_section_title
;
Structure prediction by ZEFSAII (Michael W. Deem and Ramdas Pophale) SiO2 
 PCOD9020806
Probable space group: P -1
;
_chemical_formula_sum "Si O2"
_cell_formula_units_Z 16
_cell_length_a 8.342747
_cell_length_b 8.433345
_cell_length_c 20.270756
_cell_angle_alpha 85.405929
_cell_angle_beta 136.344524
_cell_angle_gamma 61.725469
_cell_volume 623.032073
_symmetry_space_group_name_H-M "P -1"
_symmetry_group_IT_number 2
_symmetry_cell_setting 'triclinic'
loop_
_space_group_symop_operation_xyz
x,y,z
-x,-y,-z
loop_
_atom_site_type_symbol
_atom_site_label
_atom_site_fract_x
_atom_site_fract_y
_atom_site_fract_z
Si Si1 0.956775 0.394708 0.934618
Si Si2 0.013870 0.737345 0.486607
Si Si3 0.201912 0.753417 0.314076
Si Si4 0.685800 0.049527 0.879688
Si Si5 0.760476 0.421696 0.291095
Si Si6 0.119886 0.455674 0.243378
Si Si7 0.822258 0.083551 0.558907
Si Si8 0.183090 0.085199 0.227978
O O1 0.595466 0.485080 0.840109
O O2 0.895833 0.491537 0.840479
O O3 0.000000 0.500000 0.000000
O O4 0.302399 0.096929 0.059045
O O5 0.353077 0.491288 0.553632
O O6 0.199277 0.628650 0.616981
O O7 0.924228 0.953728 0.417086
O O8 0.624654 0.861929 0.376245
O O9 0.032146 0.678523 0.239906
O O10 0.157615 0.813658 0.375505
O O11 0.060524 0.979347 0.222565
O O12 0.318322 0.352016 0.754527
O O13 0.820787 0.915519 0.853040
O O14 0.000000 0.000000 0.000000
O O15 0.090079 0.135550 0.376743
O O16 0.470039 0.245124 0.402717
O O17 0.991342 0.337232 0.199147
#
# Coordination Sequence:
#
# PCOD9020806 Si02
#       8
#     2   2   2   2   2   2   2   2
#     4  11  20  35  64  93 121 165 223 270 314 367
#     4  11  20  36  65  98 127 166 212 273 329 380
#     4  11  24  40  61  99 140 174 201 260 345 407
#     4  10  22  37  58  97 127 164 217 277 314 368
#     4  11  20  38  62  93 129 163 211 277 321 382
#     4  11  21  40  63  94 132 167 211 269 325 383
#     4  11  23  40  64  97 139 172 200 263 354 387
#     4  12  22  37  69 100 129 164 222 271 322 389
#
# _framework density 25.680859999999999
#
# number of rings (size 3 to 8) (size 9 to 14) (size 15 to 20)
#    0.000    1.000    6.250    3.750    0.000    0.500 
#    0.000    1.250    0.000    7.500    3.250    0.000 
#    0.000    0.000    0.000    0.000    0.000    0.000 
#
# Total GULP energy -89149.711247 kJ/mol
# GULP energy per Si atom -5571.856953 kJ/mol
# Density = 2.562241 g / cm^3
# Si number density = 25.680860 Si / 1000 Ang^3
#
#
#
# Elastic Constant Matrix: (Units=GPa)
#
#
# Indices 1 2 3 4 5 6 
#
# 1 62.5320 37.4479 29.1419 -6.3166 -12.8261 24.4280
# 2 37.4479 162.9377 57.5702 11.3873 -8.9750 27.6298
# 3 29.1419 57.5702 132.7391 12.0173 -27.3432 12.1995
# 4 -6.3166 11.3873 12.0173 59.2547 8.9456 -24.2232
# 5 -12.8261 -8.9750 -27.3432 8.9456 25.7665 -13.5475
# 6 24.4280 27.6298 12.1995 -24.2232 -13.5475 28.3743
#
#
#
# Elastic Compliance Matrix: (Units=1/GPa)
#
#
# Indices 1 2 3 4 5 6 
#
# 1 0.028687 0.000917 -0.003384 -0.009919 -0.003591 -0.034318
# 2 0.000917 0.011026 -0.003899 -0.008610 -0.007871 -0.020959
# 3 -0.003384 -0.003899 0.012397 -0.001429 0.014277 0.006977
# 4 -0.009919 -0.008610 -0.001429 0.038634 0.004936 0.052876
# 5 -0.003591 -0.007871 0.014277 0.004936 0.069912 0.042212
# 6 -0.034318 -0.020959 0.006977 0.052876 0.042212 0.147492
#
#
# Mechanical properties :
#
#
# Convention : Reuss Voigt Hill
#
# Bulk Modulus (GPa) = 25.39432 67.39208 46.39320
# Shear Modulus (GPa) = 14.96977 38.28234 26.62606
#
# Velocity S-wave (km/s) = 2.41698 3.86514 3.22344
# Velocity P-wave (km/s) = 4.20701 6.79840 5.65319
#
# Compressibility (1/GPa) = 0.03937889
#
# Stress axis : x y z
#
# Youngs Moduli (GPa) = 34.85880 90.69094 80.66677
#
# Poissons Ratio (x) = -0.08318 0.27295
# Poissons Ratio (y) = -0.03197 0.31454
# Poissons Ratio (z) = 0.11795 0.35363
#
# Static dielectric constant tensor:
#      x y z
#    x 2.042380 -0.016840 0.022950 
#    y -0.016840 2.183770 -0.095160 
#    z 0.022950 -0.095160 1.975410 
# 
# From -- ./inp_files/593634.got.cif
#   From: 2010.05.17/outbox.cif.g08.bks.cpg/sg2_297_cif.got.tgz:593634.got - 2010.06.03 11:33:40.
