data_PCOD9020049
_publ_section_title
;
Structure prediction by ZEFSAII (Michael W. Deem and Ramdas Pophale) SiO2 
 PCOD9020049
Probable space group: P -1
;
_chemical_formula_sum "Si O2"
_cell_formula_units_Z 16
_cell_length_a 8.996836
_cell_length_b 9.017830
_cell_length_c 23.636151
_cell_angle_alpha 137.860129
_cell_angle_beta 139.271346
_cell_angle_gamma 42.939942
_cell_volume 773.496896
_symmetry_space_group_name_H-M "P -1"
_symmetry_group_IT_number 2
_symmetry_cell_setting 'triclinic'
loop_
_space_group_symop_operation_xyz
x,y,z
-x,-y,-z
loop_
_atom_site_type_symbol
_atom_site_label
_atom_site_fract_x
_atom_site_fract_y
_atom_site_fract_z
Si Si1 0.251838 0.630361 0.280795
Si Si2 0.414680 0.641792 0.603500
Si Si3 0.791972 0.795275 0.279844
Si Si4 0.566580 0.863307 0.869820
Si Si5 0.118295 0.500296 0.386828
Si Si6 0.600988 0.283501 0.923834
Si Si7 0.002076 0.962183 0.760047
Si Si8 0.042582 0.236922 0.959972
O O1 0.481122 0.538125 0.364505
O O2 0.293434 0.405331 0.188718
O O3 0.010666 0.691554 0.267753
O O4 0.197947 0.859822 0.290563
O O5 0.204664 0.594571 0.494502
O O6 0.644043 0.594558 0.613373
O O7 0.320037 0.916966 0.673397
O O8 0.589195 0.690211 0.174779
O O9 0.906308 0.706830 0.349308
O O10 0.276640 0.920845 0.806258
O O11 0.614918 0.046808 0.893543
O O12 0.683878 0.882625 0.969232
O O13 0.033553 0.284716 0.314274
O O14 0.858215 0.259793 0.965046
O O15 0.500000 0.500000 0.000000
O O16 0.983576 0.087655 0.851024
O O17 0.000000 0.500000 0.000000
#
# Coordination Sequence:
#
# PCOD9020049 Si02
#       8
#     2   2   2   2   2   2   2   2
#     4  11  22  43  68  92 134 176 217 268 330 395
#     4  10  21  46  67  98 130 178 217 277 331 396
#     4  11  22  42  69  96 132 176 221 271 327 400
#     4  12  25  46  64  93 140 177 215 268 329 398
#     4  10  25  39  70 100 133 168 227 274 334 389
#     4  12  25  42  70  99 128 179 222 263 328 393
#     4  12  25  43  65 103 132 175 219 276 329 385
#     4  12  26  42  66  97 135 171 218 271 323 388
#
# _framework density 20.685282000000001
#
# number of rings (size 3 to 8) (size 9 to 14) (size 15 to 20)
#    0.000    0.750    3.750    3.375    5.250    1.500 
#    0.000    2.500    0.000    0.000    0.000    0.000 
#    0.000    0.000    0.000    0.000    0.000    0.000 
#
# Total GULP energy -89521.572623 kJ/mol
# GULP energy per Si atom -5595.098289 kJ/mol
# Density = 2.063820 g / cm^3
# Si number density = 20.685282 Si / 1000 Ang^3
#
#
#
# Elastic Constant Matrix: (Units=GPa)
#
#
# Indices 1 2 3 4 5 6 
#
# 1 71.9602 25.9726 28.5414 2.7536 -2.8370 9.7625
# 2 25.9726 107.2856 43.6369 -18.7360 -3.6873 14.0582
# 3 28.5414 43.6369 129.9018 -19.0662 -8.1573 5.3233
# 4 2.7536 -18.7360 -19.0662 43.4793 4.2697 -9.9630
# 5 -2.8370 -3.6873 -8.1573 4.2697 28.2253 8.2513
# 6 9.7625 14.0582 5.3233 -9.9630 8.2513 36.2820
#
#
#
# Elastic Compliance Matrix: (Units=1/GPa)
#
#
# Indices 1 2 3 4 5 6 
#
# 1 0.017234 -0.003047 -0.003152 -0.005203 0.002682 -0.005033
# 2 -0.003047 0.012171 -0.002742 0.003547 0.000741 -0.002688
# 3 -0.003152 -0.002742 0.009858 0.003466 0.001324 0.001115
# 4 -0.005203 0.003547 0.003466 0.028998 -0.006032 0.008852
# 5 0.002682 0.000741 0.001324 -0.006032 0.040627 -0.012099
# 6 -0.005033 -0.002688 0.001115 0.008852 -0.012099 0.034976
#
#
# Mechanical properties :
#
#
# Convention : Reuss Voigt Hill
#
# Bulk Modulus (GPa) = 46.77058 56.16104 51.46581
# Shear Modulus (GPa) = 29.60796 35.66379 32.63588
#
# Velocity S-wave (km/s) = 3.78743 4.15675 3.97638
# Velocity P-wave (km/s) = 6.46419 7.08853 6.78355
#
# Compressibility (1/GPa) = 0.02138096
#
# Stress axis : x y z
#
# Youngs Moduli (GPa) = 58.02421 82.16363 101.44141
#
# Poissons Ratio (x) = 0.25037 0.31975
# Poissons Ratio (y) = 0.17681 0.27812
# Poissons Ratio (z) = 0.18290 0.22527
#
# Static dielectric constant tensor:
#      x y z
#    x 1.719070 -0.001280 -0.022380 
#    y -0.001280 1.734600 -0.047450 
#    z -0.022380 -0.047450 1.718210 
# 
# From -- ./inp_files/39025.got.cif
#   From: 2010.05.17/outbox.cif.g08.bks.cpg/sg2_20_cif.got.tgz:39025.got - 2010.06.03 11:33:40.
