data_PCOD9020128
_publ_section_title
;
Structure prediction by ZEFSAII (Michael W. Deem and Ramdas Pophale) SiO2 
 PCOD9020128
Probable space group: P -1
;
_chemical_formula_sum "Si O2"
_cell_formula_units_Z 14
_cell_length_a 8.871905
_cell_length_b 9.827087
_cell_length_c 13.699397
_cell_angle_alpha 58.625173
_cell_angle_beta 133.500777
_cell_angle_gamma 88.257170
_cell_volume 575.748449
_symmetry_space_group_name_H-M "P -1"
_symmetry_group_IT_number 2
_symmetry_cell_setting 'triclinic'
loop_
_space_group_symop_operation_xyz
x,y,z
-x,-y,-z
loop_
_atom_site_type_symbol
_atom_site_label
_atom_site_fract_x
_atom_site_fract_y
_atom_site_fract_z
Si Si1 0.070401 0.905953 0.923892
Si Si2 0.067567 0.341743 0.476358
Si Si3 0.298109 0.593684 0.286296
Si Si4 0.852970 0.679006 0.948995
Si Si5 0.220075 0.770884 0.465701
Si Si6 0.236057 0.986761 0.557532
Si Si7 0.408829 0.225096 0.853422
O O1 0.877127 0.847306 0.853831
O O2 0.199563 0.812475 0.122463
O O3 0.330804 0.790291 0.012893
O O4 0.920611 0.136065 0.736266
O O5 0.929512 0.278904 0.511524
O O6 0.842962 0.583804 0.271976
O O7 0.306299 0.285479 0.672960
O O8 0.177508 0.194998 0.486986
O O9 0.500000 0.500000 0.500000
O O10 0.484850 0.432329 0.343693
O O11 0.037472 0.607748 0.154898
O O12 0.543641 0.793208 0.792618
O O13 0.000000 0.500000 0.000000
O O14 0.214892 0.943669 0.452362
O O15 0.000000 0.000000 0.500000
O O16 0.500000 0.000000 0.000000
#
# Coordination Sequence:
#
# PCOD9020128 Si02
#       7
#     2   2   2   2   2   2   2
#     4  10  23  40  71 100 142 190 254 296 366 440
#     4  10  22  40  68 100 144 189 248 299 374 432
#     4  10  23  43  69 103 148 190 249 306 363 435
#     4  10  21  46  72 105 149 199 248 302 371 446
#     4  11  20  43  69 100 146 194 236 317 363 430
#     4  10  22  42  72 107 146 195 250 308 368 446
#     4  11  21  42  68 100 143 196 242 304 365 440
#
# _framework density 24.316177
#
# number of rings (size 3 to 8) (size 9 to 14) (size 15 to 20)
#    0.857    0.857    4.286    0.000    2.000    2.286 
#    2.571    3.571    0.000    0.000    0.000    0.000 
#    0.000    0.000    0.000    0.000    0.000    0.000 
#
# Total GULP energy -77995.653770 kJ/mol
# GULP energy per Si atom -5571.118126 kJ/mol
# Density = 2.426083 g / cm^3
# Si number density = 24.316177 Si / 1000 Ang^3
#
#
#
# Elastic Constant Matrix: (Units=GPa)
#
#
# Indices 1 2 3 4 5 6 
#
# 1 89.1235 25.1718 58.3172 -3.3344 9.1670 -0.7400
# 2 25.1718 117.9867 53.5154 -21.4450 8.5418 -13.5103
# 3 58.3172 53.5154 178.4683 -15.5893 17.1791 -3.5083
# 4 -3.3344 -21.4450 -15.5893 51.0673 7.0907 6.3853
# 5 9.1670 8.5418 17.1791 7.0907 53.2407 2.1516
# 6 -0.7400 -13.5103 -3.5083 6.3853 2.1516 20.1458
#
#
#
# Elastic Compliance Matrix: (Units=1/GPa)
#
#
# Indices 1 2 3 4 5 6 
#
# 1 0.014473 -0.001279 -0.004351 -0.000718 -0.000756 -0.000775
# 2 -0.001279 0.011264 -0.002400 0.003350 -0.001509 0.006188
# 3 -0.004351 -0.002400 0.008015 0.001463 -0.001620 -0.000664
# 4 -0.000718 0.003350 0.001463 0.022432 -0.003702 -0.004240
# 5 -0.000756 -0.001509 -0.001620 -0.003702 0.020264 -0.002313
# 6 -0.000775 0.006188 -0.000664 -0.004240 -0.002313 0.055235
#
#
# Mechanical properties :
#
#
# Convention : Reuss Voigt Hill
#
# Bulk Modulus (GPa) = 56.52298 73.28748 64.90523
# Shear Modulus (GPa) = 32.54338 41.46234 37.00286
#
# Velocity S-wave (km/s) = 3.66231 4.13381 3.90518
# Velocity P-wave (km/s) = 6.41707 7.27937 6.86178
#
# Compressibility (1/GPa) = 0.01769192
#
# Stress axis : x y z
#
# Youngs Moduli (GPa) = 69.09371 88.78133 124.76001
#
# Poissons Ratio (x) = 0.11354 0.54284
# Poissons Ratio (y) = 0.08836 0.29945
# Poissons Ratio (z) = 0.30063 0.21309
#
# Static dielectric constant tensor:
#      x y z
#    x 1.992260 0.005670 -0.003150 
#    y 0.005670 2.030440 0.034320 
#    z -0.003150 0.034320 1.977810 
# 
# From -- ./inp_files/499000.got.cif
#   From: 2010.05.17/outbox.cif.g08.bks.cpg/sg2_250_cif.got.tgz:499000.got - 2010.06.03 11:33:40.
