data_PCOD9020544
_publ_section_title
;
Structure prediction by ZEFSAII (Michael W. Deem and Ramdas Pophale) SiO2 
 PCOD9020544
Probable space group: P -1
;
_chemical_formula_sum "Si O2"
_cell_formula_units_Z 15
_cell_length_a 10.854627
_cell_length_b 6.697180
_cell_length_c 12.395164
_cell_angle_alpha 127.286813
_cell_angle_beta 106.418099
_cell_angle_gamma 81.749312
_cell_volume 687.218156
_symmetry_space_group_name_H-M "P -1"
_symmetry_group_IT_number 2
_symmetry_cell_setting 'triclinic'
loop_
_space_group_symop_operation_xyz
x,y,z
-x,-y,-z
loop_
_atom_site_type_symbol
_atom_site_label
_atom_site_fract_x
_atom_site_fract_y
_atom_site_fract_z
Si Si1 0.228062 0.248861 0.454421
Si Si2 0.834939 0.891986 0.829064
Si Si3 0.500000 0.000000 0.500000
Si Si4 0.558862 0.399180 0.091333
Si Si5 0.342385 0.790965 0.598757
Si Si6 0.035141 0.591071 0.918364
Si Si7 0.433092 0.159390 0.161657
Si Si8 0.187281 0.263394 0.687811
O O1 0.140686 0.128981 0.298865
O O2 0.354940 0.091335 0.458199
O O3 0.281233 0.517623 0.513519
O O4 0.152876 0.276371 0.557609
O O5 0.687581 0.808887 0.782763
O O6 0.918887 0.715432 0.866520
O O7 0.861258 0.177924 0.966245
O O8 0.569002 0.162541 0.469360
O O9 0.453301 0.386059 0.156041
O O10 0.679298 0.570022 0.212784
O O11 0.500000 0.500000 0.000000
O O12 0.592699 0.109336 0.990202
O O13 0.437012 0.854063 0.743091
O O14 0.228084 0.984414 0.632637
O O15 0.090574 0.377134 0.786186
O O16 0.000000 0.500000 0.000000
#
# Coordination Sequence:
#
# PCOD9020544 Si02
#       8
#     2   2   1   2   2   2   2   2
#     4  11  24  44  69 104 145 178 223 282 356 420
#     4  11  26  46  71  99 134 188 231 292 341 408
#     4  10  22  36  60 100 148 176 212 256 338 428
#     4  11  22  36  62 102 137 176 222 281 342 415
#     4  11  22  38  64 107 142 180 209 278 349 427
#     4  11  28  50  71  96 131 185 250 293 334 403
#     4  11  22  37  66 100 137 175 219 275 355 403
#     4  11  24  43  68 101 139 181 235 286 340 417
#
# _framework density 21.827128999999999
#
# number of rings (size 3 to 8) (size 9 to 14) (size 15 to 20)
#    0.000    1.067    5.333    0.400    1.867    4.800 
#    0.000    1.333    0.000    0.000    0.000    0.000 
#    0.000    0.000    0.000    0.000    0.000    0.000 
#
# Total GULP energy -83623.960793 kJ/mol
# GULP energy per Si atom -5574.930720 kJ/mol
# Density = 2.177745 g / cm^3
# Si number density = 21.827129 Si / 1000 Ang^3
#
#
#
# Elastic Constant Matrix: (Units=GPa)
#
#
# Indices 1 2 3 4 5 6 
#
# 1 40.9296 23.4190 7.7269 -8.9151 -30.9640 6.1433
# 2 23.4190 119.2432 25.1847 -29.8779 -13.7828 1.1347
# 3 7.7269 25.1847 83.0026 -26.1440 -19.9541 -5.0864
# 4 -8.9151 -29.8779 -26.1440 35.9201 11.9894 -8.5363
# 5 -30.9640 -13.7828 -19.9541 11.9894 28.2501 -4.2691
# 6 6.1433 1.1347 -5.0864 -8.5363 -4.2691 10.8874
#
#
#
# Elastic Compliance Matrix: (Units=1/GPa)
#
#
# Indices 1 2 3 4 5 6 
#
# 1 0.406437 -0.054929 0.072300 -0.068134 0.491001 -0.050727
# 2 -0.054929 0.018742 -0.007971 0.021337 -0.063135 0.017291
# 3 0.072300 -0.007971 0.036686 0.010298 0.100632 0.024708
# 4 -0.068134 0.021337 0.010298 0.080109 -0.080044 0.072456
# 5 0.491001 -0.063135 0.100632 -0.080044 0.642644 -0.034229
# 6 -0.050727 0.017291 0.024708 0.072456 -0.034229 0.173602
#
#
# Mechanical properties :
#
#
# Convention : Reuss Voigt Hill
#
# Bulk Modulus (GPa) = 2.08046 39.53739 20.80892
# Shear Modulus (GPa) = 3.33413 27.46783 15.40098
#
# Velocity S-wave (km/s) = 1.23727 3.55128 2.65917
# Velocity P-wave (km/s) = 1.73099 5.91343 4.35689
#
# Compressibility (1/GPa) = 0.48066399
#
# Stress axis : x y z
#
# Youngs Moduli (GPa) = 2.46040 53.35637 27.25839
#
# Poissons Ratio (x) = 2.93084 -1.97077
# Poissons Ratio (y) = 0.13515 0.21727
# Poissons Ratio (z) = -0.17789 0.42529
#
# Static dielectric constant tensor:
#      x y z
#    x 1.783010 0.017130 -0.045620 
#    y 0.017130 1.787420 0.026300 
#    z -0.045620 0.026300 1.883360 
# 
# From -- ./inp_files/72108.got.cif
#   From: 2010.05.17/outbox.cif.g08.bks.cpg/sg2_37_cif.got.tgz:72108.got - 2010.06.03 11:33:40.
