data_PCOD9020766
_publ_section_title
;
Structure prediction by ZEFSAII (Michael W. Deem and Ramdas Pophale) SiO2 
 PCOD9020766
Probable space group: P -1
;
_chemical_formula_sum "Si O2"
_cell_formula_units_Z 12
_cell_length_a 18.872099
_cell_length_b 5.587551
_cell_length_c 22.126794
_cell_angle_alpha 58.334492
_cell_angle_beta 17.355239
_cell_angle_gamma 59.798344
_cell_volume 592.362746
_symmetry_space_group_name_H-M "P -1"
_symmetry_group_IT_number 2
_symmetry_cell_setting 'triclinic'
loop_
_space_group_symop_operation_xyz
x,y,z
-x,-y,-z
loop_
_atom_site_type_symbol
_atom_site_label
_atom_site_fract_x
_atom_site_fract_y
_atom_site_fract_z
Si Si1 0.497079 0.770218 0.797245
Si Si2 0.973730 0.064290 0.615213
Si Si3 0.692423 0.175134 0.281432
Si Si4 0.410806 0.768075 0.000576
Si Si5 0.766149 0.260111 0.638008
Si Si6 0.253757 0.153514 0.845808
O O1 0.770902 0.855270 0.576539
O O2 0.557465 0.467813 0.760043
O O3 0.369618 0.989444 0.829242
O O4 0.356811 0.719160 0.980637
O O5 0.788824 0.076244 0.818279
O O6 0.870702 0.270720 0.619088
O O7 0.027203 0.771091 0.575550
O O8 0.660678 0.518130 0.265618
O O9 0.500000 0.000000 0.500000
O O10 0.683203 0.026698 0.242232
O O11 0.966242 0.142771 0.085204
O O12 0.500000 0.500000 0.000000
O O13 0.637388 0.964867 0.786077
#
# Coordination Sequence:
#
# PCOD9020766 Si02
#       6
#     2   2   2   2   2   2
#     4  11  24  39  60  92 128 163 214 273 320 380
#     4  10  22  37  57  82 119 171 218 258 316 372
#     4  10  22  47  75  99 134 177 210 271 351 419
#     4  11  23  37  57  86 120 173 225 262 311 378
#     4  10  22  37  57  80 123 171 214 269 320 366
#     4  10  24  43  71 105 138 167 221 279 334 408
#
# _framework density 20.257857999999999
#
# number of rings (size 3 to 8) (size 9 to 14) (size 15 to 20)
#    0.000    1.667    1.667    1.500    9.333    1.333 
#    3.000    0.000    0.000    0.000    0.000    0.000 
#    0.000    0.000    0.000    0.000    0.000    0.000 
#
# Total GULP energy -66825.515002 kJ/mol
# GULP energy per Si atom -5568.792917 kJ/mol
# Density = 2.021175 g / cm^3
# Si number density = 20.257858 Si / 1000 Ang^3
#
#
#
# Elastic Constant Matrix: (Units=GPa)
#
#
# Indices 1 2 3 4 5 6 
#
# 1 82.6088 67.5624 50.4804 6.1903 17.3374 -17.1936
# 2 67.5624 147.0141 38.6469 -3.8138 9.1508 -16.7052
# 3 50.4804 38.6469 104.5767 2.0668 32.1842 -2.9558
# 4 6.1903 -3.8138 2.0668 31.4646 14.0317 -2.5978
# 5 17.3374 9.1508 32.1842 14.0317 32.4432 3.4198
# 6 -17.1936 -16.7052 -2.9558 -2.5978 3.4198 37.4414
#
#
#
# Elastic Compliance Matrix: (Units=1/GPa)
#
#
# Indices 1 2 3 4 5 6 
#
# 1 0.027680 -0.009494 -0.008861 -0.004383 -0.002238 0.007676
# 2 -0.009494 0.011253 0.000385 0.003282 0.000001 0.000919
# 3 -0.008861 0.000385 0.019044 0.008523 -0.017934 -0.000165
# 4 -0.004383 0.003282 0.008523 0.045052 -0.027127 0.005728
# 5 -0.002238 0.000001 -0.017934 -0.027127 0.062600 -0.010043
# 6 0.007676 0.000919 -0.000165 0.005728 -0.010043 0.031945
#
#
# Mechanical properties :
#
#
# Convention : Reuss Voigt Hill
#
# Bulk Modulus (GPa) = 45.37744 71.95324 58.66534
# Shear Modulus (GPa) = 20.75895 32.10382 26.43138
#
# Velocity S-wave (km/s) = 3.20462 3.98522 3.61605
# Velocity P-wave (km/s) = 6.01177 7.53470 6.81591
#
# Compressibility (1/GPa) = 0.02203738
#
# Stress axis : x y z
#
# Youngs Moduli (GPa) = 36.12713 88.86207 52.51125
#
# Poissons Ratio (x) = 0.84362 0.46529
# Poissons Ratio (y) = 0.34298 -0.02020
# Poissons Ratio (z) = 0.32011 -0.03418
#
# Static dielectric constant tensor:
#      x y z
#    x 1.852830 0.174770 0.025270 
#    y 0.174770 1.919120 0.011330 
#    z 0.025270 0.011330 1.712100 
# 
# From -- ./inp_files/117354.got.cif
#   From: 2010.05.17/outbox.cif.g08.bks.cpg/sg2_59_cif.got.tgz:117354.got - 2010.06.03 11:33:40.
