data_PCOD9020874
_publ_section_title
;
Structure prediction by ZEFSAII (Michael W. Deem and Ramdas Pophale) SiO2 
 PCOD9020874
Probable space group: P -1
;
_chemical_formula_sum "Si O2"
_cell_formula_units_Z 14
_cell_length_a 5.221401
_cell_length_b 15.321735
_cell_length_c 16.855368
_cell_angle_alpha 152.580605
_cell_angle_beta 74.558666
_cell_angle_gamma 97.745526
_cell_volume 582.665056
_symmetry_space_group_name_H-M "P -1"
_symmetry_group_IT_number 2
_symmetry_cell_setting 'triclinic'
loop_
_space_group_symop_operation_xyz
x,y,z
-x,-y,-z
loop_
_atom_site_type_symbol
_atom_site_label
_atom_site_fract_x
_atom_site_fract_y
_atom_site_fract_z
Si Si1 0.329323 0.307434 0.259224
Si Si2 0.421867 0.493539 0.811129
Si Si3 0.646778 0.798557 0.282124
Si Si4 0.124051 0.708830 0.597779
Si Si5 0.062695 0.313871 0.577266
Si Si6 0.747490 0.005541 0.084304
Si Si7 0.229632 0.850138 0.216931
O O1 0.374178 0.522095 0.423516
O O2 0.518803 0.169964 0.194386
O O3 0.034103 0.318683 0.331133
O O4 0.335981 0.197842 0.086531
O O5 0.342056 0.375381 0.797688
O O6 0.746143 0.405067 0.700926
O O7 0.249938 0.434779 0.704658
O O8 0.329095 0.720579 0.026097
O O9 0.463028 0.781144 0.207385
O O10 0.946658 0.808152 0.237156
O O11 0.500000 0.000000 0.500000
O O12 0.948455 0.687750 0.518699
O O13 0.197549 0.916739 0.771287
O O14 0.169933 0.084862 0.404122
O O15 0.000000 0.000000 0.000000
#
# Coordination Sequence:
#
# PCOD9020874 Si02
#       7
#     2   2   2   2   2   2   2
#     4   9  19  39  61  87 117 154 218 255 303 372
#     4  12  26  44  66  99 131 171 220 258 327 387
#     4  12  21  43  75  93 128 170 218 271 313 375
#     4  10  22  37  61  85 120 167 201 258 318 362
#     4  12  26  44  62  97 138 171 212 266 324 394
#     4   9  18  36  61  91 114 148 210 263 303 370
#     4  12  24  44  68  97 131 172 213 271 321 375
#
# _framework density 24.027526000000002
#
# number of rings (size 3 to 8) (size 9 to 14) (size 15 to 20)
#    0.000    1.143    2.857    3.429    2.000    1.143 
#    7.714    0.000    0.000    0.000    0.000    0.000 
#    0.000    0.000    0.000    0.000    0.000    0.000 
#
# Total GULP energy -78267.158879 kJ/mol
# GULP energy per Si atom -5590.511349 kJ/mol
# Density = 2.397284 g / cm^3
# Si number density = 24.027526 Si / 1000 Ang^3
#
#
#
# Elastic Constant Matrix: (Units=GPa)
#
#
# Indices 1 2 3 4 5 6 
#
# 1 259.0571 60.4020 171.1416 -45.3553 -51.6118 -32.2105
# 2 60.4020 64.1988 55.4164 -39.5807 -25.5456 -12.3231
# 3 171.1416 55.4164 264.0952 -41.1911 -27.9444 -27.3133
# 4 -45.3553 -39.5807 -41.1911 22.7794 -7.1031 3.5641
# 5 -51.6118 -25.5456 -27.9444 -7.1031 68.9496 -2.4845
# 6 -32.2105 -12.3231 -27.3133 3.5641 -2.4845 34.3278
#
#
#
# Elastic Compliance Matrix: (Units=1/GPa)
#
#
# Indices 1 2 3 4 5 6 
#
# 1 0.006972 -0.008999 -0.004089 -0.009528 -0.000718 0.000996
# 2 -0.008999 -0.013257 -0.001944 -0.048296 -0.017809 -0.011024
# 3 -0.004089 -0.001944 0.006936 0.000617 -0.000875 0.000857
# 4 -0.009528 -0.048296 0.000617 -0.064564 -0.032199 -0.021414
# 5 -0.000718 -0.017809 -0.000875 -0.032199 0.003546 -0.004163
# 6 0.000996 -0.011024 0.000857 -0.021414 -0.004163 0.028711
#
#
# Mechanical properties :
#
#
# Convention : Reuss Voigt Hill
#
# Bulk Modulus (GPa) = -33.99920 129.03013 47.51546
# Shear Modulus (GPa) = -438.80204 45.23745 -196.78230
#
# Velocity S-wave (km/s) = -13.52853 4.34376 -9.05961
# Velocity P-wave (km/s) = 16.06889 8.88680 9.46662
#
# Compressibility (1/GPa) = -0.02941246
#
# Stress axis : x y z
#
# Youngs Moduli (GPa) = 143.42243 -75.42985 144.16587
#
# Poissons Ratio (x) = -0.67881 0.58950
# Poissons Ratio (y) = 1.29068 0.28022
# Poissons Ratio (z) = 0.58646 -0.14662
#
# Static dielectric constant tensor:
#      x y z
#    x 2.141800 0.047920 -0.115470 
#    y 0.047920 1.898080 0.009630 
#    z -0.115470 0.009630 2.134640 
# 
# From -- ./inp_files/484603.got.cif
#   From: 2010.05.17/outbox.cif.g08.bks.cpg/sg2_243_cif.got.tgz:484603.got - 2010.06.03 11:33:40.
