data_PCOD9020178
_publ_section_title
;
Structure prediction by ZEFSAII (Michael W. Deem and Ramdas Pophale) SiO2 
 PCOD9020178
Probable space group: P -1
;
_chemical_formula_sum "Si O2"
_cell_formula_units_Z 14
_cell_length_a 12.839155
_cell_length_b 10.456646
_cell_length_c 19.598220
_cell_angle_alpha 39.155303
_cell_angle_beta 24.088901
_cell_angle_gamma 32.754257
_cell_volume 580.675325
_symmetry_space_group_name_H-M "P -1"
_symmetry_group_IT_number 2
_symmetry_cell_setting 'triclinic'
loop_
_space_group_symop_operation_xyz
x,y,z
-x,-y,-z
loop_
_atom_site_type_symbol
_atom_site_label
_atom_site_fract_x
_atom_site_fract_y
_atom_site_fract_z
Si Si1 0.973666 0.176093 0.003402
Si Si2 0.067700 0.950135 0.665904
Si Si3 0.634035 0.165818 0.333532
Si Si4 0.943508 0.836299 0.651865
Si Si5 0.677393 0.468812 0.741630
Si Si6 0.327423 0.303831 0.656580
Si Si7 0.228302 0.466252 0.193924
O O1 0.913474 0.082938 0.148532
O O2 0.914935 0.669552 0.266159
O O3 0.227892 0.237366 0.813440
O O4 0.000000 0.000000 0.000000
O O5 0.252245 0.771242 0.691513
O O6 0.866473 0.925709 0.738854
O O7 0.348649 0.905060 0.470853
O O8 0.877821 0.197531 0.715052
O O9 0.370284 0.379530 0.360301
O O10 0.500000 0.000000 0.500000
O O11 0.243422 0.576130 0.589337
O O12 0.725342 0.767695 0.773939
O O13 0.000000 0.000000 0.500000
O O14 0.790991 0.538817 0.711217
O O15 0.331585 0.567218 0.926691
O O16 0.500000 0.500000 0.000000
#
# Coordination Sequence:
#
# PCOD9020178 Si02
#       7
#     2   2   2   2   2   2   2
#     4  10  22  46  68 110 149 198 254 309 379 457
#     4  12  26  47  72 116 157 196 251 332 384 461
#     4  10  25  42  72 109 157 198 256 319 383 450
#     4  10  26  46  76 113 155 212 255 313 393 469
#     4  10  25  42  76 113 151 194 262 318 386 444
#     4  10  24  46  77 104 158 199 260 310 390 453
#     4  10  21  46  80 108 152 202 265 316 377 468
#
# _framework density 24.109860000000001
#
# number of rings (size 3 to 8) (size 9 to 14) (size 15 to 20)
#    1.714    0.000    1.429    1.286    8.000    0.571 
#    0.000    3.571    0.000    0.000    0.000    0.000 
#    0.000    0.000    0.000    0.000    0.000    0.000 
#
# Total GULP energy -78041.879576 kJ/mol
# GULP energy per Si atom -5574.419970 kJ/mol
# Density = 2.405499 g / cm^3
# Si number density = 24.109860 Si / 1000 Ang^3
#
#
#
# Elastic Constant Matrix: (Units=GPa)
#
#
# Indices 1 2 3 4 5 6 
#
# 1 177.4681 28.5811 32.7582 -18.0005 21.5992 27.6509
# 2 28.5811 104.3050 38.1076 9.1679 -2.5295 4.6351
# 3 32.7582 38.1076 120.5160 -0.3385 16.0473 12.7230
# 4 -18.0005 9.1679 -0.3385 46.3457 -0.7122 3.8092
# 5 21.5992 -2.5295 16.0473 -0.7122 36.7184 0.9735
# 6 27.6509 4.6351 12.7230 3.8092 0.9735 40.8394
#
#
#
# Elastic Compliance Matrix: (Units=1/GPa)
#
#
# Indices 1 2 3 4 5 6 
#
# 1 0.007775 -0.002249 -0.000258 0.003821 -0.004404 -0.005180
# 2 -0.002249 0.011914 -0.003827 -0.003331 0.003709 0.001585
# 3 -0.000258 -0.003827 0.010470 0.000878 -0.004601 -0.002625
# 4 0.003821 -0.003331 0.000878 0.024076 -0.002270 -0.004674
# 5 -0.004404 0.003709 -0.004601 -0.002270 0.031956 0.003444
# 6 -0.005180 0.001585 -0.002625 -0.004674 0.003444 0.028985
#
#
# Mechanical properties :
#
#
# Convention : Reuss Voigt Hill
#
# Bulk Modulus (GPa) = 57.16866 66.79810 61.98338
# Shear Modulus (GPa) = 37.40455 44.97018 41.18737
#
# Velocity S-wave (km/s) = 3.94308 4.32350 4.13767
# Velocity P-wave (km/s) = 6.67036 7.25875 6.97077
#
# Compressibility (1/GPa) = 0.01749210
#
# Stress axis : x y z
#
# Youngs Moduli (GPa) = 128.61190 83.93662 95.51070
#
# Poissons Ratio (x) = 0.18874 0.02468
# Poissons Ratio (y) = 0.28920 0.36547
# Poissons Ratio (z) = 0.03323 0.32118
#
# Static dielectric constant tensor:
#      x y z
#    x 2.050140 -0.001830 -0.038290 
#    y -0.001830 1.967200 -0.001700 
#    z -0.038290 -0.001700 1.996970 
# 
# From -- ./inp_files/597491.got.cif
#   From: 2010.05.17/outbox.cif.g08.bks.cpg/sg2_299_cif.got.tgz:597491.got - 2010.06.03 11:33:40.
