data_PCOD9020615
_publ_section_title
;
Structure prediction by ZEFSAII (Michael W. Deem and Ramdas Pophale) SiO2 
 PCOD9020615
Probable space group: P -1
;
_chemical_formula_sum "Si O2"
_cell_formula_units_Z 12
_cell_length_a 5.150577
_cell_length_b 9.616964
_cell_length_c 14.602199
_cell_angle_alpha 71.196063
_cell_angle_beta 103.625625
_cell_angle_gamma 74.277498
_cell_volume 616.293702
_symmetry_space_group_name_H-M "P -1"
_symmetry_group_IT_number 2
_symmetry_cell_setting 'triclinic'
loop_
_space_group_symop_operation_xyz
x,y,z
-x,-y,-z
loop_
_atom_site_type_symbol
_atom_site_label
_atom_site_fract_x
_atom_site_fract_y
_atom_site_fract_z
Si Si1 0.292919 0.630463 0.085671
Si Si2 0.325216 0.945166 0.571789
Si Si3 0.250110 0.377640 0.263196
Si Si4 0.838083 0.703888 0.178118
Si Si5 0.053128 0.788134 0.849609
Si Si6 0.593255 0.001542 0.225130
O O1 0.343077 0.455841 0.165839
O O2 0.568891 0.673563 0.118487
O O3 0.026292 0.738294 0.105257
O O4 0.197012 0.659326 0.967210
O O5 0.482418 0.755211 0.638597
O O6 0.500000 0.000000 0.500000
O O7 0.345745 0.018256 0.657123
O O8 0.000000 0.000000 0.500000
O O9 0.044528 0.291314 0.226985
O O10 0.059227 0.533657 0.270557
O O11 0.728735 0.840497 0.214152
O O12 0.750235 0.916933 0.833454
O O13 0.260264 0.878219 0.821840
#
# Coordination Sequence:
#
# PCOD9020615 Si02
#       6
#     2   2   2   2   2   2
#     4  10  22  36  63  89 128 166 201 228 296 353
#     4  11  24  43  68  86 110 154 206 255 308 359
#     4   9  24  40  62  89 125 155 203 253 292 351
#     4  10  23  38  60  86 136 157 193 245 301 345
#     4  11  22  37  64  89 126 168 204 234 282 355
#     4  11  24  41  60  93 124 155 202 253 293 352
#
# _framework density 19.471235
#
# number of rings (size 3 to 8) (size 9 to 14) (size 15 to 20)
#    1.000    0.667    0.000    4.500    7.000    4.667 
#    0.000    1.667    0.000    0.000    0.000    0.000 
#    0.000    0.000    0.000    0.000    0.000    0.000 
#
# Total GULP energy -67002.063341 kJ/mol
# GULP energy per Si atom -5583.505278 kJ/mol
# Density = 1.942692 g / cm^3
# Si number density = 19.471235 Si / 1000 Ang^3
#
#
#
# Elastic Constant Matrix: (Units=GPa)
#
#
# Indices 1 2 3 4 5 6 
#
# 1 121.8470 11.0032 43.4659 -6.5802 3.5601 -4.8285
# 2 11.0032 87.2913 16.1670 -16.4278 1.4955 -18.0602
# 3 43.4659 16.1670 107.9164 -23.2435 6.4113 0.1216
# 4 -6.5802 -16.4278 -23.2435 13.8303 2.8645 2.8856
# 5 3.5601 1.4955 6.4113 2.8645 26.9105 0.1952
# 6 -4.8285 -18.0602 0.1216 2.8856 0.1952 24.3659
#
#
#
# Elastic Compliance Matrix: (Units=1/GPa)
#
#
# Indices 1 2 3 4 5 6 
#
# 1 0.009851 -0.000932 -0.005011 -0.005344 0.000497 0.001916
# 2 -0.000932 0.017871 0.003406 0.025326 -0.004450 0.010081
# 3 -0.005011 0.003406 0.018918 0.035639 -0.007807 -0.002721
# 4 -0.005344 0.025326 0.035639 0.165685 -0.026814 -0.001871
# 5 0.000497 -0.004450 -0.007807 -0.026814 0.042058 -0.000323
# 6 0.001916 0.010081 -0.002721 -0.001871 -0.000323 0.049130
#
#
# Mechanical properties :
#
#
# Convention : Reuss Voigt Hill
#
# Bulk Modulus (GPa) = 24.05784 50.92520 37.49152
# Shear Modulus (GPa) = 15.50664 29.44926 22.47795
#
# Velocity S-wave (km/s) = 2.82509 3.89324 3.40136
# Velocity P-wave (km/s) = 4.79833 6.81327 5.89256
#
# Compressibility (1/GPa) = 0.04156648
#
# Stress axis : x y z
#
# Youngs Moduli (GPa) = 101.50747 55.95759 52.86090
#
# Poissons Ratio (x) = 0.05213 0.26489
# Poissons Ratio (y) = 0.09456 -0.18004
# Poissons Ratio (z) = 0.50865 -0.19059
#
# Static dielectric constant tensor:
#      x y z
#    x 1.705690 -0.039270 -0.007940 
#    y -0.039270 1.684730 -0.021590 
#    z -0.007940 -0.021590 1.658580 
# 
# From -- ./inp_files/32175.got.cif
#   From: 2010.05.17/outbox.cif.g08.bks.cpg/sg2_17_cif.got.tgz:32175.got - 2010.06.03 11:33:40.
