data_PCOD9020487
_publ_section_title
;
Structure prediction by ZEFSAII (Michael W. Deem and Ramdas Pophale) SiO2 
 PCOD9020487
Probable space group: P -1
;
_chemical_formula_sum "Si O2"
_cell_formula_units_Z 16
_cell_length_a 16.931363
_cell_length_b 5.982300
_cell_length_c 22.696594
_cell_angle_alpha 46.170901
_cell_angle_beta 33.953745
_cell_angle_gamma 46.252245
_cell_volume 886.332166
_symmetry_space_group_name_H-M "P -1"
_symmetry_group_IT_number 2
_symmetry_cell_setting 'triclinic'
loop_
_space_group_symop_operation_xyz
x,y,z
-x,-y,-z
loop_
_atom_site_type_symbol
_atom_site_label
_atom_site_fract_x
_atom_site_fract_y
_atom_site_fract_z
Si Si1 0.805369 0.432389 0.580655
Si Si2 0.443357 0.896916 0.405937
Si Si3 0.731473 0.974089 0.259743
Si Si4 0.974672 0.169314 0.634825
Si Si5 0.975745 0.317873 0.205497
Si Si6 0.073357 0.652446 0.981973
Si Si7 0.712974 0.046345 0.387413
Si Si8 0.755981 0.307625 0.514961
O O1 0.661137 0.742441 0.610884
O O2 0.951644 0.540769 0.451944
O O3 0.775525 0.203914 0.589689
O O4 0.842297 0.288724 0.648838
O O5 0.612228 0.887753 0.307203
O O6 0.388013 0.810045 0.520070
O O7 0.396126 0.690362 0.422328
O O8 0.875228 0.657292 0.234810
O O9 0.654303 0.064882 0.354196
O O10 0.785076 0.267885 0.147767
O O11 0.948055 0.961988 0.744243
O O12 0.111687 0.920899 0.561903
O O13 0.851676 0.186441 0.274933
O O14 0.081062 0.401507 0.076215
O O15 0.000000 0.500000 0.000000
O O16 0.000000 0.000000 0.000000
O O17 0.766385 0.668140 0.438442
#
# Coordination Sequence:
#
# PCOD9020487 Si02
#       8
#     2   2   2   2   2   2   2   2
#     4   9  19  31  48  73 104 137 171 211 262 322
#     4  10  21  33  47  77 109 144 174 208 266 330
#     4  11  22  35  52  73 110 142 177 222 265 324
#     4  10  17  32  50  73 103 133 174 218 261 312
#     4  11  20  34  54  79 103 137 177 226 270 315
#     4  10  22  39  58  80 108 145 189 231 271 317
#     4  11  18  32  50  77 107 138 172 213 266 328
#     4  10  17  31  46  75 105 138 172 209 264 324
#
# _framework density 18.051922000000001
#
# number of rings (size 3 to 8) (size 9 to 14) (size 15 to 20)
#    0.000    1.750    6.250    0.750    0.000    4.000 
#    0.000    0.000    0.000    0.750    0.000    0.875 
#    0.000    0.000    0.000    0.000    0.000    0.000 
#
# Total GULP energy -89082.939549 kJ/mol
# GULP energy per Si atom -5567.683722 kJ/mol
# Density = 1.801083 g / cm^3
# Si number density = 18.051922 Si / 1000 Ang^3
#
#
#
# Elastic Constant Matrix: (Units=GPa)
#
#
# Indices 1 2 3 4 5 6 
#
# 1 117.0805 20.6247 46.3903 -4.9833 18.8495 6.2051
# 2 20.6247 44.4047 7.1851 -4.1247 3.4411 0.8817
# 3 46.3903 7.1851 73.8840 -20.5869 10.3433 -11.6120
# 4 -4.9833 -4.1247 -20.5869 19.9835 0.3382 -0.5882
# 5 18.8495 3.4411 10.3433 0.3382 30.0742 -8.9769
# 6 6.2051 0.8817 -11.6120 -0.5882 -8.9769 28.7693
#
#
#
# Elastic Compliance Matrix: (Units=1/GPa)
#
#
# Indices 1 2 3 4 5 6 
#
# 1 0.016354 -0.005575 -0.013509 -0.011191 -0.008312 -0.011631
# 2 -0.005575 0.025210 0.003426 0.007401 -0.000073 0.001941
# 3 -0.013509 0.003426 0.033077 0.031898 0.001498 0.017279
# 4 -0.011191 0.007401 0.031898 0.082138 -0.000805 0.016490
# 5 -0.008312 -0.000073 0.001498 -0.000805 0.042647 0.015690
# 6 -0.011631 0.001941 0.017279 0.016490 0.015690 0.049416
#
#
# Mechanical properties :
#
#
# Convention : Reuss Voigt Hill
#
# Bulk Modulus (GPa) = 23.08063 42.64106 32.86084
# Shear Modulus (GPa) = 16.97225 26.51000 21.74113
#
# Velocity S-wave (km/s) = 3.06958 3.83631 3.47416
# Velocity P-wave (km/s) = 5.03751 6.57995 5.85970
#
# Compressibility (1/GPa) = 0.04332638
#
# Stress axis : x y z
#
# Youngs Moduli (GPa) = 61.14683 39.66750 30.23208
#
# Poissons Ratio (x) = 0.22113 0.40840
# Poissons Ratio (y) = 0.34086 -0.10358
# Poissons Ratio (z) = 0.82602 -0.13590
#
# Static dielectric constant tensor:
#      x y z
#    x 1.689620 0.045720 0.020290 
#    y 0.045720 1.702420 -0.014710 
#    z 0.020290 -0.014710 1.603770 
# 
# From -- ./inp_files/96351.got.cif
#   From: 2010.05.17/outbox.cif.g08.bks.cpg/sg2_49_cif.got.tgz:96351.got - 2010.06.03 11:33:40.
