data_PCOD9020623
_publ_section_title
;
Structure prediction by ZEFSAII (Michael W. Deem and Ramdas Pophale) SiO2 
 PCOD9020623
Probable space group: P -1
;
_chemical_formula_sum "Si O2"
_cell_formula_units_Z 16
_cell_length_a 17.670560
_cell_length_b 11.473814
_cell_length_c 11.184365
_cell_angle_alpha 105.738571
_cell_angle_beta 32.453054
_cell_angle_gamma 127.844851
_cell_volume 781.642166
_symmetry_space_group_name_H-M "P -1"
_symmetry_group_IT_number 2
_symmetry_cell_setting 'triclinic'
loop_
_space_group_symop_operation_xyz
x,y,z
-x,-y,-z
loop_
_atom_site_type_symbol
_atom_site_label
_atom_site_fract_x
_atom_site_fract_y
_atom_site_fract_z
Si Si1 0.301098 0.620718 0.851407
Si Si2 0.975380 0.344923 0.027878
Si Si3 0.420718 0.457541 0.732698
Si Si4 0.441783 0.554438 0.201940
Si Si5 0.042431 0.695173 0.230153
Si Si6 0.148979 0.018932 0.221864
Si Si7 0.757436 0.006721 0.338187
Si Si8 0.019167 0.024105 0.147646
O O1 0.353969 0.555150 0.862087
O O2 0.519887 0.819850 0.570909
O O3 0.147620 0.632145 0.097605
O O4 0.190885 0.473313 0.851163
O O5 0.804707 0.177953 0.300116
O O6 0.923256 0.258105 0.944138
O O7 0.000000 0.500000 0.000000
O O8 0.500000 0.500000 0.500000
O O9 0.553264 0.504006 0.687377
O O10 0.216912 0.241553 0.945164
O O11 0.209733 0.460012 0.460961
O O12 0.500000 0.500000 0.000000
O O13 0.620351 0.773155 0.029761
O O14 0.146944 0.874587 0.209540
O O15 0.026937 0.962749 0.244855
O O16 0.000000 0.000000 0.500000
O O17 0.817798 0.979046 0.373901
O O18 0.929326 0.047923 0.036973
#
# Coordination Sequence:
#
# PCOD9020623 Si02
#       8
#     2   2   2   2   2   2   2   2
#     4  11  24  38  61  98 135 172 208 270 336 389
#     4  10  22  37  57  89 135 172 204 257 332 396
#     4  11  21  40  69  97 130 172 220 266 327 394
#     4  11  25  42  70  96 125 173 225 272 326 394
#     4  11  24  40  62  91 131 169 217 267 331 384
#     4  11  23  43  67  89 121 169 227 267 316 392
#     4  11  21  36  60  93 131 164 209 264 327 383
#     4  10  22  36  63  95 125 164 220 265 316 388
#
# _framework density 20.469725
#
# number of rings (size 3 to 8) (size 9 to 14) (size 15 to 20)
#    0.000    1.250    5.000    0.750    3.500    4.000 
#    0.000    0.625    0.000    1.500    0.000    0.000 
#    0.000    0.000    0.000    0.000    0.000    0.000 
#
# Total GULP energy -89097.470618 kJ/mol
# GULP energy per Si atom -5568.591914 kJ/mol
# Density = 2.042313 g / cm^3
# Si number density = 20.469725 Si / 1000 Ang^3
#
#
#
# Elastic Constant Matrix: (Units=GPa)
#
#
# Indices 1 2 3 4 5 6 
#
# 1 50.0004 32.5059 27.6031 9.3272 -5.9976 -12.0737
# 2 32.5059 107.1957 19.7865 3.8832 -9.7158 -16.0870
# 3 27.6031 19.7865 59.5359 7.1688 -17.4456 -8.0913
# 4 9.3272 3.8832 7.1688 40.4433 4.3059 -5.6112
# 5 -5.9976 -9.7158 -17.4456 4.3059 20.2132 3.1196
# 6 -12.0737 -16.0870 -8.0913 -5.6112 3.1196 36.8462
#
#
#
# Elastic Compliance Matrix: (Units=1/GPa)
#
#
# Indices 1 2 3 4 5 6 
#
# 1 0.033327 -0.007257 -0.013547 -0.003370 -0.005301 0.004713
# 2 -0.007257 0.012143 0.000805 0.000345 0.003869 0.002825
# 3 -0.013547 0.000805 0.030273 -0.004851 0.023555 -0.000173
# 4 -0.003370 0.000345 -0.004851 0.027999 -0.011481 0.003217
# 5 -0.005301 0.003869 0.023555 -0.011481 0.072968 -0.002802
# 6 0.004713 0.002825 -0.000173 0.003217 -0.002802 0.030607
#
#
# Mechanical properties :
#
#
# Convention : Reuss Voigt Hill
#
# Bulk Modulus (GPa) = 27.97579 41.83590 34.90585
# Shear Modulus (GPa) = 19.28800 28.62296 23.95548
#
# Velocity S-wave (km/s) = 3.07297 3.74345 3.42466
# Velocity P-wave (km/s) = 5.12713 6.25834 5.72077
#
# Compressibility (1/GPa) = 0.03574520
#
# Stress axis : x y z
#
# Youngs Moduli (GPa) = 30.00570 82.35328 33.03278
#
# Poissons Ratio (x) = 0.59760 0.44750
# Poissons Ratio (y) = 0.21774 -0.02659
# Poissons Ratio (z) = 0.40649 -0.06628
#
# Static dielectric constant tensor:
#      x y z
#    x 1.802820 0.002710 -0.011460 
#    y 0.002710 1.816320 0.020840 
#    z -0.011460 0.020840 1.726370 
# 
# From -- ./inp_files/464657.got.cif
#   From: 2010.05.17/outbox.cif.g08.bks.cpg/sg2_233_cif.got.tgz:464657.got - 2010.06.03 11:33:40.
