data_PCOD9020913
_publ_section_title
;
Structure prediction by ZEFSAII (Michael W. Deem and Ramdas Pophale) SiO2 
 PCOD9020913
Probable space group: P -1
;
_chemical_formula_sum "Si O2"
_cell_formula_units_Z 14
_cell_length_a 9.635614
_cell_length_b 14.527913
_cell_length_c 19.432640
_cell_angle_alpha 28.996440
_cell_angle_beta 132.163111
_cell_angle_gamma 151.449603
_cell_volume 572.279470
_symmetry_space_group_name_H-M "P -1"
_symmetry_group_IT_number 2
_symmetry_cell_setting 'triclinic'
loop_
_space_group_symop_operation_xyz
x,y,z
-x,-y,-z
loop_
_atom_site_type_symbol
_atom_site_label
_atom_site_fract_x
_atom_site_fract_y
_atom_site_fract_z
Si Si1 0.712548 0.620743 0.167608
Si Si2 0.906294 0.431355 0.903665
Si Si3 0.871463 0.706900 0.538515
Si Si4 0.435370 0.352818 0.754465
Si Si5 0.263204 0.000140 0.751086
Si Si6 0.723218 0.285955 0.298131
Si Si7 0.727373 0.780333 0.835113
O O1 0.421267 0.438529 0.139443
O O2 0.607920 0.550769 0.256962
O O3 0.814903 0.500508 0.251054
O O4 0.000000 0.000000 0.000000
O O5 0.576053 0.270902 0.884080
O O6 0.060967 0.500608 0.837350
O O7 0.150573 0.781410 0.792090
O O8 0.697430 0.619178 0.609751
O O9 0.634892 0.359858 0.650641
O O10 0.877544 0.903689 0.369096
O O11 0.199620 0.865231 0.556725
O O12 0.090112 0.061531 0.794815
O O13 0.159621 0.789308 0.919983
O O14 0.372984 0.079410 0.298237
O O15 0.500000 0.500000 0.000000
#
# Coordination Sequence:
#
# PCOD9020913 Si02
#       7
#     2   2   2   2   2   2   2
#     4  10  22  38  63 106 147 189 232 300 358 426
#     4  10  24  43  79 108 135 187 258 300 343 441
#     4  10  24  45  73 102 151 189 236 307 360 437
#     4  11  23  41  73 108 143 186 243 296 365 424
#     4  10  24  43  71 111 145 184 242 306 371 408
#     4   9  23  41  67 104 144 187 238 299 358 429
#     4  10  22  37  62 104 150 182 232 301 352 424
#
# _framework density 24.463571999999999
#
# number of rings (size 3 to 8) (size 9 to 14) (size 15 to 20)
#    0.857    1.143    1.429    0.000   10.000    5.714 
#    0.000    0.000    0.000   26.571    0.000    0.000 
#    0.000    0.000    0.000    0.000    0.000    0.000 
#
# Total GULP energy -78287.858985 kJ/mol
# GULP energy per Si atom -5591.989927 kJ/mol
# Density = 2.440789 g / cm^3
# Si number density = 24.463572 Si / 1000 Ang^3
#
#
#
# Elastic Constant Matrix: (Units=GPa)
#
#
# Indices 1 2 3 4 5 6 
#
# 1 166.0502 91.7385 51.7216 -6.9402 12.1320 -11.8538
# 2 91.7385 176.2970 68.9039 11.8816 6.3548 2.1057
# 3 51.7216 68.9039 130.6982 8.1422 11.7501 1.1409
# 4 -6.9402 11.8816 8.1422 45.0354 3.8989 8.0059
# 5 12.1320 6.3548 11.7501 3.8989 22.1377 9.3974
# 6 -11.8538 2.1057 1.1409 8.0059 9.3974 49.3435
#
#
#
# Elastic Compliance Matrix: (Units=1/GPa)
#
#
# Indices 1 2 3 4 5 6 
#
# 1 0.009633 -0.004616 -0.001116 0.002806 -0.005156 0.003064
# 2 -0.004616 0.009424 -0.003203 -0.002576 0.002623 -0.001519
# 3 -0.001116 -0.003203 0.010189 -0.000923 -0.003940 0.000533
# 4 0.002806 -0.002576 -0.000923 0.024225 -0.003534 -0.002452
# 5 -0.005156 0.002623 -0.003940 -0.003534 0.054669 -0.011098
# 6 0.003064 -0.001519 0.000533 -0.002452 -0.011098 0.023566
#
#
# Mechanical properties :
#
#
# Convention : Reuss Voigt Hill
#
# Bulk Modulus (GPa) = 87.92463 99.75261 93.83862
# Shear Modulus (GPa) = 32.60100 40.68207 36.64154
#
# Velocity S-wave (km/s) = 3.65449 4.08237 3.87434
# Velocity P-wave (km/s) = 7.33663 7.94264 7.64564
#
# Compressibility (1/GPa) = 0.01137338
#
# Stress axis : x y z
#
# Youngs Moduli (GPa) = 103.80926 106.11748 98.14544
#
# Poissons Ratio (x) = 0.48986 0.10958
# Poissons Ratio (y) = 0.47920 0.31440
# Poissons Ratio (z) = 0.11590 0.33994
#
# Static dielectric constant tensor:
#      x y z
#    x 1.999850 0.014200 0.005520 
#    y 0.014200 1.990990 0.000890 
#    z 0.005520 0.000890 1.967410 
# 
# From -- ./inp_files/608176.got.cif
#   From: 2010.05.17/outbox.cif.g08.bks.cpg/sg2_305_cif.got.tgz:608176.got - 2010.06.03 11:33:40.
