data_PCOD9020957
_publ_section_title
;
Structure prediction by ZEFSAII (Michael W. Deem and Ramdas Pophale) SiO2 
 PCOD9020957
Probable space group: P -1
;
_chemical_formula_sum "Si O2"
_cell_formula_units_Z 16
_cell_length_a 15.704206
_cell_length_b 13.883828
_cell_length_c 25.360195
_cell_angle_alpha 159.436895
_cell_angle_beta 157.414066
_cell_angle_gamma 32.939314
_cell_volume 732.752715
_symmetry_space_group_name_H-M "P -1"
_symmetry_group_IT_number 2
_symmetry_cell_setting 'triclinic'
loop_
_space_group_symop_operation_xyz
x,y,z
-x,-y,-z
loop_
_atom_site_type_symbol
_atom_site_label
_atom_site_fract_x
_atom_site_fract_y
_atom_site_fract_z
Si Si1 0.813844 0.889434 0.006148
Si Si2 0.679801 0.733603 0.969586
Si Si3 0.455545 0.428042 0.529337
Si Si4 0.246566 0.686192 0.644807
Si Si5 0.215595 0.573623 0.791686
Si Si6 0.700353 0.180955 0.740043
Si Si7 0.987778 0.668945 0.821634
Si Si8 0.403874 0.763867 0.174952
O O1 0.706388 0.608465 0.768649
O O2 0.756319 0.855095 0.017730
O O3 0.085593 0.957072 0.193344
O O4 0.707118 0.127583 0.038504
O O5 0.723298 0.977802 0.162527
O O6 0.409350 0.625926 0.754269
O O7 0.790911 0.469829 0.909940
O O8 0.345827 0.546034 0.579343
O O9 0.276934 0.470273 0.403145
O O10 0.450253 0.096676 0.359764
O O11 0.981560 0.576690 0.437047
O O12 0.100836 0.610166 0.800876
O O13 0.406087 0.394354 0.818377
O O14 0.594437 0.259926 0.773873
O O15 0.500000 0.000000 0.500000
O O16 0.158221 0.618118 0.938458
O O17 0.000000 0.000000 0.000000
#
# Coordination Sequence:
#
# PCOD9020957 Si02
#       8
#     2   2   2   2   2   2   2   2
#     4  11  23  40  62  91 124 162 212 253 312 361
#     4  10  22  37  63  86 124 165 213 257 300 357
#     4   9  20  41  65  87 121 163 201 260 309 361
#     4   9  20  38  60  83 122 160 209 246 315 352
#     4  11  23  38  66  94 125 156 209 255 310 371
#     4  12  25  40  61  90 130 168 211 248 305 368
#     4   9  19  44  69  88 122 164 202 255 314 369
#     4  11  24  40  65  93 124 165 209 249 311 371
#
# _framework density 21.835470999999998
#
# number of rings (size 3 to 8) (size 9 to 14) (size 15 to 20)
#    0.000    1.750    0.000    5.250    8.750    0.500 
#    0.000    6.250    0.000    0.000    0.000    0.000 
#    0.000    0.000    0.000    0.000    0.000    0.000 
#
# Total GULP energy -89272.523223 kJ/mol
# GULP energy per Si atom -5579.532701 kJ/mol
# Density = 2.178577 g / cm^3
# Si number density = 21.835471 Si / 1000 Ang^3
#
#
#
# Elastic Constant Matrix: (Units=GPa)
#
#
# Indices 1 2 3 4 5 6 
#
# 1 48.6218 10.6325 14.3688 -3.0372 -13.6242 -10.2328
# 2 10.6325 84.2738 39.9832 5.1072 -12.4909 -16.1007
# 3 14.3688 39.9832 116.8498 -14.3275 -9.8956 -3.3858
# 4 -3.0372 5.1072 -14.3275 33.0096 -2.7542 1.5635
# 5 -13.6242 -12.4909 -9.8956 -2.7542 21.3999 -2.5937
# 6 -10.2328 -16.1007 -3.3858 1.5635 -2.5937 31.5419
#
#
#
# Elastic Compliance Matrix: (Units=1/GPa)
#
#
# Indices 1 2 3 4 5 6 
#
# 1 0.029193 0.002541 -0.002016 0.002590 0.020941 0.012145
# 2 0.002541 0.018180 -0.005961 -0.004820 0.010129 0.010536
# 3 -0.002016 -0.005961 0.011590 0.005981 0.001043 -0.002664
# 4 0.002590 -0.004820 0.005981 0.034460 0.005768 -0.002212
# 5 0.020941 0.010129 0.001043 0.005768 0.069318 0.017490
# 6 0.012145 0.010536 -0.002664 -0.002212 0.017490 0.042284
#
#
# Mechanical properties :
#
#
# Convention : Reuss Voigt Hill
#
# Bulk Modulus (GPa) = 20.79448 42.19051 31.49249
# Shear Modulus (GPa) = 21.55829 29.50767 25.53298
#
# Velocity S-wave (km/s) = 3.14555 3.68008 3.42326
# Velocity P-wave (km/s) = 4.76829 6.11729 5.48443
#
# Compressibility (1/GPa) = 0.04808970
#
# Stress axis : x y z
#
# Youngs Moduli (GPa) = 34.25501 55.00468 86.27978
#
# Poissons Ratio (x) = -0.13975 0.17396
# Poissons Ratio (y) = -0.08703 0.51433
# Poissons Ratio (z) = 0.06907 0.32790
#
# Static dielectric constant tensor:
#      x y z
#    x 1.817110 -0.009860 0.036080 
#    y -0.009860 1.823960 -0.010610 
#    z 0.036080 -0.010610 1.848130 
# 
# From -- ./inp_files/620503.got.cif
#   From: 2010.05.17/outbox.cif.g08.bks.cpg/sg2_311_cif.got.tgz:620503.got - 2010.06.03 11:33:40.
