data_PCOD9020234
_publ_section_title
;
Structure prediction by ZEFSAII (Michael W. Deem and Ramdas Pophale) SiO2 
 PCOD9020234
Probable space group: P -1
;
_chemical_formula_sum "Si O2"
_cell_formula_units_Z 12
_cell_length_a 8.741743
_cell_length_b 10.610619
_cell_length_c 8.794137
_cell_angle_alpha 116.379128
_cell_angle_beta 45.391036
_cell_angle_gamma 102.903837
_cell_volume 515.188068
_symmetry_space_group_name_H-M "P -1"
_symmetry_group_IT_number 2
_symmetry_cell_setting 'triclinic'
loop_
_space_group_symop_operation_xyz
x,y,z
-x,-y,-z
loop_
_atom_site_type_symbol
_atom_site_label
_atom_site_fract_x
_atom_site_fract_y
_atom_site_fract_z
Si Si1 0.521483 0.605353 0.404644
Si Si2 0.732026 0.419130 0.734161
Si Si3 0.401538 0.059843 0.761233
Si Si4 0.128432 0.357330 0.044648
Si Si5 0.794460 0.123191 0.707902
Si Si6 0.250722 0.818878 0.877903
O O1 0.500000 0.500000 0.500000
O O2 0.336994 0.598447 0.401599
O O3 0.473175 0.755457 0.603905
O O4 0.754441 0.579621 0.147372
O O5 0.891566 0.525784 0.745061
O O6 0.807834 0.263870 0.671066
O O7 0.500000 0.500000 0.000000
O O8 0.594915 0.054546 0.742953
O O9 0.500000 0.000000 0.500000
O O10 0.217731 0.975514 0.913984
O O11 0.303947 0.223896 0.899388
O O12 0.924043 0.283046 0.099292
O O13 0.742176 0.174527 0.943241
O O14 0.000000 0.000000 0.500000
#
# Coordination Sequence:
#
# PCOD9020234 Si02
#       6
#     2   2   2   2   2   2
#     4  11  24  44  75 106 147 193 250 309 370 439
#     4  10  21  47  75 103 148 195 240 311 371 427
#     4  12  23  48  72 101 152 194 244 305 364 443
#     4  11  24  46  76 106 150 191 251 303 365 452
#     4  12  26  45  76 110 149 194 250 308 369 444
#     4  12  26  44  71 109 145 201 242 303 378 434
#
# _framework density 23.292465
#
# number of rings (size 3 to 8) (size 9 to 14) (size 15 to 20)
#    0.000    0.667    5.000    4.000    0.000    4.667 
#    0.000    1.667    0.000    0.000    0.000    0.000 
#    0.000    0.000    0.000    0.000    0.000    0.000 
#
# Total GULP energy -67077.695847 kJ/mol
# GULP energy per Si atom -5589.807987 kJ/mol
# Density = 2.323945 g / cm^3
# Si number density = 23.292465 Si / 1000 Ang^3
#
#
#
# Elastic Constant Matrix: (Units=GPa)
#
#
# Indices 1 2 3 4 5 6 
#
# 1 166.4086 75.7414 73.2703 -3.4844 32.0694 10.4385
# 2 75.7414 173.3324 31.8237 -2.6727 18.0624 -2.5146
# 3 73.2703 31.8237 110.1723 3.1599 36.8144 -3.7627
# 4 -3.4844 -2.6727 3.1599 41.7265 -5.2541 0.5465
# 5 32.0694 18.0624 36.8144 -5.2541 51.3888 5.4563
# 6 10.4385 -2.5146 -3.7627 0.5465 5.4563 52.3728
#
#
#
# Elastic Compliance Matrix: (Units=1/GPa)
#
#
# Indices 1 2 3 4 5 6 
#
# 1 0.010483 -0.003451 -0.005838 0.001034 -0.000764 -0.002606
# 2 -0.003451 0.007292 0.000535 0.000008 -0.000916 0.001172
# 3 -0.005838 0.000535 0.015843 -0.002769 -0.008522 0.003244
# 4 0.001034 0.000008 -0.002769 0.024778 0.003983 -0.001078
# 5 -0.000764 -0.000916 -0.008522 0.003983 0.027128 -0.003372
# 6 -0.002606 0.001172 0.003244 -0.001078 -0.003372 0.020265
#
#
# Mechanical properties :
#
#
# Convention : Reuss Voigt Hill
#
# Bulk Modulus (GPa) = 62.07959 90.17600 76.12779
# Shear Modulus (GPa) = 38.85994 47.03616 42.94805
#
# Velocity S-wave (km/s) = 4.08897 4.49862 4.29868
# Velocity P-wave (km/s) = 7.00022 8.11062 7.57579
#
# Compressibility (1/GPa) = 0.01610835
#
# Stress axis : x y z
#
# Youngs Moduli (GPa) = 95.39194 137.14241 63.12061
#
# Poissons Ratio (x) = 0.47330 0.36851
# Poissons Ratio (y) = 0.32921 -0.03376
# Poissons Ratio (z) = 0.55692 -0.07335
#
# Static dielectric constant tensor:
#      x y z
#    x 1.880920 -0.038010 -0.057280 
#    y -0.038010 2.125440 0.071170 
#    z -0.057280 0.071170 1.957390 
# 
# From -- ./inp_files/189635.got.cif
#   From: 2010.05.17/outbox.cif.g08.bks.cpg/sg2_95_cif.got.tgz:189635.got - 2010.06.03 11:33:40.
