data_PCOD9020936
_publ_section_title
;
Structure prediction by ZEFSAII (Michael W. Deem and Ramdas Pophale) SiO2 
 PCOD9020936
Probable space group: P -1
;
_chemical_formula_sum "Si O2"
_cell_formula_units_Z 16
_cell_length_a 14.797877
_cell_length_b 14.808916
_cell_length_c 8.422371
_cell_angle_alpha 90.822860
_cell_angle_beta 73.973179
_cell_angle_gamma 28.842417
_cell_volume 713.244447
_symmetry_space_group_name_H-M "P -1"
_symmetry_group_IT_number 2
_symmetry_cell_setting 'triclinic'
loop_
_space_group_symop_operation_xyz
x,y,z
-x,-y,-z
loop_
_atom_site_type_symbol
_atom_site_label
_atom_site_fract_x
_atom_site_fract_y
_atom_site_fract_z
Si Si1 0.230999 0.331103 0.675802
Si Si2 0.248947 0.180636 0.093468
Si Si3 0.247425 0.986355 0.998101
Si Si4 0.705730 0.900170 0.576263
Si Si5 0.356483 0.712173 0.442295
Si Si6 0.630664 0.598634 0.551907
Si Si7 0.169711 0.775158 0.835086
Si Si8 0.888063 0.913852 0.582732
O O1 0.425087 0.153649 0.713957
O O2 0.302001 0.360452 0.544948
O O3 0.964406 0.574897 0.860234
O O4 0.242081 0.230090 0.564194
O O5 0.262485 0.080440 0.976609
O O6 0.184087 0.214521 0.308623
O O7 0.500000 0.000000 0.000000
O O8 0.267764 0.953375 0.176981
O O9 0.447956 0.767542 0.788863
O O10 0.994613 0.168537 0.080110
O O11 0.802745 0.914753 0.494000
O O12 0.505261 0.652278 0.475593
O O13 0.228038 0.758872 0.628853
O O14 0.565741 0.477844 0.237097
O O15 0.163508 0.941568 0.453238
O O16 0.855303 0.345335 0.498212
O O17 0.000000 0.000000 0.000000
#
# Coordination Sequence:
#
# PCOD9020936 Si02
#       8
#     2   2   2   2   2   2   2   2
#     4  11  21  39  64  92 131 174 222 264 322 392
#     4  11  23  40  63  94 134 171 212 273 327 380
#     4  11  24  42  65  99 132 169 223 269 327 395
#     4  10  22  37  62  93 126 175 218 265 323 388
#     4  11  24  44  72  95 131 175 215 273 333 391
#     4  12  22  43  69  94 133 179 213 271 332 384
#     4  11  23  45  71  99 131 174 218 272 334 391
#     4  11  24  43  65 100 132 171 224 270 330 388
#
# _framework density 22.432701999999999
#
# number of rings (size 3 to 8) (size 9 to 14) (size 15 to 20)
#    0.000    1.000    6.250    1.125    1.750    2.000 
#    0.000    1.250    0.000    0.000    0.000    0.000 
#    0.000    0.000    0.000    0.000    0.000    0.000 
#
# Total GULP energy -89294.191382 kJ/mol
# GULP energy per Si atom -5580.886961 kJ/mol
# Density = 2.238164 g / cm^3
# Si number density = 22.432702 Si / 1000 Ang^3
#
#
#
# Elastic Constant Matrix: (Units=GPa)
#
#
# Indices 1 2 3 4 5 6 
#
# 1 105.5588 17.6750 31.2772 20.9166 -4.8220 -4.2073
# 2 17.6750 133.3392 37.4656 29.2214 -2.1096 4.7345
# 3 31.2772 37.4656 104.4754 34.9404 -5.8146 3.2775
# 4 20.9166 29.2214 34.9404 32.6093 -0.3375 -0.6823
# 5 -4.8220 -2.1096 -5.8146 -0.3375 34.9012 1.5918
# 6 -4.2073 4.7345 3.2775 -0.6823 1.5918 30.9267
#
#
#
# Elastic Compliance Matrix: (Units=1/GPa)
#
#
# Indices 1 2 3 4 5 6 
#
# 1 0.011115 0.000142 -0.001475 -0.005634 0.001177 0.001462
# 2 0.000142 0.009462 -0.000758 -0.007786 0.000461 -0.001544
# 3 -0.001475 -0.000758 0.015498 -0.015002 0.002287 -0.002176
# 4 -0.005634 -0.007786 -0.015002 0.057370 -0.003351 0.003453
# 5 0.001177 0.000461 0.002287 -0.003351 0.029270 -0.001733
# 6 0.001462 -0.001544 -0.002176 0.003453 -0.001733 0.033166
#
#
# Mechanical properties :
#
#
# Convention : Reuss Voigt Hill
#
# Bulk Modulus (GPa) = 31.35296 57.35655 44.35475
# Shear Modulus (GPa) = 29.29248 36.81782 33.05515
#
# Velocity S-wave (km/s) = 3.61750 4.05564 3.84282
# Velocity P-wave (km/s) = 5.60849 6.89599 6.28530
#
# Compressibility (1/GPa) = 0.03189492
#
# Stress axis : x y z
#
# Youngs Moduli (GPa) = 89.96878 105.68417 64.52547
#
# Poissons Ratio (x) = -0.01506 0.09515
# Poissons Ratio (y) = -0.01282 0.04890
# Poissons Ratio (z) = 0.13267 0.08009
#
# Static dielectric constant tensor:
#      x y z
#    x 2.249380 0.269720 -0.149650 
#    y 0.269720 1.969480 -0.081180 
#    z -0.149650 -0.081180 1.886530 
# 
# From -- ./inp_files/315447.got.cif
#   From: 2010.05.17/outbox.cif.g08.bks.cpg/sg2_158_cif.got.tgz:315447.got - 2010.06.03 11:33:40.
