data_PCOD9020248
_publ_section_title
;
Structure prediction by ZEFSAII (Michael W. Deem and Ramdas Pophale) SiO2 
 PCOD9020248
Probable space group: P -1
;
_chemical_formula_sum "Si O2"
_cell_formula_units_Z 16
_cell_length_a 5.004062
_cell_length_b 11.679685
_cell_length_c 13.624798
_cell_angle_alpha 62.431559
_cell_angle_beta 72.341153
_cell_angle_gamma 100.545235
_cell_volume 621.383675
_symmetry_space_group_name_H-M "P -1"
_symmetry_group_IT_number 2
_symmetry_cell_setting 'triclinic'
loop_
_space_group_symop_operation_xyz
x,y,z
-x,-y,-z
loop_
_atom_site_type_symbol
_atom_site_label
_atom_site_fract_x
_atom_site_fract_y
_atom_site_fract_z
Si Si1 0.203008 0.300560 0.172946
Si Si2 0.156480 0.846018 0.903815
Si Si3 0.265208 0.987779 0.119024
Si Si4 0.468931 0.875186 0.478322
Si Si5 0.225197 0.276267 0.380095
Si Si6 0.355185 0.499226 0.410574
Si Si7 0.245324 0.754356 0.348387
Si Si8 0.829856 0.427689 0.948440
O O1 0.323838 0.244596 0.275058
O O2 0.145296 0.435550 0.168455
O O3 0.925568 0.195018 0.184450
O O4 0.474213 0.355775 0.042578
O O5 0.509146 0.919242 0.859326
O O6 0.976743 0.945753 0.909423
O O7 0.062463 0.699177 0.033597
O O8 0.139863 0.835629 0.244702
O O9 0.500000 0.000000 0.000000
O O10 0.735543 0.827510 0.501841
O O11 0.447401 0.860523 0.367579
O O12 0.130861 0.764685 0.583159
O O13 0.500000 0.000000 0.500000
O O14 0.442725 0.427594 0.336442
O O15 0.500000 0.500000 0.500000
O O16 0.399302 0.656961 0.319373
O O17 0.021812 0.374573 0.515593
O O18 0.000000 0.500000 0.000000
#
# Coordination Sequence:
#
# PCOD9020248 Si02
#       8
#     2   2   2   2   2   2   2   2
#     4  10  22  41  67 104 136 186 233 289 363 415
#     4  11  24  45  69  95 147 184 225 294 354 429
#     4  12  28  47  70 107 140 188 244 286 360 433
#     4  11  25  42  65 102 140 176 226 280 359 431
#     4  11  25  40  68 104 132 174 237 289 342 426
#     4  10  21  48  69  96 136 184 244 292 348 413
#     4  10  25  45  73  99 141 192 233 300 357 416
#     4   9  20  41  66  95 136 187 228 278 355 416
#
# _framework density 25.748985000000001
#
# number of rings (size 3 to 8) (size 9 to 14) (size 15 to 20)
#    0.000    1.500    2.500    0.750    8.750    1.000 
#    0.000    0.000    0.000    0.000    0.000    0.000 
#    0.000    0.000    0.000    0.000    0.000    0.000 
#
# Total GULP energy -89193.240631 kJ/mol
# GULP energy per Si atom -5574.577539 kJ/mol
# Density = 2.569038 g / cm^3
# Si number density = 25.748985 Si / 1000 Ang^3
#
#
#
# Elastic Constant Matrix: (Units=GPa)
#
#
# Indices 1 2 3 4 5 6 
#
# 1 94.7380 20.5784 9.5877 -9.7188 14.8843 -1.2392
# 2 20.5784 151.9317 24.9909 -4.8192 14.6054 4.3646
# 3 9.5877 24.9909 74.6179 -7.1081 12.3776 -11.0657
# 4 -9.7188 -4.8192 -7.1081 40.0184 -2.6864 17.5590
# 5 14.8843 14.6054 12.3776 -2.6864 27.4468 -5.2414
# 6 -1.2392 4.3646 -11.0657 17.5590 -5.2414 58.1353
#
#
#
# Elastic Compliance Matrix: (Units=1/GPa)
#
#
# Indices 1 2 3 4 5 6 
#
# 1 0.011969 -0.000910 -0.000150 0.002858 -0.005869 -0.001097
# 2 -0.000910 0.007366 -0.002042 0.000750 -0.002705 -0.001431
# 3 -0.000150 -0.002042 0.015417 0.001104 -0.005241 0.002279
# 4 0.002858 0.000750 0.001104 0.029789 -0.001230 -0.008893
# 5 -0.005869 -0.002705 -0.005241 -0.001230 0.043952 0.003414
# 6 -0.001097 -0.001431 0.002279 -0.008893 0.003414 0.020713
#
#
# Mechanical properties :
#
#
# Convention : Reuss Voigt Hill
#
# Bulk Modulus (GPa) = 35.02895 47.95573 41.49234
# Shear Modulus (GPa) = 34.50022 42.86216 38.68119
#
# Velocity S-wave (km/s) = 3.66439 4.08440 3.88008
# Velocity P-wave (km/s) = 5.61580 6.39592 6.01851
#
# Compressibility (1/GPa) = 0.02854781
#
# Stress axis : x y z
#
# Youngs Moduli (GPa) = 83.54777 135.75793 64.86168
#
# Poissons Ratio (x) = 0.12356 0.00974
# Poissons Ratio (y) = 0.07604 0.13246
# Poissons Ratio (z) = 0.01254 0.27725
#
# Static dielectric constant tensor:
#      x y z
#    x 2.198570 -0.379360 -0.201630 
#    y -0.379360 2.782570 0.367180 
#    z -0.201630 0.367180 2.417100 
# 
# From -- ./inp_files/482735.got.cif
#   From: 2010.05.17/outbox.cif.g08.bks.cpg/sg2_242_cif.got.tgz:482735.got - 2010.06.03 11:33:40.
