data_PCOD9020027
_publ_section_title
;
Structure prediction by ZEFSAII (Michael W. Deem and Ramdas Pophale) SiO2 
 PCOD9020027
Probable space group: P -1
;
_chemical_formula_sum "Si O2"
_cell_formula_units_Z 13
_cell_length_a 23.288135
_cell_length_b 5.412139
_cell_length_c 12.061614
_cell_angle_alpha 132.511469
_cell_angle_beta 27.785352
_cell_angle_gamma 137.049173
_cell_volume 480.961630
_symmetry_space_group_name_H-M "P -1"
_symmetry_group_IT_number 2
_symmetry_cell_setting 'triclinic'
loop_
_space_group_symop_operation_xyz
x,y,z
-x,-y,-z
loop_
_atom_site_type_symbol
_atom_site_label
_atom_site_fract_x
_atom_site_fract_y
_atom_site_fract_z
Si Si1 0.792580 0.491611 0.138909
Si Si2 0.019203 0.413116 0.816902
Si Si3 0.921840 0.729553 0.652378
Si Si4 0.660966 0.708650 0.011953
Si Si5 0.564994 0.708577 0.563639
Si Si6 0.705613 0.485682 0.540945
Si Si7 0.500000 0.500000 0.000000
O O1 0.719524 0.756741 0.311991
O O2 0.744620 0.424017 0.330295
O O3 0.953598 0.618780 0.908796
O O4 0.730511 0.140099 0.058704
O O5 0.170807 0.450827 0.569669
O O6 0.925355 0.999190 0.827321
O O7 0.000000 0.500000 0.000000
O O8 0.770386 0.552259 0.817220
O O9 0.000000 0.500000 0.500000
O O10 0.000000 0.000000 0.500000
O O11 0.528277 0.551012 0.264644
O O12 0.615338 0.620018 0.938664
O O13 0.500000 0.500000 0.500000
O O14 0.574629 0.119470 0.690352
O O15 0.625650 0.741896 0.766933
#
# Coordination Sequence:
#
# PCOD9020027 Si02
#       7
#     2   2   2   2   2   2   1
#     4  10  21  46  66  93 137 186 242 305 363 445
#     4   9  22  46  71 103 143 189 253 319 372 443
#     4  11  26  52  79 110 154 207 258 314 389 471
#     4  11  24  44  71 107 143 197 249 308 385 451
#     4  12  23  39  71 101 135 186 248 307 372 451
#     4  11  23  42  66 101 139 185 242 302 377 437
#     4  12  24  42  64  96 154 178 230 304 370 458
#
# _framework density 27.029184999999998
#
# number of rings (size 3 to 8) (size 9 to 14) (size 15 to 20)
#    0.000    1.231    3.077    2.308    0.000    6.154 
#   11.077    0.000    0.000    0.000    0.000    0.000 
#    0.000    0.000    0.000    0.000    0.000    0.000 
#
# Total GULP energy -72483.274506 kJ/mol
# GULP energy per Si atom -5575.636500 kJ/mol
# Density = 2.696767 g / cm^3
# Si number density = 27.029185 Si / 1000 Ang^3
#
#
#
# Elastic Constant Matrix: (Units=GPa)
#
#
# Indices 1 2 3 4 5 6 
#
# 1 216.7405 34.5344 72.3488 3.8530 -21.5700 41.4519
# 2 34.5344 83.5027 -3.0871 14.6346 -10.2084 23.1887
# 3 72.3488 -3.0871 170.1204 -15.3044 -39.4483 10.4957
# 4 3.8530 14.6346 -15.3044 25.4619 3.6413 -5.6602
# 5 -21.5700 -10.2084 -39.4483 3.6413 79.3590 2.1340
# 6 41.4519 23.1887 10.4957 -5.6602 2.1340 45.3952
#
#
#
# Elastic Compliance Matrix: (Units=1/GPa)
#
#
# Indices 1 2 3 4 5 6 
#
# 1 0.006884 -0.000560 -0.002737 -0.003781 0.000770 -0.005875
# 2 -0.000560 0.017733 0.000883 -0.012390 0.003417 -0.010457
# 3 -0.002737 0.000883 0.008171 0.004485 0.003210 0.000567
# 4 -0.003781 -0.012390 0.004485 0.053595 -0.003270 0.015581
# 5 0.000770 0.003417 0.003210 -0.003270 0.015112 -0.004309
# 6 -0.005875 -0.010457 0.000567 0.015581 -0.004309 0.034749
#
#
# Mechanical properties :
#
#
# Convention : Reuss Voigt Hill
#
# Bulk Modulus (GPa) = 35.76530 75.32844 55.54687
# Shear Modulus (GPa) = 33.24645 54.48104 43.86375
#
# Velocity S-wave (km/s) = 3.51097 4.49446 4.03281
# Velocity P-wave (km/s) = 5.44947 7.40698 6.50231
#
# Compressibility (1/GPa) = 0.02796006
#
# Stress axis : x y z
#
# Youngs Moduli (GPa) = 145.26283 56.39205 122.38245
#
# Poissons Ratio (x) = 0.03158 0.33496
# Poissons Ratio (y) = 0.08135 -0.10805
# Poissons Ratio (z) = 0.39758 -0.04979
#
# Static dielectric constant tensor:
#      x y z
#    x 2.114250 -0.047260 -0.024780 
#    y -0.047260 2.006580 -0.173290 
#    z -0.024780 -0.173290 1.665300 
# 
# From -- ./inp_files/63871.got.cif
#   From: 2010.05.17/outbox.cif.g08.bks.cpg/sg2_32_cif.got.tgz:63871.got - 2010.06.03 11:33:40.
