data_PCOD9020103
_publ_section_title
;
Structure prediction by ZEFSAII (Michael W. Deem and Ramdas Pophale) SiO2 
 PCOD9020103
Probable space group: P -1
;
_chemical_formula_sum "Si O2"
_cell_formula_units_Z 16
_cell_length_a 5.307675
_cell_length_b 19.165060
_cell_length_c 22.488440
_cell_angle_alpha 162.238432
_cell_angle_beta 112.997527
_cell_angle_gamma 67.368332
_cell_volume 641.713367
_symmetry_space_group_name_H-M "P -1"
_symmetry_group_IT_number 2
_symmetry_cell_setting 'triclinic'
loop_
_space_group_symop_operation_xyz
x,y,z
-x,-y,-z
loop_
_atom_site_type_symbol
_atom_site_label
_atom_site_fract_x
_atom_site_fract_y
_atom_site_fract_z
Si Si1 0.622863 0.355383 0.071418
Si Si2 0.034583 0.398714 0.236443
Si Si3 0.618842 0.037687 0.211341
Si Si4 0.788597 0.999262 0.559923
Si Si5 0.128227 0.875890 0.201029
Si Si6 0.336227 0.465198 0.582578
Si Si7 0.767911 0.085018 0.127393
Si Si8 0.896302 0.376863 0.791398
O O1 0.913824 0.417977 0.174795
O O2 0.421999 0.562160 0.201643
O O3 0.657976 0.179424 0.877022
O O4 0.487587 0.217100 0.000120
O O5 0.838624 0.541752 0.379322
O O6 0.348920 0.464874 0.321903
O O7 0.021279 0.130768 0.037318
O O8 0.380531 0.221247 0.357099
O O9 0.713214 0.096396 0.201903
O O10 0.872623 0.021721 0.267783
O O11 0.972264 0.786336 0.379561
O O12 0.500000 0.000000 0.500000
O O13 0.763658 0.012621 0.639067
O O14 0.925096 0.229586 0.734656
O O15 0.032277 0.621144 0.002118
O O16 0.188808 0.664521 0.690915
O O17 0.500000 0.000000 0.000000
#
# Coordination Sequence:
#
# PCOD9020103 Si02
#       8
#     2   2   2   2   2   2   2   2
#     4  11  24  44  69  97 145 187 234 292 360 435
#     4  11  24  44  70 102 141 192 240 298 365 434
#     4  11  25  44  64 105 140 185 240 301 361 425
#     4  11  25  46  73 105 141 178 239 289 361 435
#     4  11  25  45  69 100 144 185 236 293 362 429
#     4  11  26  42  71 103 143 188 247 308 360 430
#     4  10  21  46  70  98 138 191 241 296 363 431
#     4  10  25  45  71 103 137 189 228 295 355 438
#
# _framework density 24.933250999999998
#
# number of rings (size 3 to 8) (size 9 to 14) (size 15 to 20)
#    0.000    1.250    1.250    3.375    5.250    8.000 
#    0.000    3.750    0.000    0.000    0.000    0.000 
#    0.000    0.000    0.000    0.000    0.000    0.000 
#
# Total GULP energy -89666.710726 kJ/mol
# GULP energy per Si atom -5604.169420 kJ/mol
# Density = 2.487650 g / cm^3
# Si number density = 24.933251 Si / 1000 Ang^3
#
#
#
# Elastic Constant Matrix: (Units=GPa)
#
#
# Indices 1 2 3 4 5 6 
#
# 1 101.5051 29.2529 23.9796 -7.9698 -26.3304 -1.1811
# 2 29.2529 124.5393 35.8149 -14.6550 -10.7772 2.8145
# 3 23.9796 35.8149 99.5323 11.0589 -20.5194 2.9079
# 4 -7.9698 -14.6550 11.0589 47.4979 0.8917 -4.8570
# 5 -26.3304 -10.7772 -20.5194 0.8917 52.1647 2.6999
# 6 -1.1811 2.8145 2.9079 -4.8570 2.6999 42.6063
#
#
#
# Elastic Compliance Matrix: (Units=1/GPa)
#
#
# Indices 1 2 3 4 5 6 
#
# 1 0.012195 -0.001807 -0.001432 0.001769 0.005166 0.000429
# 2 -0.001807 0.009878 -0.003587 0.003583 -0.000342 -0.000028
# 3 -0.001432 -0.003587 0.013022 -0.004600 0.003813 -0.001457
# 4 0.001769 0.003583 -0.004600 0.023836 -0.000733 0.002890
# 5 0.005166 -0.000342 0.003813 -0.000733 0.023305 -0.001655
# 6 0.000429 -0.000028 -0.001457 0.002890 -0.001655 0.024018
#
#
# Mechanical properties :
#
#
# Convention : Reuss Voigt Hill
#
# Bulk Modulus (GPa) = 46.63389 55.96348 51.29868
# Shear Modulus (GPa) = 39.35317 44.22241 41.78779
#
# Velocity S-wave (km/s) = 3.97714 4.21602 4.09832
# Velocity P-wave (km/s) = 6.31144 6.79660 6.55851
#
# Compressibility (1/GPa) = 0.02144363
#
# Stress axis : x y z
#
# Youngs Moduli (GPa) = 82.00216 101.23184 76.79130
#
# Poissons Ratio (x) = 0.18294 0.10994
# Poissons Ratio (y) = 0.14819 0.27545
# Poissons Ratio (z) = 0.11740 0.36312
#
# Static dielectric constant tensor:
#      x y z
#    x 1.989080 0.008300 0.061300 
#    y 0.008300 1.946480 -0.001210 
#    z 0.061300 -0.001210 1.997070 
# 
# From -- ./inp_files/576805.got.cif
#   From: 2010.05.17/outbox.cif.g08.bks.cpg/sg2_289_cif.got.tgz:576805.got - 2010.06.03 11:33:40.
