data_PCOD9020072
_publ_section_title
;
Structure prediction by ZEFSAII (Michael W. Deem and Ramdas Pophale) SiO2 
 PCOD9020072
Probable space group: P -1
;
_chemical_formula_sum "Si O2"
_cell_formula_units_Z 15
_cell_length_a 6.252310
_cell_length_b 19.611359
_cell_length_c 8.609040
_cell_angle_alpha 137.846454
_cell_angle_beta 94.049085
_cell_angle_gamma 105.545775
_cell_volume 620.504239
_symmetry_space_group_name_H-M "P -1"
_symmetry_group_IT_number 2
_symmetry_cell_setting 'triclinic'
loop_
_space_group_symop_operation_xyz
x,y,z
-x,-y,-z
loop_
_atom_site_type_symbol
_atom_site_label
_atom_site_fract_x
_atom_site_fract_y
_atom_site_fract_z
Si Si1 0.021993 0.899871 0.423652
Si Si2 0.406199 0.168977 0.512568
Si Si3 0.279325 0.535264 0.272035
Si Si4 0.208919 0.251069 0.381205
Si Si5 0.878110 0.229296 0.058077
Si Si6 0.936464 0.333980 0.718510
Si Si7 0.000000 0.500000 0.500000
Si Si8 0.517200 0.975675 0.140590
O O1 0.759008 0.814718 0.340336
O O2 0.208872 0.963993 0.681540
O O3 0.122715 0.832250 0.207181
O O4 0.000000 0.000000 0.500000
O O5 0.304443 0.173198 0.342182
O O6 0.687284 0.266815 0.688159
O O7 0.393306 0.046647 0.333088
O O8 0.559882 0.620278 0.393692
O O9 0.117712 0.589803 0.280332
O O10 0.219846 0.522284 0.426965
O O11 0.164186 0.413292 0.972344
O O12 0.092360 0.223383 0.159897
O O13 0.003244 0.251783 0.483111
O O14 0.925015 0.359404 0.265459
O O15 0.632603 0.152937 0.016826
O O16 0.500000 0.000000 0.000000
#
# Coordination Sequence:
#
# PCOD9020072 Si02
#       8
#     2   2   2   2   2   2   1   2
#     4  12  28  50  77 120 158 206 261 325 407 470
#     4  11  25  44  79 112 148 202 255 326 402 456
#     4  10  24  42  71 100 149 204 256 315 376 465
#     4  11  24  47  73 111 147 204 269 319 386 468
#     4  12  28  50  76 111 168 202 264 324 394 479
#     4  10  21  46  69 105 148 195 262 320 380 458
#     4  12  28  48  70 110 154 218 244 316 402 458
#     4  12  28  50  82 116 156 206 262 333 394 465
#
# _framework density 24.173888000000002
#
# number of rings (size 3 to 8) (size 9 to 14) (size 15 to 20)
#    0.000    0.800    2.667    3.200    7.467    2.667 
#    0.000    0.000    0.000    0.000    0.000    0.000 
#    0.000    0.000    0.000    0.000    0.000    0.000 
#
# Total GULP energy -83713.539146 kJ/mol
# GULP energy per Si atom -5580.902610 kJ/mol
# Density = 2.411887 g / cm^3
# Si number density = 24.173888 Si / 1000 Ang^3
#
#
#
# Elastic Constant Matrix: (Units=GPa)
#
#
# Indices 1 2 3 4 5 6 
#
# 1 63.1990 37.8984 23.4703 -0.5159 13.4672 17.4609
# 2 37.8984 122.5436 38.3806 25.5966 -2.5066 21.4156
# 3 23.4703 38.3806 74.6590 4.2528 9.6451 -1.4667
# 4 -0.5159 25.5966 4.2528 46.7335 -5.2880 -2.3255
# 5 13.4672 -2.5066 9.6451 -5.2880 42.3905 5.3983
# 6 17.4609 21.4156 -1.4667 -2.3255 5.3983 51.6530
#
#
#
# Elastic Compliance Matrix: (Units=1/GPa)
#
#
# Indices 1 2 3 4 5 6 
#
# 1 0.023422 -0.005954 -0.003796 0.002953 -0.005949 -0.004802
# 2 -0.005954 0.014126 -0.005556 -0.007113 0.003703 -0.004709
# 3 -0.003796 -0.005556 0.017935 0.001184 -0.003632 0.004529
# 4 0.002953 -0.007113 0.001184 0.025501 0.001170 0.003010
# 5 -0.005949 0.003703 -0.003632 0.001170 0.026976 -0.002394
# 6 -0.004802 -0.004709 0.004529 0.003010 -0.002394 0.023450
#
#
# Mechanical properties :
#
#
# Convention : Reuss Voigt Hill
#
# Bulk Modulus (GPa) = 40.20849 51.10005 45.65427
# Shear Modulus (GPa) = 29.35780 38.86555 34.11168
#
# Velocity S-wave (km/s) = 3.48867 4.01402 3.76053
# Velocity P-wave (km/s) = 5.73558 6.53205 6.14673
#
# Compressibility (1/GPa) = 0.02487037
#
# Stress axis : x y z
#
# Youngs Moduli (GPa) = 42.69529 70.79035 55.75768
#
# Poissons Ratio (x) = 0.42147 0.21167
# Poissons Ratio (y) = 0.25420 0.30980
# Poissons Ratio (z) = 0.16208 0.39332
#
# Static dielectric constant tensor:
#      x y z
#    x 1.892560 -0.020530 0.004640 
#    y -0.020530 1.942890 -0.013300 
#    z 0.004640 -0.013300 1.923300 
# 
# From -- ./inp_files/141738.got.cif
#   From: 2010.05.17/outbox.cif.g08.bks.cpg/sg2_71_cif.got.tgz:141738.got - 2010.06.03 11:33:40.
