data_PCOD9020460
_publ_section_title
;
Structure prediction by ZEFSAII (Michael W. Deem and Ramdas Pophale) SiO2 
 PCOD9020460
Probable space group: P -1
;
_chemical_formula_sum "Si O2"
_cell_formula_units_Z 16
_cell_length_a 20.653883
_cell_length_b 12.461199
_cell_length_c 4.987934
_cell_angle_alpha 84.928226
_cell_angle_beta 100.558017
_cell_angle_gamma 40.712380
_cell_volume 769.718908
_symmetry_space_group_name_H-M "P -1"
_symmetry_group_IT_number 2
_symmetry_cell_setting 'triclinic'
loop_
_space_group_symop_operation_xyz
x,y,z
-x,-y,-z
loop_
_atom_site_type_symbol
_atom_site_label
_atom_site_fract_x
_atom_site_fract_y
_atom_site_fract_z
Si Si1 0.718976 0.472104 0.156636
Si Si2 0.805785 0.474080 0.717489
Si Si3 0.958875 0.651062 0.752661
Si Si4 0.510863 0.837386 0.802325
Si Si5 0.383956 0.067798 0.178659
Si Si6 0.891966 0.070092 0.456136
Si Si7 0.833764 0.642829 0.363244
Si Si8 0.944034 0.877639 0.046857
O O1 0.780226 0.473952 0.999878
O O2 0.596014 0.630646 0.930696
O O3 0.898392 0.958523 0.288697
O O4 0.787575 0.274965 0.261829
O O5 0.801871 0.602666 0.588188
O O6 0.726149 0.514709 0.447733
O O7 0.927109 0.277347 0.802045
O O8 0.867560 0.715012 0.488061
O O9 0.927297 0.786890 0.899328
O O10 0.060867 0.544011 0.661413
O O11 0.000000 0.500000 0.000000
O O12 0.414894 0.961049 0.488751
O O13 0.581670 0.851728 0.774848
O O14 0.460014 0.925459 0.031854
O O15 0.263530 0.219361 0.946061
O O16 0.896509 0.028304 0.776403
O O17 0.000000 0.000000 0.500000
#
# Coordination Sequence:
#
# PCOD9020460 Si02
#       8
#     2   2   2   2   2   2   2   2
#     4  12  23  36  58  86 120 163 196 236 288 357
#     4  12  21  34  59  84 122 160 194 232 288 345
#     4  11  25  39  62  88 121 158 203 243 298 361
#     4  10  22  36  54  89 117 154 198 236 295 349
#     4  10  22  37  58  83 121 153 194 244 289 357
#     4  12  23  38  57  85 117 163 204 233 296 358
#     4  11  24  39  59  91 119 168 195 239 302 356
#     4  12  23  39  54  87 122 154 200 248 281 354
#
# _framework density 20.786808000000001
#
# number of rings (size 3 to 8) (size 9 to 14) (size 15 to 20)
#    0.000    0.750    5.000    3.375    7.000    0.000 
#    0.000    0.000    0.000    0.000    0.000    5.250 
#    0.000    0.000    0.000    0.000    0.000    0.000 
#
# Total GULP energy -89518.433564 kJ/mol
# GULP energy per Si atom -5594.902098 kJ/mol
# Density = 2.073950 g / cm^3
# Si number density = 20.786808 Si / 1000 Ang^3
#
#
#
# Elastic Constant Matrix: (Units=GPa)
#
#
# Indices 1 2 3 4 5 6 
#
# 1 30.7153 8.7714 11.9565 -2.7647 11.8579 10.7577
# 2 8.7714 79.6829 28.6070 -24.2444 12.1024 10.3452
# 3 11.9565 28.6070 121.7655 -19.9563 8.6615 2.6330
# 4 -2.7647 -24.2444 -19.9563 43.5400 -1.3463 4.9338
# 5 11.8579 12.1024 8.6615 -1.3463 35.7011 2.5793
# 6 10.7577 10.3452 2.6330 4.9338 2.5793 16.9666
#
#
#
# Elastic Compliance Matrix: (Units=1/GPa)
#
#
# Indices 1 2 3 4 5 6 
#
# 1 0.051089 0.004668 -0.002989 0.007953 -0.015012 -0.034806
# 2 0.004668 0.019622 -0.002322 0.011914 -0.005952 -0.017123
# 3 -0.002989 -0.002322 0.009512 0.002735 -0.000505 0.001117
# 4 0.007953 0.011914 0.002735 0.033697 -0.004495 -0.021847
# 5 -0.015012 -0.005952 -0.000505 -0.004495 0.034294 0.009319
# 6 -0.034806 -0.017123 0.001117 -0.021847 0.009319 0.096211
#
#
# Mechanical properties :
#
#
# Convention : Reuss Voigt Hill
#
# Bulk Modulus (GPa) = 12.66849 36.75928 24.71389
# Shear Modulus (GPa) = 18.38080 31.43014 24.90547
#
# Velocity S-wave (km/s) = 2.97687 3.89269 3.46517
# Velocity P-wave (km/s) = 4.23360 6.15844 5.28440
#
# Compressibility (1/GPa) = 0.07893598
#
# Stress axis : x y z
#
# Youngs Moduli (GPa) = 19.57356 50.96396 105.13579
#
# Poissons Ratio (x) = -0.23790 0.31429
# Poissons Ratio (y) = -0.09137 0.24411
# Poissons Ratio (z) = 0.05851 0.11833
#
# Static dielectric constant tensor:
#      x y z
#    x 1.749900 0.007430 -0.008610 
#    y 0.007430 1.785410 0.012560 
#    z -0.008610 0.012560 1.768650 
# 
# From -- ./inp_files/118176.got.cif
#   From: 2010.05.17/outbox.cif.g08.bks.cpg/sg2_60_cif.got.tgz:118176.got - 2010.06.03 11:33:40.
