data_PCOD9020551
_publ_section_title
;
Structure prediction by ZEFSAII (Michael W. Deem and Ramdas Pophale) SiO2 
 PCOD9020551
Probable space group: P -1
;
_chemical_formula_sum "Si O2"
_cell_formula_units_Z 14
_cell_length_a 13.173084
_cell_length_b 9.327077
_cell_length_c 9.072669
_cell_angle_alpha 107.993805
_cell_angle_beta 119.292406
_cell_angle_gamma 120.993720
_cell_volume 551.044218
_symmetry_space_group_name_H-M "P -1"
_symmetry_group_IT_number 2
_symmetry_cell_setting 'triclinic'
loop_
_space_group_symop_operation_xyz
x,y,z
-x,-y,-z
loop_
_atom_site_type_symbol
_atom_site_label
_atom_site_fract_x
_atom_site_fract_y
_atom_site_fract_z
Si Si1 0.789309 0.981622 0.059717
Si Si2 0.142360 0.198159 0.493584
Si Si3 0.280224 0.332405 0.300635
Si Si4 0.887523 0.326949 0.040810
Si Si5 0.799547 0.305577 0.396103
Si Si6 0.940842 0.690683 0.087969
Si Si7 0.528597 0.280906 0.053327
O O1 0.756911 0.109528 0.001770
O O2 0.837358 0.929556 0.936675
O O3 0.594360 0.742944 0.929780
O O4 0.963009 0.128594 0.342014
O O5 0.228223 0.303585 0.422703
O O6 0.308990 0.429725 0.798226
O O7 0.049117 0.933070 0.337483
O O8 0.500000 0.500000 0.500000
O O9 0.215367 0.394948 0.160766
O O10 0.835617 0.447422 0.025101
O O11 0.104527 0.547182 0.334795
O O12 0.902601 0.245261 0.876495
O O13 0.665558 0.296453 0.229819
O O14 0.000000 0.500000 0.500000
O O15 0.655528 0.011955 0.229342
#
# Coordination Sequence:
#
# PCOD9020551 Si02
#       7
#     2   2   2   2   2   2   2
#     4  11  19  34  61  87 119 152 198 249 289 352
#     4  11  19  37  58  88 119 156 202 241 293 354
#     4  11  19  33  60  90 117 156 205 240 291 360
#     4  11  20  39  58  88 125 157 191 244 314 347
#     4  11  22  38  61  90 118 156 201 251 288 351
#     4  10  22  36  60  89 126 158 185 248 312 353
#     4  11  21  34  63  92 109 151 213 245 286 340
#
# _framework density 25.406310999999999
#
# number of rings (size 3 to 8) (size 9 to 14) (size 15 to 20)
#    0.000    1.143    7.143    0.857    0.000    0.000 
#    0.000    2.857    0.000    7.714    0.000    0.000 
#    0.000    0.000    0.000    0.000    0.000    0.000 
#
# Total GULP energy -78009.528468 kJ/mol
# GULP energy per Si atom -5572.109176 kJ/mol
# Density = 2.534849 g / cm^3
# Si number density = 25.406311 Si / 1000 Ang^3
#
#
#
# Elastic Constant Matrix: (Units=GPa)
#
#
# Indices 1 2 3 4 5 6 
#
# 1 82.5513 23.2954 24.1433 7.0573 13.6064 -12.8160
# 2 23.2954 137.0143 24.5497 5.3152 6.4030 -28.2618
# 3 24.1433 24.5497 92.1282 28.7786 15.7607 5.9457
# 4 7.0573 5.3152 28.7786 36.0013 -8.2489 -3.9233
# 5 13.6064 6.4030 15.7607 -8.2489 48.6995 7.3846
# 6 -12.8160 -28.2618 5.9457 -3.9233 7.3846 34.4192
#
#
#
# Elastic Compliance Matrix: (Units=1/GPa)
#
#
# Indices 1 2 3 4 5 6 
#
# 1 0.014971 -0.000328 -0.003474 -0.000311 -0.004091 0.006748
# 2 -0.000328 0.009840 -0.003671 0.002305 -0.000999 0.009069
# 3 -0.003474 -0.003671 0.019666 -0.016889 -0.006524 -0.008230
# 4 -0.000311 0.002305 -0.016889 0.044466 0.011681 0.007257
# 5 -0.004091 -0.000999 -0.006524 0.011681 0.026751 -0.005625
# 6 0.006748 0.009069 -0.008230 0.007257 -0.005625 0.042468
#
#
# Mechanical properties :
#
#
# Convention : Reuss Voigt Hill
#
# Bulk Modulus (GPa) = 33.86234 50.63007 42.24621
# Shear Modulus (GPa) = 27.32975 39.80435 33.56705
#
# Velocity S-wave (km/s) = 3.28336 3.96246 3.63879
# Velocity P-wave (km/s) = 5.26604 6.39580 5.85822
#
# Compressibility (1/GPa) = 0.02953133
#
# Stress axis : x y z
#
# Youngs Moduli (GPa) = 66.79683 101.62881 50.84880
#
# Poissons Ratio (x) = 0.03331 0.17667
# Poissons Ratio (y) = 0.02189 0.18664
# Poissons Ratio (z) = 0.23208 0.37303
#
# Static dielectric constant tensor:
#      x y z
#    x 2.022210 -0.052150 -0.098580 
#    y -0.052150 2.085110 0.057610 
#    z -0.098580 0.057610 2.145610 
# 
# From -- ./inp_files/255858.got.cif
#   From: 2010.05.17/outbox.cif.g08.bks.cpg/sg2_128_cif.got.tgz:255858.got - 2010.06.03 11:33:40.
