data_PCOD9020025
_publ_section_title
;
Structure prediction by ZEFSAII (Michael W. Deem and Ramdas Pophale) SiO2 
 PCOD9020025
Probable space group: P -1
;
_chemical_formula_sum "Si O2"
_cell_formula_units_Z 15
_cell_length_a 4.956706
_cell_length_b 14.360059
_cell_length_c 10.696742
_cell_angle_alpha 55.407286
_cell_angle_beta 113.045558
_cell_angle_gamma 85.577010
_cell_volume 529.803018
_symmetry_space_group_name_H-M "P -1"
_symmetry_group_IT_number 2
_symmetry_cell_setting 'triclinic'
loop_
_space_group_symop_operation_xyz
x,y,z
-x,-y,-z
loop_
_atom_site_type_symbol
_atom_site_label
_atom_site_fract_x
_atom_site_fract_y
_atom_site_fract_z
Si Si1 0.548397 0.376743 0.184044
Si Si2 0.922385 0.886081 0.616347
Si Si3 0.913383 0.667406 0.023806
Si Si4 0.130228 0.561225 0.373663
Si Si5 0.500000 0.000000 0.000000
Si Si6 0.940522 0.266624 0.568725
Si Si7 0.565387 0.109883 0.670363
Si Si8 0.310602 0.812224 0.966720
O O1 0.824161 0.248921 0.280025
O O2 0.660335 0.364169 0.358698
O O3 0.500000 0.500000 0.000000
O O4 0.218069 0.358100 0.111576
O O5 0.592386 0.903680 0.478938
O O6 0.982206 0.881848 0.777790
O O7 0.000000 0.000000 0.500000
O O8 0.607020 0.768701 0.958636
O O9 0.995850 0.553625 0.220256
O O10 0.232060 0.693804 0.075903
O O11 0.500000 0.500000 0.500000
O O12 0.028997 0.696258 0.312223
O O13 0.000000 0.500000 0.500000
O O14 0.408235 0.989222 0.142776
O O15 0.364467 0.893985 0.020601
O O16 0.864560 0.144775 0.667504
O O17 0.275740 0.230236 0.586823
#
# Coordination Sequence:
#
# PCOD9020025 Si02
#       8
#     2   2   2   2   1   2   2   2
#     4  10  23  44  74 105 141 191 243 293 353 433
#     4  10  21  46  66 104 142 187 225 297 361 417
#     4  11  24  45  65 100 138 181 231 294 352 416
#     4  12  24  41  66  95 134 185 227 286 353 417
#     4  12  24  42  68 102 136 184 238 290 346 432
#     4  11  24  45  65 100 138 181 231 294 352 416
#     4  11  24  42  68  98 137 182 230 289 355 418
#     4  11  24  42  68  98 137 182 230 289 355 418
#
# _framework density 28.312408000000001
#
# number of rings (size 3 to 8) (size 9 to 14) (size 15 to 20)
#    0.000    1.067    1.333    4.800    0.000    4.267 
#    0.000    8.667    0.000    0.000    0.000    0.000 
#    0.000    0.000    0.000    0.000    0.000    0.000 
#
# Total GULP energy -83728.357862 kJ/mol
# GULP energy per Si atom -5581.890524 kJ/mol
# Density = 2.824797 g / cm^3
# Si number density = 28.312408 Si / 1000 Ang^3
#
#
#
# Elastic Constant Matrix: (Units=GPa)
#
#
# Indices 1 2 3 4 5 6 
#
# 1 120.9892 23.4457 1.6196 -16.7312 -2.2986 3.0544
# 2 23.4457 103.0900 17.4061 6.3208 11.4896 14.3143
# 3 1.6196 17.4061 153.6645 3.4336 -13.8396 -13.9208
# 4 -16.7312 6.3208 3.4336 55.8723 0.1567 -7.4838
# 5 -2.2986 11.4896 -13.8396 0.1567 44.3635 -19.3091
# 6 3.0544 14.3143 -13.9208 -7.4838 -19.3091 36.9296
#
#
#
# Elastic Compliance Matrix: (Units=1/GPa)
#
#
# Indices 1 2 3 4 5 6 
#
# 1 0.009328 -0.003151 0.000685 0.003481 0.002740 0.002847
# 2 -0.003151 0.014276 -0.003633 -0.004051 -0.010652 -0.013033
# 3 0.000685 -0.003633 0.008315 0.001229 0.007285 0.008544
# 4 0.003481 -0.004051 0.001229 0.020470 0.005316 0.008674
# 5 0.002740 -0.010652 0.007285 0.005316 0.040209 0.028749
# 6 0.002847 -0.013033 0.008544 0.008674 0.028749 0.051905
#
#
# Mechanical properties :
#
#
# Convention : Reuss Voigt Hill
#
# Bulk Modulus (GPa) = 50.70937 51.40960 51.05949
# Shear Modulus (GPa) = 30.62324 49.78456 40.20390
#
# Velocity S-wave (km/s) = 3.29237 4.19788 3.77239
# Velocity P-wave (km/s) = 5.69231 6.45706 6.08671
#
# Compressibility (1/GPa) = 0.01972022
#
# Stress axis : x y z
#
# Youngs Moduli (GPa) = 107.20032 70.04886 120.26933
#
# Poissons Ratio (x) = 0.22075 -0.08244
# Poissons Ratio (y) = 0.33783 0.43699
# Poissons Ratio (z) = -0.07349 0.25452
#
# Static dielectric constant tensor:
#      x y z
#    x 2.211500 -0.125340 -0.137710 
#    y -0.125340 1.656220 -0.661670 
#    z -0.137710 -0.661670 2.290230 
# 
# From -- ./inp_files/366752.got.cif
#   From: 2010.05.17/outbox.cif.g08.bks.cpg/sg2_184_cif.got.tgz:366752.got - 2010.06.03 11:33:40.
