data_PCOD9020616
_publ_section_title
;
Structure prediction by ZEFSAII (Michael W. Deem and Ramdas Pophale) SiO2 
 PCOD9020616
Probable space group: P -1
;
_chemical_formula_sum "Si O2"
_cell_formula_units_Z 14
_cell_length_a 8.745329
_cell_length_b 7.852340
_cell_length_c 18.707205
_cell_angle_alpha 131.053125
_cell_angle_beta 142.162908
_cell_angle_gamma 69.687049
_cell_volume 551.884962
_symmetry_space_group_name_H-M "P -1"
_symmetry_group_IT_number 2
_symmetry_cell_setting 'triclinic'
loop_
_space_group_symop_operation_xyz
x,y,z
-x,-y,-z
loop_
_atom_site_type_symbol
_atom_site_label
_atom_site_fract_x
_atom_site_fract_y
_atom_site_fract_z
Si Si1 0.758720 0.723026 0.628185
Si Si2 0.256760 0.674264 0.740228
Si Si3 0.372618 0.401652 0.037182
Si Si4 0.918024 0.692512 0.235413
Si Si5 0.560535 0.279889 0.616640
Si Si6 0.876610 0.143289 0.406421
Si Si7 0.385699 0.846540 0.242713
O O1 0.500000 0.500000 0.500000
O O2 0.677577 0.679245 0.501242
O O3 0.057160 0.727758 0.737744
O O4 0.752157 0.966874 0.730721
O O5 0.538946 0.717764 0.895311
O O6 0.267165 0.809929 0.705913
O O7 0.095271 0.390039 0.584284
O O8 0.654336 0.520149 0.130947
O O9 0.275009 0.619956 0.084645
O O10 0.167067 0.253077 0.860171
O O11 0.153396 0.591488 0.281898
O O12 0.002539 0.942479 0.378860
O O13 0.584876 0.292960 0.713244
O O14 0.500000 0.000000 0.500000
O O15 0.654013 0.022602 0.351149
#
# Coordination Sequence:
#
# PCOD9020616 Si02
#       7
#     2   2   2   2   2   2   2
#     4  11  21  37  58  93 128 157 195 261 311 359
#     4  11  23  38  62  95 123 160 202 255 319 354
#     4  10  24  40  67  89 122 167 205 252 297 374
#     4  10  22  44  62  91 124 163 210 247 306 362
#     4  10  22  36  63  90 122 160 202 256 305 354
#     4  10  22  37  63  90 125 157 208 259 296 367
#     4  10  22  38  61  89 121 162 206 250 301 360
#
# _framework density 25.367605000000001
#
# number of rings (size 3 to 8) (size 9 to 14) (size 15 to 20)
#    0.000    1.714    1.429    2.571   10.000    2.286 
#    0.000    0.000    3.143    4.286    0.000    0.000 
#    0.000    0.000    0.000    0.000    0.000    0.000 
#
# Total GULP energy -78264.701112 kJ/mol
# GULP energy per Si atom -5590.335794 kJ/mol
# Density = 2.530987 g / cm^3
# Si number density = 25.367605 Si / 1000 Ang^3
#
#
#
# Elastic Constant Matrix: (Units=GPa)
#
#
# Indices 1 2 3 4 5 6 
#
# 1 158.9870 38.1509 29.8326 6.2554 -5.0956 -12.9050
# 2 38.1509 61.0743 23.4079 -14.9950 -7.6976 -6.3711
# 3 29.8326 23.4079 78.9685 -15.2686 -18.4747 -17.4752
# 4 6.2554 -14.9950 -15.2686 36.3646 -0.4533 -3.3422
# 5 -5.0956 -7.6976 -18.4747 -0.4533 39.5330 4.0038
# 6 -12.9050 -6.3711 -17.4752 -3.3422 4.0038 58.8976
#
#
#
# Elastic Compliance Matrix: (Units=1/GPa)
#
#
# Indices 1 2 3 4 5 6 
#
# 1 0.008270 -0.005454 -0.002694 -0.004797 -0.001334 0.000241
# 2 -0.005454 0.023481 -0.002065 0.009891 0.002906 0.001096
# 3 -0.002694 -0.002065 0.018634 0.007958 0.007579 0.004652
# 4 -0.004797 0.009891 0.007958 0.036183 0.005027 0.004091
# 5 -0.001334 0.002906 0.007579 0.005027 0.029231 0.000569
# 6 0.000241 0.001096 0.004652 0.004091 0.000569 0.018724
#
#
# Mechanical properties :
#
#
# Convention : Reuss Voigt Hill
#
# Bulk Modulus (GPa) = 33.37874 53.53474 43.45674
# Shear Modulus (GPa) = 30.31517 40.80161 35.55839
#
# Velocity S-wave (km/s) = 3.46068 4.01485 3.74802
# Velocity P-wave (km/s) = 5.39953 6.53004 5.99151
#
# Compressibility (1/GPa) = 0.02995919
#
# Stress axis : x y z
#
# Youngs Moduli (GPa) = 120.92497 42.58788 53.66504
#
# Poissons Ratio (x) = 0.23228 0.14455
# Poissons Ratio (y) = 0.65954 0.11082
# Poissons Ratio (z) = 0.32573 0.08794
#
# Static dielectric constant tensor:
#      x y z
#    x 2.052780 0.023330 0.018030 
#    y 0.023330 2.075180 -0.060930 
#    z 0.018030 -0.060930 1.991700 
# 
# From -- ./inp_files/557520.got.cif
#   From: 2010.05.17/outbox.cif.g08.bks.cpg/sg2_279_cif.got.tgz:557520.got - 2010.06.03 11:33:40.
