data_PCOD9020004
_publ_section_title
;
Structure prediction by ZEFSAII (Michael W. Deem and Ramdas Pophale) SiO2 
 PCOD9020004
Probable space group: P -1
;
_chemical_formula_sum "Si O2"
_cell_formula_units_Z 14
_cell_length_a 5.260250
_cell_length_b 14.687547
_cell_length_c 8.122981
_cell_angle_alpha 124.169210
_cell_angle_beta 102.081861
_cell_angle_gamma 85.785915
_cell_volume 506.995539
_symmetry_space_group_name_H-M "P -1"
_symmetry_group_IT_number 2
_symmetry_cell_setting 'triclinic'
loop_
_space_group_symop_operation_xyz
x,y,z
-x,-y,-z
loop_
_atom_site_type_symbol
_atom_site_label
_atom_site_fract_x
_atom_site_fract_y
_atom_site_fract_z
Si Si1 0.301058 0.907738 0.962798
Si Si2 0.396180 0.712900 0.990484
Si Si3 0.872872 0.567143 0.693968
Si Si4 0.495481 0.369972 0.567943
Si Si5 0.250675 0.923332 0.343005
Si Si6 0.138075 0.811508 0.518957
Si Si7 0.815619 0.599331 0.123347
O O1 0.441234 0.800043 0.937980
O O2 0.105975 0.859969 0.746887
O O3 0.178443 0.942194 0.159267
O O4 0.500000 0.000000 0.000000
O O5 0.677111 0.633514 0.623025
O O6 0.123325 0.641506 0.868827
O O7 0.349221 0.797933 0.217044
O O8 0.724542 0.460812 0.650385
O O9 0.000000 0.500000 0.500000
O O10 0.645813 0.643615 0.992312
O O11 0.586778 0.247487 0.488021
O O12 0.374349 0.422448 0.769456
O O13 0.092391 0.907010 0.476308
O O14 0.500000 0.000000 0.500000
O O15 0.963988 0.708091 0.326545
O O16 0.000000 0.500000 0.000000
#
# Coordination Sequence:
#
# PCOD9020004 Si02
#       7
#     2   2   2   2   2   2   2
#     4  10  21  45  85 114 155 213 272 350 428 494
#     4  10  24  50  77 119 166 217 273 341 418 497
#     4  11  25  48  77 112 164 214 278 346 410 500
#     4  11  25  49  76 112 163 220 277 341 415 498
#     4  10  22  47  82 118 160 209 277 353 423 500
#     4  12  24  50  78 113 169 211 278 344 413 499
#     4  12  29  51  77 118 174 230 279 337 414 503
#
# _framework density 27.613654
#
# number of rings (size 3 to 8) (size 9 to 14) (size 15 to 20)
#    0.857    0.286    2.857    2.571    2.000    3.429 
#   10.286    2.857    0.000    4.286    0.000    0.000 
#    0.000    0.000    0.000    0.000    0.000    0.000 
#
# Total GULP energy -78166.365527 kJ/mol
# GULP energy per Si atom -5583.311823 kJ/mol
# Density = 2.755080 g / cm^3
# Si number density = 27.613654 Si / 1000 Ang^3
#
#
#
# Elastic Constant Matrix: (Units=GPa)
#
#
# Indices 1 2 3 4 5 6 
#
# 1 101.8504 75.4401 39.6402 -8.9764 32.9698 7.7330
# 2 75.4401 232.7938 68.6536 -43.0389 19.6916 -1.6823
# 3 39.6402 68.6536 187.9876 -27.8035 35.8692 3.4147
# 4 -8.9764 -43.0389 -27.8035 46.8082 22.8188 7.6348
# 5 32.9698 19.6916 35.8692 22.8188 44.8001 -12.8645
# 6 7.7330 -1.6823 3.4147 7.6348 -12.8645 65.2441
#
#
#
# Elastic Compliance Matrix: (Units=1/GPa)
#
#
# Indices 1 2 3 4 5 6 
#
# 1 0.035292 0.001368 0.016565 0.060747 -0.078716 -0.027644
# 2 0.001368 0.008360 0.003879 0.021399 -0.020616 -0.006719
# 3 0.016565 0.003879 0.021496 0.055155 -0.065627 -0.022382
# 4 0.060747 0.021399 0.055155 0.209211 -0.227481 -0.078870
# 5 -0.078716 -0.020616 -0.065627 -0.227481 0.285017 0.095050
# 6 -0.027644 -0.006719 -0.022382 -0.078870 0.095050 0.047572
#
#
# Mechanical properties :
#
#
# Convention : Reuss Voigt Hill
#
# Bulk Modulus (GPa) = 9.19364 98.89996 54.04680
# Shear Modulus (GPa) = 8.33914 53.96367 31.15140
#
# Velocity S-wave (km/s) = 1.73968 4.42547 3.36239
# Velocity P-wave (km/s) = 2.71513 7.87442 5.88975
#
# Compressibility (1/GPa) = 0.10877086
#
# Stress axis : x y z
#
# Youngs Moduli (GPa) = 28.33514 119.61663 46.52037
#
# Poissons Ratio (x) = -0.16358 -0.77060
# Poissons Ratio (y) = -0.03875 -0.18046
# Poissons Ratio (z) = -0.46937 -0.46401
#
# Static dielectric constant tensor:
#      x y z
#    x 2.197690 -0.124620 -0.025270 
#    y -0.124620 2.445890 -0.190760 
#    z -0.025270 -0.190760 2.314470 
# 
# From -- ./inp_files/138188.got.cif
#   From: 2010.05.17/outbox.cif.g08.bks.cpg/sg2_70_cif.got.tgz:138188.got - 2010.06.03 11:33:40.
