data_PCOD9020309
_publ_section_title
;
Structure prediction by ZEFSAII (Michael W. Deem and Ramdas Pophale) SiO2 
 PCOD9020309
Probable space group: P -1
;
_chemical_formula_sum "Si O2"
_cell_formula_units_Z 16
_cell_length_a 16.471967
_cell_length_b 13.423621
_cell_length_c 20.332635
_cell_angle_alpha 42.456022
_cell_angle_beta 17.222010
_cell_angle_gamma 43.563558
_cell_volume 894.061774
_symmetry_space_group_name_H-M "P -1"
_symmetry_group_IT_number 2
_symmetry_cell_setting 'triclinic'
loop_
_space_group_symop_operation_xyz
x,y,z
-x,-y,-z
loop_
_atom_site_type_symbol
_atom_site_label
_atom_site_fract_x
_atom_site_fract_y
_atom_site_fract_z
Si Si1 0.152490 0.148107 0.944275
Si Si2 0.812447 0.389837 0.737505
Si Si3 0.875504 0.908774 0.334369
Si Si4 0.152658 0.342141 0.980534
Si Si5 0.608496 0.282278 0.225102
Si Si6 0.774754 0.455733 0.890962
Si Si7 0.599820 0.526591 0.590769
Si Si8 0.345633 0.795678 0.560933
O O1 0.190466 0.235156 0.940468
O O2 0.420657 0.165791 0.687103
O O3 0.887457 0.226321 0.073726
O O4 0.083800 0.979578 0.089243
O O5 0.815724 0.413702 0.802793
O O6 0.000000 0.500000 0.500000
O O7 0.950586 0.224528 0.697327
O O8 0.488721 0.423145 0.955895
O O9 0.614559 0.836543 0.541876
O O10 0.757375 0.053046 0.395795
O O11 0.434760 0.385747 0.771402
O O12 0.000000 0.500000 0.000000
O O13 0.918203 0.267240 0.238855
O O14 0.471364 0.422316 0.304431
O O15 0.687541 0.324233 0.069561
O O16 0.073453 0.498474 0.661127
O O17 0.477699 0.667201 0.571414
#
# Coordination Sequence:
#
# PCOD9020309 Si02
#       8
#     2   2   2   2   2   2   2   2
#     4  11  22  35  56  89 121 157 191 225 291 351
#     4  11  23  42  58  79 119 151 198 240 279 337
#     4  11  23  36  56  83 122 156 184 235 289 345
#     4   9  19  36  54  81 121 156 190 234 282 334
#     4  12  21  35  55  88 124 148 184 235 285 346
#     4  11  23  36  61  87 108 157 196 230 291 339
#     4  11  20  37  56  86 122 150 194 236 283 339
#     4  10  22  34  55  84 117 159 187 227 288 343
#
# _framework density 17.895855000000001
#
# number of rings (size 3 to 8) (size 9 to 14) (size 15 to 20)
#    0.000    1.250    7.500    0.375    1.750    3.500 
#    0.000    0.000    0.000    3.000    0.000   15.750 
#    0.000    0.000    0.000    0.000    0.000    0.000 
#
# Total GULP energy -89153.433807 kJ/mol
# GULP energy per Si atom -5572.089613 kJ/mol
# Density = 1.785512 g / cm^3
# Si number density = 17.895855 Si / 1000 Ang^3
#
#
#
# Elastic Constant Matrix: (Units=GPa)
#
#
# Indices 1 2 3 4 5 6 
#
# 1 51.3485 37.5678 54.9872 -13.7035 -1.3727 2.7886
# 2 37.5678 65.2496 63.4850 -2.7510 -19.7189 2.8991
# 3 54.9872 63.4850 186.9263 -18.1636 -11.1308 3.4152
# 4 -13.7035 -2.7510 -18.1636 29.9651 -4.0054 -9.9727
# 5 -1.3727 -19.7189 -11.1308 -4.0054 42.3443 -3.0318
# 6 2.7886 2.8991 3.4152 -9.9727 -3.0318 23.2360
#
#
#
# Elastic Compliance Matrix: (Units=1/GPa)
#
#
# Indices 1 2 3 4 5 6 
#
# 1 0.045815 -0.024616 -0.004161 0.016248 -0.009252 0.003951
# 2 -0.024616 0.039934 -0.006415 -0.010751 0.014826 -0.003765
# 3 -0.004161 -0.006415 0.009039 0.003407 -0.000324 0.001391
# 4 0.016248 -0.010751 0.003407 0.048944 0.002493 0.020222
# 5 -0.009252 0.014826 -0.000324 0.002493 0.030685 0.004382
# 6 0.003951 -0.003765 0.001391 0.020222 0.004382 0.052079
#
#
# Mechanical properties :
#
#
# Convention : Reuss Voigt Hill
#
# Bulk Modulus (GPa) = 40.97679 68.40049 54.68864
# Shear Modulus (GPa) = 16.39276 28.94136 22.66706
#
# Velocity S-wave (km/s) = 3.02985 4.02582 3.56281
# Velocity P-wave (km/s) = 5.93187 7.74041 6.89569
#
# Compressibility (1/GPa) = 0.02440406
#
# Stress axis : x y z
#
# Youngs Moduli (GPa) = 21.82710 25.04123 110.63652
#
# Poissons Ratio (x) = 0.61641 0.46038
# Poissons Ratio (y) = 0.53729 0.70968
# Poissons Ratio (z) = 0.09083 0.16063
#
# Static dielectric constant tensor:
#      x y z
#    x 1.688110 0.001070 0.047510 
#    y 0.001070 1.610360 0.019100 
#    z 0.047510 0.019100 1.690720 
# 
# From -- ./inp_files/517861.got.cif
#   From: 2010.05.17/outbox.cif.g08.bks.cpg/sg2_259_cif.got.tgz:517861.got - 2010.06.03 11:33:40.
