data_PCOD9020010
_publ_section_title
;
Structure prediction by ZEFSAII (Michael W. Deem and Ramdas Pophale) SiO2 
 PCOD9020010
Probable space group: P -1
;
_chemical_formula_sum "Si O2"
_cell_formula_units_Z 16
_cell_length_a 19.516271
_cell_length_b 5.427852
_cell_length_c 21.942571
_cell_angle_alpha 112.867147
_cell_angle_beta 162.087746
_cell_angle_gamma 69.110878
_cell_volume 657.995546
_symmetry_space_group_name_H-M "P -1"
_symmetry_group_IT_number 2
_symmetry_cell_setting 'triclinic'
loop_
_space_group_symop_operation_xyz
x,y,z
-x,-y,-z
loop_
_atom_site_type_symbol
_atom_site_label
_atom_site_fract_x
_atom_site_fract_y
_atom_site_fract_z
Si Si1 0.898526 0.306003 0.704459
Si Si2 0.840216 0.430050 0.800309
Si Si3 0.257703 0.004835 0.239421
Si Si4 0.734553 0.774782 0.093443
Si Si5 0.622346 0.671570 0.296628
Si Si6 0.644989 0.915852 0.224614
Si Si7 0.027088 0.360826 0.593333
Si Si8 0.619882 0.751843 0.440835
O O1 0.958649 0.413363 0.833427
O O2 0.755727 0.528476 0.570163
O O3 0.100809 0.235580 0.825337
O O4 0.760814 0.028884 0.574262
O O5 0.737423 0.137078 0.704224
O O6 0.682292 0.680124 0.684865
O O7 0.000000 0.500000 0.000000
O O8 0.403609 0.827845 0.302502
O O9 0.000000 0.000000 0.000000
O O10 0.867946 0.727870 0.263033
O O11 0.548335 0.536916 0.901603
O O12 0.590803 0.038603 0.001048
O O13 0.604019 0.932244 0.264143
O O14 0.886354 0.618998 0.510673
O O15 0.558947 0.661506 0.312144
O O16 0.772210 0.653471 0.286405
O O17 0.827142 0.149260 0.384919
#
# Coordination Sequence:
#
# PCOD9020010 Si02
#       8
#     2   2   2   2   2   2   2   2
#     4  12  27  46  73 103 143 189 232 297 359 426
#     4  10  23  43  69 100 135 177 227 288 346 419
#     4  10  23  43  69 100 134 180 225 290 345 423
#     4  11  25  41  69 103 140 188 244 289 360 427
#     4  11  25  41  69 102 138 191 239 293 361 424
#     4  10  23  40  72  98 141 188 237 297 358 425
#     4  10  21  46  64 102 142 182 236 303 356 425
#     4  12  27  46  73 102 145 186 235 294 361 427
#
# _framework density 24.316272999999999
#
# number of rings (size 3 to 8) (size 9 to 14) (size 15 to 20)
#    0.000    1.250    1.250    3.000    7.000    6.500 
#    0.000    0.000    0.000    0.000    0.000    0.000 
#    0.000    0.000    0.000    0.000    0.000    0.000 
#
# Total GULP energy -89441.931602 kJ/mol
# GULP energy per Si atom -5590.120725 kJ/mol
# Density = 2.426093 g / cm^3
# Si number density = 24.316273 Si / 1000 Ang^3
#
#
#
# Elastic Constant Matrix: (Units=GPa)
#
#
# Indices 1 2 3 4 5 6 
#
# 1 163.9062 17.1101 39.8029 -21.2523 4.3537 3.1303
# 2 17.1101 99.0140 31.5606 -13.6341 8.5588 22.9649
# 3 39.8029 31.5606 116.2017 -24.1962 8.0368 -2.2999
# 4 -21.2523 -13.6341 -24.1962 36.9527 -6.9996 -2.8752
# 5 4.3537 8.5588 8.0368 -6.9996 41.0676 -4.8342
# 6 3.1303 22.9649 -2.2999 -2.8752 -4.8342 41.4212
#
#
#
# Elastic Compliance Matrix: (Units=1/GPa)
#
#
# Indices 1 2 3 4 5 6 
#
# 1 0.006907 -0.000191 -0.001754 0.002744 0.000082 -0.000314
# 2 -0.000191 0.013434 -0.003210 0.001606 -0.002799 -0.007827
# 3 -0.001754 -0.003210 0.011265 0.005392 -0.000089 0.002902
# 4 0.002744 0.001606 0.005392 0.033738 0.004311 0.002047
# 5 0.000082 -0.002799 -0.000089 0.004311 0.026254 0.004904
# 6 -0.000314 -0.007827 0.002902 0.002047 0.004904 0.029381
#
#
# Mechanical properties :
#
#
# Convention : Reuss Voigt Hill
#
# Bulk Modulus (GPa) = 46.96018 61.78546 54.37282
# Shear Modulus (GPa) = 36.13006 43.26485 39.69746
#
# Velocity S-wave (km/s) = 3.85884 4.22270 4.04486
# Velocity P-wave (km/s) = 6.26166 7.01706 6.65009
#
# Compressibility (1/GPa) = 0.02129464
#
# Stress axis : x y z
#
# Youngs Moduli (GPa) = 144.78861 74.43592 88.77159
#
# Poissons Ratio (x) = 0.01420 0.15574
# Poissons Ratio (y) = 0.02762 0.28500
# Poissons Ratio (z) = 0.25402 0.23897
#
# Static dielectric constant tensor:
#      x y z
#    x 1.956990 0.005120 0.000050 
#    y 0.005120 2.248070 0.311200 
#    z 0.000050 0.311200 2.350480 
# 
# From -- ./inp_files/55596.got.cif
#   From: 2010.05.17/outbox.cif.g08.bks.cpg/sg2_28_cif.got.tgz:55596.got - 2010.06.03 11:33:40.
