data_PCOD9020144
_publ_section_title
;
Structure prediction by ZEFSAII (Michael W. Deem and Ramdas Pophale) SiO2 
 PCOD9020144
Probable space group: P -1
;
_chemical_formula_sum "Si O2"
_cell_formula_units_Z 16
_cell_length_a 9.186163
_cell_length_b 12.218798
_cell_length_c 15.579447
_cell_angle_alpha 154.298784
_cell_angle_beta 105.454778
_cell_angle_gamma 81.575311
_cell_volume 712.386472
_symmetry_space_group_name_H-M "P -1"
_symmetry_group_IT_number 2
_symmetry_cell_setting 'triclinic'
loop_
_space_group_symop_operation_xyz
x,y,z
-x,-y,-z
loop_
_atom_site_type_symbol
_atom_site_label
_atom_site_fract_x
_atom_site_fract_y
_atom_site_fract_z
Si Si1 0.832235 0.857405 0.904663
Si Si2 0.674440 0.678215 0.582615
Si Si3 0.118642 0.682058 0.400155
Si Si4 0.559199 0.990074 0.267994
Si Si5 0.380945 0.828717 0.291877
Si Si6 0.883861 0.553303 0.947302
Si Si7 0.622342 0.068106 0.143664
Si Si8 0.104798 0.083727 0.362476
O O1 0.718270 0.830617 0.785997
O O2 0.841143 0.570365 0.730049
O O3 0.772072 0.998111 0.074246
O O4 0.000000 0.000000 0.000000
O O5 0.529823 0.770616 0.582668
O O6 0.647108 0.374229 0.380242
O O7 0.817235 0.763297 0.600038
O O8 0.266806 0.912441 0.602512
O O9 0.098979 0.621453 0.254649
O O10 0.966738 0.740395 0.460145
O O11 0.570825 0.918228 0.118779
O O12 0.463447 0.810526 0.200121
O O13 0.291394 0.551901 0.120915
O O14 0.500000 0.000000 0.500000
O O15 0.241255 0.973047 0.350919
O O16 0.000000 0.500000 0.000000
O O17 0.960273 0.851157 0.149173
O O18 0.500000 0.000000 0.000000
#
# Coordination Sequence:
#
# PCOD9020144 Si02
#       8
#     2   2   2   2   2   2   2   2
#     4  12  26  40  68  99 140 183 234 278 340 411
#     4  11  23  45  64 101 144 181 227 291 334 410
#     4  12  24  42  68 100 137 178 229 281 344 409
#     4  11  23  42  69  98 141 180 227 282 343 405
#     4  10  21  46  73  99 134 177 227 292 342 406
#     4  10  23  45  72  94 134 173 230 284 347 405
#     4  12  24  43  69  99 137 186 227 275 347 406
#     4  10  25  43  72  99 137 179 228 279 354 404
#
# _framework density 22.459720000000001
#
# number of rings (size 3 to 8) (size 9 to 14) (size 15 to 20)
#    0.000    1.000    3.750    2.625    3.500    3.000 
#    2.250    0.625    2.750    0.000    0.000    0.000 
#    0.000    0.000    0.000    0.000    0.000    0.000 
#
# Total GULP energy -89476.892409 kJ/mol
# GULP energy per Si atom -5592.305776 kJ/mol
# Density = 2.240860 g / cm^3
# Si number density = 22.459720 Si / 1000 Ang^3
#
#
#
# Elastic Constant Matrix: (Units=GPa)
#
#
# Indices 1 2 3 4 5 6 
#
# 1 134.2400 54.3510 31.6707 -8.8560 -0.1035 36.5580
# 2 54.3510 122.1828 39.7395 -29.1950 8.4647 32.9816
# 3 31.6707 39.7395 69.6896 -21.7269 16.6293 15.9815
# 4 -8.8560 -29.1950 -21.7269 46.0270 4.1656 1.0181
# 5 -0.1035 8.4647 16.6293 4.1656 42.7997 -5.1337
# 6 36.5580 32.9816 15.9815 1.0181 -5.1337 57.0955
#
#
#
# Elastic Compliance Matrix: (Units=1/GPa)
#
#
# Indices 1 2 3 4 5 6 
#
# 1 0.010319 -0.003022 -0.002788 -0.001283 0.001358 -0.003936
# 2 -0.003022 0.013861 -0.001908 0.007757 -0.003480 -0.005989
# 3 -0.002788 -0.001908 0.023523 0.010401 -0.010359 -0.004814
# 4 -0.001283 0.007757 0.010401 0.032364 -0.009690 -0.008019
# 5 0.001358 -0.003480 -0.010359 -0.009690 0.029851 0.006897
# 6 -0.003936 -0.005989 -0.004814 -0.008019 0.006897 0.025605
#
#
# Mechanical properties :
#
#
# Convention : Reuss Voigt Hill
#
# Bulk Modulus (GPa) = 30.99177 64.18164 47.58671
# Shear Modulus (GPa) = 30.91888 42.54118 36.73003
#
# Velocity S-wave (km/s) = 3.71433 4.35686 4.04836
# Velocity P-wave (km/s) = 5.67660 7.34493 6.56398
#
# Compressibility (1/GPa) = 0.03226664
#
# Stress axis : x y z
#
# Youngs Moduli (GPa) = 96.91008 72.14745 42.51200
#
# Poissons Ratio (x) = 0.21800 0.11852
# Poissons Ratio (y) = 0.29282 0.08112
# Poissons Ratio (z) = 0.27018 0.13768
#
# Static dielectric constant tensor:
#      x y z
#    x 1.839290 0.034930 0.008770 
#    y 0.034930 1.751880 -0.018190 
#    z 0.008770 -0.018190 1.807390 
# 
# From -- ./inp_files/447585.got.cif
#   From: 2010.05.17/outbox.cif.g08.bks.cpg/sg2_224_cif.got.tgz:447585.got - 2010.06.03 11:33:40.
