data_PCOD9020605
_publ_section_title
;
Structure prediction by ZEFSAII (Michael W. Deem and Ramdas Pophale) SiO2 
 PCOD9020605
Probable space group: P -1
;
_chemical_formula_sum "Si O2"
_cell_formula_units_Z 16
_cell_length_a 13.016903
_cell_length_b 11.913492
_cell_length_c 17.613543
_cell_angle_alpha 57.343629
_cell_angle_beta 26.728581
_cell_angle_gamma 40.702627
_cell_volume 707.664970
_symmetry_space_group_name_H-M "P -1"
_symmetry_group_IT_number 2
_symmetry_cell_setting 'triclinic'
loop_
_space_group_symop_operation_xyz
x,y,z
-x,-y,-z
loop_
_atom_site_type_symbol
_atom_site_label
_atom_site_fract_x
_atom_site_fract_y
_atom_site_fract_z
Si Si1 0.332019 0.189255 0.206393
Si Si2 0.106196 0.667940 0.692227
Si Si3 0.198110 0.250561 0.777759
Si Si4 0.319359 0.086304 0.508352
Si Si5 0.856455 0.050292 0.783970
Si Si6 0.288743 0.398115 0.935655
Si Si7 0.181625 0.537749 0.210099
Si Si8 0.378606 0.863549 0.329618
O O1 0.284855 0.341863 0.230869
O O2 0.994881 0.313357 0.334817
O O3 0.421745 0.004817 0.242983
O O4 0.615535 0.109940 0.988796
O O5 0.500000 0.500000 0.500000
O O6 0.950509 0.875052 0.743590
O O7 0.919816 0.636116 0.877667
O O8 0.486269 0.213479 0.645638
O O9 0.026114 0.372341 0.766967
O O10 0.394498 0.033053 0.701607
O O11 0.903764 0.388890 0.984733
O O12 0.146609 0.016888 0.637024
O O13 0.035672 0.314861 0.629766
O O14 0.500000 0.000000 0.500000
O O15 0.647269 0.235271 0.799069
O O16 0.377032 0.325632 0.817246
O O17 0.500000 0.500000 0.000000
O O18 0.000000 0.000000 0.500000
#
# Coordination Sequence:
#
# PCOD9020605 Si02
#       8
#     2   2   2   2   2   2   2   2
#     4  11  22  40  62  94 127 168 216 264 324 391
#     4  11  21  33  65  97 129 159 216 276 328 383
#     4  11  23  40  62  96 128 169 220 263 323 397
#     4  10  22  36  62  95 122 161 222 275 317 368
#     4  11  18  37  64  90 129 162 213 273 324 373
#     4  11  20  39  62  92 129 170 211 258 331 401
#     4  11  21  42  71  91 119 171 229 280 318 365
#     4  12  26  41  61  94 144 177 202 261 340 404
#
# _framework density 22.609569
#
# number of rings (size 3 to 8) (size 9 to 14) (size 15 to 20)
#    0.000    1.000    6.250    2.625    3.500    0.000 
#    0.000    1.250    0.000    0.000    0.000    0.000 
#    0.000    0.000    0.000    0.000    0.000    0.000 
#
# Total GULP energy -89203.806081 kJ/mol
# GULP energy per Si atom -5575.237880 kJ/mol
# Density = 2.255811 g / cm^3
# Si number density = 22.609569 Si / 1000 Ang^3
#
#
#
# Elastic Constant Matrix: (Units=GPa)
#
#
# Indices 1 2 3 4 5 6 
#
# 1 127.9531 32.0337 45.2856 13.5529 -1.0599 15.8365
# 2 32.0337 105.4257 33.4327 25.0533 11.8093 38.7490
# 3 45.2856 33.4327 78.9797 33.6498 2.8167 14.6338
# 4 13.5529 25.0533 33.6498 41.4270 14.5858 15.4285
# 5 -1.0599 11.8093 2.8167 14.5858 48.9799 18.7742
# 6 15.8365 38.7490 14.6338 15.4285 18.7742 44.7351
#
#
#
# Elastic Compliance Matrix: (Units=1/GPa)
#
#
# Indices 1 2 3 4 5 6 
#
# 1 0.010277 -0.001230 -0.006312 0.002938 0.000703 -0.001816
# 2 -0.001230 0.015563 -0.002301 -0.003374 0.001935 -0.011940
# 3 -0.006312 -0.002301 0.024844 -0.018470 0.004222 0.000699
# 4 0.002938 -0.003374 -0.018470 0.045054 -0.010200 -0.003333
# 5 0.000703 0.001935 0.004222 -0.010200 0.027026 -0.011131
# 6 -0.001816 -0.011940 0.000699 -0.003333 -0.011131 0.038931
#
#
# Mechanical properties :
#
#
# Convention : Reuss Voigt Hill
#
# Bulk Modulus (GPa) = 32.26212 59.31805 45.79008
# Shear Modulus (GPa) = 26.08056 40.46882 33.27469
#
# Velocity S-wave (km/s) = 3.40003 4.23531 3.84045
# Velocity P-wave (km/s) = 5.45104 7.08589 6.32154
#
# Compressibility (1/GPa) = 0.03099611
#
# Stress axis : x y z
#
# Youngs Moduli (GPa) = 97.30713 64.25602 40.25119
#
# Poissons Ratio (x) = 0.07907 0.25406
# Poissons Ratio (y) = 0.11973 0.09263
# Poissons Ratio (z) = 0.61419 0.14787
#
# Static dielectric constant tensor:
#      x y z
#    x 1.884880 -0.022800 0.018690 
#    y -0.022800 1.901800 0.075650 
#    z 0.018690 0.075650 1.927640 
# 
# From -- ./inp_files/568709.got.cif
#   From: 2010.05.17/outbox.cif.g08.bks.cpg/sg2_285_cif.got.tgz:568709.got - 2010.06.03 11:33:40.
