data_PCOD9020388
_publ_section_title
;
Structure prediction by ZEFSAII (Michael W. Deem and Ramdas Pophale) SiO2 
 PCOD9020388
Probable space group: P -1
;
_chemical_formula_sum "Si O2"
_cell_formula_units_Z 16
_cell_length_a 14.527588
_cell_length_b 11.388902
_cell_length_c 19.508824
_cell_angle_alpha 34.062138
_cell_angle_beta 33.576587
_cell_angle_gamma 59.157338
_cell_volume 819.356431
_symmetry_space_group_name_H-M "P -1"
_symmetry_group_IT_number 2
_symmetry_cell_setting 'triclinic'
loop_
_space_group_symop_operation_xyz
x,y,z
-x,-y,-z
loop_
_atom_site_type_symbol
_atom_site_label
_atom_site_fract_x
_atom_site_fract_y
_atom_site_fract_z
Si Si1 0.038722 0.640450 0.480075
Si Si2 0.687323 0.537468 0.556711
Si Si3 0.180971 0.400931 0.236351
Si Si4 0.059331 0.031938 0.028917
Si Si5 0.579687 0.478416 0.387772
Si Si6 0.399310 0.966357 0.805082
Si Si7 0.595945 0.855758 0.979223
Si Si8 0.717480 0.974998 0.691668
O O1 0.179706 0.580568 0.465627
O O2 0.000000 0.500000 0.500000
O O3 0.847675 0.554659 0.687688
O O4 0.169376 0.946671 0.238775
O O5 0.524183 0.452532 0.638560
O O6 0.546711 0.427120 0.764786
O O7 0.861467 0.833021 0.291500
O O8 0.280854 0.246984 0.240070
O O9 0.298305 0.670285 0.994235
O O10 0.950841 0.210285 0.443648
O O11 0.180110 0.313341 0.851836
O O12 0.225593 0.964872 0.956136
O O13 0.000000 0.000000 0.000000
O O14 0.500000 0.500000 0.500000
O O15 0.485014 0.176689 0.589797
O O16 0.591988 0.055063 0.689611
O O17 0.611858 0.865915 0.883274
O O18 0.500000 0.000000 0.000000
#
# Coordination Sequence:
#
# PCOD9020388 Si02
#       8
#     2   2   2   2   2   2   2   2
#     4  10  22  35  58  92 122 158 193 240 308 361
#     4  11  21  36  54  85 124 150 193 241 307 359
#     4  10  22  39  63  85 121 157 206 242 299 353
#     4  11  22  34  54  88 120 153 200 244 303 354
#     4  10  23  33  56  84 119 157 192 256 294 353
#     4  11  22  34  61  82 123 151 199 246 302 348
#     4   9  22  34  57  81 123 153 194 240 305 352
#     4  10  23  41  58  91 117 160 202 250 289 366
#
# _framework density 19.527522000000001
#
# number of rings (size 3 to 8) (size 9 to 14) (size 15 to 20)
#    0.000    1.750    3.750    0.375   17.500    0.000 
#    0.000    0.000    0.000    0.750    0.000    3.500 
#    0.000    0.000    0.000    0.000    0.000    0.000 
#
# Total GULP energy -89105.961477 kJ/mol
# GULP energy per Si atom -5569.122592 kJ/mol
# Density = 1.948308 g / cm^3
# Si number density = 19.527522 Si / 1000 Ang^3
#
#
#
# Elastic Constant Matrix: (Units=GPa)
#
#
# Indices 1 2 3 4 5 6 
#
# 1 88.4733 29.8383 25.9077 8.9921 -2.4518 -8.4379
# 2 29.8383 63.5190 7.8575 0.8917 4.5354 2.1377
# 3 25.9077 7.8575 143.4425 -18.4502 -1.1930 0.7103
# 4 8.9921 0.8917 -18.4502 24.6132 1.5580 -0.7557
# 5 -2.4518 4.5354 -1.1930 1.5580 28.6489 1.5013
# 6 -8.4379 2.1377 0.7103 -0.7557 1.5013 20.5131
#
#
#
# Elastic Compliance Matrix: (Units=1/GPa)
#
#
# Indices 1 2 3 4 5 6 
#
# 1 0.016582 -0.007641 -0.003682 -0.008480 0.002557 0.007245
# 2 -0.007641 0.019639 0.000638 0.002639 -0.003626 -0.004849
# 3 -0.003682 0.000638 0.008602 0.007747 -0.000397 -0.001564
# 4 -0.008480 0.002639 0.007747 0.049595 -0.003416 -0.001955
# 5 0.002557 -0.003626 -0.000397 -0.003416 0.035936 -0.001312
# 6 0.007245 -0.004849 -0.001564 -0.001955 -0.001312 0.052313
#
#
# Mechanical properties :
#
#
# Convention : Reuss Voigt Hill
#
# Bulk Modulus (GPa) = 42.63944 46.96019 44.79981
# Shear Modulus (GPa) = 23.60097 30.21045 26.90571
#
# Velocity S-wave (km/s) = 3.48026 3.93755 3.71595
# Velocity P-wave (km/s) = 6.16706 6.69125 6.43449
#
# Compressibility (1/GPa) = 0.02345246
#
# Stress axis : x y z
#
# Youngs Moduli (GPa) = 60.30714 50.91900 116.24621
#
# Poissons Ratio (x) = 0.38909 0.42798
# Poissons Ratio (y) = 0.46082 -0.07412
# Poissons Ratio (z) = 0.22203 -0.03247
#
# Static dielectric constant tensor:
#      x y z
#    x 1.717940 -0.014110 -0.027920 
#    y -0.014110 1.717910 -0.052270 
#    z -0.027920 -0.052270 1.827720 
# 
# From -- ./inp_files/597945.got.cif
#   From: 2010.05.17/outbox.cif.g08.bks.cpg/sg2_299_cif.got.tgz:597945.got - 2010.06.03 11:33:40.
