data_PCOD9020990
_publ_section_title
;
Structure prediction by ZEFSAII (Michael W. Deem and Ramdas Pophale) SiO2 
 PCOD9020990
Probable space group: P -1
;
_chemical_formula_sum "Si O2"
_cell_formula_units_Z 16
_cell_length_a 13.159228
_cell_length_b 20.100378
_cell_length_c 5.133227
_cell_angle_alpha 98.304144
_cell_angle_beta 85.039991
_cell_angle_gamma 149.550051
_cell_volume 678.919432
_symmetry_space_group_name_H-M "P -1"
_symmetry_group_IT_number 2
_symmetry_cell_setting 'triclinic'
loop_
_space_group_symop_operation_xyz
x,y,z
-x,-y,-z
loop_
_atom_site_type_symbol
_atom_site_label
_atom_site_fract_x
_atom_site_fract_y
_atom_site_fract_z
Si Si1 0.172574 0.501014 0.089289
Si Si2 0.502532 0.260321 0.515541
Si Si3 0.746884 0.312279 0.118218
Si Si4 0.116510 0.094736 0.274117
Si Si5 0.618285 0.040111 0.746638
Si Si6 0.386084 0.074240 0.704134
Si Si7 0.946639 0.788090 0.784220
Si Si8 0.084688 0.313806 0.770158
O O1 0.347679 0.600202 0.319984
O O2 0.944023 0.380517 0.174990
O O3 0.202592 0.588381 0.979932
O O4 0.188591 0.443371 0.882122
O O5 0.647249 0.284551 0.384286
O O6 0.344934 0.198552 0.310457
O O7 0.374977 0.147676 0.697558
O O8 0.588230 0.183523 0.894338
O O9 0.121953 0.178199 0.282749
O O10 0.000000 0.000000 0.500000
O O11 0.000000 0.000000 0.000000
O O12 0.627211 0.967854 0.602782
O O13 0.500000 0.000000 0.500000
O O14 0.847029 0.193154 0.787031
O O15 0.500000 0.000000 0.000000
O O16 0.191275 0.934432 0.816108
O O17 0.887700 0.699868 0.530455
O O18 0.871991 0.718746 0.039670
#
# Coordination Sequence:
#
# PCOD9020990 Si02
#       8
#     2   2   2   2   2   2   2   2
#     4  10  24  43  64  98 135 189 231 269 335 399
#     4  11  24  41  70  97 131 173 227 294 330 403
#     4  10  22  42  68  96 135 180 235 282 327 399
#     4  12  25  45  76 104 135 169 225 293 357 401
#     4  11  23  37  58  94 129 176 219 265 332 406
#     4  10  22  37  63  96 133 166 221 285 339 395
#     4  11  24  44  66 103 134 176 224 280 351 402
#     4  11  25  42  66  92 143 182 219 276 332 417
#
# _framework density 23.566863000000001
#
# number of rings (size 3 to 8) (size 9 to 14) (size 15 to 20)
#    0.000    1.250    1.250    4.125   12.250    0.000 
#    0.000    1.250    0.000    0.000    0.000    0.000 
#    0.000    0.000    0.000    0.000    0.000    0.000 
#
# Total GULP energy -89436.093520 kJ/mol
# GULP energy per Si atom -5589.755845 kJ/mol
# Density = 2.351322 g / cm^3
# Si number density = 23.566863 Si / 1000 Ang^3
#
#
#
# Elastic Constant Matrix: (Units=GPa)
#
#
# Indices 1 2 3 4 5 6 
#
# 1 71.2528 13.0043 10.0427 20.7896 11.7918 -8.5790
# 2 13.0043 57.0137 43.9763 33.0028 0.3478 -9.7699
# 3 10.0427 43.9763 143.0319 31.4586 4.3390 0.6611
# 4 20.7896 33.0028 31.4586 51.8400 -5.3110 -2.4254
# 5 11.7918 0.3478 4.3390 -5.3110 36.1581 3.1907
# 6 -8.5790 -9.7699 0.6611 -2.4254 3.1907 21.3376
#
#
#
# Elastic Compliance Matrix: (Units=1/GPa)
#
#
# Indices 1 2 3 4 5 6 
#
# 1 0.018885 0.002949 0.000184 -0.010007 -0.008479 0.009068
# 2 0.002949 0.036799 -0.007038 -0.020059 -0.004891 0.016705
# 3 0.000184 -0.007038 0.009558 -0.001666 -0.001077 -0.003473
# 4 -0.010007 -0.020059 -0.001666 0.037632 0.010101 -0.010389
# 5 -0.008479 -0.004891 -0.001077 0.010101 0.032910 -0.009388
# 6 0.009068 0.016705 -0.003473 -0.010389 -0.009388 0.058491
#
#
# Mechanical properties :
#
#
# Convention : Reuss Voigt Hill
#
# Bulk Modulus (GPa) = 17.41232 45.03834 31.22533
# Shear Modulus (GPa) = 22.60084 35.48549 29.04317
#
# Velocity S-wave (km/s) = 3.10015 3.88459 3.51433
# Velocity P-wave (km/s) = 4.49656 6.26677 5.45397
#
# Compressibility (1/GPa) = 0.05743060
#
# Stress axis : x y z
#
# Youngs Moduli (GPa) = 52.95151 27.17434 104.62825
#
# Poissons Ratio (x) = -0.08014 -0.01920
# Poissons Ratio (y) = -0.15616 0.73642
# Poissons Ratio (z) = -0.00972 0.19127
#
# Static dielectric constant tensor:
#      x y z
#    x 1.952360 -0.000010 -0.111570 
#    y -0.000010 1.976710 -0.000680 
#    z -0.111570 -0.000680 1.876830 
# 
# From -- ./inp_files/100448.got.cif
#   From: 2010.05.17/outbox.cif.g08.bks.cpg/sg2_51_cif.got.tgz:100448.got - 2010.06.03 11:33:40.
