data_PCOD9020493
_publ_section_title
;
Structure prediction by ZEFSAII (Michael W. Deem and Ramdas Pophale) SiO2 
 PCOD9020493
Probable space group: P -1
;
_chemical_formula_sum "Si O2"
_cell_formula_units_Z 14
_cell_length_a 10.976805
_cell_length_b 9.053390
_cell_length_c 7.386304
_cell_angle_alpha 54.615123
_cell_angle_beta 97.596867
_cell_angle_gamma 71.029977
_cell_volume 514.744236
_symmetry_space_group_name_H-M "P -1"
_symmetry_group_IT_number 2
_symmetry_cell_setting 'triclinic'
loop_
_space_group_symop_operation_xyz
x,y,z
-x,-y,-z
loop_
_atom_site_type_symbol
_atom_site_label
_atom_site_fract_x
_atom_site_fract_y
_atom_site_fract_z
Si Si1 0.706687 0.162651 0.834934
Si Si2 0.353802 0.084722 0.723600
Si Si3 0.845740 0.775255 0.737502
Si Si4 0.465237 0.373341 0.387186
Si Si5 0.960000 0.089195 0.152969
Si Si6 0.629363 0.680728 0.970863
Si Si7 0.891220 0.335388 0.318414
O O1 0.626236 0.213700 0.592171
O O2 0.593684 0.384296 0.752042
O O3 0.711236 0.964416 0.077733
O O4 0.857285 0.144616 0.923488
O O5 0.512320 0.889749 0.888228
O O6 0.262264 0.075955 0.543183
O O7 0.373259 0.284261 0.538910
O O8 0.752938 0.698697 0.877493
O O9 0.984247 0.617025 0.756871
O O10 0.909922 0.866019 0.833636
O O11 0.447737 0.361577 0.178749
O O12 0.866570 0.235110 0.201007
O O13 0.022560 0.853844 0.395457
O O14 0.736814 0.493924 0.252516
#
# Coordination Sequence:
#
# PCOD9020493 Si02
#       7
#     2   2   2   2   2   2   2
#     4  11  20  39  60  85 114 153 194 233 272 351
#     4  11  22  38  57  90 120 144 185 243 295 326
#     4   9  17  32  55  79 114 143 188 239 272 328
#     4  10  22  36  57  87 115 153 191 228 285 341
#     4   9  17  33  54  83 108 145 202 226 277 323
#     4  11  21  35  56  92 116 141 185 245 294 328
#     4   9  16  31  53  83 107 142 191 226 277 326
#
# _framework density 27.197973999999999
#
# number of rings (size 3 to 8) (size 9 to 14) (size 15 to 20)
#    0.857    1.143    2.857    2.571    0.000    0.571 
#    2.571    0.000    0.000    4.286    3.714    0.000 
#    0.000    0.000    0.000    0.000    0.000    0.000 
#
# Total GULP energy -78203.498841 kJ/mol
# GULP energy per Si atom -5585.964203 kJ/mol
# Density = 2.713607 g / cm^3
# Si number density = 27.197974 Si / 1000 Ang^3
#
#
#
# Elastic Constant Matrix: (Units=GPa)
#
#
# Indices 1 2 3 4 5 6 
#
# 1 132.1889 18.8592 67.3067 12.2527 17.0542 14.4271
# 2 18.8592 55.8189 22.4991 9.3679 11.4345 1.2640
# 3 67.3067 22.4991 103.6998 2.3836 36.2016 16.4233
# 4 12.2527 9.3679 2.3836 39.1428 7.7827 10.8906
# 5 17.0542 11.4345 36.2016 7.7827 77.2045 -4.8338
# 6 14.4271 1.2640 16.4233 10.8906 -4.8338 41.2386
#
#
#
# Elastic Compliance Matrix: (Units=1/GPa)
#
#
# Indices 1 2 3 4 5 6 
#
# 1 0.011852 -0.000491 -0.008103 -0.003478 0.001618 0.000204
# 2 -0.000491 0.020716 -0.004406 -0.005233 -0.000201 0.002650
# 3 -0.008103 -0.004406 0.019612 0.005993 -0.007818 -0.007340
# 4 -0.003478 -0.005233 0.005993 0.031267 -0.005036 -0.009857
# 5 0.001618 -0.000201 -0.007818 -0.005036 0.017167 0.005896
# 6 0.000204 0.002650 -0.007340 -0.009857 0.005896 0.030314
#
#
# Mechanical properties :
#
#
# Convention : Reuss Voigt Hill
#
# Bulk Modulus (GPa) = 38.19468 56.55975 47.37722
# Shear Modulus (GPa) = 30.18307 43.72002 36.95155
#
# Velocity S-wave (km/s) = 3.33491 4.01368 3.68994
# Velocity P-wave (km/s) = 5.37611 6.50540 5.96753
#
# Compressibility (1/GPa) = 0.02618166
#
# Stress axis : x y z
#
# Youngs Moduli (GPa) = 84.37155 48.27197 50.98830
#
# Poissons Ratio (x) = 0.02368 0.41318
# Poissons Ratio (y) = 0.04139 0.22463
# Poissons Ratio (z) = 0.68369 0.21266
#
# Static dielectric constant tensor:
#      x y z
#    x 2.174750 0.000070 -0.076930 
#    y 0.000070 2.201460 -0.063910 
#    z -0.076930 -0.063910 2.269250 
# 
# From -- ./inp_files/246863.got.cif
#   From: 2010.05.17/outbox.cif.g08.bks.cpg/sg2_124_cif.got.tgz:246863.got - 2010.06.03 11:33:40.
