data_PCOD9020468
_publ_section_title
;
Structure prediction by ZEFSAII (Michael W. Deem and Ramdas Pophale) SiO2 
 PCOD9020468
Probable space group: P -1
;
_chemical_formula_sum "Si O2"
_cell_formula_units_Z 16
_cell_length_a 6.272713
_cell_length_b 13.245334
_cell_length_c 11.911004
_cell_angle_alpha 107.221569
_cell_angle_beta 54.876895
_cell_angle_gamma 91.445606
_cell_volume 759.681945
_symmetry_space_group_name_H-M "P -1"
_symmetry_group_IT_number 2
_symmetry_cell_setting 'triclinic'
loop_
_space_group_symop_operation_xyz
x,y,z
-x,-y,-z
loop_
_atom_site_type_symbol
_atom_site_label
_atom_site_fract_x
_atom_site_fract_y
_atom_site_fract_z
Si Si1 0.388028 0.135301 0.707261
Si Si2 0.281107 0.102192 0.479935
Si Si3 0.664707 0.264938 0.351977
Si Si4 0.770137 0.542638 0.845101
Si Si5 0.169157 0.750087 0.451441
Si Si6 0.215822 0.574803 0.982135
Si Si7 0.920657 0.746902 0.974070
Si Si8 0.860490 0.565370 0.457851
O O1 0.223844 0.130683 0.639083
O O2 0.545676 0.233891 0.673583
O O3 0.590936 0.022340 0.608470
O O4 0.249628 0.153281 0.876169
O O5 0.501050 0.169918 0.394044
O O6 0.032035 0.141941 0.488388
O O7 0.807232 0.273665 0.430903
O O8 0.440124 0.370707 0.426809
O O9 0.879935 0.235218 0.179093
O O10 0.753833 0.444491 0.901470
O O11 0.753516 0.658915 0.947569
O O12 0.061548 0.517714 0.694669
O O13 0.520261 0.546237 0.839097
O O14 0.036160 0.656451 0.410529
O O15 0.000000 0.500000 0.000000
O O16 0.094193 0.687451 0.004367
O O17 0.000000 0.500000 0.500000
#
# Coordination Sequence:
#
# PCOD9020468 Si02
#       8
#     2   2   2   2   2   2   2   2
#     4  10  22  39  67  92 117 155 205 264 319 364
#     4   9  21  44  64  89 118 157 208 257 314 376
#     4  10  23  41  59  90 124 163 208 254 304 372
#     4  10  22  36  55  85 123 164 207 244 302 357
#     4  10  22  38  64  86 121 158 210 255 305 367
#     4   9  21  36  54  81 124 160 195 250 298 351
#     4  11  23  37  59  90 126 157 202 257 310 360
#     4  11  23  37  61  86 124 173 210 243 297 369
#
# _framework density 21.061444000000002
#
# number of rings (size 3 to 8) (size 9 to 14) (size 15 to 20)
#    0.000    2.000    0.000    1.875   10.500    4.500 
#    0.000    0.625    0.000    0.000    0.000    0.000 
#    0.000    0.000    0.000    0.000    0.000    0.000 
#
# Total GULP energy -89146.184853 kJ/mol
# GULP energy per Si atom -5571.636553 kJ/mol
# Density = 2.101351 g / cm^3
# Si number density = 21.061444 Si / 1000 Ang^3
#
#
#
# Elastic Constant Matrix: (Units=GPa)
#
#
# Indices 1 2 3 4 5 6 
#
# 1 95.5760 24.6462 38.0819 5.4791 -6.7601 -9.9712
# 2 24.6462 59.3907 21.0916 0.8354 1.6365 -3.7330
# 3 38.0819 21.0916 139.2349 -0.3112 10.4588 8.1056
# 4 5.4791 0.8354 -0.3112 22.4972 0.9989 -0.3117
# 5 -6.7601 1.6365 10.4588 0.9989 18.6929 -5.9705
# 6 -9.9712 -3.7330 8.1056 -0.3117 -5.9705 37.2128
#
#
#
# Elastic Compliance Matrix: (Units=1/GPa)
#
#
# Indices 1 2 3 4 5 6 
#
# 1 0.015093 -0.004463 -0.004627 -0.003960 0.010656 0.006281
# 2 -0.004463 0.019355 -0.001587 0.000455 -0.002208 0.000741
# 3 -0.004627 -0.001587 0.009617 0.001631 -0.008552 -0.004852
# 4 -0.003960 0.000455 0.001631 0.045635 -0.005417 -0.001858
# 5 0.010656 -0.002208 -0.008552 -0.005417 0.067498 0.015280
# 6 0.006281 0.000741 -0.004852 -0.001858 0.015280 0.032123
#
#
# Mechanical properties :
#
#
# Convention : Reuss Voigt Hill
#
# Bulk Modulus (GPa) = 44.03513 51.31565 47.67539
# Shear Modulus (GPa) = 22.91000 29.70605 26.30802
#
# Velocity S-wave (km/s) = 3.30171 3.75967 3.53811
# Velocity P-wave (km/s) = 5.95721 6.57757 6.27506
#
# Compressibility (1/GPa) = 0.02270914
#
# Stress axis : x y z
#
# Youngs Moduli (GPa) = 66.25399 51.66715 103.98749
#
# Poissons Ratio (x) = 0.23062 0.48114
# Poissons Ratio (y) = 0.29572 0.16506
# Poissons Ratio (z) = 0.30655 0.08201
#
# Static dielectric constant tensor:
#      x y z
#    x 1.853300 0.017130 -0.029420 
#    y 0.017130 1.770950 0.002760 
#    z -0.029420 0.002760 1.871110 
# 
# From -- ./inp_files/367838.got.cif
#   From: 2010.05.17/outbox.cif.g08.bks.cpg/sg2_184_cif.got.tgz:367838.got - 2010.06.03 11:33:40.
