data_PCOD9020184
_publ_section_title
;
Structure prediction by ZEFSAII (Michael W. Deem and Ramdas Pophale) SiO2 
 PCOD9020184
Probable space group: P -1
;
_chemical_formula_sum "Si O2"
_cell_formula_units_Z 14
_cell_length_a 7.619862
_cell_length_b 12.274226
_cell_length_c 9.237066
_cell_angle_alpha 63.804387
_cell_angle_beta 107.526506
_cell_angle_gamma 114.784021
_cell_volume 696.608708
_symmetry_space_group_name_H-M "P -1"
_symmetry_group_IT_number 2
_symmetry_cell_setting 'triclinic'
loop_
_space_group_symop_operation_xyz
x,y,z
-x,-y,-z
loop_
_atom_site_type_symbol
_atom_site_label
_atom_site_fract_x
_atom_site_fract_y
_atom_site_fract_z
Si Si1 0.394111 0.730202 0.474478
Si Si2 0.607336 0.668349 0.141209
Si Si3 0.992327 0.026028 0.654039
Si Si4 0.043954 0.320137 0.580636
Si Si5 0.337756 0.226171 0.226504
Si Si6 0.588109 0.913627 0.167549
Si Si7 0.684181 0.588976 0.658562
O O1 0.517037 0.637341 0.513367
O O2 0.468988 0.764819 0.637862
O O3 0.469651 0.855271 0.318271
O O4 0.163753 0.667038 0.445561
O O5 0.806203 0.653137 0.263531
O O6 0.584084 0.790654 0.144542
O O7 0.427212 0.542980 0.212137
O O8 0.618972 0.699989 0.956401
O O9 0.802222 0.920146 0.735123
O O10 0.001980 0.171284 0.606774
O O11 0.188365 0.012944 0.777892
O O12 0.000000 0.000000 0.500000
O O13 0.155654 0.405229 0.423562
O O14 0.234016 0.300814 0.263911
O O15 0.500000 0.000000 0.000000
#
# Coordination Sequence:
#
# PCOD9020184 Si02
#       7
#     2   2   2   2   2   2   2
#     4  10  23  42  60  97 121 165 211 253 308 379
#     4  11  23  42  66  90 127 172 200 267 310 364
#     4  11  19  42  64  86 131 169 204 254 321 367
#     4  11  23  38  68  93 120 171 210 255 319 361
#     4  10  22  40  64  92 124 168 208 253 313 373
#     4  11  25  41  60  97 131 160 211 265 306 368
#     4  10  21  47  64  88 133 162 214 248 318 375
#
# _framework density 20.097365
#
# number of rings (size 3 to 8) (size 9 to 14) (size 15 to 20)
#    0.857    0.571    5.714    0.857    4.000    3.429 
#    0.000    0.714    0.000    0.000    0.000    0.000 
#    0.000    0.000    0.000    0.000    0.000    0.000 
#
# Total GULP energy -78178.137353 kJ/mol
# GULP energy per Si atom -5584.152668 kJ/mol
# Density = 2.005162 g / cm^3
# Si number density = 20.097365 Si / 1000 Ang^3
#
#
#
# Elastic Constant Matrix: (Units=GPa)
#
#
# Indices 1 2 3 4 5 6 
#
# 1 91.1012 10.3484 33.6363 -8.6201 -0.1777 16.5743
# 2 10.3484 60.3885 20.7538 -5.5524 3.6215 16.3718
# 3 33.6363 20.7538 144.2622 -8.9229 -15.6857 9.2988
# 4 -8.6201 -5.5524 -8.9229 29.6222 4.6585 -7.8194
# 5 -0.1777 3.6215 -15.6857 4.6585 23.7922 -4.5905
# 6 16.5743 16.3718 9.2988 -7.8194 -4.5905 26.9378
#
#
#
# Elastic Compliance Matrix: (Units=1/GPa)
#
#
# Indices 1 2 3 4 5 6 
#
# 1 0.013680 0.001445 -0.003205 0.001727 -0.004190 -0.008401
# 2 0.001445 0.021954 -0.003443 0.001100 -0.008552 -0.014181
# 3 -0.003205 -0.003443 0.008782 0.000647 0.006617 0.002348
# 4 0.001727 0.001100 0.000647 0.037655 -0.005552 0.008030
# 5 -0.004190 -0.008552 0.006617 -0.005552 0.051182 0.012602
# 6 -0.008401 -0.014181 0.002348 0.008030 0.012602 0.054579
#
#
# Mechanical properties :
#
#
# Convention : Reuss Voigt Hill
#
# Bulk Modulus (GPa) = 29.40275 47.24765 38.32520
# Shear Modulus (GPa) = 23.85804 31.47133 27.66469
#
# Velocity S-wave (km/s) = 3.44920 3.96149 3.71419
# Velocity P-wave (km/s) = 5.52491 6.66971 6.12411
#
# Compressibility (1/GPa) = 0.03401042
#
# Stress axis : x y z
#
# Youngs Moduli (GPa) = 73.10138 45.55033 113.86400
#
# Poissons Ratio (x) = -0.06581 0.36489
# Poissons Ratio (y) = -0.10562 0.39203
# Poissons Ratio (z) = 0.23426 0.15683
#
# Static dielectric constant tensor:
#      x y z
#    x 1.702690 -0.006070 -0.004160 
#    y -0.006070 1.752350 0.007610 
#    z -0.004160 0.007610 1.703440 
# 
# From -- ./inp_files/176712.got.cif
#   From: 2010.05.17/outbox.cif.g08.bks.cpg/sg2_89_cif.got.tgz:176712.got - 2010.06.03 11:33:40.
