data_PCOD9020504
_publ_section_title
;
Structure prediction by ZEFSAII (Michael W. Deem and Ramdas Pophale) SiO2 
 PCOD9020504
Probable space group: P -1
;
_chemical_formula_sum "Si O2"
_cell_formula_units_Z 16
_cell_length_a 6.921255
_cell_length_b 19.482884
_cell_length_c 9.272227
_cell_angle_alpha 129.063114
_cell_angle_beta 131.149446
_cell_angle_gamma 50.786525
_cell_volume 678.534843
_symmetry_space_group_name_H-M "P -1"
_symmetry_group_IT_number 2
_symmetry_cell_setting 'triclinic'
loop_
_space_group_symop_operation_xyz
x,y,z
-x,-y,-z
loop_
_atom_site_type_symbol
_atom_site_label
_atom_site_fract_x
_atom_site_fract_y
_atom_site_fract_z
Si Si1 0.276864 0.135466 0.480545
Si Si2 0.085501 0.007755 0.389145
Si Si3 0.899784 0.872474 0.943843
Si Si4 0.820531 0.621763 0.980864
Si Si5 0.706468 0.727201 0.793971
Si Si6 0.108897 0.530672 0.737783
Si Si7 0.374348 0.649006 0.307461
Si Si8 0.553533 0.276568 0.854380
O O1 0.593843 0.062533 0.553925
O O2 0.310794 0.235120 0.652384
O O3 0.170331 0.123833 0.253835
O O4 0.089807 0.108048 0.468925
O O5 0.903868 0.969183 0.143350
O O6 0.000000 0.000000 0.500000
O O7 0.704101 0.826953 0.870172
O O8 0.204997 0.796828 0.029382
O O9 0.605706 0.626909 0.006238
O O10 0.100253 0.630960 0.185680
O O11 0.665956 0.714469 0.925884
O O12 0.928138 0.536596 0.802560
O O13 0.507331 0.689416 0.553731
O O14 0.018247 0.644555 0.818911
O O15 0.410700 0.451051 0.782286
O O16 0.000000 0.500000 0.500000
O O17 0.333429 0.718053 0.242047
#
# Coordination Sequence:
#
# PCOD9020504 Si02
#       8
#     2   2   2   2   2   2   2   2
#     4  10  23  43  60  89 125 150 189 242 294 348
#     4  10  24  42  66  91 116 153 195 236 288 358
#     4  11  21  42  62  86 127 156 186 246 299 340
#     4  10  22  36  58  87 116 158 202 244 290 349
#     4   9  20  37  58  85 115 159 198 237 299 346
#     4   8  18  36  57  82 119 158 199 247 294 345
#     4  11  19  39  60  80 122 161 195 250 298 337
#     4  11  23  36  61  91 118 154 204 243 285 354
#
# _framework density 23.580217999999999
#
# number of rings (size 3 to 8) (size 9 to 14) (size 15 to 20)
#    0.750    1.250    2.500    0.750    1.750    2.000 
#    2.250    0.000    0.000    4.500    0.000    0.000 
#    0.000    0.000    0.000    0.000    0.000    0.000 
#
# Total GULP energy -89231.571004 kJ/mol
# GULP energy per Si atom -5576.973188 kJ/mol
# Density = 2.352655 g / cm^3
# Si number density = 23.580218 Si / 1000 Ang^3
#
#
#
# Elastic Constant Matrix: (Units=GPa)
#
#
# Indices 1 2 3 4 5 6 
#
# 1 61.8694 -6.0051 0.5770 3.4230 -9.9668 2.2397
# 2 -6.0051 38.4775 2.3775 -1.9808 4.2002 13.1452
# 3 0.5770 2.3775 125.4420 -13.7847 13.3241 4.6997
# 4 3.4230 -1.9808 -13.7847 30.2359 0.0845 -1.0118
# 5 -9.9668 4.2002 13.3241 0.0845 12.3649 4.9713
# 6 2.2397 13.1452 4.6997 -1.0118 4.9713 33.1725
#
#
#
# Elastic Compliance Matrix: (Units=1/GPa)
#
#
# Indices 1 2 3 4 5 6 
#
# 1 0.020044 0.002688 -0.002450 -0.003439 0.019987 -0.005171
# 2 0.002688 0.030955 0.000447 0.001542 -0.004076 -0.011853
# 3 -0.002450 0.000447 0.009873 0.004868 -0.013079 0.000698
# 4 -0.003439 0.001542 0.004868 0.035857 -0.009361 0.001428
# 5 0.019987 -0.004076 -0.013079 -0.009361 0.118958 -0.015994
# 6 -0.005171 -0.011853 0.000698 0.001428 -0.015994 0.037533
#
#
# Mechanical properties :
#
#
# Convention : Reuss Voigt Hill
#
# Bulk Modulus (GPa) = 16.06660 24.40975 20.23817
# Shear Modulus (GPa) = 18.34210 30.41062 24.37636
#
# Velocity S-wave (km/s) = 2.79204 3.59509 3.21871
# Velocity P-wave (km/s) = 4.14998 5.25425 4.73442
#
# Compressibility (1/GPa) = 0.06224093
#
# Stress axis : x y z
#
# Youngs Moduli (GPa) = 49.89027 32.30512 101.29022
#
# Poissons Ratio (x) = -0.08682 0.24819
# Poissons Ratio (y) = -0.13408 -0.04532
# Poissons Ratio (z) = 0.12224 -0.01446
#
# Static dielectric constant tensor:
#      x y z
#    x 1.908450 0.011450 0.036410 
#    y 0.011450 1.987560 0.047130 
#    z 0.036410 0.047130 1.911150 
# 
# From -- ./inp_files/139418.got.cif
#   From: 2010.05.17/outbox.cif.g08.bks.cpg/sg2_70_cif.got.tgz:139418.got - 2010.06.03 11:33:40.
