data_PCOD9020658
_publ_section_title
;
Structure prediction by ZEFSAII (Michael W. Deem and Ramdas Pophale) SiO2 
 PCOD9020658
Probable space group: P -1
;
_chemical_formula_sum "Si O2"
_cell_formula_units_Z 14
_cell_length_a 4.995216
_cell_length_b 12.905848
_cell_length_c 9.165054
_cell_angle_alpha 105.009046
_cell_angle_beta 61.897697
_cell_angle_gamma 86.845523
_cell_volume 492.426612
_symmetry_space_group_name_H-M "P -1"
_symmetry_group_IT_number 2
_symmetry_cell_setting 'triclinic'
loop_
_space_group_symop_operation_xyz
x,y,z
-x,-y,-z
loop_
_atom_site_type_symbol
_atom_site_label
_atom_site_fract_x
_atom_site_fract_y
_atom_site_fract_z
Si Si1 0.505449 0.115831 0.926171
Si Si2 0.644755 0.793301 0.687787
Si Si3 0.433566 0.584578 0.705164
Si Si4 0.273557 0.374830 0.729936
Si Si5 0.957597 0.835534 0.371076
Si Si6 0.845207 0.009055 0.247694
Si Si7 0.229977 0.419920 0.096230
O O1 0.712125 0.181803 0.797965
O O2 0.260930 0.078080 0.868524
O O3 0.389956 0.183006 0.124057
O O4 0.781099 0.012884 0.866958
O O5 0.629584 0.667006 0.617754
O O6 0.946003 0.821950 0.542795
O O7 0.358816 0.876644 0.711738
O O8 0.495770 0.451210 0.625073
O O9 0.498202 0.598250 0.865349
O O10 0.067807 0.628487 0.792810
O O11 0.243713 0.251726 0.660307
O O12 0.938339 0.451590 0.808204
O O13 0.304829 0.386954 0.899891
O O14 0.811043 0.958470 0.398737
#
# Coordination Sequence:
#
# PCOD9020658 Si02
#       7
#     2   2   2   2   2   2   2
#     4  10  25  46  69  99 135 178 227 277 336 399
#     4  12  24  45  71 103 139 176 227 281 338 400
#     4  10  22  36  64  94 130 172 217 271 332 390
#     4   9  20  38  65  92 135 169 224 265 338 385
#     4  10  25  45  70 103 135 182 223 281 335 405
#     4  10  25  48  70  99 136 181 225 279 337 402
#     4   9  20  38  63  94 127 176 219 271 321 403
#
# _framework density 28.430630000000001
#
# number of rings (size 3 to 8) (size 9 to 14) (size 15 to 20)
#    1.714    0.286    0.000    2.571    2.000    3.429 
#    5.143    0.714    0.000    0.000    0.000    0.000 
#    0.000    0.000    0.000    0.000    0.000    0.000 
#
# Total GULP energy -78280.663849 kJ/mol
# GULP energy per Si atom -5591.475989 kJ/mol
# Density = 2.836592 g / cm^3
# Si number density = 28.430630 Si / 1000 Ang^3
#
#
#
# Elastic Constant Matrix: (Units=GPa)
#
#
# Indices 1 2 3 4 5 6 
#
# 1 120.2015 30.6668 14.1185 6.5898 9.8430 8.3911
# 2 30.6668 140.9712 38.5851 -2.2732 -14.4321 12.5659
# 3 14.1185 38.5851 129.7660 -12.0874 -1.8340 19.7465
# 4 6.5898 -2.2732 -12.0874 50.2968 14.9213 -4.3715
# 5 9.8430 -14.4321 -1.8340 14.9213 18.0858 0.1710
# 6 8.3911 12.5659 19.7465 -4.3715 0.1710 46.2580
#
#
#
# Elastic Compliance Matrix: (Units=1/GPa)
#
#
# Indices 1 2 3 4 5 6 
#
# 1 0.009755 -0.002864 -0.000112 0.000991 -0.008416 -0.000819
# 2 -0.002864 0.009690 -0.002507 -0.003439 0.011887 -0.001411
# 3 -0.000112 -0.002507 0.009124 0.002825 -0.003318 -0.002914
# 4 0.000991 -0.003439 0.002825 0.028299 -0.026366 0.002320
# 5 -0.008416 0.011887 -0.003318 -0.026366 0.090804 -0.003114
# 6 -0.000819 -0.001411 -0.002914 0.002320 -0.003114 0.023625
#
#
# Mechanical properties :
#
#
# Convention : Reuss Voigt Hill
#
# Bulk Modulus (GPa) = 56.80915 61.96441 59.38678
# Shear Modulus (GPa) = 26.57723 43.43267 35.00495
#
# Velocity S-wave (km/s) = 3.06078 3.91278 3.51271
# Velocity P-wave (km/s) = 5.70230 6.50042 6.11440
#
# Compressibility (1/GPa) = 0.01760280
#
# Stress axis : x y z
#
# Youngs Moduli (GPa) = 102.50918 103.19563 109.60680
#
# Poissons Ratio (x) = 0.29557 0.01224
# Poissons Ratio (y) = 0.29360 0.27481
# Poissons Ratio (z) = 0.01145 0.25874
#
# Static dielectric constant tensor:
#      x y z
#    x 2.099750 0.037310 -0.010690 
#    y 0.037310 2.290620 -0.055600 
#    z -0.010690 -0.055600 2.290460 
# 
# From -- ./inp_files/134427.got.cif
#   From: 2010.05.17/outbox.cif.g08.bks.cpg/sg2_68_cif.got.tgz:134427.got - 2010.06.03 11:33:40.
