data_PCOD9020159
_publ_section_title
;
Structure prediction by ZEFSAII (Michael W. Deem and Ramdas Pophale) SiO2 
 PCOD9020159
Probable space group: P -1
;
_chemical_formula_sum "Si O2"
_cell_formula_units_Z 16
_cell_length_a 20.216752
_cell_length_b 7.300841
_cell_length_c 7.249364
_cell_angle_alpha 106.158975
_cell_angle_beta 112.343272
_cell_angle_gamma 40.517984
_cell_volume 642.872616
_symmetry_space_group_name_H-M "P -1"
_symmetry_group_IT_number 2
_symmetry_cell_setting 'triclinic'
loop_
_space_group_symop_operation_xyz
x,y,z
-x,-y,-z
loop_
_atom_site_type_symbol
_atom_site_label
_atom_site_fract_x
_atom_site_fract_y
_atom_site_fract_z
Si Si1 0.104514 0.879535 0.486293
Si Si2 0.602810 0.527076 0.720383
Si Si3 0.419304 0.620985 0.716660
Si Si4 0.471495 0.121666 0.793918
Si Si5 0.126106 0.461090 0.193935
Si Si6 0.988323 0.651489 0.767395
Si Si7 0.221723 0.204387 0.865429
Si Si8 0.259156 0.551690 0.852289
O O1 0.103641 0.369370 0.727857
O O2 0.073684 0.087237 0.356344
O O3 0.156721 0.593979 0.363387
O O4 0.000000 0.000000 0.500000
O O5 0.510210 0.588399 0.739947
O O6 0.633043 0.357082 0.520757
O O7 0.692292 0.409249 0.927753
O O8 0.547843 0.833328 0.682769
O O9 0.475727 0.334444 0.802914
O O10 0.324085 0.900697 0.808648
O O11 0.347506 0.326250 0.729407
O O12 0.500000 0.000000 0.000000
O O13 0.217946 0.206514 0.084691
O O14 0.082909 0.387202 0.265007
O O15 0.027730 0.679337 0.005875
O O16 0.224897 0.420737 0.870165
O O17 0.170608 0.825094 0.713855
#
# Coordination Sequence:
#
# PCOD9020159 Si02
#       8
#     2   2   2   2   2   2   2   2
#     4  12  23  43  75 107 151 204 245 304 387 438
#     4  10  24  48  77 111 149 194 257 313 373 452
#     4  11  23  46  84 109 144 204 249 308 384 450
#     4  10  23  46  74 104 146 189 245 306 379 447
#     4   9  22  45  73 106 150 195 255 310 364 445
#     4   9  21  46  75 105 151 195 253 309 366 441
#     4  10  21  46  75 110 153 192 254 311 371 447
#     4  11  24  45  70 112 154 192 249 315 369 446
#
# _framework density 24.888290999999999
#
# number of rings (size 3 to 8) (size 9 to 14) (size 15 to 20)
#    0.750    1.000    2.500    0.750    0.000    4.500 
#    4.500    2.500    0.000    0.750    0.000    0.000 
#    0.000    0.000    0.000    0.000    0.000    0.000 
#
# Total GULP energy -89542.445929 kJ/mol
# GULP energy per Si atom -5596.402871 kJ/mol
# Density = 2.483164 g / cm^3
# Si number density = 24.888291 Si / 1000 Ang^3
#
#
#
# Elastic Constant Matrix: (Units=GPa)
#
#
# Indices 1 2 3 4 5 6 
#
# 1 109.4914 89.0001 62.9030 -8.8750 -11.9061 11.3205
# 2 89.0001 137.3719 75.8027 -15.6349 2.6989 22.7808
# 3 62.9030 75.8027 165.3254 -2.5019 9.0960 -0.7461
# 4 -8.8750 -15.6349 -2.5019 49.1043 -9.3540 -7.4342
# 5 -11.9061 2.6989 9.0960 -9.3540 37.0768 -1.4024
# 6 11.3205 22.7808 -0.7461 -7.4342 -1.4024 40.4606
#
#
#
# Elastic Compliance Matrix: (Units=1/GPa)
#
#
# Indices 1 2 3 4 5 6 
#
# 1 0.022674 -0.013297 -0.003018 0.001785 0.009506 0.001745
# 2 -0.013297 0.019294 -0.003538 0.001599 -0.004671 -0.007076
# 3 -0.003018 -0.003538 0.008984 -0.001421 -0.003175 0.002631
# 4 0.001785 0.001599 -0.001421 0.022852 0.006684 0.003005
# 5 0.009506 -0.004671 -0.003175 0.006684 0.032915 0.002281
# 6 0.001745 -0.007076 0.002631 0.003005 0.002281 0.028891
#
#
# Mechanical properties :
#
#
# Convention : Reuss Voigt Hill
#
# Bulk Modulus (GPa) = 88.92533 96.40004 92.66268
# Shear Modulus (GPa) = 27.92283 37.62719 32.77501
#
# Velocity S-wave (km/s) = 3.35315 3.89246 3.63283
# Velocity P-wave (km/s) = 7.12733 7.68237 7.41005
#
# Compressibility (1/GPa) = 0.01124539
#
# Stress axis : x y z
#
# Youngs Moduli (GPa) = 44.10388 51.83002 111.30744
#
# Poissons Ratio (x) = 0.68920 0.33594
# Poissons Ratio (y) = 0.58646 0.39378
# Poissons Ratio (z) = 0.13311 0.18336
#
# Static dielectric constant tensor:
#      x y z
#    x 1.961810 0.015130 0.014740 
#    y 0.015130 0.210980 -0.400040 
#    z 0.014740 -0.400040 1.936340 
# 
# From -- ./inp_files/340484.got.cif
#   From: 2010.05.17/outbox.cif.g08.bks.cpg/sg2_171_cif.got.tgz:340484.got - 2010.06.03 11:33:40.
