data_PCOD9020097
_publ_section_title
;
Structure prediction by ZEFSAII (Michael W. Deem and Ramdas Pophale) SiO2 
 PCOD9020097
Probable space group: P -1
;
_chemical_formula_sum "Si O2"
_cell_formula_units_Z 16
_cell_length_a 6.702658
_cell_length_b 16.404193
_cell_length_c 8.964360
_cell_angle_alpha 80.336007
_cell_angle_beta 131.724444
_cell_angle_gamma 89.541684
_cell_volume 715.536701
_symmetry_space_group_name_H-M "P -1"
_symmetry_group_IT_number 2
_symmetry_cell_setting 'triclinic'
loop_
_space_group_symop_operation_xyz
x,y,z
-x,-y,-z
loop_
_atom_site_type_symbol
_atom_site_label
_atom_site_fract_x
_atom_site_fract_y
_atom_site_fract_z
Si Si1 0.274058 0.234745 0.731307
Si Si2 0.942626 0.629583 0.178729
Si Si3 0.690522 0.497347 0.239878
Si Si4 0.450017 0.379257 0.598599
Si Si5 0.749668 0.105882 0.892257
Si Si6 0.623596 0.950639 0.724605
Si Si7 0.280098 0.823748 0.486650
Si Si8 0.556395 0.635018 0.711818
O O1 0.220269 0.292359 0.834240
O O2 0.304886 0.302629 0.598566
O O3 0.549790 0.169006 0.876147
O O4 0.017292 0.187657 0.602381
O O5 0.935193 0.543260 0.293297
O O6 0.236607 0.647681 0.280213
O O7 0.788504 0.621746 0.952044
O O8 0.561270 0.557911 0.289134
O O9 0.696279 0.404143 0.333842
O O10 0.500000 0.500000 0.000000
O O11 0.336121 0.411596 0.372056
O O12 0.748658 0.141279 0.709425
O O13 0.631085 0.018831 0.838318
O O14 0.056976 0.089184 0.112303
O O15 0.431798 0.880226 0.654808
O O16 0.500000 0.000000 0.500000
O O17 0.462011 0.732381 0.604867
#
# Coordination Sequence:
#
# PCOD9020097 Si02
#       8
#     2   2   2   2   2   2   2   2
#     4  11  22  42  64  98 137 173 220 279 327 391
#     4  10  23  43  62  91 137 177 223 281 332 383
#     4   9  22  42  62  97 131 174 230 280 329 387
#     4  11  22  44  64  93 134 178 226 275 336 386
#     4  10  21  46  70  95 135 171 215 269 334 393
#     4   9  22  44  71  98 131 172 210 270 331 403
#     4  11  23  41  65  99 136 169 222 271 333 392
#     4  11  22  41  64  95 128 176 226 275 328 392
#
# _framework density 22.360838000000001
#
# number of rings (size 3 to 8) (size 9 to 14) (size 15 to 20)
#    0.000    1.750    2.500    0.375    3.500    3.000 
#   13.500    5.625    0.000    0.000    0.000    0.000 
#    0.000    0.000    0.000    0.000    0.000    0.000 
#
# Total GULP energy -89337.839501 kJ/mol
# GULP energy per Si atom -5583.614969 kJ/mol
# Density = 2.230994 g / cm^3
# Si number density = 22.360838 Si / 1000 Ang^3
#
#
#
# Elastic Constant Matrix: (Units=GPa)
#
#
# Indices 1 2 3 4 5 6 
#
# 1 129.2565 60.8204 52.8949 11.8081 1.2721 -8.8109
# 2 60.8204 123.7473 45.1579 14.2902 5.2323 12.4313
# 3 52.8949 45.1579 82.5194 34.9776 -21.9742 2.3035
# 4 11.8081 14.2902 34.9776 34.4157 6.9683 12.7775
# 5 1.2721 5.2323 -21.9742 6.9683 15.2577 2.3056
# 6 -8.8109 12.4313 2.3035 12.7775 2.3056 38.4668
#
#
#
# Elastic Compliance Matrix: (Units=1/GPa)
#
#
# Indices 1 2 3 4 5 6 
#
# 1 0.010280 -0.006881 0.005053 -0.011052 0.012741 0.007183
# 2 -0.006881 0.009684 0.007462 -0.011121 0.013420 -0.002263
# 3 0.005053 0.007462 -0.030639 0.043195 -0.065345 -0.009851
# 4 -0.011052 -0.011121 0.043195 -0.022529 0.077032 0.001342
# 5 0.012741 0.013420 -0.065345 0.077032 -0.066528 -0.019105
# 6 0.007183 -0.002263 -0.009851 0.001342 -0.019105 0.029662
#
#
# Mechanical properties :
#
#
# Convention : Reuss Voigt Hill
#
# Bulk Modulus (GPa) = 1686.03137 72.58551 879.30844
# Shear Modulus (GPa) = -61.62158 29.40471 -16.10843
#
# Velocity S-wave (km/s) = -5.25525 3.63024 -2.68691
# Velocity P-wave (km/s) = 26.81090 7.07835 19.60774
#
# Compressibility (1/GPa) = 0.00059311
#
# Stress axis : x y z
#
# Youngs Moduli (GPa) = 97.27275 103.26472 -32.63819
#
# Poissons Ratio (x) = 0.71052 0.16491
# Poissons Ratio (y) = 0.66929 0.24354
# Poissons Ratio (z) = -0.49149 -0.77054
#
# Static dielectric constant tensor:
#      x y z
#    x 1.834400 0.020440 0.001810 
#    y 0.020440 1.877910 -0.006940 
#    z 0.001810 -0.006940 1.846320 
# 
# From -- ./inp_files/139006.got.cif
#   From: 2010.05.17/outbox.cif.g08.bks.cpg/sg2_70_cif.got.tgz:139006.got - 2010.06.03 11:33:40.
