data_PCOD9020503
_publ_section_title
;
Structure prediction by ZEFSAII (Michael W. Deem and Ramdas Pophale) SiO2 
 PCOD9020503
Probable space group: P -1
;
_chemical_formula_sum "Si O2"
_cell_formula_units_Z 16
_cell_length_a 14.284741
_cell_length_b 16.338915
_cell_length_c 8.254896
_cell_angle_alpha 125.282787
_cell_angle_beta 91.793962
_cell_angle_gamma 133.913755
_cell_volume 768.871156
_symmetry_space_group_name_H-M "P -1"
_symmetry_group_IT_number 2
_symmetry_cell_setting 'triclinic'
loop_
_space_group_symop_operation_xyz
x,y,z
-x,-y,-z
loop_
_atom_site_type_symbol
_atom_site_label
_atom_site_fract_x
_atom_site_fract_y
_atom_site_fract_z
Si Si1 0.127734 0.113329 0.301412
Si Si2 0.468833 0.309299 0.658688
Si Si3 0.372312 0.207023 0.905241
Si Si4 0.476913 0.125047 0.260563
Si Si5 0.204860 0.706883 0.666314
Si Si6 0.242736 0.301613 0.070967
Si Si7 0.839191 0.135891 0.298644
Si Si8 0.232389 0.414436 0.532586
O O1 0.306150 0.206125 0.416896
O O2 0.208574 0.300261 0.527765
O O3 0.000000 0.000000 0.000000
O O4 0.979541 0.936374 0.225148
O O5 0.499251 0.220907 0.519369
O O6 0.658965 0.549228 0.900821
O O7 0.391547 0.248125 0.764751
O O8 0.343386 0.287366 0.083821
O O9 0.575593 0.351267 0.136558
O O10 0.203101 0.972575 0.673825
O O11 0.679341 0.281368 0.374553
O O12 0.351340 0.905348 0.019613
O O13 0.339075 0.054271 0.046738
O O14 0.174791 0.756753 0.571832
O O15 0.000000 0.500000 0.500000
O O16 0.257583 0.389096 0.327340
O O17 0.037370 0.293656 0.402460
#
# Coordination Sequence:
#
# PCOD9020503 Si02
#       8
#     2   2   2   2   2   2   2   2
#     4  10  22  36  58  87 114 165 211 255 286 344
#     4  12  25  39  58  89 132 168 199 249 303 367
#     4  12  25  38  56  88 133 172 201 241 308 364
#     4   9  21  40  65  93 116 149 206 255 314 354
#     4   9  21  39  70  97 111 142 204 271 311 359
#     4  11  23  37  60  84 124 170 215 246 285 350
#     4  10  22  39  64  93 117 154 205 260 304 358
#     4  11  22  35  61  87 118 163 216 252 295 346
#
# _framework density 20.809729999999998
#
# number of rings (size 3 to 8) (size 9 to 14) (size 15 to 20)
#    0.750    0.750    2.500    3.000    7.000    1.500 
#    0.000    0.625    0.000    1.500    0.000    0.000 
#    0.000    0.000    0.000    0.000    0.000    0.000 
#
# Total GULP energy -89173.476281 kJ/mol
# GULP energy per Si atom -5573.342268 kJ/mol
# Density = 2.076237 g / cm^3
# Si number density = 20.809730 Si / 1000 Ang^3
#
#
#
# Elastic Constant Matrix: (Units=GPa)
#
#
# Indices 1 2 3 4 5 6 
#
# 1 92.9020 9.9491 14.9285 -1.6719 14.2632 23.8274
# 2 9.9491 89.0433 21.6350 16.9040 4.1556 5.1776
# 3 14.9285 21.6350 33.0609 13.4906 8.0660 11.9245
# 4 -1.6719 16.9040 13.4906 30.7913 3.4771 5.2280
# 5 14.2632 4.1556 8.0660 3.4771 17.3057 12.7746
# 6 23.8274 5.1776 11.9245 5.2280 12.7746 29.3574
#
#
#
# Elastic Compliance Matrix: (Units=1/GPa)
#
#
# Indices 1 2 3 4 5 6 
#
# 1 0.014549 -0.000954 -0.003597 0.004935 -0.004294 -0.009190
# 2 -0.000954 0.013950 -0.007594 -0.004781 0.000406 0.002073
# 3 -0.003597 -0.007594 0.048058 -0.014626 -0.007851 -0.009240
# 4 0.004935 -0.004781 -0.014626 0.042660 -0.001645 -0.004102
# 5 -0.004294 0.000406 -0.007851 -0.001645 0.088578 -0.031649
# 6 -0.009190 0.002073 -0.009240 -0.004102 -0.031649 0.059412
#
#
# Mechanical properties :
#
#
# Convention : Reuss Voigt Hill
#
# Bulk Modulus (GPa) = 19.13252 34.22571 26.67912
# Shear Modulus (GPa) = 16.18544 26.72377 21.45461
#
# Velocity S-wave (km/s) = 2.79190 3.58746 3.21439
# Velocity P-wave (km/s) = 4.42797 5.80021 5.15991
#
# Compressibility (1/GPa) = 0.05226703
#
# Stress axis : x y z
#
# Youngs Moduli (GPa) = 68.73257 71.68260 20.80827
#
# Poissons Ratio (x) = 0.06836 0.07485
# Poissons Ratio (y) = 0.06555 0.15803
# Poissons Ratio (z) = 0.24723 0.54439
#
# Static dielectric constant tensor:
#      x y z
#    x 1.773780 -0.026600 0.010460 
#    y -0.026600 1.796730 0.015520 
#    z 0.010460 0.015520 1.772850 
# 
# From -- ./inp_files/317816.got.cif
#   From: 2010.05.17/outbox.cif.g08.bks.cpg/sg2_159_cif.got.tgz:317816.got - 2010.06.03 11:33:40.
