data_PCOD9020621
_publ_section_title
;
Structure prediction by ZEFSAII (Michael W. Deem and Ramdas Pophale) SiO2 
 PCOD9020621
Probable space group: P -1
;
_chemical_formula_sum "Si O2"
_cell_formula_units_Z 16
_cell_length_a 25.649228
_cell_length_b 7.972156
_cell_length_c 9.361913
_cell_angle_alpha 97.545408
_cell_angle_beta 141.264126
_cell_angle_gamma 54.537063
_cell_volume 757.416313
_symmetry_space_group_name_H-M "P -1"
_symmetry_group_IT_number 2
_symmetry_cell_setting 'triclinic'
loop_
_space_group_symop_operation_xyz
x,y,z
-x,-y,-z
loop_
_atom_site_type_symbol
_atom_site_label
_atom_site_fract_x
_atom_site_fract_y
_atom_site_fract_z
Si Si1 0.055999 0.621010 0.237373
Si Si2 0.269076 0.211372 0.856002
Si Si3 0.508234 0.637900 0.418241
Si Si4 0.450148 0.657715 0.764552
Si Si5 0.904412 0.515831 0.220611
Si Si6 0.364506 0.417363 0.056689
Si Si7 0.184238 0.243053 0.238624
Si Si8 0.064086 0.943712 0.477409
O O1 0.150462 0.357858 0.511502
O O2 0.129474 0.494425 0.229686
O O3 0.044728 0.819014 0.312051
O O4 0.917130 0.748565 0.941867
O O5 0.195524 0.389616 0.861381
O O6 0.345350 0.251237 0.956509
O O7 0.370512 0.910476 0.086958
O O8 0.500000 0.500000 0.500000
O O9 0.589070 0.434948 0.436634
O O10 0.568514 0.685537 0.654884
O O11 0.555441 0.602895 0.892927
O O12 0.326933 0.969336 0.562483
O O13 0.500000 0.500000 0.000000
O O14 0.000000 0.500000 0.500000
O O15 0.822186 0.725675 0.941272
O O16 0.992663 0.227877 0.315289
O O17 0.219883 0.722371 0.797629
O O18 0.000000 0.000000 0.500000
#
# Coordination Sequence:
#
# PCOD9020621 Si02
#       8
#     2   2   2   2   2   2   2   2
#     4  10  23  43  66  94 135 177 215 287 330 401
#     4  11  21  42  63  94 135 171 222 278 340 382
#     4  10  22  36  63  94 131 173 222 271 321 398
#     4  11  25  44  66  95 131 181 222 270 332 407
#     4  12  23  36  69 101 128 174 217 283 330 399
#     4  10  23  41  65  96 131 174 221 281 330 400
#     4  11  24  42  66  98 136 174 229 264 344 402
#     4  11  22  42  68  98 135 170 226 275 341 393
#
# _framework density 21.124445000000001
#
# number of rings (size 3 to 8) (size 9 to 14) (size 15 to 20)
#    0.000    1.250    3.750    2.625    7.000    2.500 
#    0.000    9.375    0.000    0.000    0.000    0.000 
#    0.000    0.000    0.000    0.000    0.000    0.000 
#
# Total GULP energy -89321.336851 kJ/mol
# GULP energy per Si atom -5582.583553 kJ/mol
# Density = 2.107637 g / cm^3
# Si number density = 21.124445 Si / 1000 Ang^3
#
#
#
# Elastic Constant Matrix: (Units=GPa)
#
#
# Indices 1 2 3 4 5 6 
#
# 1 97.4161 23.9168 42.9237 0.4343 -1.7373 -11.6013
# 2 23.9168 106.3505 25.5483 -0.5211 4.5322 -5.1922
# 3 42.9237 25.5483 71.3533 -7.7473 0.0814 1.3217
# 4 0.4343 -0.5211 -7.7473 40.3437 -4.1721 -8.5122
# 5 -1.7373 4.5322 0.0814 -4.1721 37.5253 -1.3272
# 6 -11.6013 -5.1922 1.3217 -8.5122 -1.3272 31.7506
#
#
#
# Elastic Compliance Matrix: (Units=1/GPa)
#
#
# Indices 1 2 3 4 5 6 
#
# 1 0.015129 -0.001035 -0.008901 -0.000601 0.000976 0.005609
# 2 -0.001035 0.010524 -0.003204 -0.000321 -0.001300 0.001336
# 3 -0.008901 -0.003204 0.020944 0.003301 0.000164 -0.003756
# 4 -0.000601 -0.000321 0.003301 0.027246 0.003282 0.007032
# 5 0.000976 -0.001300 0.000164 0.003282 0.027292 0.002158
# 6 0.005609 0.001336 -0.003756 0.007032 0.002158 0.035895
#
#
# Mechanical properties :
#
#
# Convention : Reuss Voigt Hill
#
# Bulk Modulus (GPa) = 49.21622 51.09969 50.15796
# Shear Modulus (GPa) = 29.39727 34.10598 31.75163
#
# Velocity S-wave (km/s) = 3.73449 4.02248 3.88116
# Velocity P-wave (km/s) = 6.47642 6.76876 6.62420
#
# Compressibility (1/GPa) = 0.02031850
#
# Stress axis : x y z
#
# Youngs Moduli (GPa) = 66.09651 95.01811 47.74571
#
# Poissons Ratio (x) = 0.09833 0.42499
# Poissons Ratio (y) = 0.06840 0.15297
# Poissons Ratio (z) = 0.58833 0.30442
#
# Static dielectric constant tensor:
#      x y z
#    x 1.799530 0.021810 -0.000850 
#    y 0.021810 1.815260 0.029460 
#    z -0.000850 0.029460 1.788740 
# 
# From -- ./inp_files/178911.got.cif
#   From: 2010.05.17/outbox.cif.g08.bks.cpg/sg2_90_cif.got.tgz:178911.got - 2010.06.03 11:33:40.
