data_PCOD9020346
_publ_section_title
;
Structure prediction by ZEFSAII (Michael W. Deem and Ramdas Pophale) SiO2 
 PCOD9020346
Probable space group: P -1
;
_chemical_formula_sum "Si O2"
_cell_formula_units_Z 14
_cell_length_a 7.155769
_cell_length_b 13.742198
_cell_length_c 10.368242
_cell_angle_alpha 132.666613
_cell_angle_beta 132.176282
_cell_angle_gamma 71.334258
_cell_volume 538.272586
_symmetry_space_group_name_H-M "P -1"
_symmetry_group_IT_number 2
_symmetry_cell_setting 'triclinic'
loop_
_space_group_symop_operation_xyz
x,y,z
-x,-y,-z
loop_
_atom_site_type_symbol
_atom_site_label
_atom_site_fract_x
_atom_site_fract_y
_atom_site_fract_z
Si Si1 0.837957 0.315968 0.050502
Si Si2 0.227303 0.390392 0.512285
Si Si3 0.129336 0.873955 0.447520
Si Si4 0.729859 0.730921 0.322197
Si Si5 0.600257 0.836148 0.791931
Si Si6 0.620312 0.606422 0.763364
Si Si7 0.847366 0.040621 0.746941
O O1 0.979916 0.392670 0.310807
O O2 0.070951 0.358744 0.090057
O O3 0.569511 0.341329 0.904103
O O4 0.767951 0.151224 0.904121
O O5 0.154454 0.346249 0.583618
O O6 0.324851 0.265643 0.372691
O O7 0.475728 0.520644 0.737814
O O8 0.904630 0.751788 0.292872
O O9 0.200273 0.881977 0.338054
O O10 0.372585 0.888970 0.668621
O O11 0.000000 0.000000 0.500000
O O12 0.741832 0.882429 0.523330
O O13 0.533958 0.743322 0.807041
O O14 0.858220 0.945867 0.054810
O O15 0.500000 0.500000 0.500000
#
# Coordination Sequence:
#
# PCOD9020346 Si02
#       7
#     2   2   2   2   2   2   2
#     4   9  18  33  55  77 101 132 170 218 257 294
#     4   9  19  35  57  79  99 131 176 217 252 297
#     4  10  22  35  49  73 108 144 172 200 250 315
#     4  11  21  30  49  80 109 133 165 212 260 300
#     4   9  18  36  58  73  98 141 173 208 254 300
#     4   7  15  34  57  77  97 130 175 212 253 300
#     4   9  20  35  52  75 102 138 176 206 252 310
#
# _framework density 26.009125999999998
#
# number of rings (size 3 to 8) (size 9 to 14) (size 15 to 20)
#    0.000    3.429    0.000    1.286    0.000    9.714 
#    0.000    5.000    0.000   17.143    0.000    1.000 
#    0.000    0.000    0.000    0.000    0.000    0.000 
#
# Total GULP energy -78104.704941 kJ/mol
# GULP energy per Si atom -5578.907496 kJ/mol
# Density = 2.594993 g / cm^3
# Si number density = 26.009126 Si / 1000 Ang^3
#
#
#
# Elastic Constant Matrix: (Units=GPa)
#
#
# Indices 1 2 3 4 5 6 
#
# 1 59.3426 44.3433 29.6486 -13.2881 14.8749 7.7008
# 2 44.3433 109.2949 59.8893 -25.0817 15.2528 28.7484
# 3 29.6486 59.8893 165.4075 -14.8150 31.8983 -12.7001
# 4 -13.2881 -25.0817 -14.8150 44.7901 -21.2359 0.3723
# 5 14.8749 15.2528 31.8983 -21.2359 42.7602 -1.4871
# 6 7.7008 28.7484 -12.7001 0.3723 -1.4871 44.3328
#
#
#
# Elastic Compliance Matrix: (Units=1/GPa)
#
#
# Indices 1 2 3 4 5 6 
#
# 1 0.025510 -0.010728 0.000545 -0.001078 -0.005903 0.002493
# 2 -0.010728 0.023511 -0.007997 0.010245 0.005857 -0.015563
# 3 0.000545 -0.007997 0.010405 -0.004222 -0.006922 0.007875
# 4 -0.001078 0.010245 -0.004222 0.034302 0.016648 -0.007395
# 5 -0.005903 0.005857 -0.006922 0.016648 0.036654 -0.003666
# 6 0.002493 -0.015563 0.007875 -0.007395 -0.003666 0.034411
#
#
# Mechanical properties :
#
#
# Convention : Reuss Voigt Hill
#
# Bulk Modulus (GPa) = 43.35304 66.86749 55.11027
# Shear Modulus (GPa) = 23.94161 39.72087 31.83124
#
# Velocity S-wave (km/s) = 3.03728 3.91217 3.50215
# Velocity P-wave (km/s) = 5.38560 6.79498 6.13092
#
# Compressibility (1/GPa) = 0.02306643
#
# Stress axis : x y z
#
# Youngs Moduli (GPa) = 39.20016 42.53281 96.11015
#
# Poissons Ratio (x) = 0.45629 -0.05236
# Poissons Ratio (y) = 0.42053 0.76857
# Poissons Ratio (z) = -0.02136 0.34012
#
# Static dielectric constant tensor:
#      x y z
#    x 2.386020 0.106860 -0.028390 
#    y 0.106860 2.150870 0.071050 
#    z -0.028390 0.071050 2.030200 
# 
# From -- ./inp_files/397692.got.cif
#   From: 2010.05.17/outbox.cif.g08.bks.cpg/sg2_199_cif.got.tgz:397692.got - 2010.06.03 11:33:40.
