data_PCOD9020407
_publ_section_title
;
Structure prediction by ZEFSAII (Michael W. Deem and Ramdas Pophale) SiO2 
 PCOD9020407
Probable space group: P -1
;
_chemical_formula_sum "Si O2"
_cell_formula_units_Z 16
_cell_length_a 17.078229
_cell_length_b 9.448368
_cell_length_c 13.842163
_cell_angle_alpha 73.801197
_cell_angle_beta 22.468514
_cell_angle_gamma 76.381410
_cell_volume 818.215066
_symmetry_space_group_name_H-M "P -1"
_symmetry_group_IT_number 2
_symmetry_cell_setting 'triclinic'
loop_
_space_group_symop_operation_xyz
x,y,z
-x,-y,-z
loop_
_atom_site_type_symbol
_atom_site_label
_atom_site_fract_x
_atom_site_fract_y
_atom_site_fract_z
Si Si1 0.531704 0.846238 0.547774
Si Si2 0.352576 0.063678 0.073865
Si Si3 0.102427 0.723946 0.135479
Si Si4 0.990965 0.875783 0.418477
Si Si5 0.925687 0.461321 0.254169
Si Si6 0.696388 0.578879 0.312471
Si Si7 0.118605 0.019973 0.761640
Si Si8 0.777439 0.145039 0.497693
O O1 0.652945 0.746772 0.354835
O O2 0.665755 0.894806 0.478066
O O3 0.500000 0.000000 0.500000
O O4 0.336700 0.746789 0.827899
O O5 0.191095 0.167677 0.289314
O O6 0.197954 0.942190 0.221940
O O7 0.529818 0.129544 0.788396
O O8 0.500000 0.000000 0.000000
O O9 0.053500 0.746393 0.300059
O O10 0.990102 0.585294 0.236021
O O11 0.012301 0.871505 0.169163
O O12 0.888871 0.015227 0.453136
O O13 0.755530 0.511008 0.361987
O O14 0.854149 0.306456 0.413652
O O15 0.119612 0.436805 0.969023
O O16 0.500000 0.500000 0.500000
O O17 0.155532 0.875231 0.686187
O O18 0.000000 0.000000 0.000000
#
# Coordination Sequence:
#
# PCOD9020407 Si02
#       8
#     2   2   2   2   2   2   2   2
#     4  12  23  34  57  81 111 157 210 245 284 336
#     4   9  18  40  65  90 112 143 189 250 303 350
#     4  11  22  38  54  86 118 157 191 245 295 343
#     4   9  20  38  65  89 115 142 193 249 301 350
#     4  11  24  39  56  79 127 161 202 237 292 353
#     4  11  24  39  53  79 119 175 203 241 288 341
#     4  11  21  36  53  82 119 151 202 248 281 333
#     4  10  22  35  60  87 113 156 197 240 292 352
#
# _framework density 19.554760999999999
#
# number of rings (size 3 to 8) (size 9 to 14) (size 15 to 20)
#    0.000    1.500    3.750    1.500    5.250    1.000 
#    0.000    0.625    0.000    6.750    0.000    0.000 
#    0.000    0.000    0.000    0.000    0.000    0.000 
#
# Total GULP energy -89168.416829 kJ/mol
# GULP energy per Si atom -5573.026052 kJ/mol
# Density = 1.951025 g / cm^3
# Si number density = 19.554761 Si / 1000 Ang^3
#
#
#
# Elastic Constant Matrix: (Units=GPa)
#
#
# Indices 1 2 3 4 5 6 
#
# 1 56.3277 15.0279 40.7013 9.1784 -1.9525 32.2278
# 2 15.0279 85.4704 32.6867 10.7573 10.5844 28.4142
# 3 40.7013 32.6867 112.7829 0.3105 -4.4627 20.7988
# 4 9.1784 10.7573 0.3105 24.4998 9.8044 0.1211
# 5 -1.9525 10.5844 -4.4627 9.8044 35.3061 4.6081
# 6 32.2278 28.4142 20.7988 0.1211 4.6081 34.9990
#
#
#
# Elastic Compliance Matrix: (Units=1/GPa)
#
#
# Indices 1 2 3 4 5 6 
#
# 1 0.091544 0.029071 -0.022553 -0.054861 0.021408 -0.097123
# 2 0.029071 0.027463 -0.010175 -0.024427 0.004554 -0.043533
# 3 -0.022553 -0.010175 0.016187 0.013615 -0.002502 0.019691
# 4 -0.054861 -0.024427 0.013615 0.081682 -0.025195 0.065292
# 5 0.021408 0.004554 -0.002502 -0.025195 0.038331 -0.026883
# 6 -0.097123 -0.043533 0.019691 0.065292 -0.026883 0.144960
#
#
# Mechanical properties :
#
#
# Convention : Reuss Voigt Hill
#
# Bulk Modulus (GPa) = 7.81984 47.93475 27.87729
# Shear Modulus (GPa) = 11.10849 30.03865 20.57357
#
# Velocity S-wave (km/s) = 2.38601 3.92360 3.24713
# Velocity P-wave (km/s) = 3.40563 6.71509 5.32404
#
# Compressibility (1/GPa) = 0.12787986
#
# Stress axis : x y z
#
# Youngs Moduli (GPa) = 10.92372 36.41318 61.77943
#
# Poissons Ratio (x) = -1.05856 1.39330
# Poissons Ratio (y) = -0.31756 0.62859
# Poissons Ratio (z) = 0.24636 0.37049
#
# Static dielectric constant tensor:
#      x y z
#    x 1.791990 -0.013150 0.051800 
#    y -0.013150 1.670950 -0.010480 
#    z 0.051800 -0.010480 1.737930 
# 
# From -- ./inp_files/137619.got.cif
#   From: 2010.05.17/outbox.cif.g08.bks.cpg/sg2_69_cif.got.tgz:137619.got - 2010.06.03 11:33:40.
