data_PCOD9020946
_publ_section_title
;
Structure prediction by ZEFSAII (Michael W. Deem and Ramdas Pophale) SiO2 
 PCOD9020946
Probable space group: P -1
;
_chemical_formula_sum "Si O2"
_cell_formula_units_Z 16
_cell_length_a 18.069253
_cell_length_b 7.899917
_cell_length_c 5.205813
_cell_angle_alpha 63.218696
_cell_angle_beta 81.528043
_cell_angle_gamma 61.021086
_cell_volume 577.935688
_symmetry_space_group_name_H-M "P -1"
_symmetry_group_IT_number 2
_symmetry_cell_setting 'triclinic'
loop_
_space_group_symop_operation_xyz
x,y,z
-x,-y,-z
loop_
_atom_site_type_symbol
_atom_site_label
_atom_site_fract_x
_atom_site_fract_y
_atom_site_fract_z
Si Si1 0.027165 0.713198 0.449498
Si Si2 0.308307 0.385334 0.548205
Si Si3 0.105662 0.976216 0.092815
Si Si4 0.432399 0.751832 0.887418
Si Si5 0.208629 0.575781 0.947494
Si Si6 0.499184 0.270497 0.629252
Si Si7 0.125735 0.313806 0.321091
Si Si8 0.251691 0.030258 0.850783
O O1 0.075844 0.849752 0.392106
O O2 0.091378 0.476781 0.478613
O O3 0.956088 0.718282 0.675891
O O4 0.972773 0.831368 0.140541
O O5 0.274529 0.449086 0.232290
O O6 0.405853 0.320907 0.567824
O O7 0.289497 0.191792 0.773925
O O8 0.256104 0.566470 0.666149
O O9 0.150357 0.802057 0.957530
O O10 0.179964 0.036830 0.075260
O O11 0.435606 0.854884 0.544900
O O12 0.336515 0.801310 0.956767
O O13 0.500000 0.500000 0.000000
O O14 0.468260 0.835676 0.040699
O O15 0.152284 0.452261 0.027377
O O16 0.500000 0.500000 0.500000
O O17 0.204151 0.108699 0.548320
#
# Coordination Sequence:
#
# PCOD9020946 Si02
#       8
#     2   2   2   2   2   2   2   2
#     4   8  14  32  63  96 133 168 213 262 321 376
#     4  11  24  42  65  94 131 169 219 267 322 379
#     4   9  18  33  65  99 130 173 216 263 316 388
#     4  10  23  41  63  93 128 168 210 270 318 379
#     4  10  22  39  66  97 131 172 213 264 315 380
#     4  10  23  40  64  89 124 173 207 269 323 378
#     4   8  16  34  61  94 132 169 210 266 317 378
#     4  10  22  37  62  96 130 170 219 264 322 383
#
# _framework density 27.684740999999999
#
# number of rings (size 3 to 8) (size 9 to 14) (size 15 to 20)
#    0.000    2.500    0.000    0.750    7.000    3.000 
#    0.000    3.750    0.000   94.500    0.000    0.000 
#    0.000    0.000    0.000    0.000    0.000    0.000 
#
# Total GULP energy -89647.987725 kJ/mol
# GULP energy per Si atom -5602.999233 kJ/mol
# Density = 2.762173 g / cm^3
# Si number density = 27.684741 Si / 1000 Ang^3
#
#
#
# Elastic Constant Matrix: (Units=GPa)
#
#
# Indices 1 2 3 4 5 6 
#
# 1 189.6455 29.4678 26.7531 -5.2568 -12.5364 -4.0447
# 2 29.4678 52.6535 19.2908 -15.6748 13.4573 -4.3098
# 3 26.7531 19.2908 78.8879 18.0421 10.4249 6.1651
# 4 -5.2568 -15.6748 18.0421 55.7707 2.2206 -5.5983
# 5 -12.5364 13.4573 10.4249 2.2206 49.7387 -7.5501
# 6 -4.0447 -4.3098 6.1651 -5.5983 -7.5501 57.5305
#
#
#
# Elastic Compliance Matrix: (Units=1/GPa)
#
#
# Indices 1 2 3 4 5 6 
#
# 1 0.006292 -0.003555 -0.001752 0.000118 0.003027 0.000772
# 2 -0.003555 0.029124 -0.007682 0.010911 -0.007217 0.002870
# 3 -0.001752 -0.007682 0.017635 -0.008310 -0.002249 -0.003692
# 4 0.000118 0.010911 -0.008310 0.024150 -0.001675 0.003846
# 5 0.003027 -0.007217 -0.002249 -0.001675 0.023803 0.002874
# 6 0.000772 0.002870 -0.003692 0.003846 0.002874 0.018799
#
#
# Mechanical properties :
#
#
# Convention : Reuss Voigt Hill
#
# Bulk Modulus (GPa) = 36.93670 52.46782 44.70226
# Shear Modulus (GPa) = 32.29869 48.98631 40.64250
#
# Velocity S-wave (km/s) = 3.41935 4.21103 3.83567
# Velocity P-wave (km/s) = 5.38146 6.52968 5.98318
#
# Compressibility (1/GPa) = 0.02707334
#
# Stress axis : x y z
#
# Youngs Moduli (GPa) = 158.92255 34.33614 56.70470
#
# Poissons Ratio (x) = 0.12207 0.09934
# Poissons Ratio (y) = 0.56499 0.43561
# Poissons Ratio (z) = 0.27841 0.26377
#
# Static dielectric constant tensor:
#      x y z
#    x 2.144210 0.013490 0.035260 
#    y 0.013490 2.107920 0.253930 
#    z 0.035260 0.253930 1.850850 
# 
# From -- ./inp_files/106278.got.cif
#   From: 2010.05.17/outbox.cif.g08.bks.cpg/sg2_54_cif.got.tgz:106278.got - 2010.06.03 11:33:40.
