data_PCOD9020866
_publ_section_title
;
Structure prediction by ZEFSAII (Michael W. Deem and Ramdas Pophale) SiO2 
 PCOD9020866
Probable space group: P -1
;
_chemical_formula_sum "Si O2"
_cell_formula_units_Z 16
_cell_length_a 9.091735
_cell_length_b 13.450134
_cell_length_c 13.947441
_cell_angle_alpha 48.174047
_cell_angle_beta 83.911588
_cell_angle_gamma 123.391105
_cell_volume 689.215849
_symmetry_space_group_name_H-M "P -1"
_symmetry_group_IT_number 2
_symmetry_cell_setting 'triclinic'
loop_
_space_group_symop_operation_xyz
x,y,z
-x,-y,-z
loop_
_atom_site_type_symbol
_atom_site_label
_atom_site_fract_x
_atom_site_fract_y
_atom_site_fract_z
Si Si1 0.562749 0.461818 0.386914
Si Si2 0.407661 0.046777 0.908073
Si Si3 0.418815 0.593355 0.092295
Si Si4 0.322759 0.721239 0.840664
Si Si5 0.055245 0.881307 0.202379
Si Si6 0.297480 0.976446 0.748134
Si Si7 0.825365 0.589230 0.575245
Si Si8 0.672874 0.519583 0.121345
O O1 0.749682 0.672394 0.320251
O O2 0.305182 0.362582 0.453798
O O3 0.689095 0.543626 0.219374
O O4 0.463408 0.238785 0.563553
O O5 0.326759 0.943560 0.875068
O O6 0.635439 0.332038 0.710036
O O7 0.162069 0.916485 0.069747
O O8 0.500000 0.000000 0.000000
O O9 0.381870 0.672640 0.960255
O O10 0.191423 0.445162 0.286401
O O11 0.453196 0.465713 0.139556
O O12 0.718905 0.842356 0.958822
O O13 0.418504 0.947109 0.695105
O O14 0.416711 0.697556 0.762792
O O15 0.000000 0.500000 0.000000
O O16 0.059812 0.780366 0.356165
O O17 0.974359 0.763330 0.896648
#
# Coordination Sequence:
#
# PCOD9020866 Si02
#       8
#     2   2   2   2   2   2   2   2
#     4  11  22  37  63  99 125 163 201 247 312 374
#     4  11  23  37  55  86 130 168 206 240 298 370
#     4  10  22  40  65  96 122 157 209 258 312 371
#     4  10  23  45  66  85 119 167 212 263 310 359
#     4  11  21  37  62  95 129 161 195 247 310 370
#     4  11  21  39  61  88 128 163 210 250 302 368
#     4  10  22  37  60  94 132 158 199 248 305 378
#     4  10  22  40  67  89 122 165 209 262 307 354
#
# _framework density 23.214789
#
# number of rings (size 3 to 8) (size 9 to 14) (size 15 to 20)
#    0.000    1.500    2.500    3.000    1.750    2.500 
#    2.250    2.500    0.000    9.000    0.000    0.000 
#    0.000    0.000    0.000    0.000    0.000    0.000 
#
# Total GULP energy -89143.844471 kJ/mol
# GULP energy per Si atom -5571.490279 kJ/mol
# Density = 2.316195 g / cm^3
# Si number density = 23.214789 Si / 1000 Ang^3
#
#
#
# Elastic Constant Matrix: (Units=GPa)
#
#
# Indices 1 2 3 4 5 6 
#
# 1 188.5548 35.9303 4.4334 60.7936 -32.8716 37.3810
# 2 35.9303 77.7717 6.4917 15.7141 5.2757 -4.9076
# 3 4.4334 6.4917 74.4512 12.8348 9.4356 0.5368
# 4 60.7936 15.7141 12.8348 68.7449 -40.3189 32.8268
# 5 -32.8716 5.2757 9.4356 -40.3189 56.7604 -17.8204
# 6 37.3810 -4.9076 0.5368 32.8268 -17.8204 49.7486
#
#
#
# Elastic Compliance Matrix: (Units=1/GPa)
#
#
# Indices 1 2 3 4 5 6 
#
# 1 0.008123 -0.003040 0.000582 -0.004872 0.000480 -0.003023
# 2 -0.003040 0.017214 0.001408 -0.010022 -0.008328 0.007597
# 3 0.000582 0.001408 0.016286 -0.010885 -0.009157 0.003428
# 4 -0.004872 -0.010022 -0.010885 0.049442 0.028926 -0.019473
# 5 0.000480 -0.008328 -0.009157 0.028926 0.038766 -0.006284
# 6 -0.003023 0.007597 0.003428 -0.019473 -0.006284 0.033683
#
#
# Mechanical properties :
#
#
# Convention : Reuss Voigt Hill
#
# Bulk Modulus (GPa) = 25.30075 48.27650 36.78862
# Shear Modulus (GPa) = 27.96576 54.64559 41.30568
#
# Velocity S-wave (km/s) = 3.47458 4.85698 4.22273
# Velocity P-wave (km/s) = 5.19799 7.23148 6.29736
#
# Compressibility (1/GPa) = 0.03952452
#
# Stress axis : x y z
#
# Youngs Moduli (GPa) = 123.10690 58.09071 61.40093
#
# Poissons Ratio (x) = 0.17661 -0.03575
# Poissons Ratio (y) = 0.37428 -0.08648
# Poissons Ratio (z) = -0.07168 -0.08181
#
# Static dielectric constant tensor:
#      x y z
#    x 2.149490 0.052240 -0.197800 
#    y 0.052240 1.920350 -0.074140 
#    z -0.197800 -0.074140 2.087810 
# 
# From -- ./inp_files/503854.got.cif
#   From: 2010.05.17/outbox.cif.g08.bks.cpg/sg2_252_cif.got.tgz:503854.got - 2010.06.03 11:33:40.
