data_PCOD9020352
_publ_section_title
;
Structure prediction by ZEFSAII (Michael W. Deem and Ramdas Pophale) SiO2 
 PCOD9020352
Probable space group: P -1
;
_chemical_formula_sum "Si O2"
_cell_formula_units_Z 16
_cell_length_a 13.063106
_cell_length_b 14.601900
_cell_length_c 13.132168
_cell_angle_alpha 51.481186
_cell_angle_beta 22.510963
_cell_angle_gamma 52.202997
_cell_volume 744.431847
_symmetry_space_group_name_H-M "P -1"
_symmetry_group_IT_number 2
_symmetry_cell_setting 'triclinic'
loop_
_space_group_symop_operation_xyz
x,y,z
-x,-y,-z
loop_
_atom_site_type_symbol
_atom_site_label
_atom_site_fract_x
_atom_site_fract_y
_atom_site_fract_z
Si Si1 0.538132 0.106515 0.970267
Si Si2 0.357711 0.661155 0.801709
Si Si3 0.499205 0.963293 0.304336
Si Si4 0.094561 0.924298 0.867480
Si Si5 0.091640 0.481498 0.638127
Si Si6 0.759385 0.564762 0.236854
Si Si7 0.021484 0.738040 0.611367
Si Si8 0.331388 0.735387 0.536124
O O1 0.539236 0.060480 0.116870
O O2 0.287121 0.209636 0.125731
O O3 0.808807 0.161792 0.656441
O O4 0.500000 0.000000 0.000000
O O5 0.659862 0.598092 0.589101
O O6 0.310030 0.673933 0.710853
O O7 0.260838 0.796258 0.828023
O O8 0.181310 0.575308 0.083517
O O9 0.325806 0.871470 0.471529
O O10 0.304446 0.991138 0.561624
O O11 0.804501 0.908140 0.092744
O O12 0.000000 0.000000 0.000000
O O13 0.160258 0.447695 0.713908
O O14 0.061175 0.624065 0.577873
O O15 0.500000 0.500000 0.500000
O O16 0.636258 0.698288 0.240444
O O17 0.000000 0.500000 0.000000
O O18 0.143518 0.710836 0.631681
#
# Coordination Sequence:
#
# PCOD9020352 Si02
#       8
#     2   2   2   2   2   2   2   2
#     4  12  26  40  58  86 122 175 223 245 282 337
#     4  10  22  36  56  86 121 149 190 249 317 362
#     4  11  24  41  62  87 127 156 197 262 303 349
#     4  11  23  43  70  97 117 148 195 254 332 387
#     4  11  22  35  51  81 120 162 197 247 286 354
#     4  11  20  28  44  70 106 150 198 229 277 329
#     4  12  25  36  57  82 121 176 223 236 279 343
#     4  10  22  35  53  83 120 168 200 243 290 356
#
# _framework density 21.492899999999999
#
# number of rings (size 3 to 8) (size 9 to 14) (size 15 to 20)
#    0.000    1.000    2.500    6.000    5.250    2.000 
#    0.000    0.000    0.000    0.000    0.000   17.500 
#    0.000    0.000    0.000    0.000    0.000    0.000 
#
# Total GULP energy -89153.045498 kJ/mol
# GULP energy per Si atom -5572.065344 kJ/mol
# Density = 2.144398 g / cm^3
# Si number density = 21.492900 Si / 1000 Ang^3
#
#
#
# Elastic Constant Matrix: (Units=GPa)
#
#
# Indices 1 2 3 4 5 6 
#
# 1 13.1462 19.7745 10.0355 3.1135 7.0024 6.5834
# 2 19.7745 98.9308 19.7480 15.7758 17.4899 15.1297
# 3 10.0355 19.7480 128.2165 6.8533 15.4617 9.2575
# 4 3.1135 15.7758 6.8533 51.2612 -2.4610 3.9448
# 5 7.0024 17.4899 15.4617 -2.4610 23.4268 4.6645
# 6 6.5834 15.1297 9.2575 3.9448 4.6645 20.1386
#
#
#
# Elastic Compliance Matrix: (Units=1/GPa)
#
#
# Indices 1 2 3 4 5 6 
#
# 1 0.126311 -0.017916 -0.003335 -0.000880 -0.017894 -0.021982
# 2 -0.017916 0.015999 0.000198 -0.003855 -0.006321 -0.004034
# 3 -0.003335 0.000198 0.008787 -0.001122 -0.004712 -0.001786
# 4 -0.000880 -0.003855 -0.001122 0.021365 0.006523 -0.001996
# 5 -0.017894 -0.006321 -0.004712 0.006523 0.056886 -0.001689
# 6 -0.021982 -0.004034 -0.001786 -0.001996 -0.001689 0.061476
#
#
# Mechanical properties :
#
#
# Convention : Reuss Voigt Hill
#
# Bulk Modulus (GPa) = 9.17509 37.71217 23.44363
# Shear Modulus (GPa) = 13.54056 31.68100 22.61078
#
# Velocity S-wave (km/s) = 2.51271 3.84346 3.24699
# Velocity P-wave (km/s) = 3.56320 6.10579 4.99886
#
# Compressibility (1/GPa) = 0.10899080
#
# Stress axis : x y z
#
# Youngs Moduli (GPa) = 7.91696 62.50393 113.80324
#
# Poissons Ratio (x) = 1.11982 0.37952
# Poissons Ratio (y) = 0.14184 -0.02251
# Poissons Ratio (z) = 0.02640 -0.01236
#
# Static dielectric constant tensor:
#      x y z
#    x 1.805210 0.025190 0.016890 
#    y 0.025190 1.916890 0.023060 
#    z 0.016890 0.023060 1.752080 
# 
# From -- ./inp_files/534313.got.cif
#   From: 2010.05.17/outbox.cif.g08.bks.cpg/sg2_268_cif.got.tgz:534313.got - 2010.06.03 11:33:40.
