data_PCOD9020609
_publ_section_title
;
Structure prediction by ZEFSAII (Michael W. Deem and Ramdas Pophale) SiO2 
 PCOD9020609
Probable space group: P -1
;
_chemical_formula_sum "Si O2"
_cell_formula_units_Z 14
_cell_length_a 13.775666
_cell_length_b 23.743535
_cell_length_c 24.102089
_cell_angle_alpha 12.451587
_cell_angle_beta 157.904978
_cell_angle_gamma 159.411700
_cell_volume 589.613886
_symmetry_space_group_name_H-M "P -1"
_symmetry_group_IT_number 2
_symmetry_cell_setting 'triclinic'
loop_
_space_group_symop_operation_xyz
x,y,z
-x,-y,-z
loop_
_atom_site_type_symbol
_atom_site_label
_atom_site_fract_x
_atom_site_fract_y
_atom_site_fract_z
Si Si1 0.576785 0.483061 0.120639
Si Si2 0.322346 0.194760 0.996794
Si Si3 0.179979 0.855048 0.050833
Si Si4 0.250995 0.740898 0.481192
Si Si5 0.960759 0.291066 0.007898
Si Si6 0.316583 0.269779 0.533669
Si Si7 0.601925 0.628126 0.250446
O O1 0.639228 0.223199 0.431572
O O2 0.500000 0.500000 0.000000
O O3 0.292145 0.461245 0.019667
O O4 0.887908 0.727357 0.052527
O O5 0.325513 0.485716 0.742885
O O6 0.475358 0.266490 0.949709
O O7 0.393873 0.008570 0.259876
O O8 0.000000 0.000000 0.000000
O O9 0.352074 0.142639 0.897202
O O10 0.123281 0.868354 0.942953
O O11 0.371830 0.672558 0.333292
O O12 0.913385 0.629111 0.407284
O O13 0.818059 0.517107 0.720063
O O14 0.869734 0.047494 0.240520
O O15 0.378943 0.338094 0.435717
#
# Coordination Sequence:
#
# PCOD9020609 Si02
#       7
#     2   2   2   2   2   2   2
#     4  10  23  44  67  96 131 172 218 261 316 388
#     4  10  22  36  62  96 131 157 209 277 329 363
#     4  11  23  42  67  96 129 169 220 269 313 381
#     4  11  22  40  63  94 131 164 209 271 323 373
#     4  11  27  41  61  95 136 177 207 258 329 386
#     4  12  24  41  64  93 137 167 215 264 322 387
#     4  11  23  37  69  99 129 164 220 271 327 371
#
# _framework density 23.744353
#
# number of rings (size 3 to 8) (size 9 to 14) (size 15 to 20)
#    0.000    1.143    2.857    4.286    4.000    2.286 
#    0.000    5.714    0.000    5.143    0.000    0.000 
#    0.000    0.000    0.000    0.000    0.000    0.000 
#
# Total GULP energy -78187.715590 kJ/mol
# GULP energy per Si atom -5584.836828 kJ/mol
# Density = 2.369031 g / cm^3
# Si number density = 23.744353 Si / 1000 Ang^3
#
#
#
# Elastic Constant Matrix: (Units=GPa)
#
#
# Indices 1 2 3 4 5 6 
#
# 1 36.6074 65.6681 67.2748 11.1621 -24.9928 8.8703
# 2 65.6681 77.5284 48.5818 -4.7493 -4.4521 31.7283
# 3 67.2748 48.5818 170.5198 -8.4755 -20.2507 5.5284
# 4 11.1621 -4.7493 -8.4755 25.2190 1.1732 -1.8385
# 5 -24.9928 -4.4521 -20.2507 1.1732 56.4037 1.6157
# 6 8.8703 31.7283 5.5284 -1.8385 1.6157 40.1564
#
#
#
# Elastic Compliance Matrix: (Units=1/GPa)
#
#
# Indices 1 2 3 4 5 6 
#
# 1 -0.020507 0.021075 0.002347 0.013294 -0.006526 -0.011574
# 2 0.021075 0.002798 -0.008706 -0.012522 0.006881 -0.006518
# 3 0.002347 -0.008706 0.007604 0.000120 0.002932 0.005201
# 4 0.013294 -0.012522 0.000120 0.031863 0.004047 0.008237
# 5 -0.006526 0.006881 0.002932 0.004047 0.016489 -0.004877
# 6 -0.011574 -0.006518 0.005201 0.008237 -0.004877 0.032466
#
#
# Mechanical properties :
#
#
# Convention : Reuss Voigt Hill
#
# Bulk Modulus (GPa) = 51.73690 71.96723 61.85207
# Shear Modulus (GPa) = 104.77172 31.23121 68.00146
#
# Velocity S-wave (km/s) = 6.64986 3.63066 5.35735
# Velocity P-wave (km/s) = 8.98874 6.92463 8.02334
#
# Compressibility (1/GPa) = 0.01932857
#
# Stress axis : x y z
#
# Youngs Moduli (GPa) = -48.76356 357.40121 131.50566
#
# Poissons Ratio (x) = -7.53240 -0.30867
# Poissons Ratio (y) = 1.02772 1.14488
# Poissons Ratio (z) = 0.11446 3.11151
#
# Static dielectric constant tensor:
#      x y z
#    x 2.011230 -0.026620 -0.036540 
#    y -0.026620 1.901600 0.012590 
#    z -0.036540 0.012590 1.957040 
# 
# From -- ./inp_files/619982.got.cif
#   From: 2010.05.17/outbox.cif.g08.bks.cpg/sg2_310_cif.got.tgz:619982.got - 2010.06.03 11:33:40.
