data_PCOD9020132
_publ_section_title
;
Structure prediction by ZEFSAII (Michael W. Deem and Ramdas Pophale) SiO2 
 PCOD9020132
Probable space group: P -1
;
_chemical_formula_sum "Si O2"
_cell_formula_units_Z 14
_cell_length_a 6.330302
_cell_length_b 17.748832
_cell_length_c 5.196063
_cell_angle_alpha 93.145681
_cell_angle_beta 77.362524
_cell_angle_gamma 86.328431
_cell_volume 567.069282
_symmetry_space_group_name_H-M "P -1"
_symmetry_group_IT_number 2
_symmetry_cell_setting 'triclinic'
loop_
_space_group_symop_operation_xyz
x,y,z
-x,-y,-z
loop_
_atom_site_type_symbol
_atom_site_label
_atom_site_fract_x
_atom_site_fract_y
_atom_site_fract_z
Si Si1 0.530604 0.619688 0.110128
Si Si2 0.238030 0.035494 0.515587
Si Si3 0.089439 0.455883 0.218749
Si Si4 0.199397 0.267615 0.722266
Si Si5 0.559639 0.233098 0.192935
Si Si6 0.701326 0.867513 0.987647
Si Si7 0.148134 0.678530 0.543070
O O1 0.719481 0.649265 0.244069
O O2 0.331188 0.618948 0.356973
O O3 0.650317 0.555650 0.890244
O O4 0.474435 0.691408 0.954542
O O5 0.217333 0.082176 0.793802
O O6 0.500000 0.000000 0.500000
O O7 0.253707 0.088357 0.273243
O O8 0.000000 0.000000 0.500000
O O9 0.000000 0.500000 0.500000
O O10 0.001467 0.372665 0.260607
O O11 0.000000 0.500000 0.000000
O O12 0.370344 0.230720 0.459867
O O13 0.201045 0.215734 0.963562
O O14 0.971094 0.280271 0.654992
O O15 0.761174 0.253375 0.310861
O O16 0.545641 0.158513 0.006875
#
# Coordination Sequence:
#
# PCOD9020132 Si02
#       7
#     2   2   2   2   2   2   2
#     4  10  24  44  69 102 147 177 254 312 392 454
#     4  12  28  54  77 112 167 218 256 312 372 458
#     4  12  28  47  69  99 144 201 253 304 376 486
#     4  10  21  46  72 111 144 184 239 326 388 442
#     4  10  22  44  74 111 141 180 249 321 387 448
#     4  11  24  49  77 118 146 197 263 308 376 467
#     4  11  25  44  76 103 147 196 237 329 409 440
#
# _framework density 24.688341999999999
#
# number of rings (size 3 to 8) (size 9 to 14) (size 15 to 20)
#    0.000    1.143    2.857    1.714    6.000    2.286 
#   10.286    0.000    0.000    0.000    0.000    0.000 
#    0.000    0.000    0.000    0.000    0.000    0.000 
#
# Total GULP energy -77948.808051 kJ/mol
# GULP energy per Si atom -5567.772004 kJ/mol
# Density = 2.463215 g / cm^3
# Si number density = 24.688342 Si / 1000 Ang^3
#
#
#
# Elastic Constant Matrix: (Units=GPa)
#
#
# Indices 1 2 3 4 5 6 
#
# 1 139.9193 49.5561 52.2749 -1.6726 0.4863 23.8218
# 2 49.5561 73.9218 36.5724 -19.6436 1.0769 21.1797
# 3 52.2749 36.5724 144.3336 -19.4345 8.6645 9.5023
# 4 -1.6726 -19.6436 -19.4345 50.8369 -0.0081 10.2072
# 5 0.4863 1.0769 8.6645 -0.0081 58.6463 7.1917
# 6 23.8218 21.1797 9.5023 10.2072 7.1917 24.4943
#
#
#
# Elastic Compliance Matrix: (Units=1/GPa)
#
#
# Indices 1 2 3 4 5 6 
#
# 1 0.010634 -0.004971 -0.002560 -0.001614 0.000952 -0.004658
# 2 -0.004971 0.030345 -0.001986 0.016522 0.003272 -0.028480
# 3 -0.002560 -0.001986 0.008756 0.002465 -0.001254 0.000150
# 4 -0.001614 0.016522 0.002465 0.032580 0.002792 -0.028069
# 5 0.000952 0.003272 -0.001254 0.002792 0.018374 -0.009827
# 6 -0.004658 -0.028480 0.000150 -0.028069 -0.009827 0.084506
#
#
# Mechanical properties :
#
#
# Convention : Reuss Voigt Hill
#
# Bulk Modulus (GPa) = 32.57003 70.55351 51.56177
# Shear Modulus (GPa) = 23.31405 41.44692 32.38049
#
# Velocity S-wave (km/s) = 3.07634 4.10177 3.62549
# Velocity P-wave (km/s) = 5.08326 7.14649 6.20129
#
# Compressibility (1/GPa) = 0.03070307
#
# Stress axis : x y z
#
# Youngs Moduli (GPa) = 94.03480 32.95424 114.20740
#
# Poissons Ratio (x) = 0.16381 0.29235
# Poissons Ratio (y) = 0.46743 0.22677
# Poissons Ratio (z) = 0.24071 0.06543
#
# Static dielectric constant tensor:
#      x y z
#    x 2.192150 0.115060 0.074110 
#    y 0.115060 2.094060 0.198400 
#    z 0.074110 0.198400 2.083150 
# 
# From -- ./inp_files/7832.got.cif
#   From: 2010.05.17/outbox.cif.g08.bks.cpg/sg2_4_cif.got.tgz:7832.got - 2010.06.03 11:33:40.
