data_PCOD9020526
_publ_section_title
;
Structure prediction by ZEFSAII (Michael W. Deem and Ramdas Pophale) SiO2 
 PCOD9020526
Probable space group: P -1
;
_chemical_formula_sum "Si O2"
_cell_formula_units_Z 14
_cell_length_a 24.051110
_cell_length_b 13.984955
_cell_length_c 6.440365
_cell_angle_alpha 72.972214
_cell_angle_beta 64.865139
_cell_angle_gamma 21.277244
_cell_volume 675.798712
_symmetry_space_group_name_H-M "P -1"
_symmetry_group_IT_number 2
_symmetry_cell_setting 'triclinic'
loop_
_space_group_symop_operation_xyz
x,y,z
-x,-y,-z
loop_
_atom_site_type_symbol
_atom_site_label
_atom_site_fract_x
_atom_site_fract_y
_atom_site_fract_z
Si Si1 0.016631 0.053633 0.753065
Si Si2 0.909185 0.927082 0.010631
Si Si3 0.765867 0.611696 0.415301
Si Si4 0.463962 0.922852 0.824974
Si Si5 0.922129 0.681233 0.199189
Si Si6 0.209820 0.280984 0.343468
Si Si7 0.743517 0.352100 0.750507
O O1 0.847734 0.284820 0.740872
O O2 0.168214 0.802158 0.512150
O O3 0.052584 0.099464 0.795712
O O4 0.000000 0.000000 0.000000
O O5 0.088580 0.665299 0.768862
O O6 0.777910 0.202988 0.934717
O O7 0.861507 0.883108 0.098961
O O8 0.611305 0.778397 0.631428
O O9 0.845945 0.545677 0.526203
O O10 0.683528 0.821186 0.263401
O O11 0.552151 0.681033 0.815144
O O12 0.384242 0.046381 0.102350
O O13 0.783984 0.826192 0.452588
O O14 0.073775 0.468083 0.260229
O O15 0.000000 0.500000 0.000000
#
# Coordination Sequence:
#
# PCOD9020526 Si02
#       7
#     2   2   2   2   2   2   2
#     4   9  19  36  56  88 123 166 203 243 300 366
#     4  11  22  38  63  92 120 162 214 253 301 368
#     4  11  23  38  62  94 128 160 206 255 310 372
#     4  11  23  38  58  95 131 163 194 255 314 379
#     4  11  23  42  65  92 119 159 219 268 294 360
#     4  11  23  40  65  88 122 165 207 260 313 357
#     4  10  22  36  59  87 132 163 199 249 310 371
#
# _framework density 20.716229999999999
#
# number of rings (size 3 to 8) (size 9 to 14) (size 15 to 20)
#    0.000    1.429    2.857    3.000    4.000    4.571 
#    0.000    0.714    0.000    4.286    0.000    0.000 
#    0.000    0.000    0.000    0.000    0.000    0.000 
#
# Total GULP energy -78130.937308 kJ/mol
# GULP energy per Si atom -5580.781236 kJ/mol
# Density = 2.066908 g / cm^3
# Si number density = 20.716230 Si / 1000 Ang^3
#
#
#
# Elastic Constant Matrix: (Units=GPa)
#
#
# Indices 1 2 3 4 5 6 
#
# 1 74.3341 15.0015 30.8101 -14.6545 19.4635 17.0784
# 2 15.0015 107.2724 30.1843 -19.1260 3.7808 31.1546
# 3 30.8101 30.1843 128.6218 -13.4848 6.7284 8.6907
# 4 -14.6545 -19.1260 -13.4848 25.4977 4.7942 -5.2053
# 5 19.4635 3.7808 6.7284 4.7942 49.4413 -4.1105
# 6 17.0784 31.1546 8.6907 -5.2053 -4.1105 24.5066
#
#
#
# Elastic Compliance Matrix: (Units=1/GPa)
#
#
# Indices 1 2 3 4 5 6 
#
# 1 0.026875 0.008945 -0.004120 0.017125 -0.014647 -0.027459
# 2 0.008945 0.020300 -0.002968 0.014406 -0.008507 -0.029355
# 3 -0.004120 -0.002968 0.009262 0.000905 0.000807 0.003687
# 4 0.017125 0.014406 0.000905 0.059035 -0.015405 -0.020614
# 5 -0.014647 -0.008507 0.000807 -0.015405 0.029895 0.022478
# 6 -0.027459 -0.029355 0.003687 -0.020614 0.022478 0.095344
#
#
# Mechanical properties :
#
#
# Convention : Reuss Voigt Hill
#
# Bulk Modulus (GPa) = 16.62460 51.35778 33.99119
# Shear Modulus (GPa) = 19.45175 35.50462 27.47819
#
# Velocity S-wave (km/s) = 3.06757 4.14436 3.64594
# Velocity P-wave (km/s) = 4.53751 6.90984 5.84529
#
# Compressibility (1/GPa) = 0.06015183
#
# Stress axis : x y z
#
# Youngs Moduli (GPa) = 37.20908 49.26111 107.97252
#
# Poissons Ratio (x) = -0.44066 0.44484
# Poissons Ratio (y) = -0.33285 0.32045
# Poissons Ratio (z) = 0.15330 0.14620
#
# Static dielectric constant tensor:
#      x y z
#    x 1.783290 0.027350 -0.022080 
#    y 0.027350 1.767620 -0.032230 
#    z -0.022080 -0.032230 1.732530 
# 
# From -- ./inp_files/123997.got.cif
#   From: 2010.05.17/outbox.cif.g08.bks.cpg/sg2_62_cif.got.tgz:123997.got - 2010.06.03 11:33:40.
