data_PCOD9020883
_publ_section_title
;
Structure prediction by ZEFSAII (Michael W. Deem and Ramdas Pophale) SiO2 
 PCOD9020883
Probable space group: P -1
;
_chemical_formula_sum "Si O2"
_cell_formula_units_Z 14
_cell_length_a 7.704855
_cell_length_b 12.420303
_cell_length_c 15.990046
_cell_angle_alpha 23.839242
_cell_angle_beta 57.412870
_cell_angle_gamma 64.351331
_cell_volume 513.007308
_symmetry_space_group_name_H-M "P -1"
_symmetry_group_IT_number 2
_symmetry_cell_setting 'triclinic'
loop_
_space_group_symop_operation_xyz
x,y,z
-x,-y,-z
loop_
_atom_site_type_symbol
_atom_site_label
_atom_site_fract_x
_atom_site_fract_y
_atom_site_fract_z
Si Si1 0.331231 0.159979 0.868883
Si Si2 0.291362 0.677356 0.292719
Si Si3 0.111624 0.786318 0.571976
Si Si4 0.618598 0.410184 0.226669
Si Si5 0.526963 0.072387 0.164890
Si Si6 0.010610 0.290782 0.514317
Si Si7 0.726399 0.112644 0.257018
O O1 0.474680 0.422164 0.679641
O O2 0.365026 0.100290 0.807345
O O3 0.500000 0.000000 0.000000
O O4 0.158424 0.929900 0.112659
O O5 0.180703 0.454513 0.415697
O O6 0.204646 0.668980 0.415865
O O7 0.192819 0.595812 0.754076
O O8 0.981963 0.622595 0.646086
O O9 0.309679 0.946870 0.355267
O O10 0.000000 0.000000 0.500000
O O11 0.444504 0.147500 0.482115
O O12 0.696853 0.355237 0.152442
O O13 0.524731 0.682075 0.053212
O O14 0.677763 0.164965 0.137303
O O15 0.054983 0.986963 0.715942
#
# Coordination Sequence:
#
# PCOD9020883 Si02
#       7
#     2   2   2   2   2   2   2
#     4   8  17  38  58  88 116 160 203 256 291 371
#     4   8  19  34  66  84 121 161 203 252 309 354
#     4  11  22  39  61  89 128 158 203 252 304 365
#     4  10  22  40  59  88 122 170 199 245 306 370
#     4  11  21  40  61  86 124 167 201 247 307 370
#     4  11  18  39  61  93 123 158 201 261 304 355
#     4  10  22  37  61  89 123 159 208 251 297 369
#
# _framework density 27.290057999999998
#
# number of rings (size 3 to 8) (size 9 to 14) (size 15 to 20)
#    0.857    1.143    2.857    1.286    0.000    0.571 
#    2.571    4.286    0.000    0.000    0.000    0.000 
#    0.000    0.000    0.000    0.000    0.000    0.000 
#
# Total GULP energy -77980.817085 kJ/mol
# GULP energy per Si atom -5570.058363 kJ/mol
# Density = 2.722794 g / cm^3
# Si number density = 27.290058 Si / 1000 Ang^3
#
#
#
# Elastic Constant Matrix: (Units=GPa)
#
#
# Indices 1 2 3 4 5 6 
#
# 1 91.7583 46.0762 20.9417 7.2447 26.0413 21.7504
# 2 46.0762 149.3783 14.2628 26.3284 -7.2590 27.9424
# 3 20.9417 14.2628 96.4423 13.1485 11.9564 1.8051
# 4 7.2447 26.3284 13.1485 32.9626 1.4970 10.9022
# 5 26.0413 -7.2590 11.9564 1.4970 31.8844 9.2244
# 6 21.7504 27.9424 1.8051 10.9022 9.2244 56.2878
#
#
#
# Elastic Compliance Matrix: (Units=1/GPa)
#
#
# Indices 1 2 3 4 5 6 
#
# 1 0.019675 -0.006920 -0.001596 0.003264 -0.016613 -0.002026
# 2 -0.006920 0.011063 -0.000357 -0.006583 0.009507 -0.003090
# 3 -0.001596 -0.000357 0.011787 -0.004524 -0.003526 0.001870
# 4 0.003264 -0.006583 -0.004524 0.038406 -0.002878 -0.004815
# 5 -0.016613 0.009507 -0.003526 -0.002878 0.050250 -0.005864
# 6 -0.002026 -0.003090 0.001870 -0.004815 -0.005864 0.021916
#
#
# Mechanical properties :
#
#
# Convention : Reuss Voigt Hill
#
# Bulk Modulus (GPa) = 40.35690 55.57114 47.96402
# Shear Modulus (GPa) = 27.91670 41.31352 34.61511
#
# Velocity S-wave (km/s) = 3.20185 3.89507 3.56534
# Velocity P-wave (km/s) = 5.33754 6.37464 5.87901
#
# Compressibility (1/GPa) = 0.02477891
#
# Stress axis : x y z
#
# Youngs Moduli (GPa) = 50.82655 90.38947 84.83713
#
# Poissons Ratio (x) = 0.62550 0.13543
# Poissons Ratio (y) = 0.35172 0.03027
# Poissons Ratio (z) = 0.08114 0.03225
#
# Static dielectric constant tensor:
#      x y z
#    x 2.765870 -0.015810 -0.847070 
#    y -0.015810 2.212810 -0.260890 
#    z -0.847070 -0.260890 4.128060 
# 
# From -- ./inp_files/498471.got.cif
#   From: 2010.05.17/outbox.cif.g08.bks.cpg/sg2_250_cif.got.tgz:498471.got - 2010.06.03 11:33:40.
