data_PCOD9020098
_publ_section_title
;
Structure prediction by ZEFSAII (Michael W. Deem and Ramdas Pophale) SiO2 
 PCOD9020098
Probable space group: P -1
;
_chemical_formula_sum "Si O2"
_cell_formula_units_Z 16
_cell_length_a 17.602375
_cell_length_b 8.863971
_cell_length_c 21.028873
_cell_angle_alpha 133.373932
_cell_angle_beta 17.666255
_cell_angle_gamma 131.157846
_cell_volume 723.665448
_symmetry_space_group_name_H-M "P -1"
_symmetry_group_IT_number 2
_symmetry_cell_setting 'triclinic'
loop_
_space_group_symop_operation_xyz
x,y,z
-x,-y,-z
loop_
_atom_site_type_symbol
_atom_site_label
_atom_site_fract_x
_atom_site_fract_y
_atom_site_fract_z
Si Si1 0.777307 0.067568 0.150667
Si Si2 0.236902 0.033212 0.184956
Si Si3 0.059312 0.371014 0.661934
Si Si4 0.097144 0.398555 0.489552
Si Si5 0.138199 0.015040 0.743659
Si Si6 0.422219 0.331791 0.859555
Si Si7 0.229815 0.230442 0.117579
Si Si8 0.586177 0.315321 0.477991
O O1 0.683311 0.272459 0.317244
O O2 0.592705 0.869253 0.232929
O O3 0.892034 0.091793 0.997734
O O4 0.000000 0.000000 0.000000
O O5 0.089799 0.208041 0.391995
O O6 0.316694 0.102207 0.070990
O O7 0.057745 0.831940 0.271171
O O8 0.500000 0.000000 0.000000
O O9 0.102419 0.337699 0.542480
O O10 0.317712 0.462323 0.511100
O O11 0.841674 0.543804 0.896786
O O12 0.347621 0.525506 0.304900
O O13 0.860954 0.549179 0.719560
O O14 0.310166 0.219578 0.663952
O O15 0.281758 0.844837 0.623414
O O16 0.023175 0.888285 0.739999
O O17 0.415041 0.261426 0.918993
#
# Coordination Sequence:
#
# PCOD9020098 Si02
#       8
#     2   2   2   2   2   2   2   2
#     4   9  15  25  51  88 120 145 192 245 287 350
#     4  12  26  45  63  86 125 171 201 256 321 363
#     4  11  22  39  59  93 128 161 202 253 304 374
#     4  11  22  42  67  88 120 160 214 257 303 359
#     4   9  17  31  56  92 120 152 197 252 297 344
#     4  10  19  37  62  94 122 156 205 256 303 348
#     4  10  22  43  64  93 126 152 212 261 294 365
#     4  10  17  30  58  90 124 154 198 245 298 360
#
# _framework density 22.109666000000001
#
# number of rings (size 3 to 8) (size 9 to 14) (size 15 to 20)
#    0.000    1.750    6.250    1.500    3.500    0.500 
#    4.500    0.625    0.000    3.000    0.000    0.000 
#    0.000    0.000    0.000    0.000    0.000    0.000 
#
# Total GULP energy -89264.439089 kJ/mol
# GULP energy per Si atom -5579.027443 kJ/mol
# Density = 2.205934 g / cm^3
# Si number density = 22.109666 Si / 1000 Ang^3
#
#
#
# Elastic Constant Matrix: (Units=GPa)
#
#
# Indices 1 2 3 4 5 6 
#
# 1 60.0254 15.8043 -0.0280 22.8185 6.8151 3.3557
# 2 15.8043 85.7514 -10.3752 -8.1367 -0.7209 16.4770
# 3 -0.0280 -10.3752 23.7415 -8.2326 5.1955 -5.9987
# 4 22.8185 -8.1367 -8.2326 10.2361 6.8689 1.2005
# 5 6.8151 -0.7209 5.1955 6.8689 20.8554 -6.2539
# 6 3.3557 16.4770 -5.9987 1.2005 -6.2539 27.4998
#
#
#
# Elastic Compliance Matrix: (Units=1/GPa)
#
#
# Indices 1 2 3 4 5 6 
#
# 1 -0.002727 0.009986 0.026125 0.052758 -0.025031 -0.007948
# 2 0.009986 0.006107 -0.011745 -0.032792 0.009522 -0.003843
# 3 0.026125 -0.011745 0.014352 -0.066414 0.013220 0.012886
# 4 0.052758 -0.032792 -0.066414 -0.132155 0.046195 0.014998
# 5 -0.025031 0.009522 0.013220 0.046195 0.040154 0.007348
# 6 -0.007948 -0.003843 0.012886 0.014998 0.007348 0.043463
#
#
# Mechanical properties :
#
#
# Convention : Reuss Voigt Hill
#
# Bulk Modulus (GPa) = 15.04581 20.03558 17.54069
# Shear Modulus (GPa) = -87.13325 22.65941 -32.23692
#
# Velocity S-wave (km/s) = -6.28451 3.20482 -3.82258
# Velocity P-wave (km/s) = 6.77055 4.77243 3.39590
#
# Compressibility (1/GPa) = 0.06646371
#
# Stress axis : x y z
#
# Youngs Moduli (GPa) = -366.70524 163.74787 69.67764
#
# Poissons Ratio (x) = -1.63522 -1.82032
# Poissons Ratio (y) = 3.66199 0.81837
# Poissons Ratio (z) = 9.58011 1.92323
#
# Static dielectric constant tensor:
#      x y z
#    x 1.994610 0.088590 -0.134800 
#    y 0.088590 1.901340 -0.068590 
#    z -0.134800 -0.068590 1.954980 
# 
# From -- ./inp_files/599743.got.cif
#   From: 2010.05.17/outbox.cif.g08.bks.cpg/sg2_300_cif.got.tgz:599743.got - 2010.06.03 11:33:40.
