data_PCOD9020381
_publ_section_title
;
Structure prediction by ZEFSAII (Michael W. Deem and Ramdas Pophale) SiO2 
 PCOD9020381
Probable space group: P -1
;
_chemical_formula_sum "Si O2"
_cell_formula_units_Z 14
_cell_length_a 9.595811
_cell_length_b 5.365263
_cell_length_c 23.379065
_cell_angle_alpha 98.735474
_cell_angle_beta 145.527887
_cell_angle_gamma 94.616516
_cell_volume 626.202800
_symmetry_space_group_name_H-M "P -1"
_symmetry_group_IT_number 2
_symmetry_cell_setting 'triclinic'
loop_
_space_group_symop_operation_xyz
x,y,z
-x,-y,-z
loop_
_atom_site_type_symbol
_atom_site_label
_atom_site_fract_x
_atom_site_fract_y
_atom_site_fract_z
Si Si1 0.168108 0.651735 0.651853
Si Si2 0.225700 0.268029 0.560824
Si Si3 0.602413 0.770479 0.581586
Si Si4 0.911610 0.249762 0.645588
Si Si5 0.956351 0.705039 0.909201
Si Si6 0.780905 0.507687 0.724193
Si Si7 0.316548 0.863685 0.139901
O O1 0.258533 0.507642 0.625257
O O2 0.896575 0.669522 0.537033
O O3 0.129457 0.455617 0.686404
O O4 0.378496 0.950061 0.744025
O O5 0.517906 0.269552 0.650391
O O6 0.000000 0.000000 0.500000
O O7 0.500000 0.500000 0.500000
O O8 0.349648 0.853607 0.488014
O O9 0.664806 0.722002 0.665536
O O10 0.877649 0.965389 0.653074
O O11 0.888264 0.408940 0.700971
O O12 0.971996 0.632354 0.845826
O O13 0.770491 0.423425 0.867064
O O14 0.836840 0.942559 0.882404
O O15 0.222689 0.800152 0.040213
#
# Coordination Sequence:
#
# PCOD9020381 Si02
#       7
#     2   2   2   2   2   2   2
#     4  11  23  38  56  89 122 158 199 256 310 363
#     4  11  24  34  57  87 123 154 199 252 306 366
#     4   9  20  36  53  78 117 163 199 233 292 371
#     4  10  22  35  58  82 121 162 203 244 306 372
#     4  10  22  41  69  89 123 159 214 253 311 372
#     4  11  21  37  58  89 116 164 198 256 295 376
#     4  10  22  43  64  94 120 165 203 262 312 366
#
# _framework density 22.356974999999998
#
# number of rings (size 3 to 8) (size 9 to 14) (size 15 to 20)
#    0.000    1.714    2.857    0.857    8.000    0.000 
#    0.000    0.714    0.000    0.857    0.000    0.000 
#    0.000    0.000    0.000    0.000    0.000    0.000 
#
# Total GULP energy -78146.416080 kJ/mol
# GULP energy per Si atom -5581.886863 kJ/mol
# Density = 2.230609 g / cm^3
# Si number density = 22.356975 Si / 1000 Ang^3
#
#
#
# Elastic Constant Matrix: (Units=GPa)
#
#
# Indices 1 2 3 4 5 6 
#
# 1 89.0791 10.8644 39.1710 7.6042 -32.6666 10.6564
# 2 10.8644 85.0347 12.1536 17.4346 -7.8799 12.0067
# 3 39.1710 12.1536 132.0731 14.9794 -41.2540 4.4830
# 4 7.6042 17.4346 14.9794 34.6722 5.8562 0.1844
# 5 -32.6666 -7.8799 -41.2540 5.8562 41.2598 2.1692
# 6 10.6564 12.0067 4.4830 0.1844 2.1692 33.3045
#
#
#
# Elastic Compliance Matrix: (Units=1/GPa)
#
#
# Indices 1 2 3 4 5 6 
#
# 1 0.018794 0.002008 0.001123 -0.008620 0.018031 -0.008015
# 2 0.002008 0.015043 0.001993 -0.010226 0.008265 -0.006816
# 3 0.001123 0.001993 0.013353 -0.009734 0.016206 -0.003877
# 4 -0.008620 -0.010226 -0.009734 0.044300 -0.025279 0.009156
# 5 0.018031 0.008265 0.016206 -0.025279 0.060658 -0.014742
# 6 -0.008015 -0.006816 -0.003877 0.009156 -0.014742 0.036479
#
#
# Mechanical properties :
#
#
# Convention : Reuss Voigt Hill
#
# Bulk Modulus (GPa) = 17.40989 47.84056 32.62523
# Shear Modulus (GPa) = 25.31320 38.11383 31.71352
#
# Velocity S-wave (km/s) = 3.36851 4.13338 3.77039
# Velocity P-wave (km/s) = 4.78887 6.65017 5.79474
#
# Compressibility (1/GPa) = 0.05743862
#
# Stress axis : x y z
#
# Youngs Moduli (GPa) = 53.20781 66.47454 74.89093
#
# Poissons Ratio (x) = -0.13350 -0.08410
# Poissons Ratio (y) = -0.10685 -0.14925
# Poissons Ratio (z) = -0.05975 -0.13248
#
# Static dielectric constant tensor:
#      x y z
#    x 1.912860 -0.028090 0.044010 
#    y -0.028090 1.977260 -0.027200 
#    z 0.044010 -0.027200 1.796210 
# 
# From -- ./inp_files/69353.got.cif
#   From: 2010.05.17/outbox.cif.g08.bks.cpg/sg2_35_cif.got.tgz:69353.got - 2010.06.03 11:33:40.
