data_PCOD9020484
_publ_section_title
;
Structure prediction by ZEFSAII (Michael W. Deem and Ramdas Pophale) SiO2 
 PCOD9020484
Probable space group: P -1
;
_chemical_formula_sum "Si O2"
_cell_formula_units_Z 14
_cell_length_a 12.417271
_cell_length_b 10.380445
_cell_length_c 8.931381
_cell_angle_alpha 42.124525
_cell_angle_beta 128.692659
_cell_angle_gamma 104.686071
_cell_volume 552.010353
_symmetry_space_group_name_H-M "P -1"
_symmetry_group_IT_number 2
_symmetry_cell_setting 'triclinic'
loop_
_space_group_symop_operation_xyz
x,y,z
-x,-y,-z
loop_
_atom_site_type_symbol
_atom_site_label
_atom_site_fract_x
_atom_site_fract_y
_atom_site_fract_z
Si Si1 0.227771 0.623660 0.979518
Si Si2 0.137046 0.472046 0.321092
Si Si3 0.620071 0.184603 0.475842
Si Si4 0.686417 0.576728 0.090514
Si Si5 0.339130 0.675523 0.306075
Si Si6 0.047800 0.102612 0.658096
Si Si7 0.093433 0.233520 0.897175
O O1 0.106557 0.839574 0.617295
O O2 0.143002 0.527754 0.103148
O O3 0.280476 0.475855 0.010720
O O4 0.370567 0.625237 0.198756
O O5 0.295194 0.488078 0.491096
O O6 0.122242 0.254915 0.524071
O O7 0.007181 0.649213 0.152037
O O8 0.471813 0.222014 0.218878
O O9 0.591892 0.222888 0.598047
O O10 0.662814 0.378067 0.302466
O O11 0.762323 0.972357 0.752657
O O12 0.826479 0.622380 0.228385
O O13 0.172596 0.868889 0.969210
O O14 0.014745 0.166677 0.749191
#
# Coordination Sequence:
#
# PCOD9020484 Si02
#       7
#     2   2   2   2   2   2   2
#     4  10  23  36  58  88 121 150 185 234 293 348
#     4  10  22  36  56  93 119 147 181 239 297 341
#     4  10  24  42  61  81 114 158 199 236 277 328
#     4  11  23  42  60  83 116 155 198 236 276 344
#     4   9  23  37  57  89 117 148 192 233 285 352
#     4  11  20  36  58  87 122 148 183 236 292 341
#     4  11  23  36  65  87 115 149 193 241 285 343
#
# _framework density 25.361844999999999
#
# number of rings (size 3 to 8) (size 9 to 14) (size 15 to 20)
#    0.857    0.857    1.429    2.571    4.000    1.714 
#    0.000    0.000    0.000    1.714    0.000    0.000 
#    0.000    0.000    0.000    0.000    0.000    0.000 
#
# Total GULP energy -78171.184542 kJ/mol
# GULP energy per Si atom -5583.656039 kJ/mol
# Density = 2.530412 g / cm^3
# Si number density = 25.361845 Si / 1000 Ang^3
#
#
#
# Elastic Constant Matrix: (Units=GPa)
#
#
# Indices 1 2 3 4 5 6 
#
# 1 45.9213 -4.9814 3.7646 11.2079 -14.1025 -1.3559
# 2 -4.9814 53.5863 -10.1023 19.3630 -12.7135 -4.3541
# 3 3.7646 -10.1023 65.9789 5.8872 -16.8394 -3.2763
# 4 11.2079 19.3630 5.8872 51.4220 7.2820 6.3068
# 5 -14.1025 -12.7135 -16.8394 7.2820 26.5938 7.3004
# 6 -1.3559 -4.3541 -3.2763 6.3068 7.3004 34.8654
#
#
#
# Elastic Compliance Matrix: (Units=1/GPa)
#
#
# Indices 1 2 3 4 5 6 
#
# 1 0.071172 0.059062 0.036793 -0.056991 0.104313 0.002068
# 2 0.059062 0.086378 0.046700 -0.068264 0.119564 0.004785
# 3 0.036793 0.046700 0.044855 -0.042515 0.081292 0.002147
# 4 -0.056991 -0.068264 -0.042515 0.078710 -0.109680 -0.006008
# 5 0.104313 0.119564 0.081292 -0.109680 0.232175 -0.002148
# 6 0.002068 0.004785 0.002147 -0.006008 -0.002148 0.031098
#
#
# Mechanical properties :
#
#
# Convention : Reuss Voigt Hill
#
# Bulk Modulus (GPa) = 2.05121 15.87203 8.96162
# Shear Modulus (GPa) = 11.85443 34.36328 23.10886
#
# Velocity S-wave (km/s) = 2.16432 3.68492 3.02183
# Velocity P-wave (km/s) = 2.65636 4.93727 3.96440
#
# Compressibility (1/GPa) = 0.48751738
#
# Stress axis : x y z
#
# Youngs Moduli (GPa) = 14.05042 11.57697 22.29393
#
# Poissons Ratio (x) = -0.68376 -0.82027
# Poissons Ratio (y) = -0.82985 -1.04113
# Poissons Ratio (z) = -0.51696 -0.54065
#
# Static dielectric constant tensor:
#      x y z
#    x 2.059670 -0.011110 0.040950 
#    y -0.011110 2.086340 0.064690 
#    z 0.040950 0.064690 2.112050 
# 
# From -- ./inp_files/302146.got.cif
#   From: 2010.05.17/outbox.cif.g08.bks.cpg/sg2_152_cif.got.tgz:302146.got - 2010.06.03 11:33:40.
