data_PCOD9020461
_publ_section_title
;
Structure prediction by ZEFSAII (Michael W. Deem and Ramdas Pophale) SiO2 
 PCOD9020461
Probable space group: P -1
;
_chemical_formula_sum "Si O2"
_cell_formula_units_Z 15
_cell_length_a 14.040700
_cell_length_b 5.580973
_cell_length_c 28.427748
_cell_angle_alpha 119.487931
_cell_angle_beta 157.336493
_cell_angle_gamma 70.323113
_cell_volume 699.791488
_symmetry_space_group_name_H-M "P -1"
_symmetry_group_IT_number 2
_symmetry_cell_setting 'triclinic'
loop_
_space_group_symop_operation_xyz
x,y,z
-x,-y,-z
loop_
_atom_site_type_symbol
_atom_site_label
_atom_site_fract_x
_atom_site_fract_y
_atom_site_fract_z
Si Si1 0.597763 0.837538 0.091466
Si Si2 0.000000 0.500000 0.000000
Si Si3 0.450174 0.609525 0.636857
Si Si4 0.807006 0.905006 0.094523
Si Si5 0.304532 0.856476 0.266813
Si Si6 0.598631 0.728551 0.179886
Si Si7 0.399514 0.203399 0.175908
Si Si8 0.094974 0.329233 0.595894
O O1 0.775710 0.992230 0.142934
O O2 0.730851 0.892598 0.208278
O O3 0.500000 0.500000 0.000000
O O4 0.328736 0.907310 0.979291
O O5 0.159442 0.645914 0.136587
O O6 0.160476 0.269857 0.050110
O O7 0.531382 0.320533 0.648759
O O8 0.602825 0.803638 0.769710
O O9 0.143306 0.549100 0.500985
O O10 0.527455 0.827626 0.648639
O O11 0.090005 0.912746 0.208527
O O12 0.606354 0.578830 0.960429
O O13 0.797131 0.683728 0.303924
O O14 0.432130 0.903764 0.145524
O O15 0.662989 0.464416 0.304506
O O16 0.000000 0.000000 0.500000
#
# Coordination Sequence:
#
# PCOD9020461 Si02
#       8
#     2   1   2   2   2   2   2   2
#     4   9  20  39  66  95 122 157 206 271 327 396
#     4  10  22  36  54  90 128 158 208 250 324 380
#     4  11  26  40  59  90 129 182 218 253 309 377
#     4  10  22  41  63  98 126 159 209 265 343 380
#     4  11  25  39  62  90 132 171 207 267 320 387
#     4  11  22  36  67  93 124 164 212 269 322 375
#     4  11  24  39  61  88 132 170 212 265 317 378
#     4  12  23  41  60  88 128 176 225 262 302 369
#
# _framework density 21.434954000000001
#
# number of rings (size 3 to 8) (size 9 to 14) (size 15 to 20)
#    0.000    1.333    1.333    4.400    9.333    1.067 
#    0.000    0.000    0.000    1.600    0.000    0.000 
#    0.000    0.000    0.000    0.000    0.000    0.000 
#
# Total GULP energy -83604.165397 kJ/mol
# GULP energy per Si atom -5573.611026 kJ/mol
# Density = 2.138617 g / cm^3
# Si number density = 21.434954 Si / 1000 Ang^3
#
#
#
# Elastic Constant Matrix: (Units=GPa)
#
#
# Indices 1 2 3 4 5 6 
#
# 1 77.7144 33.9600 29.0200 -23.8501 5.0571 10.4528
# 2 33.9600 153.3022 41.3062 -37.9688 10.6691 -9.2879
# 3 29.0200 41.3062 69.1852 -26.2985 18.0552 6.9048
# 4 -23.8501 -37.9688 -26.2985 38.7211 -4.6547 4.0448
# 5 5.0571 10.6691 18.0552 -4.6547 16.4869 -7.3288
# 6 10.4528 -9.2879 6.9048 4.0448 -7.3288 30.8564
#
#
#
# Elastic Compliance Matrix: (Units=1/GPa)
#
#
# Indices 1 2 3 4 5 6 
#
# 1 0.018337 -0.001687 -0.001060 0.009279 -0.004667 -0.008807
# 2 -0.001687 0.009343 -0.003635 0.005454 0.001722 0.003891
# 3 -0.001060 -0.003635 0.037258 0.018224 -0.042569 -0.021572
# 4 0.009279 0.005454 0.018224 0.048603 -0.020039 -0.016710
# 5 -0.004667 0.001722 -0.042569 -0.020039 0.121048 0.043002
# 6 -0.008807 0.003891 -0.021572 -0.016710 0.043002 0.053794
#
#
# Mechanical properties :
#
#
# Convention : Reuss Voigt Hill
#
# Bulk Modulus (GPa) = 19.16673 56.53047 37.84860
# Shear Modulus (GPa) = 15.69671 30.27391 22.98531
#
# Velocity S-wave (km/s) = 2.70903 3.76222 3.27820
# Velocity P-wave (km/s) = 4.32971 6.73072 5.65902
#
# Compressibility (1/GPa) = 0.05217373
#
# Stress axis : x y z
#
# Youngs Moduli (GPa) = 54.53557 107.03288 26.83983
#
# Poissons Ratio (x) = 0.18056 0.02845
# Poissons Ratio (y) = 0.09200 0.09756
# Poissons Ratio (z) = 0.05781 0.38905
#
# Static dielectric constant tensor:
#      x y z
#    x 2.013250 0.345710 0.042270 
#    y 0.345710 2.279020 0.055270 
#    z 0.042270 0.055270 1.764570 
# 
# From -- ./inp_files/97448.got.cif
#   From: 2010.05.17/outbox.cif.g08.bks.cpg/sg2_49_cif.got.tgz:97448.got - 2010.06.03 11:33:40.
