data_PCOD9020886
_publ_section_title
;
Structure prediction by ZEFSAII (Michael W. Deem and Ramdas Pophale) SiO2 
 PCOD9020886
Probable space group: P -1
;
_chemical_formula_sum "Si O2"
_cell_formula_units_Z 16
_cell_length_a 19.364214
_cell_length_b 11.794043
_cell_length_c 11.014921
_cell_angle_alpha 66.919492
_cell_angle_beta 32.637810
_cell_angle_gamma 45.136916
_cell_volume 816.417511
_symmetry_space_group_name_H-M "P -1"
_symmetry_group_IT_number 2
_symmetry_cell_setting 'triclinic'
loop_
_space_group_symop_operation_xyz
x,y,z
-x,-y,-z
loop_
_atom_site_type_symbol
_atom_site_label
_atom_site_fract_x
_atom_site_fract_y
_atom_site_fract_z
Si Si1 0.335730 0.061786 0.586377
Si Si2 0.337708 0.322340 0.386158
Si Si3 0.966732 0.651178 0.905248
Si Si4 0.493980 0.402707 0.944330
Si Si5 0.909538 0.151975 0.317421
Si Si6 0.768586 0.275256 0.993499
Si Si7 0.928845 0.258290 0.006862
Si Si8 0.427030 0.342198 0.520558
O O1 0.397642 0.137666 0.391187
O O2 0.484701 0.842899 0.472092
O O3 0.255088 0.160331 0.799069
O O4 0.144019 0.150473 0.763166
O O5 0.392181 0.343740 0.427830
O O6 0.100209 0.512000 0.651637
O O7 0.443598 0.313089 0.124132
O O8 0.044014 0.738574 0.765358
O O9 0.000000 0.500000 0.000000
O O10 0.704599 0.256342 0.629855
O O11 0.500000 0.500000 0.000000
O O12 0.324842 0.566390 0.033038
O O13 0.898292 0.164531 0.182108
O O14 0.086516 0.934748 0.185898
O O15 0.884617 0.259608 0.934105
O O16 0.585515 0.335335 0.297530
O O17 0.771016 0.472770 0.198572
#
# Coordination Sequence:
#
# PCOD9020886 Si02
#       8
#     2   2   2   2   2   2   2   2
#     4  10  22  37  61  91 120 149 198 249 295 349
#     4  11  21  41  58  87 128 158 188 242 299 351
#     4   9  16  32  57  80 116 150 181 238 292 334
#     4  12  23  40  57  84 128 161 190 236 292 365
#     4  11  21  38  59  88 121 155 197 242 298 349
#     4  12  24  37  61  92 117 155 203 241 297 354
#     4  11  22  39  61  91 118 150 196 259 298 333
#     4  12  20  36  64  93 116 149 197 247 305 345
#
# _framework density 19.597816999999999
#
# number of rings (size 3 to 8) (size 9 to 14) (size 15 to 20)
#    0.000    1.000    8.750    1.125    0.000    0.500 
#    2.250    0.625    0.000    1.500    0.000    0.000 
#    0.000    0.000    0.000    0.000    0.000    0.000 
#
# Total GULP energy -89143.906253 kJ/mol
# GULP energy per Si atom -5571.494141 kJ/mol
# Density = 1.955321 g / cm^3
# Si number density = 19.597817 Si / 1000 Ang^3
#
#
#
# Elastic Constant Matrix: (Units=GPa)
#
#
# Indices 1 2 3 4 5 6 
#
# 1 69.6362 21.0959 11.7693 -7.7236 -13.2357 -6.6507
# 2 21.0959 154.6026 65.7245 -8.3568 -1.9330 -8.1596
# 3 11.7693 65.7245 90.8836 -17.6788 -5.1145 -6.4948
# 4 -7.7236 -8.3568 -17.6788 42.3748 -3.8729 1.7380
# 5 -13.2357 -1.9330 -5.1145 -3.8729 19.2287 2.0433
# 6 -6.6507 -8.1596 -6.4948 1.7380 2.0433 16.9053
#
#
#
# Elastic Compliance Matrix: (Units=1/GPa)
#
#
# Indices 1 2 3 4 5 6 
#
# 1 0.018276 -0.002401 0.001284 0.004406 0.013091 0.004489
# 2 -0.002401 0.009802 -0.007201 -0.001860 -0.003126 0.001589
# 3 0.001284 -0.007201 0.017865 0.006714 0.006001 0.002477
# 4 0.004406 -0.001860 0.006714 0.027806 0.010305 -0.000689
# 5 0.013091 -0.003126 0.006001 0.010305 0.064685 -0.002931
# 6 0.004489 0.001589 0.002477 -0.000689 -0.002931 0.063063
#
#
# Mechanical properties :
#
#
# Convention : Reuss Voigt Hill
#
# Bulk Modulus (GPa) = 34.12213 56.92243 45.52228
# Shear Modulus (GPa) = 21.93913 30.13727 26.03820
#
# Velocity S-wave (km/s) = 3.34948 3.92572 3.64899
# Velocity P-wave (km/s) = 5.69277 7.04675 6.40564
#
# Compressibility (1/GPa) = 0.02930649
#
# Stress axis : x y z
#
# Youngs Moduli (GPa) = 54.71592 102.02510 55.97386
#
# Poissons Ratio (x) = 0.24496 -0.07187
# Poissons Ratio (y) = 0.13137 0.40309
# Poissons Ratio (z) = -0.07026 0.73473
#
# Static dielectric constant tensor:
#      x y z
#    x 1.741890 0.011790 -0.045560 
#    y 0.011790 1.702620 0.017660 
#    z -0.045560 0.017660 1.728280 
# 
# From -- ./inp_files/470957.got.cif
#   From: 2010.05.17/outbox.cif.g08.bks.cpg/sg2_236_cif.got.tgz:470957.got - 2010.06.03 11:33:40.
