data_PCOD9020367
_publ_section_title
;
Structure prediction by ZEFSAII (Michael W. Deem and Ramdas Pophale) SiO2 
 PCOD9020367
Probable space group: P -1
;
_chemical_formula_sum "Si O2"
_cell_formula_units_Z 14
_cell_length_a 9.496553
_cell_length_b 12.616697
_cell_length_c 7.853655
_cell_angle_alpha 95.360597
_cell_angle_beta 130.217876
_cell_angle_gamma 115.958975
_cell_volume 540.500925
_symmetry_space_group_name_H-M "P -1"
_symmetry_group_IT_number 2
_symmetry_cell_setting 'triclinic'
loop_
_space_group_symop_operation_xyz
x,y,z
-x,-y,-z
loop_
_atom_site_type_symbol
_atom_site_label
_atom_site_fract_x
_atom_site_fract_y
_atom_site_fract_z
Si Si1 0.387898 0.809302 0.785145
Si Si2 0.562827 0.404875 0.200441
Si Si3 0.063510 0.704898 0.022867
Si Si4 0.796850 0.458260 0.024686
Si Si5 0.463900 0.051778 0.720342
Si Si6 0.964584 0.800219 0.396427
Si Si7 0.287444 0.311893 0.485338
O O1 0.402209 0.697555 0.705003
O O2 0.116191 0.753638 0.565743
O O3 0.529567 0.956440 0.819219
O O4 0.481815 0.851969 0.059427
O O5 0.638792 0.540697 0.372955
O O6 0.704755 0.448753 0.138864
O O7 0.279837 0.305101 0.914817
O O8 0.966261 0.614019 0.103035
O O9 0.882243 0.727171 0.814439
O O10 0.066987 0.602756 0.886087
O O11 0.344197 0.848940 0.261665
O O12 0.554192 0.359060 0.698867
O O13 0.170141 0.939248 0.467094
O O14 0.869908 0.805437 0.507507
#
# Coordination Sequence:
#
# PCOD9020367 Si02
#       7
#     2   2   2   2   2   2   2
#     4   9  17  33  51  83 108 141 177 226 277 304
#     4  11  21  34  57  88 109 140 181 226 279 317
#     4  11  20  39  57  81 113 143 182 224 270 330
#     4  10  22  35  56  86 107 145 185 218 279 316
#     4   9  17  36  51  80 112 141 181 224 273 309
#     4   9  18  32  52  80 112 135 181 230 264 315
#     4  11  21  36  56  84 114 140 180 229 273 320
#
# _framework density 25.901897999999999
#
# number of rings (size 3 to 8) (size 9 to 14) (size 15 to 20)
#    0.857    1.143    2.857    2.143    0.000    4.000 
#    2.571    0.000    0.000    4.286    0.000    0.000 
#    0.000    0.000    0.000    0.000    0.000    0.000 
#
# Total GULP energy -78270.648332 kJ/mol
# GULP energy per Si atom -5590.760595 kJ/mol
# Density = 2.584294 g / cm^3
# Si number density = 25.901898 Si / 1000 Ang^3
#
#
#
# Elastic Constant Matrix: (Units=GPa)
#
#
# Indices 1 2 3 4 5 6 
#
# 1 51.7136 20.8264 17.5373 3.1654 7.2077 7.2877
# 2 20.8264 108.0458 8.0315 8.5836 14.9719 14.3057
# 3 17.5373 8.0315 86.9244 7.1338 14.9653 10.4538
# 4 3.1654 8.5836 7.1338 38.9304 -1.1272 19.9603
# 5 7.2077 14.9719 14.9653 -1.1272 31.2989 1.7271
# 6 7.2877 14.3057 10.4538 19.9603 1.7271 52.5651
#
#
#
# Elastic Compliance Matrix: (Units=1/GPa)
#
#
# Indices 1 2 3 4 5 6 
#
# 1 0.022500 -0.003683 -0.003795 0.000382 -0.001511 -0.001458
# 2 -0.003683 0.010927 0.000902 -0.001413 -0.004754 -0.001950
# 3 -0.003795 0.000902 0.013553 -0.001752 -0.006015 -0.001552
# 4 0.000382 -0.001413 -0.001752 0.032395 0.003240 -0.011728
# 5 -0.001511 -0.004754 -0.006015 0.003240 0.037552 0.000235
# 6 -0.001458 -0.001950 -0.001552 -0.011728 0.000235 0.024511
#
#
# Mechanical properties :
#
#
# Convention : Reuss Voigt Hill
#
# Bulk Modulus (GPa) = 29.56065 37.71936 33.64000
# Shear Modulus (GPa) = 30.14494 37.91147 34.02821
#
# Velocity S-wave (km/s) = 3.41517 3.82993 3.62848
# Velocity P-wave (km/s) = 5.19505 5.84395 5.52903
#
# Compressibility (1/GPa) = 0.03382875
#
# Stress axis : x y z
#
# Youngs Moduli (GPa) = 44.44421 91.51377 73.78681
#
# Poissons Ratio (x) = 0.33703 0.28003
# Poissons Ratio (y) = 0.16368 -0.06658
# Poissons Ratio (z) = 0.16867 -0.08257
#
# Static dielectric constant tensor:
#      x y z
#    x 2.064810 -0.006220 -0.025300 
#    y -0.006220 2.078330 0.029000 
#    z -0.025300 0.029000 2.034840 
# 
# From -- ./inp_files/208028.got.cif
#   From: 2010.05.17/outbox.cif.g08.bks.cpg/sg2_105_cif.got.tgz:208028.got - 2010.06.03 11:33:40.
