data_PCOD9020016
_publ_section_title
;
Structure prediction by ZEFSAII (Michael W. Deem and Ramdas Pophale) SiO2 
 PCOD9020016
Probable space group: P -1
;
_chemical_formula_sum "Si O2"
_cell_formula_units_Z 14
_cell_length_a 5.637363
_cell_length_b 6.177045
_cell_length_c 22.056151
_cell_angle_alpha 91.471347
_cell_angle_beta 125.592328
_cell_angle_gamma 102.494511
_cell_volume 598.547011
_symmetry_space_group_name_H-M "P -1"
_symmetry_group_IT_number 2
_symmetry_cell_setting 'triclinic'
loop_
_space_group_symop_operation_xyz
x,y,z
-x,-y,-z
loop_
_atom_site_type_symbol
_atom_site_label
_atom_site_fract_x
_atom_site_fract_y
_atom_site_fract_z
Si Si1 0.696840 0.359813 0.488729
Si Si2 0.707636 0.428105 0.877381
Si Si3 0.195506 0.142615 0.316438
Si Si4 0.628737 0.082830 0.760301
Si Si5 0.749940 0.383845 0.251686
Si Si6 0.869356 0.769442 0.359995
Si Si7 0.216416 0.860821 0.999658
O O1 0.500000 0.500000 0.500000
O O2 0.490012 0.227933 0.403018
O O3 0.000000 0.500000 0.500000
O O4 0.851576 0.210534 0.553451
O O5 0.756769 0.291885 0.824172
O O6 0.401325 0.498266 0.819557
O O7 0.672892 0.267450 0.929228
O O8 0.983719 0.654851 0.927470
O O9 0.086070 0.366787 0.294306
O O10 0.160774 0.036926 0.244181
O O11 0.002586 0.931646 0.325210
O O12 0.430918 0.147004 0.675566
O O13 0.436945 0.876558 0.771607
O O14 0.753706 0.513896 0.316686
O O15 0.500000 0.000000 0.000000
O O16 0.000000 0.000000 0.000000
#
# Coordination Sequence:
#
# PCOD9020016 Si02
#       7
#     2   2   2   2   2   2   2
#     4  12  26  44  74  98 142 201 256 315 380 432
#     4  10  24  49  79 115 152 200 247 307 379 446
#     4  11  24  42  72 102 148 193 255 311 376 444
#     4  10  23  44  67 109 145 196 247 313 372 448
#     4  10  21  46  65 106 148 189 249 303 373 440
#     4  10  23  42  66 100 142 192 254 311 378 433
#     4  11  26  55  83 116 157 196 253 302 372 458
#
# _framework density 23.389973000000001
#
# number of rings (size 3 to 8) (size 9 to 14) (size 15 to 20)
#    0.000    1.429    1.429    2.143    4.000    5.143 
#   33.429    0.000    0.000    0.000    0.000    0.000 
#    0.000    0.000    0.000    0.000    0.000    0.000 
#
# Total GULP energy -78034.628489 kJ/mol
# GULP energy per Si atom -5573.902035 kJ/mol
# Density = 2.333674 g / cm^3
# Si number density = 23.389973 Si / 1000 Ang^3
#
#
#
# Elastic Constant Matrix: (Units=GPa)
#
#
# Indices 1 2 3 4 5 6 
#
# 1 86.5645 40.7928 23.9618 5.2004 -16.1223 12.1135
# 2 40.7928 108.2147 68.3203 9.5960 -4.5200 -6.3641
# 3 23.9618 68.3203 152.8931 -15.3940 -2.4259 -5.5972
# 4 5.2004 9.5960 -15.3940 54.4673 -7.3580 2.2397
# 5 -16.1223 -4.5200 -2.4259 -7.3580 14.8432 7.2451
# 6 12.1135 -6.3641 -5.5972 2.2397 7.2451 34.8444
#
#
#
# Elastic Compliance Matrix: (Units=1/GPa)
#
#
# Indices 1 2 3 4 5 6 
#
# 1 0.024796 -0.010037 0.001027 0.005214 0.035407 -0.017985
# 2 -0.010037 0.017952 -0.006995 -0.006468 -0.014181 0.009009
# 3 0.001027 -0.006995 0.009968 0.004440 0.003307 -0.001006
# 4 0.005214 -0.006468 0.004440 0.023255 0.019800 -0.007892
# 5 0.035407 -0.014181 0.003307 0.019800 0.133000 -0.043295
# 6 -0.017985 0.009009 -0.001006 -0.007892 -0.043295 0.045945
#
#
# Mechanical properties :
#
#
# Convention : Reuss Voigt Hill
#
# Bulk Modulus (GPa) = 48.29531 68.20246 58.24888
# Shear Modulus (GPa) = 17.01688 35.13748 26.07718
#
# Velocity S-wave (km/s) = 2.70020 3.88009 3.34261
# Velocity P-wave (km/s) = 5.51490 7.02108 6.31307
#
# Compressibility (1/GPa) = 0.02070595
#
# Stress axis : x y z
#
# Youngs Moduli (GPa) = 40.32989 55.70554 100.32182
#
# Poissons Ratio (x) = 0.55909 -0.10304
# Poissons Ratio (y) = 0.40477 0.70176
# Poissons Ratio (z) = -0.04142 0.38967
#
# Static dielectric constant tensor:
#      x y z
#    x 2.111220 -0.007710 0.036670 
#    y -0.007710 1.912620 -0.009070 
#    z 0.036670 -0.009070 2.026140 
# 
# From -- ./inp_files/7387.got.cif
#   From: 2010.05.17/outbox.cif.g08.bks.cpg/sg2_4_cif.got.tgz:7387.got - 2010.06.03 11:33:40.
