data_PCOD9020084
_publ_section_title
;
Structure prediction by ZEFSAII (Michael W. Deem and Ramdas Pophale) SiO2 
 PCOD9020084
Probable space group: P -1
;
_chemical_formula_sum "Si O2"
_cell_formula_units_Z 10
_cell_length_a 13.174033
_cell_length_b 8.662101
_cell_length_c 4.783403
_cell_angle_alpha 115.109074
_cell_angle_beta 75.540200
_cell_angle_gamma 63.509300
_cell_volume 371.861949
_symmetry_space_group_name_H-M "P -1"
_symmetry_group_IT_number 2
_symmetry_cell_setting 'triclinic'
loop_
_space_group_symop_operation_xyz
x,y,z
-x,-y,-z
loop_
_atom_site_type_symbol
_atom_site_label
_atom_site_fract_x
_atom_site_fract_y
_atom_site_fract_z
Si Si1 0.060427 0.785254 0.110442
Si Si2 0.480655 0.688709 0.476289
Si Si3 0.190366 0.953869 0.864810
Si Si4 0.685735 0.901563 0.753720
Si Si5 0.277271 0.368497 0.978422
O O1 0.159020 0.790638 0.839983
O O2 0.140663 0.578727 0.098404
O O3 0.000000 0.000000 0.500000
O O4 0.936042 0.843848 0.061053
O O5 0.500000 0.500000 0.500000
O O6 0.337739 0.807545 0.509096
O O7 0.605572 0.613418 0.143120
O O8 0.450460 0.876209 0.855403
O O9 0.212093 0.049999 0.196651
O O10 0.682162 0.837019 0.395618
O O11 0.730782 0.694726 0.754150
#
# Coordination Sequence:
#
# PCOD9020084 Si02
#       5
#     2   2   2   2   2
#     4  11  25  44  68  97 137 186 232 274 333 414
#     4  10  21  46  70 102 133 184 224 283 334 414
#     4   9  24  44  66  97 139 173 237 270 341 401
#     4  10  26  43  71 105 139 171 230 280 349 394
#     4  12  24  46  72 102 139 178 222 289 338 401
#
# _framework density 26.891698999999999
#
# number of rings (size 3 to 8) (size 9 to 14) (size 15 to 20)
#    1.200    0.400    2.000    1.200    8.400    1.600 
#    3.600    3.000    0.000    0.000    0.000    0.000 
#    0.000    0.000    0.000    0.000    0.000    0.000 
#
# Total GULP energy -56052.477635 kJ/mol
# GULP energy per Si atom -5605.247763 kJ/mol
# Density = 2.683049 g / cm^3
# Si number density = 26.891699 Si / 1000 Ang^3
#
#
#
# Elastic Constant Matrix: (Units=GPa)
#
#
# Indices 1 2 3 4 5 6 
#
# 1 142.3826 33.0917 11.9764 -1.1089 -17.7168 -14.5541
# 2 33.0917 172.4553 3.8654 18.2725 -16.0147 3.4830
# 3 11.9764 3.8654 56.3981 7.5082 18.2069 -2.7092
# 4 -1.1089 18.2725 7.5082 42.6328 -4.5929 4.7166
# 5 -17.7168 -16.0147 18.2069 -4.5929 34.3546 11.5675
# 6 -14.5541 3.4830 -2.7092 4.7166 11.5675 42.9390
#
#
#
# Elastic Compliance Matrix: (Units=1/GPa)
#
#
# Indices 1 2 3 4 5 6 
#
# 1 0.008450 -0.001230 -0.003759 0.001915 0.005702 0.000980
# 2 -0.001230 0.006624 -0.001047 -0.002149 0.003283 -0.001669
# 3 -0.003759 -0.001047 0.026104 -0.007047 -0.019375 0.006452
# 4 0.001915 -0.002149 -0.007047 0.027202 0.009058 -0.005049
# 5 0.005702 0.003283 -0.019375 0.009058 0.049757 -0.013955
# 6 0.000980 -0.001669 0.006452 -0.005049 -0.013955 0.028478
#
#
# Mechanical properties :
#
#
# Convention : Reuss Voigt Hill
#
# Bulk Modulus (GPa) = 34.35613 52.12254 43.23934
# Shear Modulus (GPa) = 29.69309 45.47212 37.58260
#
# Velocity S-wave (km/s) = 3.32651 4.11656 3.74244
# Velocity P-wave (km/s) = 5.24955 6.48222 5.89818
#
# Compressibility (1/GPa) = 0.02910689
#
# Stress axis : x y z
#
# Youngs Moduli (GPa) = 118.34187 150.95782 38.30833
#
# Poissons Ratio (x) = 0.18574 0.14399
# Poissons Ratio (y) = 0.14561 0.04010
# Poissons Ratio (z) = 0.44482 0.15800
#
# Static dielectric constant tensor:
#      x y z
#    x 2.125650 0.022050 -0.048130 
#    y 0.022050 2.099270 -0.055340 
#    z -0.048130 -0.055340 2.168260 
# 
# From -- ./inp_files/15995.got.cif
#   From: 2010.05.17/outbox.cif.g08.bks.cpg/sg2_8_cif.got.tgz:15995.got - 2010.06.03 11:33:40.
