data_PCOD9020194
_publ_section_title
;
Structure prediction by ZEFSAII (Michael W. Deem and Ramdas Pophale) SiO2 
 PCOD9020194
Probable space group: P -1
;
_chemical_formula_sum "Si O2"
_cell_formula_units_Z 16
_cell_length_a 5.479343
_cell_length_b 22.522405
_cell_length_c 16.405622
_cell_angle_alpha 19.957940
_cell_angle_beta 61.875164
_cell_angle_gamma 62.759495
_cell_volume 608.732927
_symmetry_space_group_name_H-M "P -1"
_symmetry_group_IT_number 2
_symmetry_cell_setting 'triclinic'
loop_
_space_group_symop_operation_xyz
x,y,z
-x,-y,-z
loop_
_atom_site_type_symbol
_atom_site_label
_atom_site_fract_x
_atom_site_fract_y
_atom_site_fract_z
Si Si1 0.346373 0.968503 0.329867
Si Si2 0.297859 0.577256 0.361110
Si Si3 0.121224 0.632758 0.715614
Si Si4 0.652640 0.090560 0.989887
Si Si5 0.168277 0.882975 0.713495
Si Si6 0.623624 0.439007 0.810987
Si Si7 0.376840 0.206260 0.352433
Si Si8 0.976843 0.258049 0.595039
O O1 0.237906 0.782443 0.560695
O O2 0.612816 0.910092 0.416727
O O3 0.159284 0.088634 0.264658
O O4 0.367874 0.064729 0.115271
O O5 0.500000 0.500000 0.500000
O O6 0.218458 0.776610 0.138737
O O7 0.451985 0.554871 0.279788
O O8 0.000000 0.500000 0.500000
O O9 0.361172 0.485221 0.851418
O O10 0.813218 0.622473 0.816521
O O11 0.078723 0.706606 0.535726
O O12 0.698992 0.187492 0.772537
O O13 0.805781 0.902291 0.211619
O O14 0.305903 0.788771 0.734499
O O15 0.260806 0.078638 0.465897
O O16 0.260666 0.752220 0.938948
O O17 0.866725 0.574072 0.613640
#
# Coordination Sequence:
#
# PCOD9020194 Si02
#       8
#     2   2   2   2   2   2   2   2
#     4  11  22  42  70 102 136 185 239 294 362 439
#     4  12  28  47  70 106 151 194 248 305 362 429
#     4  11  23  42  68  94 147 178 239 297 357 439
#     4  11  23  43  70  98 138 194 234 289 357 433
#     4  10  25  41  74  99 139 180 236 305 367 436
#     4  12  25  45  66 106 143 186 236 303 360 428
#     4  10  21  47  68 103 132 182 241 297 370 442
#     4  11  24  44  64 102 141 184 239 284 353 439
#
# _framework density 26.284106000000001
#
# number of rings (size 3 to 8) (size 9 to 14) (size 15 to 20)
#    0.000    1.000    3.750    1.875    3.500    2.000 
#    0.000    2.500    0.000    0.000    0.000    0.000 
#    0.000    0.000    0.000    0.000    0.000    0.000 
#
# Total GULP energy -89362.678810 kJ/mol
# GULP energy per Si atom -5585.167426 kJ/mol
# Density = 2.622428 g / cm^3
# Si number density = 26.284106 Si / 1000 Ang^3
#
#
#
# Elastic Constant Matrix: (Units=GPa)
#
#
# Indices 1 2 3 4 5 6 
#
# 1 74.7580 24.1481 17.5809 -1.1806 15.7419 2.2227
# 2 24.1481 136.1971 5.2361 7.0104 8.9150 -13.3930
# 3 17.5809 5.2361 63.5748 -9.7116 5.0268 5.0309
# 4 -1.1806 7.0104 -9.7116 45.4511 5.7986 4.7616
# 5 15.7419 8.9150 5.0268 5.7986 32.6226 -4.8498
# 6 2.2227 -13.3930 5.0309 4.7616 -4.8498 53.3861
#
#
#
# Elastic Compliance Matrix: (Units=1/GPa)
#
#
# Indices 1 2 3 4 5 6 
#
# 1 0.016629 -0.002575 -0.003489 0.001196 -0.007260 -0.001776
# 2 -0.002575 0.008141 -0.000361 -0.001602 -0.000300 0.002299
# 3 -0.003489 -0.000361 0.017703 0.004233 -0.002021 -0.002175
# 4 0.001196 -0.001602 0.004233 0.024272 -0.005630 -0.003527
# 5 -0.007260 -0.000300 -0.002021 -0.005630 0.036176 0.004206
# 6 -0.001776 0.002299 -0.002175 -0.003527 0.004206 0.020284
#
#
# Mechanical properties :
#
#
# Convention : Reuss Voigt Hill
#
# Bulk Modulus (GPa) = 33.75973 40.94001 37.34987
# Shear Modulus (GPa) = 34.26283 41.46296 37.86289
#
# Velocity S-wave (km/s) = 3.61440 3.97607 3.79954
# Velocity P-wave (km/s) = 5.50368 6.05712 5.78702
#
# Compressibility (1/GPa) = 0.02962109
#
# Stress axis : x y z
#
# Youngs Moduli (GPa) = 60.13492 122.83508 56.48830
#
# Poissons Ratio (x) = 0.31633 0.19711
# Poissons Ratio (y) = 0.15486 0.02041
# Poissons Ratio (z) = 0.20983 0.04439
#
# Static dielectric constant tensor:
#      x y z
#    x 2.143080 -0.128200 -0.060650 
#    y -0.128200 2.174140 0.130610 
#    z -0.060650 0.130610 2.129140 
# 
# From -- ./inp_files/551173.got.cif
#   From: 2010.05.17/outbox.cif.g08.bks.cpg/sg2_276_cif.got.tgz:551173.got - 2010.06.03 11:33:40.
