data_PCOD9020339
_publ_section_title
;
Structure prediction by ZEFSAII (Michael W. Deem and Ramdas Pophale) SiO2 
 PCOD9020339
Probable space group: P -1
;
_chemical_formula_sum "Si O2"
_cell_formula_units_Z 13
_cell_length_a 20.453886
_cell_length_b 8.600152
_cell_length_c 20.851938
_cell_angle_alpha 144.902033
_cell_angle_beta 19.825213
_cell_angle_gamma 148.574345
_cell_volume 646.141589
_symmetry_space_group_name_H-M "P -1"
_symmetry_group_IT_number 2
_symmetry_cell_setting 'triclinic'
loop_
_space_group_symop_operation_xyz
x,y,z
-x,-y,-z
loop_
_atom_site_type_symbol
_atom_site_label
_atom_site_fract_x
_atom_site_fract_y
_atom_site_fract_z
Si Si1 0.247072 0.685673 0.815264
Si Si2 0.373411 0.370231 0.480480
Si Si3 0.868368 0.325591 0.735073
Si Si4 0.500000 0.500000 0.000000
Si Si5 0.007809 0.277127 0.363302
Si Si6 0.557162 0.607058 0.131942
Si Si7 0.263019 0.300026 0.414902
O O1 0.309358 0.585481 0.656163
O O2 0.404298 0.626805 0.700350
O O3 0.308929 0.036869 0.873785
O O4 0.000000 0.500000 0.000000
O O5 0.369042 0.418613 0.425122
O O6 0.185732 0.040711 0.555106
O O7 0.004276 0.587900 0.648944
O O8 0.020571 0.264235 0.623449
O O9 0.751744 0.028342 0.698858
O O10 0.701190 0.430652 0.954605
O O11 0.756309 0.707492 0.846430
O O12 0.542846 0.499879 0.882051
O O13 0.000000 0.500000 0.500000
O O14 0.387573 0.512573 0.313515
#
# Coordination Sequence:
#
# PCOD9020339 Si02
#       7
#     2   2   2   1   2   2   2
#     4  11  25  47  67  92 127 174 231 272 314 389
#     4  11  25  42  69  97 128 175 221 270 324 383
#     4  10  22  38  61  95 136 169 201 263 328 396
#     4  10  22  34  64  94 122 166 208 260 316 380
#     4  11  19  38  63  94 126 165 212 259 318 381
#     4  11  24  41  64  95 131 170 218 267 325 387
#     4  11  23  41  62  98 136 166 209 270 330 387
#
# _framework density 20.119427000000002
#
# number of rings (size 3 to 8) (size 9 to 14) (size 15 to 20)
#    0.000    1.231    1.538    5.077    4.308    3.077 
#    0.000    1.538    0.000    0.000    0.000    0.000 
#    0.000    0.000    0.000    0.000    0.000    0.000 
#
# Total GULP energy -72386.705486 kJ/mol
# GULP energy per Si atom -5568.208114 kJ/mol
# Density = 2.007363 g / cm^3
# Si number density = 20.119427 Si / 1000 Ang^3
#
#
#
# Elastic Constant Matrix: (Units=GPa)
#
#
# Indices 1 2 3 4 5 6 
#
# 1 129.4919 43.1853 53.9626 -12.2238 14.9725 20.5812
# 2 43.1853 79.3490 44.0117 3.1879 -2.8001 1.0693
# 3 53.9626 44.0117 120.5948 -6.3068 -17.7132 20.7824
# 4 -12.2238 3.1879 -6.3068 37.8454 -1.8543 8.6268
# 5 14.9725 -2.8001 -17.7132 -1.8543 23.7124 -5.0151
# 6 20.5812 1.0693 20.7824 8.6268 -5.0151 22.6271
#
#
#
# Elastic Compliance Matrix: (Units=1/GPa)
#
#
# Indices 1 2 3 4 5 6 
#
# 1 0.019017 -0.009026 -0.003856 0.010216 -0.019723 -0.021595
# 2 -0.009026 0.021498 -0.006513 -0.009665 0.006487 0.018299
# 3 -0.003856 -0.006513 0.016180 0.004927 0.011965 -0.010272
# 4 0.010216 -0.009665 0.004927 0.037690 -0.007165 -0.029319
# 5 -0.019723 0.006487 0.011965 -0.007165 0.068986 0.024665
# 6 -0.021595 0.018299 -0.010272 -0.029319 0.024665 0.089052
#
#
# Mechanical properties :
#
#
# Convention : Reuss Voigt Hill
#
# Bulk Modulus (GPa) = 55.85345 67.97279 61.91312
# Shear Modulus (GPa) = 16.82466 29.38871 23.10669
#
# Velocity S-wave (km/s) = 2.89492 3.82607 3.39259
# Velocity P-wave (km/s) = 6.24462 7.30592 6.79602
#
# Compressibility (1/GPa) = 0.01790400
#
# Stress axis : x y z
#
# Youngs Moduli (GPa) = 52.58463 46.51562 61.80405
#
# Poissons Ratio (x) = 0.41986 0.23834
# Poissons Ratio (y) = 0.47464 0.40253
# Poissons Ratio (z) = 0.20279 0.30295
#
# Static dielectric constant tensor:
#      x y z
#    x 1.703100 -0.001360 -0.018880 
#    y -0.001360 1.699230 0.009450 
#    z -0.018880 0.009450 1.759210 
# 
# From -- ./inp_files/269099.got.cif
#   From: 2010.05.17/outbox.cif.g08.bks.cpg/sg2_135_cif.got.tgz:269099.got - 2010.06.03 11:33:40.
