data_PCOD9020370
_publ_section_title
;
Structure prediction by ZEFSAII (Michael W. Deem and Ramdas Pophale) SiO2 
 PCOD9020370
Probable space group: P -1
;
_chemical_formula_sum "Si O2"
_cell_formula_units_Z 16
_cell_length_a 11.861015
_cell_length_b 8.989238
_cell_length_c 13.981898
_cell_angle_alpha 103.947120
_cell_angle_beta 32.739840
_cell_angle_gamma 111.930186
_cell_volume 739.920498
_symmetry_space_group_name_H-M "P -1"
_symmetry_group_IT_number 2
_symmetry_cell_setting 'triclinic'
loop_
_space_group_symop_operation_xyz
x,y,z
-x,-y,-z
loop_
_atom_site_type_symbol
_atom_site_label
_atom_site_fract_x
_atom_site_fract_y
_atom_site_fract_z
Si Si1 0.897259 0.878865 0.967286
Si Si2 0.311665 0.046976 0.369856
Si Si3 0.687447 0.115455 0.453021
Si Si4 0.258454 0.509352 0.494826
Si Si5 0.758795 0.108940 0.978412
Si Si6 0.291992 0.477582 0.875651
Si Si7 0.113496 0.417375 0.787398
Si Si8 0.912204 0.193105 0.669989
O O1 0.089074 0.859934 0.760396
O O2 0.744436 0.942532 0.015479
O O3 0.773584 0.709650 0.078050
O O4 0.000000 0.000000 0.000000
O O5 0.325522 0.983897 0.455992
O O6 0.228253 0.895334 0.333205
O O7 0.126057 0.133324 0.514030
O O8 0.552929 0.152537 0.175541
O O9 0.689663 0.296992 0.506698
O O10 0.500000 0.000000 0.500000
O O11 0.445244 0.466154 0.294568
O O12 0.264397 0.457625 0.593664
O O13 0.017455 0.388257 0.617114
O O14 0.000235 0.226831 0.856481
O O15 0.774466 0.128290 0.855741
O O16 0.234904 0.497832 0.808301
O O17 0.107359 0.535458 0.069312
#
# Coordination Sequence:
#
# PCOD9020370 Si02
#       8
#     2   2   2   2   2   2   2   2
#     4  12  22  40  58  92 131 163 211 261 318 386
#     4  11  23  44  68  97 127 170 218 262 320 375
#     4  12  26  41  66  96 130 171 214 266 323 387
#     4  11  23  41  61  92 127 168 211 258 322 374
#     4  11  21  39  65  92 125 166 211 263 319 375
#     4  11  21  36  57  85 127 168 203 255 319 371
#     4  10  22  35  56  89 126 162 207 261 306 391
#     4  10  24  43  68  94 131 168 218 269 304 383
#
# _framework density 21.623944999999999
#
# number of rings (size 3 to 8) (size 9 to 14) (size 15 to 20)
#    0.000    1.000    3.750    3.750    0.000    1.500 
#    0.000    0.000    0.000    1.500    0.000    0.000 
#    0.000    0.000    0.000    0.000    0.000    0.000 
#
# Total GULP energy -89304.707949 kJ/mol
# GULP energy per Si atom -5581.544247 kJ/mol
# Density = 2.157473 g / cm^3
# Si number density = 21.623945 Si / 1000 Ang^3
#
#
#
# Elastic Constant Matrix: (Units=GPa)
#
#
# Indices 1 2 3 4 5 6 
#
# 1 81.2017 16.3004 14.3253 -4.6063 7.4563 10.6343
# 2 16.3004 80.6195 6.0394 -2.6371 -0.7988 -3.2238
# 3 14.3253 6.0394 124.2557 5.5167 12.5702 -12.9922
# 4 -4.6063 -2.6371 5.5167 32.1852 0.8692 0.4491
# 5 7.4563 -0.7988 12.5702 0.8692 23.2272 4.8802
# 6 10.6343 -3.2238 -12.9922 0.4491 4.8802 28.2742
#
#
#
# Elastic Compliance Matrix: (Units=1/GPa)
#
#
# Indices 1 2 3 4 5 6 
#
# 1 0.014454 -0.002970 -0.002047 0.002329 -0.002390 -0.006340
# 2 -0.002970 0.013142 -0.000177 0.000623 0.000983 0.002354
# 3 -0.002047 -0.000177 0.009608 -0.001885 -0.005779 0.006192
# 4 0.002329 0.000623 -0.001885 0.031819 -0.000456 -0.002098
# 5 -0.002390 0.000983 -0.005779 -0.000456 0.049124 -0.010117
# 6 -0.006340 0.002354 0.006192 -0.002098 -0.010117 0.042646
#
#
# Mechanical properties :
#
#
# Convention : Reuss Voigt Hill
#
# Bulk Modulus (GPa) = 37.29071 39.93411 38.61241
# Shear Modulus (GPa) = 27.75917 33.36477 30.56197
#
# Velocity S-wave (km/s) = 3.58680 3.93231 3.76352
# Velocity P-wave (km/s) = 5.86822 6.25500 6.06469
#
# Compressibility (1/GPa) = 0.02681633
#
# Stress axis : x y z
#
# Youngs Moduli (GPa) = 69.18429 76.09179 104.07675
#
# Poissons Ratio (x) = 0.22600 0.21301
# Poissons Ratio (y) = 0.20549 0.01845
# Poissons Ratio (z) = 0.14159 0.01349
#
# Static dielectric constant tensor:
#      x y z
#    x 1.742820 0.003990 -0.031270 
#    y 0.003990 1.904430 0.018270 
#    z -0.031270 0.018270 1.798060 
# 
# From -- ./inp_files/205775.got.cif
#   From: 2010.05.17/outbox.cif.g08.bks.cpg/sg2_103_cif.got.tgz:205775.got - 2010.06.03 11:33:40.
