data_PCOD9020803
_publ_section_title
;
Structure prediction by ZEFSAII (Michael W. Deem and Ramdas Pophale) SiO2 
 PCOD9020803
Probable space group: P -1
;
_chemical_formula_sum "Si O2"
_cell_formula_units_Z 12
_cell_length_a 6.922876
_cell_length_b 5.004798
_cell_length_c 18.111626
_cell_angle_alpha 69.038689
_cell_angle_beta 46.531565
_cell_angle_gamma 67.753526
_cell_volume 417.083575
_symmetry_space_group_name_H-M "P -1"
_symmetry_group_IT_number 2
_symmetry_cell_setting 'triclinic'
loop_
_space_group_symop_operation_xyz
x,y,z
-x,-y,-z
loop_
_atom_site_type_symbol
_atom_site_label
_atom_site_fract_x
_atom_site_fract_y
_atom_site_fract_z
Si Si1 0.086479 0.599117 0.642226
Si Si2 0.830790 0.087360 0.959578
Si Si3 0.316014 0.293582 0.140523
Si Si4 0.360810 0.568923 0.332124
Si Si5 0.425712 0.916070 0.415001
Si Si6 0.777516 0.407952 0.121559
O O1 0.925139 0.757361 0.739260
O O2 0.883512 0.484042 0.649990
O O3 0.259328 0.803624 0.535144
O O4 0.288451 0.304279 0.642103
O O5 0.785628 0.420400 0.911180
O O6 0.522172 0.050696 0.063497
O O7 0.030436 0.888534 0.869253
O O8 0.000000 0.000000 0.000000
O O9 0.532527 0.365100 0.137206
O O10 0.294710 0.834400 0.379982
O O11 0.620236 0.594298 0.210748
O O12 0.432452 0.254973 0.385381
O O13 0.000000 0.500000 0.000000
#
# Coordination Sequence:
#
# PCOD9020803 Si02
#       6
#     2   2   2   2   2   2
#     4  10  23  42  69 103 137 179 231 283 342 404
#     4   9  18  35  58  83 121 164 212 263 325 392
#     4   9  19  37  61  91 128 173 220 276 333 399
#     4  11  25  45  70 100 139 182 227 282 341 405
#     4  11  25  45  71 100 137 182 230 284 341 404
#     4  10  22  37  58  94 133 175 220 272 335 400
#
# _framework density 28.771212999999999
#
# number of rings (size 3 to 8) (size 9 to 14) (size 15 to 20)
#    0.000    2.000    0.000    2.000    0.000   14.000 
#    0.000    3.333    0.000    0.000    0.000    0.000 
#    0.000    0.000    0.000    0.000    0.000    0.000 
#
# Total GULP energy -67271.091847 kJ/mol
# GULP energy per Si atom -5605.924321 kJ/mol
# Density = 2.870573 g / cm^3
# Si number density = 28.771213 Si / 1000 Ang^3
#
#
#
# Elastic Constant Matrix: (Units=GPa)
#
#
# Indices 1 2 3 4 5 6 
#
# 1 104.9213 24.2143 27.6830 5.2619 1.0242 -17.9524
# 2 24.2143 127.7680 34.2512 -4.9146 1.7296 -2.9058
# 3 27.6830 34.2512 188.1611 -14.4303 12.0109 0.4370
# 4 5.2619 -4.9146 -14.4303 40.8107 6.9789 3.8530
# 5 1.0242 1.7296 12.0109 6.9789 43.9534 7.6069
# 6 -17.9524 -2.9058 0.4370 3.8530 7.6069 53.3461
#
#
#
# Elastic Compliance Matrix: (Units=1/GPa)
#
#
# Indices 1 2 3 4 5 6 
#
# 1 0.011113 -0.001707 -0.001525 -0.002534 -0.000039 0.003848
# 2 -0.001707 0.008509 -0.001229 0.000836 -0.000066 -0.000152
# 3 -0.001525 -0.001229 0.006082 0.002574 -0.001892 -0.000546
# 4 -0.002534 0.000836 0.002574 0.026822 -0.004570 -0.002114
# 5 -0.000039 -0.000066 -0.001892 -0.004570 0.024546 -0.003171
# 6 0.003848 -0.000152 -0.000546 -0.002114 -0.003171 0.020642
#
#
# Mechanical properties :
#
#
# Convention : Reuss Voigt Hill
#
# Bulk Modulus (GPa) = 59.58630 65.90526 62.74578
# Shear Modulus (GPa) = 44.55090 49.93550 47.24320
#
# Velocity S-wave (km/s) = 3.93931 4.17058 4.05659
# Velocity P-wave (km/s) = 6.43787 6.79324 6.61794
#
# Compressibility (1/GPa) = 0.01678238
#
# Stress axis : x y z
#
# Youngs Moduli (GPa) = 89.98375 117.51932 164.41311
#
# Poissons Ratio (x) = 0.20057 0.25076
# Poissons Ratio (y) = 0.15358 0.20210
# Poissons Ratio (z) = 0.13724 0.14446
#
# Static dielectric constant tensor:
#      x y z
#    x 2.434980 0.266520 0.037210 
#    y 0.266520 2.910240 0.024930 
#    z 0.037210 0.024930 2.179160 
# 
# From -- ./inp_files/585591.got.cif
#   From: 2010.05.17/outbox.cif.g08.bks.cpg/sg2_293_cif.got.tgz:585591.got - 2010.06.03 11:33:40.
