data_PCOD9020331
_publ_section_title
;
Structure prediction by ZEFSAII (Michael W. Deem and Ramdas Pophale) SiO2 
 PCOD9020331
Probable space group: P -1
;
_chemical_formula_sum "Si O2"
_cell_formula_units_Z 15
_cell_length_a 5.089836
_cell_length_b 23.513777
_cell_length_c 9.373626
_cell_angle_alpha 31.833963
_cell_angle_beta 78.769589
_cell_angle_gamma 89.375785
_cell_volume 553.891083
_symmetry_space_group_name_H-M "P -1"
_symmetry_group_IT_number 2
_symmetry_cell_setting 'triclinic'
loop_
_space_group_symop_operation_xyz
x,y,z
-x,-y,-z
loop_
_atom_site_type_symbol
_atom_site_label
_atom_site_fract_x
_atom_site_fract_y
_atom_site_fract_z
Si Si1 0.157402 0.769947 0.654878
Si Si2 0.608646 0.453578 0.404221
Si Si3 0.292711 0.629445 0.153370
Si Si4 0.008060 0.738239 0.411848
Si Si5 0.000000 0.500000 0.000000
Si Si6 0.260551 0.126147 0.363366
Si Si7 0.314955 0.049158 0.807339
Si Si8 0.634066 0.792277 0.114180
O O1 0.033822 0.760024 0.531820
O O2 0.491539 0.820574 0.486493
O O3 0.011978 0.844996 0.605104
O O4 0.108731 0.652619 0.993063
O O5 0.484105 0.554008 0.243101
O O6 0.811523 0.427959 0.561669
O O7 0.370276 0.331080 0.684382
O O8 0.742878 0.477722 0.185300
O O9 0.476376 0.758840 0.893960
O O10 0.905684 0.602988 0.708072
O O11 0.318041 0.780140 0.220422
O O12 0.819135 0.801403 0.215773
O O13 0.309714 0.035049 0.664545
O O14 0.248289 0.114414 0.218992
O O15 0.500000 0.000000 0.000000
O O16 0.000000 0.000000 0.000000
#
# Coordination Sequence:
#
# PCOD9020331 Si02
#       8
#     2   2   2   2   1   2   2   2
#     4  11  24  39  70  95 131 165 220 265 325 384
#     4   9  19  39  56  88 127 176 224 272 312 368
#     4   9  20  37  59  88 127 168 222 274 317 362
#     4  11  26  40  61  93 133 177 217 265 317 373
#     4  10  22  34  60  82 130 174 228 254 314 360
#     4  10  22  41  69  96 125 166 220 262 323 389
#     4  11  23  42  71 105 128 156 206 273 332 389
#     4  10  25  41  63  90 132 179 217 260 316 377
#
# _framework density 27.081136999999998
#
# number of rings (size 3 to 8) (size 9 to 14) (size 15 to 20)
#    0.000    1.867    1.333    0.800   14.933    1.067 
#    0.000    2.667    0.000    4.800    0.000    0.000 
#    0.000    0.000    0.000    0.000    0.000    0.000 
#
# Total GULP energy -83626.105402 kJ/mol
# GULP energy per Si atom -5575.073693 kJ/mol
# Density = 2.701950 g / cm^3
# Si number density = 27.081137 Si / 1000 Ang^3
#
#
#
# Elastic Constant Matrix: (Units=GPa)
#
#
# Indices 1 2 3 4 5 6 
#
# 1 131.5728 16.0384 73.1385 31.7451 9.3940 9.3335
# 2 16.0384 36.5063 42.5417 15.6003 6.9512 5.0748
# 3 73.1385 42.5417 254.8901 50.2755 15.9078 12.6979
# 4 31.7451 15.6003 50.2755 58.8178 7.0078 3.8443
# 5 9.3940 6.9512 15.9078 7.0078 48.5807 7.9278
# 6 9.3335 5.0748 12.6979 3.8443 7.9278 32.2452
#
#
#
# Elastic Compliance Matrix: (Units=1/GPa)
#
#
# Indices 1 2 3 4 5 6 
#
# 1 0.009666 -0.000231 -0.001979 -0.003312 -0.000470 -0.001472
# 2 -0.000231 0.035860 -0.004665 -0.004943 -0.002429 -0.002553
# 3 -0.001979 -0.004665 0.005836 -0.002598 -0.000390 -0.000585
# 4 -0.003312 -0.004943 -0.002598 0.022428 -0.001095 0.000355
# 5 -0.000470 -0.002429 -0.000390 -0.001095 0.022063 -0.004622
# 6 -0.001472 -0.002553 -0.000585 0.000355 -0.004622 0.033165
#
#
# Mechanical properties :
#
#
# Convention : Reuss Voigt Hill
#
# Bulk Modulus (GPa) = 26.58792 76.26739 51.42765
# Shear Modulus (GPa) = 32.19497 47.34544 39.77021
#
# Velocity S-wave (km/s) = 3.45169 4.18578 3.83633
# Velocity P-wave (km/s) = 5.07195 7.18225 6.21729
#
# Compressibility (1/GPa) = 0.03761107
#
# Stress axis : x y z
#
# Youngs Moduli (GPa) = 103.45970 27.88624 171.35882
#
# Poissons Ratio (x) = 0.00644 0.33913
# Poissons Ratio (y) = 0.02389 0.79941
# Poissons Ratio (z) = 0.20475 0.13009
#
# Static dielectric constant tensor:
#      x y z
#    x 2.133980 0.116030 0.039300 
#    y 0.116030 2.331090 -0.035990 
#    z 0.039300 -0.035990 2.136990 
# 
# From -- ./inp_files/138245.got.cif
#   From: 2010.05.17/outbox.cif.g08.bks.cpg/sg2_70_cif.got.tgz:138245.got - 2010.06.03 11:33:40.
