data_PCOD9020556
_publ_section_title
;
Structure prediction by ZEFSAII (Michael W. Deem and Ramdas Pophale) SiO2 
 PCOD9020556
Probable space group: P -1
;
_chemical_formula_sum "Si O2"
_cell_formula_units_Z 15
_cell_length_a 10.516554
_cell_length_b 11.490138
_cell_length_c 14.808219
_cell_angle_alpha 40.107458
_cell_angle_beta 145.814710
_cell_angle_gamma 143.687764
_cell_volume 568.829358
_symmetry_space_group_name_H-M "P -1"
_symmetry_group_IT_number 2
_symmetry_cell_setting 'triclinic'
loop_
_space_group_symop_operation_xyz
x,y,z
-x,-y,-z
loop_
_atom_site_type_symbol
_atom_site_label
_atom_site_fract_x
_atom_site_fract_y
_atom_site_fract_z
Si Si1 0.868661 0.119777 0.534205
Si Si2 0.998135 0.407265 0.151895
Si Si3 0.417598 0.156815 0.153633
Si Si4 0.538634 0.499449 0.153122
Si Si5 0.000000 0.500000 0.500000
Si Si6 0.765429 0.947751 0.323456
Si Si7 0.446677 0.362229 0.379428
Si Si8 0.226115 0.717717 0.249050
O O1 0.685006 0.152462 0.335011
O O2 0.891443 0.257190 0.550908
O O3 0.713761 0.875692 0.603177
O O4 0.148850 0.161406 0.638552
O O5 0.271399 0.405896 0.318522
O O6 0.008635 0.554169 0.152579
O O7 0.795773 0.166098 0.179095
O O8 0.000000 0.500000 0.000000
O O9 0.371933 0.282649 0.132801
O O10 0.215045 0.918989 0.158113
O O11 0.454982 0.304064 0.004384
O O12 0.823213 0.524413 0.302355
O O13 0.488580 0.482409 0.240235
O O14 0.488991 0.816385 0.283697
O O15 0.000000 0.000000 0.500000
O O16 0.704226 0.386877 0.563428
#
# Coordination Sequence:
#
# PCOD9020556 Si02
#       8
#     2   2   2   2   1   2   2   2
#     4   9  20  38  61  89 124 164 214 262 315 382
#     4  11  26  41  61 103 132 167 219 265 322 387
#     4   9  20  40  64  91 125 168 208 265 330 381
#     4  10  22  40  64  91 127 164 218 266 321 380
#     4  10  22  36  60  92 116 164 218 256 318 384
#     4  11  21  40  66  91 135 169 211 267 316 390
#     4  10  22  41  64  89 127 170 215 266 313 389
#     4  11  23  43  67  93 131 180 213 260 333 379
#
# _framework density 26.369945999999999
#
# number of rings (size 3 to 8) (size 9 to 14) (size 15 to 20)
#    0.000    1.867    4.000    0.400    3.733    7.467 
#    0.000    0.000    0.000    8.000    0.000    0.000 
#    0.000    0.000    0.000    0.000    0.000    0.000 
#
# Total GULP energy -83759.305188 kJ/mol
# GULP energy per Si atom -5583.953679 kJ/mol
# Density = 2.630993 g / cm^3
# Si number density = 26.369946 Si / 1000 Ang^3
#
#
#
# Elastic Constant Matrix: (Units=GPa)
#
#
# Indices 1 2 3 4 5 6 
#
# 1 65.1736 16.1457 5.4397 -0.1237 16.6416 -5.4221
# 2 16.1457 161.7535 38.4968 -8.7893 -2.2343 -52.8016
# 3 5.4397 38.4968 94.2530 -16.5285 -7.1422 -17.1796
# 4 -0.1237 -8.7893 -16.5285 35.3188 -6.1528 6.6842
# 5 16.6416 -2.2343 -7.1422 -6.1528 43.1291 2.6941
# 6 -5.4221 -52.8016 -17.1796 6.6842 2.6941 53.6227
#
#
#
# Elastic Compliance Matrix: (Units=1/GPa)
#
#
# Indices 1 2 3 4 5 6 
#
# 1 0.017790 -0.001517 -0.001284 -0.002333 -0.007524 0.000562
# 2 -0.001517 0.009714 -0.002341 -0.000309 0.000114 0.008694
# 3 -0.001284 -0.002341 0.013093 0.005961 0.003340 0.000849
# 4 -0.002333 -0.000309 0.005961 0.032770 0.006737 -0.003054
# 5 -0.007524 0.000114 0.003340 0.006737 0.027722 -0.001811
# 6 0.000562 0.008694 0.000849 -0.003054 -0.001811 0.028011
#
#
# Mechanical properties :
#
#
# Convention : Reuss Voigt Hill
#
# Bulk Modulus (GPa) = 32.98881 49.03827 41.01354
# Shear Modulus (GPa) = 33.44748 43.82064 38.63406
#
# Velocity S-wave (km/s) = 3.56532 4.08090 3.83179
# Velocity P-wave (km/s) = 5.43008 6.39074 5.92990
#
# Compressibility (1/GPa) = 0.03031331
#
# Stress axis : x y z
#
# Youngs Moduli (GPa) = 56.21089 102.94718 76.37585
#
# Poissons Ratio (x) = 0.15621 0.09805
# Poissons Ratio (y) = 0.08529 0.17877
# Poissons Ratio (z) = 0.07216 0.24097
#
# Static dielectric constant tensor:
#      x y z
#    x 2.308460 -0.015860 0.027950 
#    y -0.015860 2.070770 0.029540 
#    z 0.027950 0.029540 2.032190 
# 
# From -- ./inp_files/517620.got.cif
#   From: 2010.05.17/outbox.cif.g08.bks.cpg/sg2_259_cif.got.tgz:517620.got - 2010.06.03 11:33:40.
