data_PCOD9020341
_publ_section_title
;
Structure prediction by ZEFSAII (Michael W. Deem and Ramdas Pophale) SiO2 
 PCOD9020341
Probable space group: P -1
;
_chemical_formula_sum "Si O2"
_cell_formula_units_Z 16
_cell_length_a 11.611872
_cell_length_b 11.847456
_cell_length_c 11.191435
_cell_angle_alpha 49.923484
_cell_angle_beta 118.142066
_cell_angle_gamma 136.036545
_cell_volume 817.733038
_symmetry_space_group_name_H-M "P -1"
_symmetry_group_IT_number 2
_symmetry_cell_setting 'triclinic'
loop_
_space_group_symop_operation_xyz
x,y,z
-x,-y,-z
loop_
_atom_site_type_symbol
_atom_site_label
_atom_site_fract_x
_atom_site_fract_y
_atom_site_fract_z
Si Si1 0.763564 0.461481 0.928507
Si Si2 0.089280 0.133940 0.836510
Si Si3 0.438281 0.334840 0.989072
Si Si4 0.202321 0.799582 0.708127
Si Si5 0.413638 0.982256 0.293947
Si Si6 0.909356 0.295782 0.541132
Si Si7 0.081886 0.880203 0.811929
Si Si8 0.327075 0.832312 0.093222
O O1 0.591195 0.403587 0.931266
O O2 0.816807 0.360753 0.109044
O O3 0.730201 0.364509 0.850430
O O4 0.901272 0.682066 0.847752
O O5 0.998122 0.221014 0.700077
O O6 0.077424 0.028773 0.781008
O O7 0.279648 0.277999 0.875091
O O8 0.000000 0.000000 0.000000
O O9 0.400477 0.151111 0.159312
O O10 0.500000 0.500000 0.000000
O O11 0.164132 0.911914 0.699822
O O12 0.086729 0.711863 0.595413
O O13 0.393497 0.928048 0.671243
O O14 0.285653 0.840676 0.427151
O O15 0.348747 0.863166 0.221889
O O16 0.000000 0.500000 0.500000
O O17 0.191076 0.853736 0.969906
O O18 0.500000 0.000000 0.000000
#
# Coordination Sequence:
#
# PCOD9020341 Si02
#       8
#     2   2   2   2   2   2   2   2
#     4  10  22  34  66 102 129 162 214 272 318 384
#     4  12  24  44  69  95 128 171 217 275 325 376
#     4  11  22  37  66  98 129 162 215 268 325 374
#     4  10  23  41  63  92 132 174 208 259 331 386
#     4  11  22  41  67  92 131 171 214 265 320 389
#     4  12  29  43  63  93 135 176 217 262 324 394
#     4  11  21  38  68  98 130 164 221 270 321 379
#     4  11  16  35  62 100 125 159 212 270 322 373
#
# _framework density 19.566286000000002
#
# number of rings (size 3 to 8) (size 9 to 14) (size 15 to 20)
#    0.000    1.000    6.250    2.625    8.750    0.500 
#    0.000    0.000    0.000    1.500    0.000    0.000 
#    0.000    0.000    0.000    0.000    0.000    0.000 
#
# Total GULP energy -89354.498714 kJ/mol
# GULP energy per Si atom -5584.656170 kJ/mol
# Density = 1.952175 g / cm^3
# Si number density = 19.566286 Si / 1000 Ang^3
#
#
#
# Elastic Constant Matrix: (Units=GPa)
#
#
# Indices 1 2 3 4 5 6 
#
# 1 94.5251 44.0563 43.3595 -6.2210 -3.0825 -20.0828
# 2 44.0563 141.8354 50.0038 6.2615 -3.1948 -22.9518
# 3 43.3595 50.0038 62.2841 20.1959 -6.1988 -17.4784
# 4 -6.2210 6.2615 20.1959 29.0215 -6.2601 -8.0660
# 5 -3.0825 -3.1948 -6.1988 -6.2601 21.6959 2.7211
# 6 -20.0828 -22.9518 -17.4784 -8.0660 2.7211 48.4974
#
#
#
# Elastic Compliance Matrix: (Units=1/GPa)
#
#
# Indices 1 2 3 4 5 6 
#
# 1 0.023070 0.000499 -0.021836 0.022156 0.002822 0.005446
# 2 0.000499 0.010539 -0.009840 0.005399 0.000050 0.002543
# 3 -0.021836 -0.009840 0.051195 -0.038844 -0.000925 -0.001657
# 4 0.022156 0.005399 -0.038844 0.070078 0.011972 0.008714
# 5 0.002822 0.000050 -0.000925 0.011972 0.049682 0.000063
# 6 0.005446 0.002543 -0.001657 0.008714 0.000063 0.024927
#
#
# Mechanical properties :
#
#
# Convention : Reuss Voigt Hill
#
# Bulk Modulus (GPa) = 44.54370 63.72044 54.13207
# Shear Modulus (GPa) = 16.70401 30.59129 23.64765
#
# Velocity S-wave (km/s) = 2.92501 3.95836 3.48025
# Velocity P-wave (km/s) = 5.85000 7.31633 6.62387
#
# Compressibility (1/GPa) = 0.02244986
#
# Stress axis : x y z
#
# Youngs Moduli (GPa) = 43.34571 94.88661 19.53302
#
# Poissons Ratio (x) = -0.04736 0.42652
# Poissons Ratio (y) = -0.02163 0.19221
# Poissons Ratio (z) = 0.94650 0.93372
#
# Static dielectric constant tensor:
#      x y z
#    x 1.737860 -0.020220 -0.015000 
#    y -0.020220 1.723410 -0.001140 
#    z -0.015000 -0.001140 1.675620 
# 
# From -- ./inp_files/427649.got.cif
#   From: 2010.05.17/outbox.cif.g08.bks.cpg/sg2_214_cif.got.tgz:427649.got - 2010.06.03 11:33:40.
