data_PCOD9020054
_publ_section_title
;
Structure prediction by ZEFSAII (Michael W. Deem and Ramdas Pophale) SiO2 
 PCOD9020054
Probable space group: P -1
;
_chemical_formula_sum "Si O2"
_cell_formula_units_Z 14
_cell_length_a 11.178781
_cell_length_b 18.533804
_cell_length_c 13.753628
_cell_angle_alpha 34.323560
_cell_angle_beta 36.449962
_cell_angle_gamma 25.723440
_cell_volume 675.841423
_symmetry_space_group_name_H-M "P -1"
_symmetry_group_IT_number 2
_symmetry_cell_setting 'triclinic'
loop_
_space_group_symop_operation_xyz
x,y,z
-x,-y,-z
loop_
_atom_site_type_symbol
_atom_site_label
_atom_site_fract_x
_atom_site_fract_y
_atom_site_fract_z
Si Si1 0.073688 0.843691 0.060573
Si Si2 0.624471 0.443819 0.589266
Si Si3 0.805797 0.641036 0.212898
Si Si4 0.807337 0.108305 0.410891
Si Si5 0.689451 0.455400 0.119464
Si Si6 0.800349 0.106255 0.778035
Si Si7 0.178537 0.299777 0.644891
O O1 0.405857 0.656157 0.044934
O O2 0.926327 0.776705 0.260198
O O3 0.000000 0.000000 0.000000
O O4 0.931508 0.937969 0.945368
O O5 0.500000 0.500000 0.500000
O O6 0.800899 0.495897 0.416369
O O7 0.388438 0.539097 0.722251
O O8 0.778866 0.238868 0.714464
O O9 0.499683 0.793877 0.188914
O O10 0.850384 0.697026 0.222280
O O11 0.045191 0.575923 0.051430
O O12 0.752403 0.283838 0.230434
O O13 0.506300 0.179496 0.545498
O O14 0.000000 0.000000 0.500000
O O15 0.977805 0.966843 0.370319
O O16 0.000000 0.500000 0.500000
#
# Coordination Sequence:
#
# PCOD9020054 Si02
#       7
#     2   2   2   2   2   2   2
#     4  12  27  48  68 106 152 193 242 304 362 436
#     4  10  21  46  68 102 148 184 234 304 358 425
#     4  11  25  45  76 108 139 196 248 299 369 428
#     4  12  24  45  75 108 144 190 247 302 364 433
#     4  12  25  46  74 102 149 189 248 293 364 439
#     4  11  25  44  70 106 150 186 246 308 355 436
#     4  12  25  46  75 104 149 195 242 304 365 430
#
# _framework density 20.714918000000001
#
# number of rings (size 3 to 8) (size 9 to 14) (size 15 to 20)
#    0.000    0.571    5.714    1.714    4.000    5.714 
#    0.000    1.429    0.000    0.000    0.000    0.000 
#    0.000    0.000    0.000    0.000    0.000    0.000 
#
# Total GULP energy -78106.633323 kJ/mol
# GULP energy per Si atom -5579.045237 kJ/mol
# Density = 2.066777 g / cm^3
# Si number density = 20.714918 Si / 1000 Ang^3
#
#
#
# Elastic Constant Matrix: (Units=GPa)
#
#
# Indices 1 2 3 4 5 6 
#
# 1 96.2902 39.9345 43.8862 2.0522 -12.0669 6.8879
# 2 39.9345 133.4625 54.3093 16.7191 -6.1747 -16.3133
# 3 43.8862 54.3093 129.2414 17.9487 -4.0953 -0.3014
# 4 2.0522 16.7191 17.9487 49.6314 -0.0394 10.5072
# 5 -12.0669 -6.1747 -4.0953 -0.0394 36.9189 -5.1239
# 6 6.8879 -16.3133 -0.3014 10.5072 -5.1239 36.0766
#
#
#
# Elastic Compliance Matrix: (Units=1/GPa)
#
#
# Indices 1 2 3 4 5 6 
#
# 1 0.014181 -0.003582 -0.003637 0.002953 0.002970 -0.004796
# 2 -0.003582 0.011165 -0.002849 -0.004083 0.001360 0.007091
# 3 -0.003637 -0.002849 0.010537 -0.002749 -0.000468 0.000229
# 4 0.002953 -0.004083 -0.002749 0.024459 -0.001349 -0.009748
# 5 0.002970 0.001360 -0.000468 -0.001349 0.028861 0.004536
# 6 -0.004796 0.007091 0.000229 -0.009748 0.004536 0.035326
#
#
# Mechanical properties :
#
#
# Convention : Reuss Voigt Hill
#
# Bulk Modulus (GPa) = 63.50403 70.58379 67.04391
# Shear Modulus (GPa) = 33.35252 39.24968 36.30110
#
# Velocity S-wave (km/s) = 4.01692 4.35760 4.19073
# Velocity P-wave (km/s) = 7.22752 7.71143 7.47339
#
# Compressibility (1/GPa) = 0.01574703
#
# Stress axis : x y z
#
# Youngs Moduli (GPa) = 70.51737 89.56702 94.90130
#
# Poissons Ratio (x) = 0.32081 0.34520
# Poissons Ratio (y) = 0.25258 0.27035
# Poissons Ratio (z) = 0.25651 0.25515
#
# Static dielectric constant tensor:
#      x y z
#    x 1.800410 -0.051320 0.050690 
#    y -0.051320 1.795590 -0.123830 
#    z 0.050690 -0.123830 1.826600 
# 
# From -- ./inp_files/524030.got.cif
#   From: 2010.05.17/outbox.cif.g08.bks.cpg/sg2_263_cif.got.tgz:524030.got - 2010.06.03 11:33:40.
