data_PCOD9020607
_publ_section_title
;
Structure prediction by ZEFSAII (Michael W. Deem and Ramdas Pophale) SiO2 
 PCOD9020607
Probable space group: P -1
;
_chemical_formula_sum "Si O2"
_cell_formula_units_Z 16
_cell_length_a 12.291216
_cell_length_b 10.213732
_cell_length_c 7.232972
_cell_angle_alpha 85.771993
_cell_angle_beta 67.104821
_cell_angle_gamma 47.637909
_cell_volume 593.929423
_symmetry_space_group_name_H-M "P -1"
_symmetry_group_IT_number 2
_symmetry_cell_setting 'triclinic'
loop_
_space_group_symop_operation_xyz
x,y,z
-x,-y,-z
loop_
_atom_site_type_symbol
_atom_site_label
_atom_site_fract_x
_atom_site_fract_y
_atom_site_fract_z
Si Si1 0.826457 0.499009 0.768744
Si Si2 0.597269 0.643469 0.600525
Si Si3 0.536101 0.981867 0.196266
Si Si4 0.759388 0.158974 0.169695
Si Si5 0.525485 0.696451 0.235934
Si Si6 0.874438 0.752808 0.813847
Si Si7 0.035058 0.752292 0.992065
Si Si8 0.167544 0.953712 0.433700
O O1 0.763448 0.487299 0.621222
O O2 0.866458 0.621491 0.726473
O O3 0.666976 0.604196 0.999335
O O4 0.972625 0.311624 0.798916
O O5 0.428111 0.711048 0.779854
O O6 0.593416 0.594797 0.398644
O O7 0.557973 0.828422 0.655991
O O8 0.483802 0.879619 0.307581
O O9 0.733144 0.851102 0.060779
O O10 0.500000 0.000000 0.000000
O O11 0.818846 0.258139 0.086403
O O12 0.796216 0.089245 0.365357
O O13 0.885301 0.963729 0.004084
O O14 0.355996 0.764446 0.265345
O O15 0.853677 0.887802 0.668224
O O16 0.038836 0.641494 0.841082
O O17 0.000000 0.000000 0.500000
#
# Coordination Sequence:
#
# PCOD9020607 Si02
#       8
#     2   2   2   2   2   2   2   2
#     4  11  24  43  65  92 132 168 202 267 326 361
#     4  11  20  38  62  93 127 161 214 259 309 376
#     4  11  17  34  64  93 123 167 209 258 309 365
#     4  10  24  39  65  93 119 168 219 252 309 378
#     4  10  22  36  62  96 124 167 211 255 318 371
#     4  11  20  38  66  92 124 167 209 254 322 369
#     4  11  23  43  62  90 127 169 212 255 312 385
#     4  11  20  38  64  95 126 163 211 264 301 376
#
# _framework density 26.939229999999998
#
# number of rings (size 3 to 8) (size 9 to 14) (size 15 to 20)
#    0.000    1.250    6.250    0.750    0.000    1.500 
#    2.250    3.125    0.000    0.000    0.000    0.000 
#    0.000    0.000    0.000    0.000    0.000    0.000 
#
# Total GULP energy -89417.505425 kJ/mol
# GULP energy per Si atom -5588.594089 kJ/mol
# Density = 2.687791 g / cm^3
# Si number density = 26.939230 Si / 1000 Ang^3
#
#
#
# Elastic Constant Matrix: (Units=GPa)
#
#
# Indices 1 2 3 4 5 6 
#
# 1 167.5142 38.4706 16.8231 -19.5045 -6.4712 -23.5412
# 2 38.4706 81.2370 20.2887 -16.6460 -3.0775 -6.3417
# 3 16.8231 20.2887 92.7476 -12.3279 20.6264 -2.5993
# 4 -19.5045 -16.6460 -12.3279 49.2598 -5.4749 -1.3235
# 5 -6.4712 -3.0775 20.6264 -5.4749 37.5613 -16.6295
# 6 -23.5412 -6.3417 -2.5993 -1.3235 -16.6295 29.4950
#
#
#
# Elastic Compliance Matrix: (Units=1/GPa)
#
#
# Indices 1 2 3 4 5 6 
#
# 1 0.008918 -0.001730 -0.002261 0.003592 0.008169 0.011313
# 2 -0.001730 0.015596 -0.003684 0.004466 0.005960 0.005209
# 3 -0.002261 -0.003684 0.014494 -0.000106 -0.012330 -0.008276
# 4 0.003592 0.004466 -0.000106 0.024480 0.009046 0.010017
# 5 0.008169 0.005960 -0.012330 0.009046 0.052987 0.036995
# 6 0.011313 0.005209 -0.008276 0.010017 0.036995 0.064632
#
#
# Mechanical properties :
#
#
# Convention : Reuss Voigt Hill
#
# Bulk Modulus (GPa) = 42.26784 54.74041 48.50413
# Shear Modulus (GPa) = 24.46859 40.99096 32.72978
#
# Velocity S-wave (km/s) = 3.01705 3.90501 3.48939
# Velocity P-wave (km/s) = 5.27835 6.37936 5.85479
#
# Compressibility (1/GPa) = 0.02365865
#
# Stress axis : x y z
#
# Youngs Moduli (GPa) = 112.13670 64.11799 68.99338
#
# Poissons Ratio (x) = 0.11090 0.15602
# Poissons Ratio (y) = 0.19395 0.25416
# Poissons Ratio (z) = 0.25358 0.23620
#
# Static dielectric constant tensor:
#      x y z
#    x 2.193980 -0.022210 -0.167430 
#    y -0.022210 2.222470 0.022230 
#    z -0.167430 0.022230 2.469160 
# 
# From -- ./inp_files/252909.got.cif
#   From: 2010.05.17/outbox.cif.g08.bks.cpg/sg2_127_cif.got.tgz:252909.got - 2010.06.03 11:33:40.
