data_PCOD9020676
_publ_section_title
;
Structure prediction by ZEFSAII (Michael W. Deem and Ramdas Pophale) SiO2 
 PCOD9020676
Probable space group: P -1
;
_chemical_formula_sum "Si O2"
_cell_formula_units_Z 11
_cell_length_a 11.018316
_cell_length_b 6.679221
_cell_length_c 24.282453
_cell_angle_alpha 43.950275
_cell_angle_beta 23.411353
_cell_angle_gamma 46.437107
_cell_volume 490.159291
_symmetry_space_group_name_H-M "P -1"
_symmetry_group_IT_number 2
_symmetry_cell_setting 'triclinic'
loop_
_space_group_symop_operation_xyz
x,y,z
-x,-y,-z
loop_
_atom_site_type_symbol
_atom_site_label
_atom_site_fract_x
_atom_site_fract_y
_atom_site_fract_z
Si Si1 0.203027 0.063835 0.774489
Si Si2 0.292154 0.696319 0.209180
Si Si3 0.529006 0.537658 0.263502
Si Si4 0.000000 0.000000 0.000000
Si Si5 0.208659 0.688522 0.478216
Si Si6 0.464403 0.702142 0.027107
O O1 0.089887 0.978975 0.899013
O O2 0.474966 0.266537 0.631476
O O3 0.895481 0.188997 0.846768
O O4 0.345446 0.792602 0.733352
O O5 0.408818 0.640705 0.233183
O O6 0.508594 0.548865 0.098653
O O7 0.979275 0.547616 0.367537
O O8 0.324053 0.036467 0.118280
O O9 0.283274 0.583608 0.405717
O O10 0.788886 0.734960 0.133741
O O11 0.000000 0.000000 0.500000
O O12 0.500000 0.500000 0.000000
#
# Coordination Sequence:
#
# PCOD9020676 Si02
#       6
#     2   2   2   1   2   2
#     4  11  24  42  68 102 134 178 227 280 340 398
#     4  11  25  44  68 101 138 179 225 277 341 404
#     4  11  23  40  72 100 135 173 233 287 337 388
#     4  10  22  36  66 100 132 170 230 282 326 396
#     4  11  25  41  73 106 133 174 227 287 344 396
#     4  11  28  45  68  96 143 187 222 273 339 410
#
# _framework density 22.441683999999999
#
# number of rings (size 3 to 8) (size 9 to 14) (size 15 to 20)
#    0.000    1.091    3.636    1.091    5.091    5.091 
#    0.000    1.818    0.000    0.000    0.000    0.000 
#    0.000    0.000    0.000    0.000    0.000    0.000 
#
# Total GULP energy -61246.508087 kJ/mol
# GULP energy per Si atom -5567.864372 kJ/mol
# Density = 2.239061 g / cm^3
# Si number density = 22.441684 Si / 1000 Ang^3
#
#
#
# Elastic Constant Matrix: (Units=GPa)
#
#
# Indices 1 2 3 4 5 6 
#
# 1 92.4771 53.2536 57.3771 -2.0759 8.9746 21.5872
# 2 53.2536 75.8396 70.5529 -1.4635 10.1899 34.0916
# 3 57.3771 70.5529 174.4539 -25.5149 14.7614 15.1439
# 4 -2.0759 -1.4635 -25.5149 44.2600 17.8920 1.3232
# 5 8.9746 10.1899 14.7614 17.8920 51.0619 4.6733
# 6 21.5872 34.0916 15.1439 1.3232 4.6733 42.3971
#
#
#
# Elastic Compliance Matrix: (Units=1/GPa)
#
#
# Indices 1 2 3 4 5 6 
#
# 1 0.018376 -0.012144 -0.001166 -0.000019 -0.000544 0.000886
# 2 -0.012144 0.044797 -0.013011 -0.006451 0.001519 -0.025157
# 3 -0.001166 -0.013011 0.012330 0.008132 -0.004241 0.006865
# 4 -0.000019 -0.006451 0.008132 0.032056 -0.012537 0.002673
# 5 -0.000544 0.001519 -0.004241 -0.012537 0.025161 -0.001812
# 6 0.000886 -0.025157 0.006865 0.002673 -0.001812 0.041028
#
#
# Mechanical properties :
#
#
# Convention : Reuss Voigt Hill
#
# Bulk Modulus (GPa) = 43.74306 78.34864 61.04585
# Shear Modulus (GPa) = 21.36664 38.31628 29.84146
#
# Velocity S-wave (km/s) = 3.08895 4.13652 3.65051
# Velocity P-wave (km/s) = 5.67947 7.60278 6.71039
#
# Compressibility (1/GPa) = 0.02286077
#
# Stress axis : x y z
#
# Youngs Moduli (GPa) = 54.41976 22.32298 81.10417
#
# Poissons Ratio (x) = 0.27109 0.09457
# Poissons Ratio (y) = 0.66086 1.05524
# Poissons Ratio (z) = 0.06346 0.29044
#
# Static dielectric constant tensor:
#      x y z
#    x 1.876150 -0.022860 -0.002280 
#    y -0.022860 1.755940 0.034870 
#    z -0.002280 0.034870 1.831930 
# 
# From -- ./inp_files/17667.got.cif
#   From: 2010.05.17/outbox.cif.g08.bks.cpg/sg2_9_cif.got.tgz:17667.got - 2010.06.03 11:33:40.
