data_PCOD9020514
_publ_section_title
;
Structure prediction by ZEFSAII (Michael W. Deem and Ramdas Pophale) SiO2 
 PCOD9020514
Probable space group: P -1
;
_chemical_formula_sum "Si O2"
_cell_formula_units_Z 14
_cell_length_a 22.934116
_cell_length_b 16.526664
_cell_length_c 9.395387
_cell_angle_alpha 36.082124
_cell_angle_beta 29.337084
_cell_angle_gamma 18.411336
_cell_volume 546.902567
_symmetry_space_group_name_H-M "P -1"
_symmetry_group_IT_number 2
_symmetry_cell_setting 'triclinic'
loop_
_space_group_symop_operation_xyz
x,y,z
-x,-y,-z
loop_
_atom_site_type_symbol
_atom_site_label
_atom_site_fract_x
_atom_site_fract_y
_atom_site_fract_z
Si Si1 0.639290 0.088824 0.689631
Si Si2 0.710822 0.109989 0.047109
Si Si3 0.364892 0.219633 0.628010
Si Si4 0.230128 0.195456 0.450806
Si Si5 0.121920 0.199757 0.113799
Si Si6 0.192427 0.828905 0.992509
Si Si7 0.297025 0.596929 0.829841
O O1 0.705813 0.150687 0.354837
O O2 0.391881 0.366597 0.882324
O O3 0.686008 0.921193 0.719232
O O4 0.804140 0.909995 0.727608
O O5 0.480312 0.253937 0.303045
O O6 0.713122 0.243992 0.946340
O O7 0.830335 0.884284 0.219538
O O8 0.837492 0.973238 0.823527
O O9 0.126628 0.500009 0.800364
O O10 0.550118 0.972533 0.690107
O O11 0.283634 0.172287 0.767575
O O12 0.000000 0.500000 0.500000
O O13 0.249133 0.642722 0.036629
O O14 0.929781 0.115792 0.154055
O O15 0.500000 0.500000 0.500000
#
# Coordination Sequence:
#
# PCOD9020514 Si02
#       7
#     2   2   2   2   2   2   2
#     4  10  22  36  58  92 113 154 199 247 286 351
#     4   9  21  37  57  82 118 161 188 243 292 347
#     4   9  23  38  54  79 124 165 197 235 290 338
#     4   9  21  38  56  80 117 153 204 245 280 332
#     4  11  22  36  58  83 123 164 199 230 296 349
#     4   9  19  39  62  89 115 147 194 249 299 344
#     4   9  19  37  65  88 114 145 195 247 301 349
#
# _framework density 25.598707000000001
#
# number of rings (size 3 to 8) (size 9 to 14) (size 15 to 20)
#    0.857    1.714    0.000    0.429    6.000    4.000 
#    0.000    0.714    0.000    8.571    0.000    0.000 
#    0.000    0.000    0.000    0.000    0.000    0.000 
#
# Total GULP energy -78018.117134 kJ/mol
# GULP energy per Si atom -5572.722652 kJ/mol
# Density = 2.554044 g / cm^3
# Si number density = 25.598707 Si / 1000 Ang^3
#
#
#
# Elastic Constant Matrix: (Units=GPa)
#
#
# Indices 1 2 3 4 5 6 
#
# 1 174.5988 66.7208 39.7600 43.7498 38.5640 5.5229
# 2 66.7208 172.2258 44.7371 48.9915 16.8168 -17.2995
# 3 39.7600 44.7371 44.9631 27.1049 9.8571 4.1769
# 4 43.7498 48.9915 27.1049 46.1411 -4.9543 8.0460
# 5 38.5640 16.8168 9.8571 -4.9543 36.7396 6.7083
# 6 5.5229 -17.2995 4.1769 8.0460 6.7083 31.2077
#
#
#
# Elastic Compliance Matrix: (Units=1/GPa)
#
#
# Indices 1 2 3 4 5 6 
#
# 1 0.013795 0.003341 0.000759 -0.020891 -0.020700 0.009145
# 2 0.003341 0.014516 -0.002480 -0.021696 -0.015461 0.016704
# 3 0.000759 -0.002480 0.041931 -0.024714 -0.014683 0.002407
# 4 -0.020891 -0.021696 -0.024714 0.092551 0.058541 -0.041467
# 5 -0.020700 -0.015461 -0.014683 0.058541 0.074057 -0.033954
# 6 0.009145 0.016704 0.002407 -0.041467 -0.033954 0.057352
#
#
# Mechanical properties :
#
#
# Convention : Reuss Voigt Hill
#
# Bulk Modulus (GPa) = 13.60908 77.13596 45.37252
# Shear Modulus (GPa) = 15.85004 38.85569 27.35287
#
# Velocity S-wave (km/s) = 2.49102 3.90022 3.27238
# Velocity P-wave (km/s) = 3.68801 7.10496 5.66047
#
# Compressibility (1/GPa) = 0.07348034
#
# Stress axis : x y z
#
# Youngs Moduli (GPa) = 72.48798 68.89149 23.84893
#
# Poissons Ratio (x) = -0.23016 -0.01810
# Poissons Ratio (y) = -0.24217 0.05915
# Poissons Ratio (z) = -0.05501 0.17087
#
# Static dielectric constant tensor:
#      x y z
#    x 2.154950 0.128720 -0.088110 
#    y 0.128720 2.072890 -0.089290 
#    z -0.088110 -0.089290 2.119010 
# 
# From -- ./inp_files/354782.got.cif
#   From: 2010.05.17/outbox.cif.g08.bks.cpg/sg2_178_cif.got.tgz:354782.got - 2010.06.03 11:33:40.
