data_PCOD9020337
_publ_section_title
;
Structure prediction by ZEFSAII (Michael W. Deem and Ramdas Pophale) SiO2 
 PCOD9020337
Probable space group: P -1
;
_chemical_formula_sum "Si O2"
_cell_formula_units_Z 16
_cell_length_a 11.899336
_cell_length_b 7.560023
_cell_length_c 12.898545
_cell_angle_alpha 44.863714
_cell_angle_beta 121.408202
_cell_angle_gamma 103.053744
_cell_volume 678.462754
_symmetry_space_group_name_H-M "P -1"
_symmetry_group_IT_number 2
_symmetry_cell_setting 'triclinic'
loop_
_space_group_symop_operation_xyz
x,y,z
-x,-y,-z
loop_
_atom_site_type_symbol
_atom_site_label
_atom_site_fract_x
_atom_site_fract_y
_atom_site_fract_z
Si Si1 0.566116 0.619057 0.172230
Si Si2 0.073025 0.236554 0.588021
Si Si3 0.949132 0.717508 0.025303
Si Si4 0.699260 0.060290 0.035160
Si Si5 0.774936 0.186319 0.809107
Si Si6 0.921237 0.853797 0.716913
Si Si7 0.334111 0.333257 0.567746
Si Si8 0.393742 0.986888 0.547257
O O1 0.593469 0.671398 0.285446
O O2 0.598399 0.314392 0.299002
O O3 0.651541 0.803300 0.084927
O O4 0.410973 0.761179 0.017963
O O5 0.184552 0.279883 0.541016
O O6 0.000000 0.500000 0.500000
O O7 0.163410 0.048154 0.793659
O O8 0.956737 0.087087 0.572347
O O9 0.076305 0.756915 0.136867
O O10 0.978712 0.411913 0.160763
O O11 0.946886 0.842215 0.857981
O O12 0.808011 0.880676 0.933921
O O13 0.714275 0.235715 0.872850
O O14 0.690097 0.376113 0.607034
O O15 0.760877 0.876173 0.617681
O O16 0.411640 0.138425 0.598800
O O17 0.500000 0.000000 0.500000
#
# Coordination Sequence:
#
# PCOD9020337 Si02
#       8
#     2   2   2   2   2   2   2   2
#     4  10  24  45  66  95 133 177 228 267 333 392
#     4  11  23  42  72  98 139 173 213 281 347 397
#     4  10  22  34  62  93 129 162 217 271 328 399
#     4  10  22  42  68  93 130 178 215 273 327 401
#     4  11  20  39  62  95 130 169 216 268 336 389
#     4  11  22  41  60  99 130 172 219 271 340 395
#     4  11  25  44  68 105 133 176 227 277 329 404
#     4  12  26  43  67  97 137 179 225 278 330 396
#
# _framework density 23.582725
#
# number of rings (size 3 to 8) (size 9 to 14) (size 15 to 20)
#    0.000    1.250    2.500    3.750    1.750    4.500 
#    0.000    5.625    0.000    0.000    0.000    0.000 
#    0.000    0.000    0.000    0.000    0.000    0.000 
#
# Total GULP energy -89385.281023 kJ/mol
# GULP energy per Si atom -5586.580064 kJ/mol
# Density = 2.352905 g / cm^3
# Si number density = 23.582725 Si / 1000 Ang^3
#
#
#
# Elastic Constant Matrix: (Units=GPa)
#
#
# Indices 1 2 3 4 5 6 
#
# 1 95.0550 24.2881 17.7061 -13.3125 -6.0056 -6.1708
# 2 24.2881 73.0173 19.9452 -25.3935 13.6303 -16.3184
# 3 17.7061 19.9452 102.5838 -13.4194 -1.1898 0.5610
# 4 -13.3125 -25.3935 -13.4194 33.0759 -0.0393 4.9685
# 5 -6.0056 13.6303 -1.1898 -0.0393 26.1372 -2.0225
# 6 -6.1708 -16.3184 0.5610 4.9685 -2.0225 24.6699
#
#
#
# Elastic Compliance Matrix: (Units=1/GPa)
#
#
# Indices 1 2 3 4 5 6 
#
# 1 0.012316 -0.004198 -0.001094 0.001222 0.005009 0.000494
# 2 -0.004198 0.026704 -0.002620 0.015881 -0.014032 0.012325
# 3 -0.001094 -0.002620 0.010780 0.002314 0.001408 -0.002603
# 4 0.001222 0.015881 0.002314 0.043647 -0.007727 0.001334
# 5 0.005009 -0.014032 0.001408 -0.007727 0.046573 -0.002687
# 6 0.000494 0.012325 -0.002603 0.001334 -0.002687 0.048381
#
#
# Mechanical properties :
#
#
# Convention : Reuss Voigt Hill
#
# Bulk Modulus (GPa) = 29.43260 43.83721 36.63491
# Shear Modulus (GPa) = 23.19630 30.69105 26.94368
#
# Velocity S-wave (km/s) = 3.13966 3.61143 3.38378
# Velocity P-wave (km/s) = 5.06468 6.00158 5.55293
#
# Compressibility (1/GPa) = 0.03397593
#
# Stress axis : x y z
#
# Youngs Moduli (GPa) = 81.19292 37.44712 92.76666
#
# Poissons Ratio (x) = 0.15719 0.10152
# Poissons Ratio (y) = 0.34082 0.24307
# Poissons Ratio (z) = 0.08886 0.09812
#
# Static dielectric constant tensor:
#      x y z
#    x 2.042090 -0.001800 -0.000630 
#    y -0.001800 1.979420 0.003400 
#    z -0.000630 0.003400 1.852220 
# 
# From -- ./inp_files/513968.got.cif
#   From: 2010.05.17/outbox.cif.g08.bks.cpg/sg2_257_cif.got.tgz:513968.got - 2010.06.03 11:33:40.
