data_PCOD9020951
_publ_section_title
;
Structure prediction by ZEFSAII (Michael W. Deem and Ramdas Pophale) SiO2 
 PCOD9020951
Probable space group: P -1
;
_chemical_formula_sum "Si O2"
_cell_formula_units_Z 14
_cell_length_a 6.569117
_cell_length_b 7.885773
_cell_length_c 15.261073
_cell_angle_alpha 56.429882
_cell_angle_beta 79.757741
_cell_angle_gamma 77.985821
_cell_volume 642.366112
_symmetry_space_group_name_H-M "P -1"
_symmetry_group_IT_number 2
_symmetry_cell_setting 'triclinic'
loop_
_space_group_symop_operation_xyz
x,y,z
-x,-y,-z
loop_
_atom_site_type_symbol
_atom_site_label
_atom_site_fract_x
_atom_site_fract_y
_atom_site_fract_z
Si Si1 0.997174 0.827596 0.437375
Si Si2 0.644119 0.967102 0.732079
Si Si3 0.103800 0.403632 0.760713
Si Si4 0.735327 0.235877 0.393879
Si Si5 0.442122 0.139129 0.880941
Si Si6 0.365360 0.438926 0.262684
Si Si7 0.351367 0.334262 0.583808
O O1 0.152042 0.740399 0.527864
O O2 0.854980 0.670838 0.454287
O O3 0.138315 0.938564 0.326389
O O4 0.820980 0.001678 0.438276
O O5 0.647457 0.734240 0.762523
O O6 0.553162 0.018446 0.822005
O O7 0.487771 0.110610 0.638748
O O8 0.152180 0.627749 0.723799
O O9 0.190317 0.210349 0.869191
O O10 0.269294 0.361671 0.681225
O O11 0.868632 0.450757 0.732952
O O12 0.493046 0.313409 0.368756
O O13 0.522791 0.361376 0.823702
O O14 0.500000 0.000000 0.000000
O O15 0.500000 0.500000 0.500000
#
# Coordination Sequence:
#
# PCOD9020951 Si02
#       7
#     2   2   2   2   2   2   2
#     4  11  22  39  63  96 134 179 232 266 322 391
#     4  11  23  42  70  96 132 185 224 281 342 403
#     4  10  22  42  66  92 132 174 222 279 342 395
#     4  10  22  37  62  97 133 176 220 279 312 390
#     4  10  25  46  68 101 131 167 229 295 351 412
#     4  11  22  44  70  97 135 179 225 280 346 407
#     4  11  24  42  62  96 138 186 229 275 328 403
#
# _framework density 21.794423999999999
#
# number of rings (size 3 to 8) (size 9 to 14) (size 15 to 20)
#    0.000    1.429    2.857    1.714    0.000    8.571 
#    0.000    4.286    0.000    0.000    0.000    0.000 
#    0.000    0.000    0.000    0.000    0.000    0.000 
#
# Total GULP energy -77977.771040 kJ/mol
# GULP energy per Si atom -5569.840789 kJ/mol
# Density = 2.174482 g / cm^3
# Si number density = 21.794424 Si / 1000 Ang^3
#
#
#
# Elastic Constant Matrix: (Units=GPa)
#
#
# Indices 1 2 3 4 5 6 
#
# 1 159.9081 57.2710 60.9110 -1.0623 20.3287 -7.4390
# 2 57.2710 120.8330 49.0667 -10.1496 5.1286 8.7662
# 3 60.9110 49.0667 109.1498 -6.2855 27.9087 -2.0685
# 4 -1.0623 -10.1496 -6.2855 25.4336 -2.8290 7.9584
# 5 20.3287 5.1286 27.9087 -2.8290 31.1296 -10.8296
# 6 -7.4390 8.7662 -2.0685 7.9584 -10.8296 38.1840
#
#
#
# Elastic Compliance Matrix: (Units=1/GPa)
#
#
# Indices 1 2 3 4 5 6 
#
# 1 0.008962 -0.003283 -0.003143 -0.002658 -0.001922 0.002338
# 2 -0.003283 0.012110 -0.004150 0.005218 0.002993 -0.003883
# 3 -0.003143 -0.004150 0.015986 0.001613 -0.012367 -0.002637
# 4 -0.002658 0.005218 0.001613 0.045133 -0.000341 -0.011132
# 5 -0.001922 0.002993 -0.012367 -0.000341 0.048112 0.011985
# 6 0.002338 -0.003883 -0.002637 -0.011132 0.011985 0.033112
#
#
# Mechanical properties :
#
#
# Convention : Reuss Voigt Hill
#
# Bulk Modulus (GPa) = 62.86673 80.48759 71.67716
# Shear Modulus (GPa) = 26.33390 33.79226 30.06308
#
# Velocity S-wave (km/s) = 3.47981 3.94191 3.71805
# Velocity P-wave (km/s) = 6.71218 7.59794 7.16876
#
# Compressibility (1/GPa) = 0.01590667
#
# Stress axis : x y z
#
# Youngs Moduli (GPa) = 111.58350 82.57552 62.55377
#
# Poissons Ratio (x) = 0.27108 0.19659
# Poissons Ratio (y) = 0.36630 0.25962
# Poissons Ratio (z) = 0.35068 0.34271
#
# Static dielectric constant tensor:
#      x y z
#    x 1.883640 0.003140 0.006880 
#    y 0.003140 1.915060 0.002110 
#    z 0.006880 0.002110 1.817940 
# 
# From -- ./inp_files/479787.got.cif
#   From: 2010.05.17/outbox.cif.g08.bks.cpg/sg2_240_cif.got.tgz:479787.got - 2010.06.03 11:33:40.
