data_PCOD9020204
_publ_section_title
;
Structure prediction by ZEFSAII (Michael W. Deem and Ramdas Pophale) SiO2 
 PCOD9020204
Probable space group: P -1
;
_chemical_formula_sum "Si O2"
_cell_formula_units_Z 16
_cell_length_a 8.893942
_cell_length_b 19.668162
_cell_length_c 9.605343
_cell_angle_alpha 66.067078
_cell_angle_beta 62.350301
_cell_angle_gamma 30.626705
_cell_volume 758.157931
_symmetry_space_group_name_H-M "P -1"
_symmetry_group_IT_number 2
_symmetry_cell_setting 'triclinic'
loop_
_space_group_symop_operation_xyz
x,y,z
-x,-y,-z
loop_
_atom_site_type_symbol
_atom_site_label
_atom_site_fract_x
_atom_site_fract_y
_atom_site_fract_z
Si Si1 0.273009 0.537532 0.663088
Si Si2 0.497113 0.287239 0.772243
Si Si3 0.133358 0.372543 0.600849
Si Si4 0.310892 0.173910 0.380061
Si Si5 0.099846 0.086000 0.499757
Si Si6 0.692870 0.215556 0.311913
Si Si7 0.489223 0.463165 0.184511
Si Si8 0.682807 0.138923 0.083885
O O1 0.500000 0.500000 0.500000
O O2 0.383789 0.413144 0.721198
O O3 0.298284 0.566875 0.778106
O O4 0.940553 0.670049 0.629815
O O5 0.261271 0.331546 0.736799
O O6 0.829923 0.161012 0.660054
O O7 0.511801 0.250255 0.951037
O O8 0.438065 0.261635 0.468190
O O9 0.000000 0.500000 0.500000
O O10 0.850487 0.418384 0.697766
O O11 0.131798 0.163011 0.441081
O O12 0.500476 0.130154 0.201255
O O13 0.569287 0.065418 0.474763
O O14 0.987566 0.106943 0.376052
O O15 0.595659 0.337880 0.236406
O O16 0.726005 0.166860 0.187258
O O17 0.500000 0.500000 0.000000
O O18 0.000000 0.000000 0.000000
#
# Coordination Sequence:
#
# PCOD9020204 Si02
#       8
#     2   2   2   2   2   2   2   2
#     4  12  23  40  70 102 131 173 226 271 329 400
#     4  11  23  43  67  98 136 172 218 284 331 397
#     4   9  21  40  64  92 131 175 217 262 334 397
#     4  11  24  41  73  96 132 176 226 267 340 396
#     4  10  21  47  70  95 131 178 228 270 325 411
#     4  10  22  44  67  93 132 179 223 278 325 404
#     4  11  23  40  60 101 140 170 211 278 337 395
#     4  12  27  45  65  98 138 176 226 282 343 394
#
# _framework density 21.103781000000001
#
# number of rings (size 3 to 8) (size 9 to 14) (size 15 to 20)
#    0.000    1.250    3.750    2.250    7.000    1.000 
#    0.000    0.625    0.000    0.000    0.000    0.000 
#    0.000    0.000    0.000    0.000    0.000    0.000 
#
# Total GULP energy -89377.261515 kJ/mol
# GULP energy per Si atom -5586.078845 kJ/mol
# Density = 2.105575 g / cm^3
# Si number density = 21.103781 Si / 1000 Ang^3
#
#
#
# Elastic Constant Matrix: (Units=GPa)
#
#
# Indices 1 2 3 4 5 6 
#
# 1 93.4634 24.0211 32.2274 -10.3657 28.1761 -16.1326
# 2 24.0211 80.1229 26.3883 -13.5171 20.0676 -16.5565
# 3 32.2274 26.3883 129.3502 -17.6714 23.3999 -12.7601
# 4 -10.3657 -13.5171 -17.6714 38.1482 -4.2504 1.8687
# 5 28.1761 20.0676 23.3999 -4.2504 44.4749 -0.7304
# 6 -16.1326 -16.5565 -12.7601 1.8687 -0.7304 43.1551
#
#
#
# Elastic Compliance Matrix: (Units=1/GPa)
#
#
# Indices 1 2 3 4 5 6 
#
# 1 0.014806 -0.000660 -0.001352 0.002033 -0.008101 0.004657
# 2 -0.000660 0.016326 -0.000977 0.004224 -0.005941 0.005445
# 3 -0.001352 -0.000977 0.009485 0.003221 -0.003357 0.001728
# 4 0.002033 0.004224 0.003221 0.029428 -0.002043 0.002024
# 5 -0.008101 -0.005941 -0.003357 -0.002043 0.031775 -0.005674
# 6 0.004657 0.005445 0.001728 0.002024 -0.005674 0.027329
#
#
# Mechanical properties :
#
#
# Convention : Reuss Voigt Hill
#
# Bulk Modulus (GPa) = 28.86836 52.02333 40.44585
# Shear Modulus (GPa) = 34.08911 39.84228 36.96570
#
# Velocity S-wave (km/s) = 4.02345 4.34974 4.18977
# Velocity P-wave (km/s) = 5.94080 7.06623 6.52782
#
# Compressibility (1/GPa) = 0.03464000
#
# Stress axis : x y z
#
# Youngs Moduli (GPa) = 67.53829 61.25100 105.43029
#
# Poissons Ratio (x) = 0.04040 0.14253
# Poissons Ratio (y) = 0.04455 0.10304
# Poissons Ratio (z) = 0.09130 0.05986
#
# Static dielectric constant tensor:
#      x y z
#    x 1.749580 -0.015920 0.007940 
#    y -0.015920 1.791000 0.002850 
#    z 0.007940 0.002850 1.745410 
# 
# From -- ./inp_files/223394.got.cif
#   From: 2010.05.17/outbox.cif.g08.bks.cpg/sg2_112_cif.got.tgz:223394.got - 2010.06.03 11:33:40.
