data_PCOD9020891
_publ_section_title
;
Structure prediction by ZEFSAII (Michael W. Deem and Ramdas Pophale) SiO2 
 PCOD9020891
Probable space group: P -1
;
_chemical_formula_sum "Si O2"
_cell_formula_units_Z 16
_cell_length_a 7.447296
_cell_length_b 14.000587
_cell_length_c 10.855634
_cell_angle_alpha 124.573207
_cell_angle_beta 99.024260
_cell_angle_gamma 122.017736
_cell_volume 596.699896
_symmetry_space_group_name_H-M "P -1"
_symmetry_group_IT_number 2
_symmetry_cell_setting 'triclinic'
loop_
_space_group_symop_operation_xyz
x,y,z
-x,-y,-z
loop_
_atom_site_type_symbol
_atom_site_label
_atom_site_fract_x
_atom_site_fract_y
_atom_site_fract_z
Si Si1 0.672178 0.347085 0.017620
Si Si2 0.460296 0.620289 0.219866
Si Si3 0.776407 0.820719 0.958872
Si Si4 0.025920 0.874294 0.380019
Si Si5 0.704908 0.498627 0.474437
Si Si6 0.004642 0.683724 0.879175
Si Si7 0.704055 0.898032 0.656597
Si Si8 0.872782 0.268870 0.530314
O O1 0.706807 0.234919 0.993185
O O2 0.955235 0.555058 0.236393
O O3 0.631447 0.331320 0.856350
O O4 0.406483 0.273488 0.004051
O O5 0.194257 0.428629 0.106000
O O6 0.597994 0.742399 0.445437
O O7 0.709857 0.672916 0.218075
O O8 0.515111 0.702449 0.750116
O O9 0.958362 0.794808 0.924972
O O10 0.045190 0.028645 0.176001
O O11 0.183098 0.872365 0.496160
O O12 0.160482 0.944136 0.311221
O O13 0.000000 0.000000 0.500000
O O14 0.500000 0.500000 0.500000
O O15 0.893359 0.559922 0.656687
O O16 0.909629 0.640975 0.492544
O O17 0.421361 0.822878 0.615908
#
# Coordination Sequence:
#
# PCOD9020891 Si02
#       8
#     2   2   2   2   2   2   2   2
#     4  11  23  40  67 100 133 172 225 274 331 396
#     4  11  22  41  63  99 138 171 216 274 332 400
#     4  10  23  41  66  95 129 173 223 275 331 392
#     4  10  22  37  61  91 137 174 203 261 342 394
#     4   9  21  45  69  93 127 175 231 274 322 388
#     4  11  23  42  71  94 130 178 230 275 323 391
#     4  11  23  41  60  98 140 168 211 273 344 392
#     4  11  23  40  67  98 131 174 223 274 326 398
#
# _framework density 26.814149
#
# number of rings (size 3 to 8) (size 9 to 14) (size 15 to 20)
#    0.000    1.500    2.500    3.000    1.750    5.000 
#    0.000    3.125    0.000    0.000    0.000    0.000 
#    0.000    0.000    0.000    0.000    0.000    0.000 
#
# Total GULP energy -89428.189688 kJ/mol
# GULP energy per Si atom -5589.261855 kJ/mol
# Density = 2.675312 g / cm^3
# Si number density = 26.814149 Si / 1000 Ang^3
#
#
#
# Elastic Constant Matrix: (Units=GPa)
#
#
# Indices 1 2 3 4 5 6 
#
# 1 98.5030 29.9633 37.1489 -7.1016 22.0788 1.5817
# 2 29.9633 112.4026 10.4370 4.1512 5.1572 11.1640
# 3 37.1489 10.4370 133.8595 -6.0155 14.8867 -2.3276
# 4 -7.1016 4.1512 -6.0155 34.5753 -2.2054 13.2035
# 5 22.0788 5.1572 14.8867 -2.2054 40.1713 -2.1635
# 6 1.5817 11.1640 -2.3276 13.2035 -2.1635 48.9131
#
#
#
# Elastic Compliance Matrix: (Units=1/GPa)
#
#
# Indices 1 2 3 4 5 6 
#
# 1 0.013705 -0.003134 -0.002788 0.002644 -0.005997 -0.000840
# 2 -0.003134 0.009946 -0.000021 -0.001114 0.000292 -0.001856
# 3 -0.002788 -0.000021 0.008454 0.000712 -0.001546 0.000237
# 4 0.002644 -0.001114 0.000712 0.033041 -0.000230 -0.008727
# 5 -0.005997 0.000292 -0.001546 -0.000230 0.028787 0.001389
# 6 -0.000840 -0.001856 0.000237 -0.008727 0.001389 0.023324
#
#
# Mechanical properties :
#
#
# Convention : Reuss Voigt Hill
#
# Bulk Modulus (GPa) = 49.45495 55.54042 52.49768
# Shear Modulus (GPa) = 36.79699 42.54633 39.67166
#
# Velocity S-wave (km/s) = 3.70847 3.98768 3.85061
# Velocity P-wave (km/s) = 6.06800 6.47767 6.27618
#
# Compressibility (1/GPa) = 0.02022042
#
# Stress axis : x y z
#
# Youngs Moduli (GPa) = 72.96657 100.54365 118.28898
#
# Poissons Ratio (x) = 0.31506 0.32978
# Poissons Ratio (y) = 0.22865 0.00244
# Poissons Ratio (z) = 0.20342 0.00208
#
# Static dielectric constant tensor:
#      x y z
#    x 2.124990 -0.058050 -0.069380 
#    y -0.058050 2.116540 0.016260 
#    z -0.069380 0.016260 2.243810 
# 
# From -- ./inp_files/403153.got.cif
#   From: 2010.05.17/outbox.cif.g08.bks.cpg/sg2_202_cif.got.tgz:403153.got - 2010.06.03 11:33:40.
