data_PCOD9020442
_publ_section_title
;
Structure prediction by ZEFSAII (Michael W. Deem and Ramdas Pophale) SiO2 
 PCOD9020442
Probable space group: P -1
;
_chemical_formula_sum "Si O2"
_cell_formula_units_Z 16
_cell_length_a 29.005279
_cell_length_b 5.163329
_cell_length_c 21.314439
_cell_angle_alpha 79.699817
_cell_angle_beta 159.921964
_cell_angle_gamma 88.856376
_cell_volume 895.967608
_symmetry_space_group_name_H-M "P -1"
_symmetry_group_IT_number 2
_symmetry_cell_setting 'triclinic'
loop_
_space_group_symop_operation_xyz
x,y,z
-x,-y,-z
loop_
_atom_site_type_symbol
_atom_site_label
_atom_site_fract_x
_atom_site_fract_y
_atom_site_fract_z
Si Si1 0.605538 0.608082 0.597210
Si Si2 0.260200 0.793194 0.340965
Si Si3 0.100251 0.829668 0.824004
Si Si4 0.742471 0.924294 0.051839
Si Si5 0.111075 0.774772 0.706868
Si Si6 0.044805 0.773291 0.893401
Si Si7 0.552632 0.837487 0.718004
Si Si8 0.033973 0.684116 0.133438
O O1 0.500000 0.500000 0.500000
O O2 0.674299 0.413899 0.629009
O O3 0.500100 0.966755 0.422687
O O4 0.764885 0.504425 0.844204
O O5 0.406725 0.807801 0.552424
O O6 0.188733 0.650798 0.301349
O O7 0.109233 0.137396 0.109456
O O8 0.278555 0.498622 0.062833
O O9 0.017915 0.848311 0.651628
O O10 0.015814 0.851670 0.779481
O O11 0.140354 0.095290 0.853793
O O12 0.810655 0.593471 0.187721
O O13 0.753047 0.154719 0.103853
O O14 0.586388 0.007708 0.809791
O O15 0.000000 0.000000 0.500000
O O16 0.951460 0.629543 0.810855
O O17 0.014432 0.071750 0.881180
#
# Coordination Sequence:
#
# PCOD9020442 Si02
#       8
#     2   2   2   2   2   2   2   2
#     4  11  23  31  53  74 103 142 180 219 268 310
#     4  10  22  36  50  69  99 139 190 229 259 297
#     4   9  22  32  53  79 109 137 164 221 255 317
#     4   9  19  31  49  78 107 134 166 204 254 307
#     4   9  18  33  53  76 109 142 160 194 256 329
#     4  11  22  37  51  73 103 136 187 220 260 300
#     4  11  19  34  51  75 108 138 175 218 266 297
#     4  10  24  37  52  69  94 146 187 228 258 297
#
# _framework density 17.857789
#
# number of rings (size 3 to 8) (size 9 to 14) (size 15 to 20)
#    0.750    1.250    1.250    2.625    8.750    2.500 
#    0.000    0.000    0.000    0.000    0.000    0.000 
#    0.000   14.000    0.000    0.000    0.000    0.000 
#
# Total GULP energy -89165.247990 kJ/mol
# GULP energy per Si atom -5572.827999 kJ/mol
# Density = 1.781714 g / cm^3
# Si number density = 17.857789 Si / 1000 Ang^3
#
#
#
# Elastic Constant Matrix: (Units=GPa)
#
#
# Indices 1 2 3 4 5 6 
#
# 1 78.3352 7.3898 32.6879 3.2008 -8.1983 18.0421
# 2 7.3898 78.3199 7.5983 5.3766 -4.7315 13.9203
# 3 32.6879 7.5983 28.3786 5.3885 -6.0878 8.1422
# 4 3.2008 5.3766 5.3885 26.4953 7.0119 -0.6557
# 5 -8.1983 -4.7315 -6.0878 7.0119 28.2517 -0.5194
# 6 18.0421 13.9203 8.1422 -0.6557 -0.5194 29.1626
#
#
#
# Elastic Compliance Matrix: (Units=1/GPa)
#
#
# Indices 1 2 3 4 5 6 
#
# 1 0.026808 0.001898 -0.028708 0.001629 0.001333 -0.009415
# 2 0.001898 0.014614 -0.002560 -0.003714 0.003231 -0.007461
# 3 -0.028708 -0.002560 0.074528 -0.014064 0.010755 -0.001950
# 4 0.001629 -0.003714 -0.014064 0.045070 -0.014266 0.005451
# 5 0.001333 0.003231 0.010755 -0.014266 0.042092 -0.004941
# 6 -0.009415 -0.007461 -0.001950 0.005451 -0.004941 0.044256
#
#
# Mechanical properties :
#
#
# Convention : Reuss Voigt Hill
#
# Bulk Modulus (GPa) = 17.47984 31.15395 24.31690
# Shear Modulus (GPa) = 15.37624 25.93911 20.65767
#
# Velocity S-wave (km/s) = 2.93753 3.81535 3.40485
# Velocity P-wave (km/s) = 4.61682 6.07393 5.39480
#
# Compressibility (1/GPa) = 0.05720875
#
# Stress axis : x y z
#
# Youngs Moduli (GPa) = 37.30278 68.42897 13.41775
#
# Poissons Ratio (x) = -0.12987 0.38520
# Poissons Ratio (y) = -0.07080 0.03435
# Poissons Ratio (z) = 1.07090 0.17517
#
# Static dielectric constant tensor:
#      x y z
#    x 1.634350 -0.020680 -0.005080 
#    y -0.020680 1.695810 -0.010620 
#    z -0.005080 -0.010620 1.613180 
# 
# From -- ./inp_files/602192.got.cif
#   From: 2010.05.17/outbox.cif.g08.bks.cpg/sg2_302_cif.got.tgz:602192.got - 2010.06.03 11:33:40.
