data_PCOD9020760
_publ_section_title
;
Structure prediction by ZEFSAII (Michael W. Deem and Ramdas Pophale) SiO2 
 PCOD9020760
Probable space group: P -1
;
_chemical_formula_sum "Si O2"
_cell_formula_units_Z 16
_cell_length_a 15.183075
_cell_length_b 6.338391
_cell_length_c 8.760914
_cell_angle_alpha 102.630618
_cell_angle_beta 66.366997
_cell_angle_gamma 108.459628
_cell_volume 728.570797
_symmetry_space_group_name_H-M "P -1"
_symmetry_group_IT_number 2
_symmetry_cell_setting 'triclinic'
loop_
_space_group_symop_operation_xyz
x,y,z
-x,-y,-z
loop_
_atom_site_type_symbol
_atom_site_label
_atom_site_fract_x
_atom_site_fract_y
_atom_site_fract_z
Si Si1 0.577081 0.120225 0.594517
Si Si2 0.412106 0.301856 0.874916
Si Si3 0.399540 0.055578 0.137039
Si Si4 0.063246 0.975004 0.805154
Si Si5 0.965449 0.760209 0.405864
Si Si6 0.281390 0.619372 0.995452
Si Si7 0.098466 0.440372 0.282784
Si Si8 0.734978 0.133814 0.251920
O O1 0.521637 0.288129 0.743243
O O2 0.594682 0.947548 0.685063
O O3 0.678008 0.211405 0.445486
O O4 0.500000 0.000000 0.500000
O O5 0.338155 0.088415 0.809010
O O6 0.376560 0.519628 0.891180
O O7 0.395960 0.260367 0.061621
O O8 0.312284 0.842456 0.112081
O O9 0.500000 0.000000 0.000000
O O10 0.166696 0.928195 0.770896
O O11 0.993906 0.759271 0.736034
O O12 0.076305 0.188897 0.719180
O O13 0.000000 0.000000 0.000000
O O14 0.891696 0.597902 0.549460
O O15 0.061326 0.661170 0.309883
O O16 0.000000 0.000000 0.500000
O O17 0.195368 0.445641 0.118436
O O18 0.245585 0.685343 0.868047
#
# Coordination Sequence:
#
# PCOD9020760 Si02
#       8
#     2   2   2   2   2   2   2   2
#     4   9  19  38  59  82 114 146 183 239 290 337
#     4   9  20  39  60  82 114 154 193 234 288 345
#     4   9  20  38  59  82 112 149 194 238 283 341
#     4  11  22  37  60  87 121 159 193 240 299 348
#     4   9  21  40  59  79 115 157 196 243 293 340
#     4  11  22  37  60  86 115 153 195 236 285 348
#     4  10  22  39  59  87 119 154 201 245 284 348
#     4  10  22  37  56  85 118 152 192 239 290 343
#
# _framework density 21.960804
#
# number of rings (size 3 to 8) (size 9 to 14) (size 15 to 20)
#    0.000    2.250    0.000    2.250    0.000   12.500 
#    0.000    2.500    0.000    1.500    0.000    0.000 
#    0.000    0.000    0.000    0.000    0.000    0.000 
#
# Total GULP energy -89332.152759 kJ/mol
# GULP energy per Si atom -5583.259547 kJ/mol
# Density = 2.191082 g / cm^3
# Si number density = 21.960804 Si / 1000 Ang^3
#
#
#
# Elastic Constant Matrix: (Units=GPa)
#
#
# Indices 1 2 3 4 5 6 
#
# 1 114.8447 34.4644 67.0528 -26.6744 -3.8364 -25.4563
# 2 34.4644 58.9717 32.4254 -3.4855 6.6089 -24.8115
# 3 67.0528 32.4254 140.9893 -31.0897 3.7110 -23.0909
# 4 -26.6744 -3.4855 -31.0897 37.7920 -6.8745 9.4479
# 5 -3.8364 6.6089 3.7110 -6.8745 41.3393 -5.0639
# 6 -25.4563 -24.8115 -23.0909 9.4479 -5.0639 43.5890
#
#
#
# Elastic Compliance Matrix: (Units=1/GPa)
#
#
# Indices 1 2 3 4 5 6 
#
# 1 0.015025 -0.005581 -0.004051 0.006894 0.004095 0.002433
# 2 -0.005581 0.026877 -0.003250 -0.007812 -0.004413 0.011498
# 3 -0.004051 -0.003250 0.011139 0.005933 0.000182 0.000420
# 4 0.006894 -0.007812 0.005933 0.037946 0.007093 -0.004678
# 5 0.004095 -0.004413 0.000182 0.007093 0.026626 0.001531
# 6 0.002433 0.011498 0.000420 -0.004678 0.001531 0.032322
#
#
# Mechanical properties :
#
#
# Convention : Reuss Voigt Hill
#
# Bulk Modulus (GPa) = 36.66258 64.74341 50.70299
# Shear Modulus (GPa) = 27.05742 36.60159 31.82950
#
# Velocity S-wave (km/s) = 3.51390 4.08693 3.81120
# Velocity P-wave (km/s) = 5.76144 7.19833 6.51959
#
# Compressibility (1/GPa) = 0.02727577
#
# Stress axis : x y z
#
# Youngs Moduli (GPa) = 66.55600 37.20713 89.77363
#
# Poissons Ratio (x) = 0.20766 0.36369
# Poissons Ratio (y) = 0.37145 0.29178
# Poissons Ratio (z) = 0.26963 0.12093
#
# Static dielectric constant tensor:
#      x y z
#    x 1.822710 0.020860 0.053170 
#    y 0.020860 1.925850 0.134640 
#    z 0.053170 0.134640 2.059780 
# 
# From -- ./inp_files/110565.got.cif
#   From: 2010.05.17/outbox.cif.g08.bks.cpg/sg2_56_cif.got.tgz:110565.got - 2010.06.03 11:33:40.
