data_PCOD9020801
_publ_section_title
;
Structure prediction by ZEFSAII (Michael W. Deem and Ramdas Pophale) SiO2 
 PCOD9020801
Probable space group: P -1
;
_chemical_formula_sum "Si O2"
_cell_formula_units_Z 16
_cell_length_a 17.220865
_cell_length_b 23.647718
_cell_length_c 8.872332
_cell_angle_alpha 30.975927
_cell_angle_beta 140.893204
_cell_angle_gamma 158.041086
_cell_volume 691.905714
_symmetry_space_group_name_H-M "P -1"
_symmetry_group_IT_number 2
_symmetry_cell_setting 'triclinic'
loop_
_space_group_symop_operation_xyz
x,y,z
-x,-y,-z
loop_
_atom_site_type_symbol
_atom_site_label
_atom_site_fract_x
_atom_site_fract_y
_atom_site_fract_z
Si Si1 0.236343 0.153108 0.149317
Si Si2 0.597694 0.514226 0.260975
Si Si3 0.648774 0.241449 0.246552
Si Si4 0.511648 0.650574 0.235411
Si Si5 0.318823 0.853582 0.788185
Si Si6 0.971361 0.760834 0.616803
Si Si7 0.423029 0.706577 0.453423
Si Si8 0.112803 0.475467 0.782451
O O1 0.352881 0.169111 0.424588
O O2 0.035514 0.933603 0.318463
O O3 0.221797 0.269247 0.915248
O O4 0.370775 0.257452 0.957515
O O5 0.438466 0.384361 0.459628
O O6 0.651402 0.430722 0.476141
O O7 0.500000 0.500000 0.000000
O O8 0.740196 0.247326 0.227117
O O9 0.814025 0.427092 0.167845
O O10 0.527985 0.071679 0.562721
O O11 0.490944 0.224432 0.000017
O O12 0.274236 0.433720 0.344337
O O13 0.140369 0.812522 0.656677
O O14 0.378331 0.799359 0.119823
O O15 0.001022 0.720717 0.913688
O O16 0.290340 0.585364 0.678656
O O17 0.000000 0.500000 0.500000
#
# Coordination Sequence:
#
# PCOD9020801 Si02
#       8
#     2   2   2   2   2   2   2   2
#     4  11  23  43  65  92 123 165 217 259 305 365
#     4  10  24  43  68  89 119 172 210 260 320 352
#     4  10  22  37  58  93 130 164 202 249 311 373
#     4  11  21  43  67  91 125 162 210 259 308 378
#     4  11  21  37  63  94 132 161 204 251 310 384
#     4  11  23  37  66  96 125 164 205 250 320 369
#     4  11  21  38  65  89 130 169 206 256 307 367
#     4  11  22  36  57  91 132 165 201 249 306 377
#
# _framework density 23.124538000000001
#
# number of rings (size 3 to 8) (size 9 to 14) (size 15 to 20)
#    0.000    1.250    6.250    0.375    1.750    4.500 
#    0.000    0.625    5.500    0.000    0.000    0.000 
#    0.000    0.000    0.000    0.000    0.000    0.000 
#
# Total GULP energy -89150.473164 kJ/mol
# GULP energy per Si atom -5571.904573 kJ/mol
# Density = 2.307191 g / cm^3
# Si number density = 23.124538 Si / 1000 Ang^3
#
#
#
# Elastic Constant Matrix: (Units=GPa)
#
#
# Indices 1 2 3 4 5 6 
#
# 1 -325.8948 48.5084 -143.9706 87.0801 117.0225 31.9112
# 2 48.5084 53.3290 50.2462 -16.5332 -13.5018 -11.0765
# 3 -143.9706 50.2462 111.2813 36.9427 48.8039 8.7342
# 4 87.0801 -16.5332 36.9427 12.6572 -32.0448 -6.6090
# 5 117.0225 -13.5018 48.8039 -32.0448 1.7553 -15.1967
# 6 31.9112 -11.0765 8.7342 -6.6090 -15.1967 16.2926
#
#
#
# Elastic Compliance Matrix: (Units=1/GPa)
#
#
# Indices 1 2 3 4 5 6 
#
# 1 0.004498 0.004407 -0.002848 0.007585 0.008313 0.006543
# 2 0.004407 0.018589 -0.002926 0.001435 -0.001418 0.004834
# 3 -0.002848 -0.002926 0.006240 -0.000059 0.000752 0.000921
# 4 0.007585 0.001435 -0.000059 0.028102 0.000170 -0.002291
# 5 0.008313 -0.001418 0.000752 0.000170 0.023384 0.004230
# 6 0.006543 0.004834 0.000921 -0.002291 0.004230 0.054370
#
#
# Mechanical properties :
#
#
# Convention : Reuss Voigt Hill
#
# Bulk Modulus (GPa) = 37.60140 -27.96850 4.81645
# Shear Modulus (GPa) = 34.06394 -1.59687 16.23353
#
# Velocity S-wave (km/s) = 3.84222 -0.83190 2.65241
# Velocity P-wave (km/s) = 5.99827 3.61161 3.38640
#
# Compressibility (1/GPa) = 0.02659475
#
# Stress axis : x y z
#
# Youngs Moduli (GPa) = 222.30835 53.79411 160.24682
#
# Poissons Ratio (x) = -0.23707 0.45636
# Poissons Ratio (y) = -0.97971 0.46885
# Poissons Ratio (z) = 0.63310 0.15739
#
# Static dielectric constant tensor:
#      x y z
#    x 1.870650 0.015000 0.153160 
#    y 0.015000 1.983210 0.124390 
#    z 0.153160 0.124390 2.053910 
# 
# From -- ./inp_files/318797.got.cif
#   From: 2010.05.17/outbox.cif.g08.bks.cpg/sg2_160_cif.got.tgz:318797.got - 2010.06.03 11:33:40.
